125702
  -OEChem-03292013323D

 59 62  0     1  0  0  0  0  0999 V2000
   -1.6532    1.9486   -0.9293 O   0  0  0  0  0  0  0  0  0  0  0  0
    1.3878    1.5495    0.9095 O   0  0  0  0  0  0  0  0  0  0  0  0
   -4.6018   -1.6476   -1.6261 O   0  0  0  0  0  0  0  0  0  0  0  0
    4.7840   -0.0037   -0.3580 O   0  0  0  0  0  0  0  0  0  0  0  0
    3.1229    0.3688   -1.8998 O   0  0  0  0  0  0  0  0  0  0  0  0
   -5.5968   -3.1700   -3.0123 O   0  0  0  0  0  0  0  0  0  0  0  0
    0.3286    3.4182    0.0479 N   0  0  0  0  0  0  0  0  0  0  0  0
   -2.4726    1.5824    1.2458 N   0  0  0  0  0  0  0  0  0  0  0  0
    3.6081    1.9255   -0.2456 N   0  0  0  0  0  0  0  0  0  0  0  0
   -0.8803    3.3111    0.8543 C   0  0  1  0  0  0  0  0  0  0  0  0
   -1.5645    4.6654    0.7081 C   0  0  0  0  0  0  0  0  0  0  0  0
   -1.1223    5.1391   -0.6742 C   0  0  0  0  0  0  0  0  0  0  0  0
    0.3035    4.6200   -0.7820 C   0  0  0  0  0  0  0  0  0  0  0  0
   -1.7052    2.2046    0.2692 C   0  0  0  0  0  0  0  0  0  0  0  0
    1.4034    2.5560    0.1990 C   0  0  0  0  0  0  0  0  0  0  0  0
    2.6393    2.9144   -0.5870 C   0  0  0  0  0  0  0  0  0  0  0  0
   -3.3711    0.5023    1.0765 C   0  0  0  0  0  0  0  0  0  0  0  0
   -3.5613   -0.0572   -0.1826 C   0  0  0  0  0  0  0  0  0  0  0  0
   -4.0678   -0.0050    2.1718 C   0  0  0  0  0  0  0  0  0  0  0  0
   -4.4517   -1.1227   -0.3269 C   0  0  0  0  0  0  0  0  0  0  0  0
   -5.1630   -1.6511    0.7513 C   0  0  0  0  0  0  0  0  0  0  0  0
   -4.9572   -1.0736    2.0114 C   0  0  0  0  0  0  0  0  0  0  0  0
    3.7784    0.7264   -0.9266 C   0  0  0  0  0  0  0  0  0  0  0  0
   -6.0792   -2.7735    0.5077 C   0  0  0  0  0  0  0  0  0  0  0  0
   -6.2021   -3.2523   -0.7383 C   0  0  0  0  0  0  0  0  0  0  0  0
   -6.8585   -3.3640    1.6464 C   0  0  0  0  0  0  0  0  0  0  0  0
   -5.4585   -2.7058   -1.8860 C   0  0  0  0  0  0  0  0  0  0  0  0
    5.0607   -1.2682   -0.9705 C   0  0  0  0  0  0  0  0  0  0  0  0
    6.1823   -1.9360   -0.2304 C   0  0  0  0  0  0  0  0  0  0  0  0
    7.5035   -1.7155   -0.6198 C   0  0  0  0  0  0  0  0  0  0  0  0
    5.9039   -2.7767    0.8473 C   0  0  0  0  0  0  0  0  0  0  0  0
    8.5462   -2.3360    0.0683 C   0  0  0  0  0  0  0  0  0  0  0  0
    6.9468   -3.3970    1.5354 C   0  0  0  0  0  0  0  0  0  0  0  0
    8.2679   -3.1766    1.1458 C   0  0  0  0  0  0  0  0  0  0  0  0
   -0.6089    3.0915    1.8926 H   0  0  0  0  0  0  0  0  0  0  0  0
   -2.6539    4.6223    0.8015 H   0  0  0  0  0  0  0  0  0  0  0  0
   -1.1815    5.3585    1.4671 H   0  0  0  0  0  0  0  0  0  0  0  0
   -1.7512    4.6802   -1.4462 H   0  0  0  0  0  0  0  0  0  0  0  0
   -1.1833    6.2247   -0.7912 H   0  0  0  0  0  0  0  0  0  0  0  0
    1.0192    5.3352   -0.3625 H   0  0  0  0  0  0  0  0  0  0  0  0
    0.5918    4.3877   -1.8108 H   0  0  0  0  0  0  0  0  0  0  0  0
    3.0193    3.8933   -0.2852 H   0  0  0  0  0  0  0  0  0  0  0  0
    2.4311    2.8871   -1.6598 H   0  0  0  0  0  0  0  0  0  0  0  0
   -2.4000    1.9320    2.1988 H   0  0  0  0  0  0  0  0  0  0  0  0
    4.2087    2.0996    0.5550 H   0  0  0  0  0  0  0  0  0  0  0  0
   -3.0583    0.2795   -1.0780 H   0  0  0  0  0  0  0  0  0  0  0  0
   -3.9294    0.4219    3.1622 H   0  0  0  0  0  0  0  0  0  0  0  0
   -5.4796   -1.4381    2.8921 H   0  0  0  0  0  0  0  0  0  0  0  0
   -6.8699   -4.0809   -0.9546 H   0  0  0  0  0  0  0  0  0  0  0  0
   -7.4986   -4.1907    1.3182 H   0  0  0  0  0  0  0  0  0  0  0  0
   -6.1856   -3.7621    2.4133 H   0  0  0  0  0  0  0  0  0  0  0  0
   -7.5114   -2.6120    2.1024 H   0  0  0  0  0  0  0  0  0  0  0  0
    4.1621   -1.8972   -0.9434 H   0  0  0  0  0  0  0  0  0  0  0  0
    5.3375   -1.1179   -2.0215 H   0  0  0  0  0  0  0  0  0  0  0  0
    7.7333   -1.0609   -1.4564 H   0  0  0  0  0  0  0  0  0  0  0  0
    4.8789   -2.9546    1.1616 H   0  0  0  0  0  0  0  0  0  0  0  0
    9.5749   -2.1640   -0.2345 H   0  0  0  0  0  0  0  0  0  0  0  0
    6.7302   -4.0512    2.3749 H   0  0  0  0  0  0  0  0  0  0  0  0
    9.0798   -3.6594    1.6818 H   0  0  0  0  0  0  0  0  0  0  0  0
  1 14  2  0  0  0  0
  2 15  2  0  0  0  0
  3 20  1  0  0  0  0
  3 27  1  0  0  0  0
  4 23  1  0  0  0  0
  4 28  1  0  0  0  0
  5 23  2  0  0  0  0
  6 27  2  0  0  0  0
  7 10  1  0  0  0  0
  7 13  1  0  0  0  0
  7 15  1  0  0  0  0
  8 14  1  0  0  0  0
  8 17  1  0  0  0  0
  8 44  1  0  0  0  0
  9 16  1  0  0  0  0
  9 23  1  0  0  0  0
  9 45  1  0  0  0  0
 10 11  1  0  0  0  0
 10 14  1  0  0  0  0
 10 35  1  0  0  0  0
 11 12  1  0  0  0  0
 11 36  1  0  0  0  0
 11 37  1  0  0  0  0
 12 13  1  0  0  0  0
 12 38  1  0  0  0  0
 12 39  1  0  0  0  0
 13 40  1  0  0  0  0
 13 41  1  0  0  0  0
 15 16  1  0  0  0  0
 16 42  1  0  0  0  0
 16 43  1  0  0  0  0
 17 18  2  0  0  0  0
 17 19  1  0  0  0  0
 18 20  1  0  0  0  0
 18 46  1  0  0  0  0
 19 22  2  0  0  0  0
 19 47  1  0  0  0  0
 20 21  2  0  0  0  0
 21 22  1  0  0  0  0
 21 24  1  0  0  0  0
 22 48  1  0  0  0  0
 24 25  2  0  0  0  0
 24 26  1  0  0  0  0
 25 27  1  0  0  0  0
 25 49  1  0  0  0  0
 26 50  1  0  0  0  0
 26 51  1  0  0  0  0
 26 52  1  0  0  0  0
 28 29  1  0  0  0  0
 28 53  1  0  0  0  0
 28 54  1  0  0  0  0
 29 30  2  0  0  0  0
 29 31  1  0  0  0  0
 30 32  1  0  0  0  0
 30 55  1  0  0  0  0
 31 33  2  0  0  0  0
 31 56  1  0  0  0  0
 32 34  2  0  0  0  0
 32 57  1  0  0  0  0
 33 34  1  0  0  0  0
 33 58  1  0  0  0  0
 34 59  1  0  0  0  0
M  END
> <PUBCHEM_COMPOUND_CID>
125702

> <PUBCHEM_CONFORMER_RMSD>
1.2

> <PUBCHEM_CONFORMER_DIVERSEORDER>
1
134
110
38
77
139
48
129
125
120
85
26
119
40
115
74
72
91
87
150
36
31
94
82
51
145
12
45
93
114
27
49
53
25
78
33
73
55
116
86
84
32
63
69
22
75
132
80
144
111
106
95
151
13
29
136
37
21
66
79
135
128
107
101
92
109
52
70
133
67
146
117
14
143
43
68
102
65
5
9
113
58
18
105
20
153
122
138
108
42
62
30
148
141
140
44
88
56
64
28
54
3
124
19
76
16
23
100
34
147
46
57
130
17
10
61
81
103
41
71
121
137
127
11
131
6
126
8
60
83
2
24
15
39
104
47
90
118
7
50
96
123
97
142
112
99
89
149
98
152
35
59
4

> <PUBCHEM_MMFF94_PARTIAL_CHARGES>
43
1 -0.57
10 0.36
13 0.3
14 0.57
15 0.57
16 0.36
17 0.12
18 -0.15
19 -0.15
2 -0.57
20 0.08
21 0.03
22 -0.15
23 0.78
24 -0.17
25 -0.14
26 0.14
27 0.71
28 0.42
29 -0.14
3 -0.23
30 -0.15
31 -0.15
32 -0.15
33 -0.15
34 -0.15
4 -0.43
44 0.37
45 0.37
46 0.15
47 0.15
48 0.15
49 0.15
5 -0.57
55 0.15
56 0.15
57 0.15
58 0.15
59 0.15
6 -0.57
7 -0.66
8 -0.55
9 -0.73

> <PUBCHEM_EFFECTIVE_ROTOR_COUNT>
11

> <PUBCHEM_PHARMACOPHORE_FEATURES>
10
1 1 acceptor
1 2 acceptor
1 5 acceptor
1 6 acceptor
1 8 donor
1 9 donor
5 7 10 11 12 13 rings
6 17 18 19 20 21 22 rings
6 29 30 31 32 33 34 rings
6 3 20 21 24 25 27 rings

> <PUBCHEM_HEAVY_ATOM_COUNT>
34

> <PUBCHEM_ATOM_DEF_STEREO_COUNT>
1

> <PUBCHEM_ATOM_UDEF_STEREO_COUNT>
0

> <PUBCHEM_BOND_DEF_STEREO_COUNT>
0

> <PUBCHEM_BOND_UDEF_STEREO_COUNT>
0

> <PUBCHEM_ISOTOPIC_ATOM_COUNT>
0

> <PUBCHEM_COMPONENT_COUNT>
1

> <PUBCHEM_CACTVS_TAUTO_COUNT>
4

> <PUBCHEM_CONFORMER_ID>
0001EB0600000001

> <PUBCHEM_MMFF94_ENERGY>
97.9219

> <PUBCHEM_FEATURE_SELFOVERLAP>
50.775

> <PUBCHEM_SHAPE_FINGERPRINT>
10622 236 18341334487124747457
11135609 149 18267009734517998509
11409948 35 18264212594939855451
117089 54 18335993037893416490
13911852 28 18339366369911629269
14344974 204 18267589014443721590
14429380 30 18409171000225894186
14910700 183 17767956894581355504
15131766 46 8862401773389774579
15467298 65 17826789240648337850
15513586 35 12964833682174398762
16067689 391 18114473253588053058
16728433 281 9798818520934257962
16989713 51 18341051801320284798
17492 89 18408325480290747872
19303781 99 18187373112366215178
19315092 285 18060144275393916792
19841028 212 18271245044696930375
20691028 202 9439403510766668146
208703 8 18408603664826365146
23569914 152 18194933363526007861
24983565 74 18122623014141363467
3383291 50 17907866106450620353
397830 11 18129087954487666984
406291 66 18410292519229749826
4756326 101 14404355950100339227
484985 159 18263925436629239525
50009960 94 18188473693968492402
5047190 6 17773012350366649567
5874358 3 17488447733065450959
6058803 2 18192739824406882044
6201320 77 17315388966349831811
6691757 9 17981610368389387992
7970288 3 18338521940322163123

> <PUBCHEM_SHAPE_MULTIPOLES>
649.55
23.35
7.35
1.87
34.96
7.28
-0.46
-42.86
1.95
-2.46
-0.25
-2.85
-1.6
-3.68

> <PUBCHEM_SHAPE_SELFOVERLAP>
1400.452

> <PUBCHEM_SHAPE_VOLUME>
355

> <PUBCHEM_COORDINATE_TYPE>
2
5
10

$$$$
