REMARK  Name = 125724
REMARK  5 active torsions:
REMARK  status: ('A' for Active; 'I' for Inactive)
REMARK    1  A    between atoms: C_4  and  O_25
REMARK    2  A    between atoms: C_5  and  O_23
REMARK    3  A    between atoms: C_6  and  O_27
REMARK    4  A    between atoms: C_11  and  O_29
REMARK    5  A    between atoms: C_19  and  O_31
REMARK                            x       y       z     vdW  Elec       q    Type
REMARK                         _______ _______ _______ _____ _____    ______ ____
ROOT
ATOM      1  O   UNL     1      -2.792  -2.899  -0.043  0.00  0.00    -0.289 OA
ATOM      2  O   UNL     1       2.218   2.402  -0.062  0.00  0.00    -0.286 OA
ATOM      3  O   UNL     1       2.147  -2.937   0.108  0.00  0.00    -0.287 OA
ATOM      4  C   UNL     1      -4.128  -0.886  -0.039  0.00  0.00    +0.170 C 
ATOM      5  C   UNL     1      -3.943   0.518   0.558  0.00  0.00    +0.178 C 
ATOM      6  C   UNL     1      -2.790   1.287  -0.093  0.00  0.00    +0.165 C 
ATOM      7  C   UNL     1      -1.518   0.487  -0.035  0.00  0.00    +0.043 C 
ATOM      8  C   UNL     1      -1.530  -0.915  -0.001  0.00  0.00    +0.038 C 
ATOM      9  C   UNL     1      -2.815  -1.670  -0.010  0.00  0.00    +0.199 C 
ATOM     10  C   UNL     1      -5.222  -1.666   0.695  0.00  0.00    +0.040 C 
ATOM     11  C   UNL     1      -0.285   1.159  -0.047  0.00  0.00    +0.135 C 
ATOM     12  C   UNL     1      -0.323  -1.630   0.037  0.00  0.00    +0.006 C 
ATOM     13  C   UNL     1       0.919   0.445  -0.011  0.00  0.00    +0.076 C 
ATOM     14  C   UNL     1       0.899  -0.948   0.033  0.00  0.00    +0.045 C 
ATOM     15  C   UNL     1       2.201   1.179  -0.021  0.00  0.00    +0.202 C 
ATOM     16  C   UNL     1       2.163  -1.713   0.072  0.00  0.00    +0.196 C 
ATOM     17  C   UNL     1       3.465   0.414   0.020  0.00  0.00    +0.076 C 
ATOM     18  C   UNL     1       3.446  -0.981   0.064  0.00  0.00    +0.045 C 
ATOM     19  C   UNL     1       4.687   1.096   0.013  0.00  0.00    +0.137 C 
ATOM     20  C   UNL     1       4.650  -1.695   0.102  0.00  0.00    +0.003 C 
ATOM     21  C   UNL     1       5.884   0.382   0.050  0.00  0.00    +0.037 C 
ATOM     22  C   UNL     1       5.866  -1.011   0.095  0.00  0.00    +0.003 C 
ENDROOT
BRANCH   5  23
ATOM     23  O   UNL     1      -5.128   1.299   0.420  0.00  0.00    -0.348 OA
ATOM     24  C   UNL     1      -4.984   2.557   1.053  0.00  0.00    +0.174 C 
ENDBRANCH   5  23
BRANCH   4  25
ATOM     25  O   UNL     1      -4.514  -0.831  -1.410  0.00  0.00    -0.377 OA
ATOM     26  H   UNL     1      -3.844  -0.343  -1.914  0.00  0.00    +0.211 HD
ENDBRANCH   4  25
BRANCH   6  27
ATOM     27  O   UNL     1      -3.064   1.576  -1.461  0.00  0.00    -0.377 OA
ATOM     28  H   UNL     1      -3.882   2.093  -1.525  0.00  0.00    +0.211 HD
ENDBRANCH   6  27
BRANCH  11  29
ATOM     29  O   UNL     1      -0.286   2.525  -0.058  0.00  0.00    -0.506 OA
ATOM     30  H   UNL     1      -1.098   2.993  -0.082  0.00  0.00    +0.292 HD
ENDBRANCH  11  29
BRANCH  19  31
ATOM     31  O   UNL     1       4.780   2.456  -0.031  0.00  0.00    -0.505 OA
ATOM     32  H   UNL     1       4.003   2.978  -0.057  0.00  0.00    +0.292 HD
ENDBRANCH  19  31
TORSDOF 5
