REMARK  Name = 12583082
REMARK  4 active torsions:
REMARK  status: ('A' for Active; 'I' for Inactive)
REMARK    1  A    between atoms: C_2  and  C_3
REMARK    2  A    between atoms: C_2  and  C_14
REMARK    3  A    between atoms: C_3  and  N_6
REMARK    4  A    between atoms: C_14  and  N_17
REMARK                            x       y       z     vdW  Elec       q    Type
REMARK                         _______ _______ _______ _____ _____    ______ ____
ROOT
ATOM      1  O   UNL     1       0.005  -1.362  -0.667  0.00  0.00    -0.292 OA
ATOM      2  C   UNL     1       0.003  -1.306   0.563  0.00  0.00    +0.191 C 
ENDROOT
BRANCH   2   3
ATOM      3  C   UNL     1       1.285  -1.336   1.370  0.00  0.00    +0.166 C 
BRANCH   3   6
ATOM      4  O   UNL     1       3.082  -2.504  -0.509  0.00  0.00    -0.252 OA
ATOM      5  O   UNL     1       5.164   1.522  -1.287  0.00  0.00    -0.270 OA
ATOM      6  N   UNL     1       2.328  -0.621   0.642  0.00  0.00    -0.235 N 
ATOM      7  N   UNL     1       4.112  -0.490  -0.887  0.00  0.00    -0.236 N 
ATOM      8  C   UNL     1       2.462   0.732   0.876  0.00  0.00    +0.070 C 
ATOM      9  C   UNL     1       3.377   1.503   0.276  0.00  0.00    +0.047 C 
ATOM     10  C   UNL     1       3.157  -1.299  -0.261  0.00  0.00    +0.314 C 
ATOM     11  C   UNL     1       4.303   0.871  -0.701  0.00  0.00    +0.250 C 
ATOM     12  C   UNL     1       3.520   2.969   0.532  0.00  0.00    +0.037 C 
ATOM     13  H   UNL     1       4.712  -0.935  -1.528  0.00  0.00    +0.159 HD
ENDBRANCH   3   6
ENDBRANCH   2   3
BRANCH   2  14
ATOM     14  C   UNL     1      -1.284  -1.336   1.364  0.00  0.00    +0.166 C 
BRANCH  14  17
ATOM     15  O   UNL     1      -3.079  -2.504  -0.517  0.00  0.00    -0.252 OA
ATOM     16  O   UNL     1      -5.171   1.519  -1.282  0.00  0.00    -0.270 OA
ATOM     17  N   UNL     1      -2.310  -0.634   0.651  0.00  0.00    -0.235 N 
ATOM     18  N   UNL     1      -4.113  -0.491  -0.890  0.00  0.00    -0.236 N 
ATOM     19  C   UNL     1      -2.466   0.731   0.876  0.00  0.00    +0.070 C 
ATOM     20  C   UNL     1      -3.382   1.501   0.278  0.00  0.00    +0.047 C 
ATOM     21  C   UNL     1      -3.156  -1.300  -0.266  0.00  0.00    +0.314 C 
ATOM     22  C   UNL     1      -4.308   0.869  -0.700  0.00  0.00    +0.250 C 
ATOM     23  C   UNL     1      -3.529   2.966   0.537  0.00  0.00    +0.037 C 
ATOM     24  H   UNL     1      -4.712  -0.935  -1.532  0.00  0.00    +0.159 HD
ENDBRANCH  14  17
ENDBRANCH   2  14
TORSDOF 4
