REMARK  Name = 125836
REMARK  5 active torsions:
REMARK  status: ('A' for Active; 'I' for Inactive)
REMARK    1  A    between atoms: C_2  and  O_16
REMARK    2  A    between atoms: C_3  and  N_8
REMARK    3  A    between atoms: C_5  and  C_18
REMARK    4  A    between atoms: C_18  and  O_19
REMARK    5  A    between atoms: O_19  and  N_20
REMARK                            x       y       z     vdW  Elec       q    Type
REMARK                         _______ _______ _______ _____ _____    ______ ____
ROOT
ATOM      1  O   UNL     1       1.458  -0.287   1.000  0.00  0.00    -0.335 OA
ATOM      2  C   UNL     1       2.759  -1.256  -0.729  0.00  0.00    +0.144 C 
ATOM      3  C   UNL     1       0.642  -1.254   0.324  0.00  0.00    +0.202 C 
ATOM      4  C   UNL     1       1.303  -1.550  -1.012  0.00  0.00    +0.083 C 
ATOM      5  C   UNL     1       2.691  -0.114   0.275  0.00  0.00    +0.175 C 
ENDROOT
BRANCH   3   8
ATOM      6  O   UNL     1      -1.740  -2.814   0.366  0.00  0.00    -0.252 OA
ATOM      7  O   UNL     1      -4.383   0.902  -0.227  0.00  0.00    -0.270 OA
ATOM      8  N   UNL     1      -0.688  -0.737   0.184  0.00  0.00    -0.219 N 
ATOM      9  N   UNL     1      -3.046  -0.952   0.069  0.00  0.00    -0.236 N 
ATOM     10  C   UNL     1      -0.852   0.631   0.013  0.00  0.00    +0.071 C 
ATOM     11  C   UNL     1      -1.811  -1.592   0.218  0.00  0.00    +0.315 C 
ATOM     12  C   UNL     1      -2.036   1.240  -0.129  0.00  0.00    +0.047 C 
ATOM     13  C   UNL     1      -3.267   0.406  -0.103  0.00  0.00    +0.250 C 
ATOM     14  C   UNL     1      -2.190   2.716  -0.311  0.00  0.00    +0.037 C 
ATOM     15  H   UNL     1      -3.845  -1.528   0.090  0.00  0.00    +0.159 HD
ENDBRANCH   3   8
BRANCH   2  16
ATOM     16  O   UNL     1       3.370  -2.396  -0.128  0.00  0.00    -0.382 OA
ATOM     17  H   UNL     1       3.410  -3.119  -0.772  0.00  0.00    +0.210 HD
ENDBRANCH   2  16
BRANCH   5  18
ATOM     18  C   UNL     1       2.656   1.257  -0.388  0.00  0.00    +0.198 C 
BRANCH  18  19
ATOM     19  O   UNL     1       2.583   2.252   0.620  0.00  0.00    -0.286 OA
BRANCH  19  20
ATOM     20  N   UNL     1       2.550   3.547  -0.043  0.00  0.00    -0.214 NA
ATOM     21  H   UNL     1       2.498   4.286   0.658  0.00  0.00    +0.150 HD
ATOM     22  H   UNL     1       1.734   3.597  -0.652  0.00  0.00    +0.150 HD
ENDBRANCH  19  20
ENDBRANCH  18  19
ENDBRANCH   5  18
TORSDOF 5
