125888
  -OEChem-03292013323D

 40 40  0     1  0  0  0  0  0999 V2000
    2.9921    1.6718   -1.0866 S   0  0  0  0  0  0  0  0  0  0  0  0
    2.4397   -1.8446   -0.0813 O   0  0  0  0  0  0  0  0  0  0  0  0
   -1.3946    0.2129    0.6674 O   0  0  0  0  0  0  0  0  0  0  0  0
    4.0056    0.7147   -1.4928 O   0  0  0  0  0  0  0  0  0  0  0  0
    1.6738    1.6673   -1.6949 O   0  0  0  0  0  0  0  0  0  0  0  0
    4.2586   -1.0601    1.0863 O   0  0  0  0  0  0  0  0  0  0  0  0
   -0.2293    1.0745    2.4492 O   0  0  0  0  0  0  0  0  0  0  0  0
    0.8484    0.0624    0.6606 N   0  0  0  0  0  0  0  0  0  0  0  0
    3.6433    3.2435   -1.1914 N   0  0  0  0  0  0  0  0  0  0  0  0
    2.2059    0.2149    1.1193 C   0  0  2  0  0  0  0  0  0  0  0  0
    2.7897    1.5475    0.6648 C   0  0  0  0  0  0  0  0  0  0  0  0
    3.0930   -0.9558    0.7183 C   0  0  0  0  0  0  0  0  0  0  0  0
   -0.2552    0.5045    1.3633 C   0  0  0  0  0  0  0  0  0  0  0  0
   -2.6228    0.6172    1.2829 C   0  0  0  0  0  0  0  0  0  0  0  0
    3.2045   -2.9773   -0.5067 C   0  0  0  0  0  0  0  0  0  0  0  0
   -3.7676    0.2252    0.3956 C   0  0  0  0  0  0  0  0  0  0  0  0
   -4.2294    1.1100   -0.5789 C   0  0  0  0  0  0  0  0  0  0  0  0
   -4.3697   -1.0242    0.5448 C   0  0  0  0  0  0  0  0  0  0  0  0
    2.3369   -3.8577   -1.3808 C   0  0  0  0  0  0  0  0  0  0  0  0
   -5.2935    0.7456   -1.4040 C   0  0  0  0  0  0  0  0  0  0  0  0
   -5.4337   -1.3886   -0.2804 C   0  0  0  0  0  0  0  0  0  0  0  0
   -5.8955   -0.5036   -1.2548 C   0  0  0  0  0  0  0  0  0  0  0  0
    2.1737    0.2034    2.2161 H   0  0  0  0  0  0  0  0  0  0  0  0
    2.1438    2.3760    0.9758 H   0  0  0  0  0  0  0  0  0  0  0  0
    3.7819    1.6927    1.1067 H   0  0  0  0  0  0  0  0  0  0  0  0
    0.6893   -0.3858   -0.2369 H   0  0  0  0  0  0  0  0  0  0  0  0
    4.6056    3.3865   -0.8610 H   0  0  0  0  0  0  0  0  0  0  0  0
    3.0175    4.0353   -0.9986 H   0  0  0  0  0  0  0  0  0  0  0  0
   -2.6190    1.7033    1.4380 H   0  0  0  0  0  0  0  0  0  0  0  0
   -2.7218    0.1352    2.2634 H   0  0  0  0  0  0  0  0  0  0  0  0
    3.5396   -3.5418    0.3705 H   0  0  0  0  0  0  0  0  0  0  0  0
    4.0766   -2.6358   -1.0753 H   0  0  0  0  0  0  0  0  0  0  0  0
   -3.7671    2.0852   -0.7064 H   0  0  0  0  0  0  0  0  0  0  0  0
   -4.0174   -1.7231    1.2989 H   0  0  0  0  0  0  0  0  0  0  0  0
    1.4505   -4.1919   -0.8315 H   0  0  0  0  0  0  0  0  0  0  0  0
    1.9789   -3.3009   -2.2530 H   0  0  0  0  0  0  0  0  0  0  0  0
    2.8913   -4.7353   -1.7248 H   0  0  0  0  0  0  0  0  0  0  0  0
   -5.6527    1.4342   -2.1631 H   0  0  0  0  0  0  0  0  0  0  0  0
   -5.9022   -2.3616   -0.1648 H   0  0  0  0  0  0  0  0  0  0  0  0
   -6.7237   -0.7876   -1.8974 H   0  0  0  0  0  0  0  0  0  0  0  0
  1  4  2  0  0  0  0
  1  5  2  0  0  0  0
  1  9  1  0  0  0  0
  1 11  1  0  0  0  0
  2 12  1  0  0  0  0
  2 15  1  0  0  0  0
  3 13  1  0  0  0  0
  3 14  1  0  0  0  0
  6 12  2  0  0  0  0
  7 13  2  0  0  0  0
  8 10  1  0  0  0  0
  8 13  1  0  0  0  0
  8 26  1  0  0  0  0
  9 27  1  0  0  0  0
  9 28  1  0  0  0  0
 10 11  1  0  0  0  0
 10 12  1  0  0  0  0
 10 23  1  0  0  0  0
 11 24  1  0  0  0  0
 11 25  1  0  0  0  0
 14 16  1  0  0  0  0
 14 29  1  0  0  0  0
 14 30  1  0  0  0  0
 15 19  1  0  0  0  0
 15 31  1  0  0  0  0
 15 32  1  0  0  0  0
 16 17  2  0  0  0  0
 16 18  1  0  0  0  0
 17 20  1  0  0  0  0
 17 33  1  0  0  0  0
 18 21  2  0  0  0  0
 18 34  1  0  0  0  0
 19 35  1  0  0  0  0
 19 36  1  0  0  0  0
 19 37  1  0  0  0  0
 20 22  2  0  0  0  0
 20 38  1  0  0  0  0
 21 22  1  0  0  0  0
 21 39  1  0  0  0  0
 22 40  1  0  0  0  0
M  END
> <PUBCHEM_COMPOUND_CID>
125888

> <PUBCHEM_CONFORMER_RMSD>
1

> <PUBCHEM_CONFORMER_DIVERSEORDER>
1
151
87
14
61
162
15
31
141
104
18
41
56
35
94
106
96
69
36
122
117
81
109
74
34
55
10
65
82
129
133
29
68
100
89
58
99
132
125
152
64
19
93
73
90
91
145
154
130
157
27
102
16
50
97
142
153
155
66
48
11
70
124
20
156
118
7
25
4
105
119
21
163
12
79
149
78
123
42
121
111
40
120
92
159
38
57
131
98
144
160
62
108
138
32
60
9
95
110
85
146
71
26
72
114
84
147
101
127
126
76
52
53
33
5
115
75
158
116
24
107
39
150
113
44
54
128
148
88
13
28
134
112
3
47
77
37
139
165
83
22
137
135
6
49
63
45
136
17
43
2
51
103
80
164
59
67
161
30
86
143
140
23
8
46

> <PUBCHEM_MMFF94_PARTIAL_CHARGES>
29
1 1.33
10 0.36
11 0.11
12 0.66
13 0.78
14 0.42
15 0.28
16 -0.14
17 -0.15
18 -0.15
2 -0.43
20 -0.15
21 -0.15
22 -0.15
26 0.37
27 0.42
28 0.42
3 -0.43
33 0.15
34 0.15
38 0.15
39 0.15
4 -0.65
40 0.15
5 -0.65
6 -0.57
7 -0.57
8 -0.73
9 -0.98

> <PUBCHEM_EFFECTIVE_ROTOR_COUNT>
10

> <PUBCHEM_PHARMACOPHORE_FEATURES>
7
1 4 acceptor
1 5 acceptor
1 6 acceptor
1 7 acceptor
1 8 donor
1 9 donor
6 16 17 18 20 21 22 rings

> <PUBCHEM_HEAVY_ATOM_COUNT>
22

> <PUBCHEM_ATOM_DEF_STEREO_COUNT>
1

> <PUBCHEM_ATOM_UDEF_STEREO_COUNT>
0

> <PUBCHEM_BOND_DEF_STEREO_COUNT>
0

> <PUBCHEM_BOND_UDEF_STEREO_COUNT>
0

> <PUBCHEM_ISOTOPIC_ATOM_COUNT>
0

> <PUBCHEM_COMPONENT_COUNT>
1

> <PUBCHEM_CACTVS_TAUTO_COUNT>
2

> <PUBCHEM_CONFORMER_ID>
0001EBC000000001

> <PUBCHEM_MMFF94_ENERGY>
28.5961

> <PUBCHEM_FEATURE_SELFOVERLAP>
35.54

> <PUBCHEM_SHAPE_FINGERPRINT>
10042902 136 17271180713337975934
10928967 22 17489867168090290911
11069576 57 18130788910784916278
11315621 136 18343029890783722214
11543360 7 18260547866100063169
12596602 18 15338826595368530811
12616999 72 18411982498269929424
12670546 177 18187363251100048377
13836976 161 18411980286826261714
14251764 75 11531925870729239231
14252887 29 15339117952663374248
14863182 85 17988642974257897446
15342816 4 17275102825431506137
15537594 2 17775287218338670615
15842332 3 17772497632109608120
15961568 22 17240761843107015333
16120349 189 17537160624950553820
16989378 47 17843988978208091902
17844677 252 17821729421312004569
18186145 218 16660366978428244393
20645477 70 18410011022418987211
20775530 9 17766858125397176854
21304303 282 17546157971765737524
21315764 119 18267572521731628397
21860390 5 17240769535477227692
22289505 5 17676204676098031956
235170 7 18260546732223318335
23559900 14 18340761568314732251
25222932 49 16987412374077007407
3004659 81 18411410683736436163
3060560 45 18337685191252774852
312425 83 18260264119101438349
338550 245 18272079513407768879
34797466 226 17967812778256598015
404807 78 17977104883761828663
46194498 28 18260544507198066111
5281201 14 18113899338656262353
56616090 278 8646473146838618130
59682541 52 18339625777773284453
633830 44 18041007189718390625
7164475 11 18270685242527334560
960060 61 18341892991760299185

> <PUBCHEM_SHAPE_MULTIPOLES>
411.42
12.65
3.12
1.79
16.51
2.54
0.07
1.79
-4.58
-5.32
-1.75
-0.43
-0.67
-0.53

> <PUBCHEM_SHAPE_SELFOVERLAP>
822.266

> <PUBCHEM_SHAPE_VOLUME>
242.3

> <PUBCHEM_COORDINATE_TYPE>
2
5
10

$$$$
