REMARK  Name = 125848
REMARK  4 active torsions:
REMARK  status: ('A' for Active; 'I' for Inactive)
REMARK    1  A    between atoms: C_4  and  O_23
REMARK    2  A    between atoms: C_6  and  O_25
REMARK    3  A    between atoms: C_16  and  O_27
REMARK    4  A    between atoms: C_20  and  O_29
REMARK                            x       y       z     vdW  Elec       q    Type
REMARK                         _______ _______ _______ _____ _____    ______ ____
ROOT
ATOM      1  O   UNL     1      -4.828  -0.977   0.239  0.00  0.00    -0.291 OA
ATOM      2  O   UNL     1       4.825  -1.162   0.045  0.00  0.00    -0.286 OA
ATOM      3  C   UNL     1      -0.624  -1.067   0.336  0.00  0.00    +0.082 C 
ATOM      4  C   UNL     1       0.680  -1.026  -0.553  0.00  0.00    +0.132 C 
ATOM      5  C   UNL     1      -1.415   0.231   0.121  0.00  0.00    -0.012 C 
ATOM      6  C   UNL     1      -1.513  -2.313   0.116  0.00  0.00    +0.125 C 
ATOM      7  C   UNL     1       1.478   0.213  -0.154  0.00  0.00    +0.012 C 
ATOM      8  C   UNL     1      -0.695   1.444  -0.050  0.00  0.00    -0.004 C 
ATOM      9  C   UNL     1       0.782   1.431   0.044  0.00  0.00    -0.001 C 
ATOM     10  C   UNL     1      -2.854  -2.180   0.822  0.00  0.00    +0.099 C 
ATOM     11  C   UNL     1      -2.821   0.255   0.092  0.00  0.00    +0.065 C 
ATOM     12  C   UNL     1       1.512  -2.283  -0.529  0.00  0.00    +0.008 C 
ATOM     13  C   UNL     1       2.871   0.170   0.026  0.00  0.00    +0.071 C 
ATOM     14  C   UNL     1      -3.606  -0.972   0.348  0.00  0.00    +0.178 C 
ATOM     15  C   UNL     1      -1.418   2.624  -0.309  0.00  0.00    +0.003 C 
ATOM     16  C   UNL     1      -3.514   1.444  -0.158  0.00  0.00    +0.136 C 
ATOM     17  C   UNL     1       1.526   2.578   0.380  0.00  0.00    +0.003 C 
ATOM     18  C   UNL     1       2.829  -2.337  -0.312  0.00  0.00    +0.040 C 
ATOM     19  C   UNL     1       3.606  -1.108  -0.075  0.00  0.00    +0.198 C 
ATOM     20  C   UNL     1       3.587   1.326   0.349  0.00  0.00    +0.136 C 
ATOM     21  C   UNL     1      -2.811   2.623  -0.366  0.00  0.00    +0.037 C 
ATOM     22  C   UNL     1       2.913   2.528   0.519  0.00  0.00    +0.037 C 
ENDROOT
BRANCH   4  23
ATOM     23  O   UNL     1       0.303  -0.839  -1.930  0.00  0.00    -0.378 OA
ATOM     24  H   UNL     1      -0.239  -0.039  -2.012  0.00  0.00    +0.211 HD
ENDBRANCH   4  23
BRANCH   6  25
ATOM     25  O   UNL     1      -0.877  -3.463   0.673  0.00  0.00    -0.384 OA
ATOM     26  H   UNL     1      -0.012  -3.590   0.252  0.00  0.00    +0.210 HD
ENDBRANCH   6  25
BRANCH  16  27
ATOM     27  O   UNL     1      -4.874   1.519  -0.202  0.00  0.00    -0.505 OA
ATOM     28  H   UNL     1      -5.391   0.749  -0.066  0.00  0.00    +0.292 HD
ENDBRANCH  16  27
BRANCH  20  29
ATOM     29  O   UNL     1       4.938   1.340   0.526  0.00  0.00    -0.505 OA
ATOM     30  H   UNL     1       5.432   0.551   0.422  0.00  0.00    +0.292 HD
ENDBRANCH  20  29
TORSDOF 4
