125836
  -OEChem-03292013323D

 33 34  0     1  0  0  0  0  0999 V2000
    1.4584   -0.2870    1.0003 O   0  0  0  0  0  0  0  0  0  0  0  0
    3.3699   -2.3957   -0.1276 O   0  0  0  0  0  0  0  0  0  0  0  0
    2.5827    2.2517    0.6198 O   0  0  0  0  0  0  0  0  0  0  0  0
   -1.7398   -2.8136    0.3660 O   0  0  0  0  0  0  0  0  0  0  0  0
   -4.3832    0.9025   -0.2269 O   0  0  0  0  0  0  0  0  0  0  0  0
   -0.6878   -0.7374    0.1843 N   0  0  0  0  0  0  0  0  0  0  0  0
   -3.0462   -0.9520    0.0694 N   0  0  0  0  0  0  0  0  0  0  0  0
    2.5504    3.5471   -0.0427 N   0  0  0  0  0  0  0  0  0  0  0  0
    2.7586   -1.2564   -0.7291 C   0  0  1  0  0  0  0  0  0  0  0  0
    0.6423   -1.2539    0.3240 C   0  0  1  0  0  0  0  0  0  0  0  0
    1.3034   -1.5495   -1.0124 C   0  0  0  0  0  0  0  0  0  0  0  0
    2.6911   -0.1141    0.2749 C   0  0  1  0  0  0  0  0  0  0  0  0
    2.6558    1.2566   -0.3884 C   0  0  0  0  0  0  0  0  0  0  0  0
   -0.8521    0.6312    0.0134 C   0  0  0  0  0  0  0  0  0  0  0  0
   -1.8106   -1.5918    0.2179 C   0  0  0  0  0  0  0  0  0  0  0  0
   -2.0358    1.2402   -0.1285 C   0  0  0  0  0  0  0  0  0  0  0  0
   -3.2667    0.4061   -0.1031 C   0  0  0  0  0  0  0  0  0  0  0  0
   -2.1904    2.7159   -0.3113 C   0  0  0  0  0  0  0  0  0  0  0  0
    3.3339   -1.0091   -1.6262 H   0  0  0  0  0  0  0  0  0  0  0  0
    0.6264   -2.1576    0.9449 H   0  0  0  0  0  0  0  0  0  0  0  0
    0.9356   -0.8729   -1.7932 H   0  0  0  0  0  0  0  0  0  0  0  0
    1.1083   -2.5761   -1.3382 H   0  0  0  0  0  0  0  0  0  0  0  0
    3.5029   -0.1573    1.0095 H   0  0  0  0  0  0  0  0  0  0  0  0
    1.8146    1.3575   -1.0816 H   0  0  0  0  0  0  0  0  0  0  0  0
    3.5813    1.3987   -0.9612 H   0  0  0  0  0  0  0  0  0  0  0  0
    3.3410   -3.1183   -0.7778 H   0  0  0  0  0  0  0  0  0  0  0  0
    0.0340    1.2445    0.0029 H   0  0  0  0  0  0  0  0  0  0  0  0
   -3.8694   -1.5474    0.0907 H   0  0  0  0  0  0  0  0  0  0  0  0
   -2.6868    2.9334   -1.2626 H   0  0  0  0  0  0  0  0  0  0  0  0
   -1.2243    3.2319   -0.3153 H   0  0  0  0  0  0  0  0  0  0  0  0
   -2.7906    3.1409    0.4997 H   0  0  0  0  0  0  0  0  0  0  0  0
    3.3280    4.0129    0.4224 H   0  0  0  0  0  0  0  0  0  0  0  0
    1.6973    3.9374    0.3546 H   0  0  0  0  0  0  0  0  0  0  0  0
  1 10  1  0  0  0  0
  1 12  1  0  0  0  0
  2  9  1  0  0  0  0
  2 26  1  0  0  0  0
  3  8  1  0  0  0  0
  3 13  1  0  0  0  0
  4 15  2  0  0  0  0
  5 17  2  0  0  0  0
  6 10  1  0  0  0  0
  6 14  1  0  0  0  0
  6 15  1  0  0  0  0
  7 15  1  0  0  0  0
  7 17  1  0  0  0  0
  7 28  1  0  0  0  0
  8 32  1  0  0  0  0
  8 33  1  0  0  0  0
  9 11  1  0  0  0  0
  9 12  1  0  0  0  0
  9 19  1  0  0  0  0
 10 11  1  0  0  0  0
 10 20  1  0  0  0  0
 11 21  1  0  0  0  0
 11 22  1  0  0  0  0
 12 13  1  0  0  0  0
 12 23  1  0  0  0  0
 13 24  1  0  0  0  0
 13 25  1  0  0  0  0
 14 16  2  0  0  0  0
 14 27  1  0  0  0  0
 16 17  1  0  0  0  0
 16 18  1  0  0  0  0
 18 29  1  0  0  0  0
 18 30  1  0  0  0  0
 18 31  1  0  0  0  0
M  END
> <PUBCHEM_COMPOUND_CID>
125836

> <PUBCHEM_CONFORMER_RMSD>
0.6

> <PUBCHEM_CONFORMER_DIVERSEORDER>
1
18
31
22
24
5
30
28
7
11
19
27
15
16
23
21
13
17
4
25
12
29
14
9
10
20
2
26
3
6
8

> <PUBCHEM_MMFF94_PARTIAL_CHARGES>
22
1 -0.56
10 0.58
12 0.28
13 0.28
14 -0.04
15 0.69
16 -0.12
17 0.62
18 0.14
2 -0.68
26 0.4
27 0.15
28 0.37
3 -0.18
32 0.36
33 0.36
4 -0.57
5 -0.57
6 -0.47
7 -0.49
8 -0.82
9 0.28

> <PUBCHEM_EFFECTIVE_ROTOR_COUNT>
4

> <PUBCHEM_PHARMACOPHORE_FEATURES>
8
1 1 acceptor
1 2 acceptor
1 2 donor
1 4 acceptor
1 5 acceptor
1 7 donor
5 1 9 10 11 12 rings
6 6 7 14 15 16 17 rings

> <PUBCHEM_HEAVY_ATOM_COUNT>
18

> <PUBCHEM_ATOM_DEF_STEREO_COUNT>
3

> <PUBCHEM_ATOM_UDEF_STEREO_COUNT>
0

> <PUBCHEM_BOND_DEF_STEREO_COUNT>
0

> <PUBCHEM_BOND_UDEF_STEREO_COUNT>
0

> <PUBCHEM_ISOTOPIC_ATOM_COUNT>
0

> <PUBCHEM_COMPONENT_COUNT>
1

> <PUBCHEM_CACTVS_TAUTO_COUNT>
3

> <PUBCHEM_CONFORMER_ID>
0001EB8C00000001

> <PUBCHEM_MMFF94_ENERGY>
39.6167

> <PUBCHEM_FEATURE_SELFOVERLAP>
40.598

> <PUBCHEM_SHAPE_FINGERPRINT>
10498660 4 18192715772072208764
10608611 8 18410855473013070181
10967382 1 18338517572435413833
12403259 226 18190741934072740111
13140716 1 18335707177907752539
13897977 150 18339922735389892549
14250199 8 18341894069596760517
14648413 74 18411703188268069570
14787075 74 16597590641065509330
15219456 202 18413392054939164874
15375462 6 18267588085928256718
16945 1 18409729525956883691
17041 50 18269846328477709742
17802600 8 18336262319367763509
18186145 218 18197497329392856137
20233049 118 17972883553615749734
20510252 161 18412546479543191409
21501502 16 18341611550774334631
21524375 3 17971195824779249891
21618674 68 18340204210461211183
22802520 49 18412273830165273491
23114952 82 18129681745683148022
23402539 116 17982441595227007422
23557571 272 18265908031955293143
23559900 14 18341045242293715810
2748010 2 18266185104775109119
3084891 72 17689996739424360902
3286 77 18262516975002272742
5262128 65 17916036667534073420
5939293 188 18266732485699260524
7097593 13 17969759935518232986
7364860 26 18413388739698990580
74978 22 18409731729317330586
7832392 63 17980480053313543665
81228 2 18114471170612880923
93112 12 18411141307482157478
9709674 26 18412265055657968055
9981440 41 17975409428351808864

> <PUBCHEM_SHAPE_MULTIPOLES>
326.14
6.28
3.33
0.78
1.97
1.9
0.04
0.98
0.48
-1.35
-0.02
-0.28
-0.09
0.66

> <PUBCHEM_SHAPE_SELFOVERLAP>
679.181

> <PUBCHEM_SHAPE_VOLUME>
186.3

> <PUBCHEM_COORDINATE_TYPE>
2
5
10

$$$$
