REMARK  Name = 125871
REMARK  7 active torsions:
REMARK  status: ('A' for Active; 'I' for Inactive)
REMARK    1  A    between atoms: C_4  and  C_13
REMARK    2  A    between atoms: C_7  and  C_10
REMARK    3  A    between atoms: C_8  and  S_17
REMARK    4  A    between atoms: C_10  and  O_11
REMARK    5  A    between atoms: C_13  and  O_15
REMARK    6  A    between atoms: S_17  and  C_19
REMARK    7  A    between atoms: C_21  and  C_27
REMARK                            x       y       z     vdW  Elec       q    Type
REMARK                         _______ _______ _______ _____ _____    ______ ____
ROOT
ATOM      1  S   UNL     1      -0.915   0.667   1.501  0.00  0.00    -0.086 S 
ATOM      2  O   UNL     1      -4.757  -0.906  -0.223  0.00  0.00    -0.274 OA
ATOM      3  N   UNL     1      -2.521  -0.166  -0.404  0.00  0.00    -0.244 N 
ATOM      4  C   UNL     1      -3.631   1.196   0.706  0.00  0.00    +0.133 C 
ATOM      5  C   UNL     1      -2.167   1.109   0.241  0.00  0.00    +0.143 C 
ATOM      6  C   UNL     1      -3.844  -0.126  -0.070  0.00  0.00    +0.235 C 
ATOM      7  C   UNL     1      -1.664  -1.199  -0.119  0.00  0.00    +0.142 C 
ATOM      8  C   UNL     1      -0.737  -0.940   0.819  0.00  0.00    +0.072 C 
ENDROOT
BRANCH   7  10
ATOM      9  O   UNL     1      -1.623  -3.568  -0.315  0.00  0.00    -0.244 OA
ATOM     10  C   UNL     1      -1.862  -2.478  -0.804  0.00  0.00    +0.353 C 
BRANCH  10  11
ATOM     11  O   UNL     1      -2.345  -2.258  -2.045  0.00  0.00    -0.476 OA
ATOM     12  H   UNL     1      -2.499  -1.382  -2.339  0.00  0.00    +0.295 HD
ENDBRANCH  10  11
ENDBRANCH   7  10
BRANCH   4  13
ATOM     13  C   UNL     1      -4.513   2.337   0.251  0.00  0.00    +0.122 C 
ATOM     14  C   UNL     1      -4.215   3.609   1.035  0.00  0.00    +0.032 C 
BRANCH  13  15
ATOM     15  O   UNL     1      -4.291   2.581  -1.138  0.00  0.00    -0.384 OA
ATOM     16  H   UNL     1      -4.479   1.774  -1.642  0.00  0.00    +0.210 HD
ENDBRANCH  13  15
ENDBRANCH   4  13
BRANCH   8  17
ATOM     17  S   UNL     1       0.459  -2.029   1.406  0.00  0.00    -0.109 S 
BRANCH  17  19
ATOM     18  N   UNL     1       4.209  -1.551   0.335  0.00  0.00    +0.391 N 
ATOM     19  C   UNL     1       1.802  -1.670   0.245  0.00  0.00    +0.030 C 
ATOM     20  C   UNL     1       2.260  -0.223   0.310  0.00  0.00    -0.003 C 
ATOM     21  C   UNL     1       3.661  -0.324  -0.259  0.00  0.00    +0.018 C 
ATOM     22  C   UNL     1       3.072  -2.475   0.517  0.00  0.00    -0.070 C 
ATOM     23  H   UNL     1       4.642  -1.344   1.235  0.00  0.00    -0.084 HD
ATOM     24  H   UNL     1       4.924  -1.963  -0.265  0.00  0.00    -0.084 HD
BRANCH  21  27
ATOM     25  O   UNL     1       5.138   0.776   1.207  0.00  0.00    -0.277 OA
ATOM     26  N   UNL     1       4.619   1.879  -0.772  0.00  0.00    -0.278 N 
ATOM     27  C   UNL     1       4.537   0.818   0.130  0.00  0.00    +0.206 C 
ATOM     28  C   UNL     1       5.439   3.057  -0.517  0.00  0.00    +0.115 C 
ATOM     29  C   UNL     1       3.890   1.887  -2.038  0.00  0.00    +0.115 C 
ENDBRANCH  21  27
ENDBRANCH  17  19
ENDBRANCH   8  17
TORSDOF 7
