REMARK  Name = 125888
REMARK  10 active torsions:
REMARK  status: ('A' for Active; 'I' for Inactive)
REMARK    1  A    between atoms: C_1  and  N_3
REMARK    2  A    between atoms: C_1  and  C_15
REMARK    3  A    between atoms: C_1  and  C_19
REMARK    4  A    between atoms: C_4  and  O_6
REMARK    5  A    between atoms: O_6  and  C_7
REMARK    6  A    between atoms: C_7  and  C_8
REMARK    7  A    between atoms: C_15  and  O_16
REMARK    8  A    between atoms: O_16  and  C_17
REMARK    9  A    between atoms: C_19  and  S_20
REMARK   10  A    between atoms: S_20  and  N_23
REMARK                            x       y       z     vdW  Elec       q    Type
REMARK                         _______ _______ _______ _____ _____    ______ ____
ROOT
ATOM      1  C   UNL     1       2.206   0.215   1.119  0.00  0.00    +0.199 C 
ENDROOT
BRANCH   1   3
ATOM      2  O   UNL     1      -0.229   1.075   2.449  0.00  0.00    -0.226 OA
ATOM      3  N   UNL     1       0.848   0.062   0.661  0.00  0.00    -0.261 N 
ATOM      4  C   UNL     1      -0.255   0.504   1.363  0.00  0.00    +0.402 C 
ATOM      5  H   UNL     1       0.699  -0.383  -0.205  0.00  0.00    +0.153 HD
BRANCH   4   6
ATOM      6  O   UNL     1      -1.395   0.213   0.667  0.00  0.00    -0.430 OA
BRANCH   6   7
ATOM      7  C   UNL     1      -2.623   0.617   1.283  0.00  0.00    +0.237 C 
BRANCH   7   8
ATOM      8  C   UNL     1      -3.768   0.225   0.396  0.00  0.00    +0.021 C 
ATOM      9  C   UNL     1      -4.229   1.110  -0.579  0.00  0.00    -0.001 C 
ATOM     10  C   UNL     1      -4.370  -1.024   0.545  0.00  0.00    -0.001 C 
ATOM     11  C   UNL     1      -5.293   0.746  -1.404  0.00  0.00    -0.000 C 
ATOM     12  C   UNL     1      -5.434  -1.389  -0.280  0.00  0.00    -0.000 C 
ATOM     13  C   UNL     1      -5.896  -0.504  -1.255  0.00  0.00    -0.000 C 
ENDBRANCH   7   8
ENDBRANCH   6   7
ENDBRANCH   4   6
ENDBRANCH   1   3
BRANCH   1  15
ATOM     14  O   UNL     1       4.259  -1.060   1.086  0.00  0.00    -0.248 OA
ATOM     15  C   UNL     1       3.093  -0.956   0.718  0.00  0.00    +0.337 C 
BRANCH  15  16
ATOM     16  O   UNL     1       2.440  -1.845  -0.081  0.00  0.00    -0.447 OA
BRANCH  16  17
ATOM     17  C   UNL     1       3.204  -2.977  -0.507  0.00  0.00    +0.209 C 
ATOM     18  C   UNL     1       2.337  -3.858  -1.381  0.00  0.00    +0.051 C 
ENDBRANCH  16  17
ENDBRANCH  15  16
ENDBRANCH   1  15
BRANCH   1  19
ATOM     19  C   UNL     1       2.790   1.548   0.665  0.00  0.00    +0.200 C 
BRANCH  19  20
ATOM     20  S   UNL     1       2.992   1.672  -1.087  0.00  0.00    +0.040 S 
ATOM     21  O   UNL     1       4.006   0.715  -1.493  0.00  0.00    -0.158 OA
ATOM     22  O   UNL     1       1.674   1.667  -1.695  0.00  0.00    -0.158 OA
BRANCH  20  23
ATOM     23  N   UNL     1       3.643   3.244  -1.191  0.00  0.00    -0.207 NA
ATOM     24  H   UNL     1       3.822   3.473  -2.169  0.00  0.00    +0.144 HD
ATOM     25  H   UNL     1       4.517   3.285  -0.667  0.00  0.00    +0.144 HD
ENDBRANCH  20  23
ENDBRANCH  19  20
ENDBRANCH   1  19
TORSDOF 10
