REMARK  Name = 125903
REMARK  9 active torsions:
REMARK  status: ('A' for Active; 'I' for Inactive)
REMARK    1  A    between atoms: N_1  and  C_6
REMARK    2  A    between atoms: N_1  and  C_15
REMARK    3  A    between atoms: C_10  and  N_14
REMARK    4  A    between atoms: C_15  and  C_16
REMARK    5  A    between atoms: C_16  and  C_17
REMARK    6  A    between atoms: C_17  and  C_18
REMARK    7  A    between atoms: C_18  and  C_19
REMARK    8  A    between atoms: C_19  and  O_20
REMARK    9  A    between atoms: O_20  and  P_21
REMARK                            x       y       z     vdW  Elec       q    Type
REMARK                         _______ _______ _______ _____ _____    ______ ____
ROOT
ATOM      1  N   UNL     1       0.774   0.656   0.109  0.00  0.00    -0.331 N 
ATOM      2  H   UNL     1       0.622   1.629   0.112  0.00  0.00    +0.147 HD
ENDROOT
BRANCH   1   6
ATOM      3  O   UNL     1       4.642   2.680  -0.030  0.00  0.00    -0.241 OA
ATOM      4  N   UNL     1       3.293   2.369   0.018  0.00  0.00    -0.047 NA
ATOM      5  N   UNL     1       5.432   1.544  -0.056  0.00  0.00    -0.047 NA
ATOM      6  C   UNL     1       2.082   0.199   0.065  0.00  0.00    +0.068 C 
ATOM      7  C   UNL     1       3.226   1.032   0.023  0.00  0.00    +0.158 A 
ATOM      8  C   UNL     1       2.394  -1.181   0.056  0.00  0.00    +0.018 C 
ATOM      9  C   UNL     1       4.585   0.508  -0.024  0.00  0.00    +0.167 A 
ATOM     10  C   UNL     1       4.860  -0.872  -0.031  0.00  0.00    +0.165 C 
ATOM     11  C   UNL     1       3.717  -1.692   0.011  0.00  0.00    +0.027 C 
BRANCH  10  14
ATOM     12  O   UNL     1       6.365  -2.619  -0.075  0.00  0.00    -0.126 OA
ATOM     13  O   UNL     1       7.144  -0.567  -0.110  0.00  0.00    -0.126 OA
ATOM     14  N   UNL     1       6.179  -1.374  -0.073  0.00  0.00    +0.059 N 
ENDBRANCH  10  14
ENDBRANCH   1   6
BRANCH   1  15
ATOM     15  C   UNL     1      -0.378  -0.213   0.150  0.00  0.00    +0.087 C 
BRANCH  15  16
ATOM     16  C   UNL     1      -1.673   0.595   0.133  0.00  0.00    +0.021 C 
BRANCH  16  17
ATOM     17  C   UNL     1      -2.922  -0.293   0.131  0.00  0.00    +0.004 C 
BRANCH  17  18
ATOM     18  C   UNL     1      -4.199   0.548   0.048  0.00  0.00    +0.033 C 
BRANCH  18  19
ATOM     19  C   UNL     1      -5.456  -0.314   0.011  0.00  0.00    +0.152 C 
BRANCH  19  20
ATOM     20  O   UNL     1      -6.609   0.513  -0.047  0.00  0.00    -0.291 OA
BRANCH  20  21
ATOM     21  P   UNL     1      -8.076  -0.166  -0.096  0.00  0.00    +0.379 P 
ATOM     22  F   UNL     1      -8.010  -1.076  -1.376  0.00  0.00    -0.155 F 
ATOM     23  O   UNL     1      -9.182   0.840  -0.242  0.00  0.00    -0.253 OA
ATOM     24  C   UNL     1      -8.188  -1.117   1.407  0.00  0.00    +0.133 C 
ENDBRANCH  20  21
ENDBRANCH  19  20
ENDBRANCH  18  19
ENDBRANCH  17  18
ENDBRANCH  16  17
ENDBRANCH  15  16
ENDBRANCH   1  15
TORSDOF 9
