REMARK  Name = 125932
REMARK  10 active torsions:
REMARK  status: ('A' for Active; 'I' for Inactive)
REMARK    1  A    between atoms: N_1  and  C_3
REMARK    2  A    between atoms: N_1  and  C_10
REMARK    3  A    between atoms: N_1  and  C_15
REMARK    4  A    between atoms: C_3  and  C_4
REMARK    5  A    between atoms: C_4  and  C_5
REMARK    6  A    between atoms: C_5  and  S_6
REMARK    7  A    between atoms: C_10  and  C_12
REMARK    8  A    between atoms: C_12  and  O_13
REMARK    9  A    between atoms: C_15  and  C_17
REMARK   10  A    between atoms: C_17  and  O_18
REMARK                            x       y       z     vdW  Elec       q    Type
REMARK                         _______ _______ _______ _____ _____    ______ ____
ROOT
ATOM      1  N   UNL     1      -1.244   0.031   0.031  0.00  0.00    +0.402 N 
ATOM      2  H   UNL     1      -1.225   0.054   1.051  0.00  0.00    -0.078 HD
ENDROOT
BRANCH   1   3
ATOM      3  C   UNL     1      -0.044  -0.657  -0.430  0.00  0.00    -0.074 C 
BRANCH   3   4
ATOM      4  C   UNL     1       1.205   0.084   0.040  0.00  0.00    +0.003 C 
BRANCH   4   5
ATOM      5  C   UNL     1       2.470  -0.624  -0.424  0.00  0.00    +0.156 C 
BRANCH   5   6
ATOM      6  S   UNL     1       3.918   0.240   0.096  0.00  0.00    +0.022 S 
ATOM      7  O   UNL     1       5.012  -0.872  -0.381  0.00  0.00    -0.069 OA
ATOM      8  O   UNL     1       3.928   0.312   1.546  0.00  0.00    -0.069 OA
ATOM      9  O   UNL     1       4.074   1.428  -0.723  0.00  0.00    -0.069 OA
ENDBRANCH   5   6
ENDBRANCH   4   5
ENDBRANCH   3   4
ENDBRANCH   1   3
BRANCH   1  10
ATOM     10  C   UNL     1      -2.446  -0.688  -0.395  0.00  0.00    +0.035 C 
BRANCH  10  12
ATOM     11  O   UNL     1      -2.311  -2.372   1.324  0.00  0.00    -0.253 OA
ATOM     12  C   UNL     1      -2.379  -2.094   0.133  0.00  0.00    +0.293 C 
BRANCH  12  13
ATOM     13  O   UNL     1      -2.360  -3.029  -0.850  0.00  0.00    -0.482 OA
ATOM     14  H   UNL     1      -2.415  -2.766  -1.748  0.00  0.00    +0.295 HD
ENDBRANCH  12  13
ENDBRANCH  10  12
ENDBRANCH   1  10
BRANCH   1  15
ATOM     15  C   UNL     1      -1.273   1.407  -0.466  0.00  0.00    +0.035 C 
BRANCH  15  17
ATOM     16  O   UNL     1      -2.706   2.238   1.286  0.00  0.00    -0.253 OA
ATOM     17  C   UNL     1      -2.491   2.094   0.089  0.00  0.00    +0.293 C 
BRANCH  17  18
ATOM     18  O   UNL     1      -3.353   2.504  -0.876  0.00  0.00    -0.482 OA
ATOM     19  H   UNL     1      -3.142   2.371  -1.779  0.00  0.00    +0.295 HD
ENDBRANCH  17  18
ENDBRANCH  15  17
ENDBRANCH   1  15
TORSDOF 10
