REMARK  Name = 125929
REMARK  6 active torsions:
REMARK  status: ('A' for Active; 'I' for Inactive)
REMARK    1  A    between atoms: C_6  and  O_14
REMARK    2  A    between atoms: C_7  and  C_16
REMARK    3  A    between atoms: C_16  and  O_17
REMARK    4  A    between atoms: O_17  and  P_18
REMARK    5  A    between atoms: P_18  and  O_20
REMARK    6  A    between atoms: P_18  and  O_22
REMARK                            x       y       z     vdW  Elec       q    Type
REMARK                         _______ _______ _______ _____ _____    ______ ____
ROOT
ATOM      1  O   UNL     1      -3.085  -0.325  -0.206  0.00  0.00    -0.409 OA
ATOM      2  O   UNL     1      -3.884  -2.411  -0.695  0.00  0.00    -0.226 OA
ATOM      3  N   UNL     1      -1.645  -2.213  -0.224  0.00  0.00    -0.245 N 
ATOM      4  N   UNL     1      -1.148   2.766   0.046  0.00  0.00    -0.245 NA
ATOM      5  C   UNL     1      -0.709  -0.003   0.212  0.00  0.00    +0.060 C 
ATOM      6  C   UNL     1      -0.532  -1.477   0.338  0.00  0.00    +0.217 C 
ATOM      7  C   UNL     1       0.349   0.889   0.375  0.00  0.00    +0.030 C 
ATOM      8  C   UNL     1      -1.975   0.511  -0.031  0.00  0.00    +0.163 C 
ATOM      9  C   UNL     1      -2.156   1.881  -0.104  0.00  0.00    +0.094 C 
ATOM     10  C   UNL     1       0.080   2.247   0.281  0.00  0.00    +0.097 C 
ATOM     11  C   UNL     1      -2.922  -1.708  -0.387  0.00  0.00    +0.408 C 
ATOM     12  C   UNL     1      -3.508   2.458  -0.362  0.00  0.00    +0.055 C 
ATOM     13  H   UNL     1      -1.480  -3.140  -0.511  0.00  0.00    +0.155 HD
ENDROOT
BRANCH   6  14
ATOM     14  O   UNL     1      -0.425  -1.813   1.715  0.00  0.00    -0.364 OA
ATOM     15  H   UNL     1      -0.309  -2.772   1.806  0.00  0.00    +0.213 HD
ENDBRANCH   6  14
BRANCH   7  16
ATOM     16  C   UNL     1       1.740   0.433   0.653  0.00  0.00    +0.182 C 
BRANCH  16  17
ATOM     17  O   UNL     1       2.483   0.230  -0.545  0.00  0.00    -0.268 OA
BRANCH  17  18
ATOM     18  P   UNL     1       4.016  -0.266  -0.420  0.00  0.00    +0.473 P 
ATOM     19  O   UNL     1       4.732  -0.458  -1.725  0.00  0.00    -0.227 OA
BRANCH  18  20
ATOM     20  O   UNL     1       3.920  -1.581   0.516  0.00  0.00    -0.303 OA
ATOM     21  H   UNL     1       3.444  -1.363   1.333  0.00  0.00    +0.222 HD
ENDBRANCH  18  20
BRANCH  18  22
ATOM     22  O   UNL     1       4.668   0.842   0.560  0.00  0.00    -0.303 OA
ATOM     23  H   UNL     1       4.145   0.900   1.375  0.00  0.00    +0.222 HD
ENDBRANCH  18  22
ENDBRANCH  17  18
ENDBRANCH  16  17
ENDBRANCH   7  16
TORSDOF 6
