REMARK  Name = 12599
REMARK  7 active torsions:
REMARK  status: ('A' for Active; 'I' for Inactive)
REMARK    1  A    between atoms: C_2  and  O_18
REMARK    2  A    between atoms: C_3  and  N_6
REMARK    3  A    between atoms: C_4  and  C_20
REMARK    4  A    between atoms: C_20  and  O_21
REMARK    5  A    between atoms: O_21  and  P_22
REMARK    6  A    between atoms: P_22  and  O_24
REMARK    7  A    between atoms: P_22  and  O_26
REMARK                            x       y       z     vdW  Elec       q    Type
REMARK                         _______ _______ _______ _____ _____    ______ ____
ROOT
ATOM      1  O   UNL     1      -0.992   0.894   0.922  0.00  0.00    -0.335 OA
ATOM      2  C   UNL     1      -1.531   2.622  -0.628  0.00  0.00    +0.144 C 
ATOM      3  C   UNL     1       0.216   1.335   0.277  0.00  0.00    +0.197 C 
ATOM      4  C   UNL     1      -2.111   1.597   0.341  0.00  0.00    +0.174 C 
ATOM      5  C   UNL     1      -0.203   2.016  -1.018  0.00  0.00    +0.083 C 
ENDROOT
BRANCH   3   6
ATOM      6  N   UNL     1       1.123   0.208   0.096  0.00  0.00    -0.249 N 
ATOM      7  N   UNL     1       1.804  -1.887  -0.268  0.00  0.00    -0.242 NA
ATOM      8  N   UNL     1       3.278   1.302   0.354  0.00  0.00    -0.228 NA
ATOM      9  N   UNL     1       5.116  -0.285   0.113  0.00  0.00    -0.229 NA
ATOM     10  C   UNL     1       2.490   0.237   0.138  0.00  0.00    +0.152 C 
ATOM     11  C   UNL     1       0.761  -1.092  -0.150  0.00  0.00    +0.223 C 
ATOM     12  C   UNL     1       2.892  -1.070  -0.090  0.00  0.00    +0.140 C 
ATOM     13  C   UNL     1       4.261  -1.315  -0.098  0.00  0.00    +0.143 C 
ATOM     14  C   UNL     1       4.579   0.941   0.323  0.00  0.00    +0.253 C 
ATOM     15  N   UNL     1       4.757  -2.611  -0.323  0.00  0.00    -0.342 N 
ATOM     16  H   UNL     1       5.728  -2.773  -0.326  0.00  0.00    +0.144 HD
ATOM     17  H   UNL     1       4.133  -3.357  -0.477  0.00  0.00    +0.144 HD
ENDBRANCH   3   6
BRANCH   2  18
ATOM     18  O   UNL     1      -1.283   3.845   0.062  0.00  0.00    -0.382 OA
ATOM     19  H   UNL     1      -2.127   4.248   0.320  0.00  0.00    +0.210 HD
ENDBRANCH   2  18
BRANCH   4  20
ATOM     20  C   UNL     1      -3.002   0.575  -0.350  0.00  0.00    +0.186 C 
BRANCH  20  21
ATOM     21  O   UNL     1      -3.483  -0.337   0.622  0.00  0.00    -0.271 OA
BRANCH  21  22
ATOM     22  P   UNL     1      -4.463  -1.534   0.140  0.00  0.00    +0.473 P 
ATOM     23  O   UNL     1      -4.925  -2.453   1.232  0.00  0.00    -0.227 OA
BRANCH  22  24
ATOM     24  O   UNL     1      -3.641  -2.243  -1.059  0.00  0.00    -0.303 OA
ATOM     25  H   UNL     1      -3.385  -1.575  -1.715  0.00  0.00    +0.222 HD
ENDBRANCH  22  24
BRANCH  22  26
ATOM     26  O   UNL     1      -5.643  -0.745  -0.634  0.00  0.00    -0.303 OA
ATOM     27  H   UNL     1      -5.258  -0.177  -1.319  0.00  0.00    +0.222 HD
ENDBRANCH  22  26
ENDBRANCH  21  22
ENDBRANCH  20  21
ENDBRANCH   4  20
TORSDOF 7
