REMARK  Name = 125913
REMARK  5 active torsions:
REMARK  status: ('A' for Active; 'I' for Inactive)
REMARK    1  A    between atoms: N_1  and  C_14
REMARK    2  A    between atoms: C_8  and  O_23
REMARK    3  A    between atoms: C_16  and  O_18
REMARK    4  A    between atoms: C_17  and  C_20
REMARK    5  A    between atoms: C_20  and  O_21
REMARK                            x       y       z     vdW  Elec       q    Type
REMARK                         _______ _______ _______ _____ _____    ______ ____
ROOT
ATOM      1  N   UNL     1       0.076  -0.266   0.070  0.00  0.00    -0.209 NA
ATOM      2  N   UNL     1       1.250  -1.874  -0.926  0.00  0.00    -0.255 NA
ATOM      3  N   UNL     1       1.793   1.213   0.802  0.00  0.00    -0.301 N 
ATOM      4  N   UNL     1       4.206   1.285   0.339  0.00  0.00    -0.251 NA
ATOM      5  C   UNL     1       1.387   0.095   0.175  0.00  0.00    +0.175 C 
ATOM      6  C   UNL     1       2.098  -0.908  -0.440  0.00  0.00    +0.095 C 
ATOM      7  C   UNL     1       0.044  -1.458  -0.603  0.00  0.00    +0.204 C 
ATOM      8  C   UNL     1       3.572  -0.990  -0.585  0.00  0.00    +0.173 C 
ATOM      9  C   UNL     1       4.211   0.382  -0.821  0.00  0.00    +0.162 C 
ATOM     10  C   UNL     1       3.111   1.607   0.927  0.00  0.00    +0.157 C 
ATOM     11  H   UNL     1       1.103   1.792   1.199  0.00  0.00    +0.150 HD
ENDROOT
BRANCH   1  14
ATOM     12 CL   UNL     1      -2.246   2.910   0.307  0.00  0.00    -0.108 Cl
ATOM     13  O   UNL     1      -2.109  -0.485   0.984  0.00  0.00    -0.337 OA
ATOM     14  C   UNL     1      -1.098   0.458   0.570  0.00  0.00    +0.197 C 
ATOM     15  C   UNL     1      -1.726   1.381  -0.478  0.00  0.00    +0.152 C 
ATOM     16  C   UNL     1      -2.910   0.560  -0.962  0.00  0.00    +0.159 C 
ATOM     17  C   UNL     1      -3.336  -0.167   0.303  0.00  0.00    +0.174 C 
BRANCH  16  18
ATOM     18  O   UNL     1      -3.941   1.335  -1.537  0.00  0.00    -0.380 OA
ATOM     19  H   UNL     1      -3.609   1.771  -2.337  0.00  0.00    +0.210 HD
ENDBRANCH  16  18
BRANCH  17  20
ATOM     20  C   UNL     1      -4.121  -1.441   0.042  0.00  0.00    +0.169 C 
BRANCH  20  21
ATOM     21  O   UNL     1      -4.451  -2.033   1.286  0.00  0.00    -0.379 OA
ATOM     22  H   UNL     1      -4.953  -2.849   1.133  0.00  0.00    +0.211 HD
ENDBRANCH  20  21
ENDBRANCH  17  20
ENDBRANCH   1  14
BRANCH   8  23
ATOM     23  O   UNL     1       4.188  -1.602   0.546  0.00  0.00    -0.377 OA
ATOM     24  H   UNL     1       3.788  -2.472   0.701  0.00  0.00    +0.211 HD
ENDBRANCH   8  23
TORSDOF 5
