REMARK  Name = 125927
REMARK  12 active torsions:
REMARK  status: ('A' for Active; 'I' for Inactive)
REMARK    1  A    between atoms: C_2  and  O_7
REMARK    2  A    between atoms: C_3  and  O_13
REMARK    3  A    between atoms: C_4  and  O_17
REMARK    4  A    between atoms: C_5  and  C_23
REMARK    5  A    between atoms: O_7  and  C_8
REMARK    6  A    between atoms: C_8  and  C_10
REMARK    7  A    between atoms: C_10  and  O_11
REMARK    8  A    between atoms: O_13  and  C_15
REMARK    9  A    between atoms: O_17  and  C_18
REMARK   10  A    between atoms: C_18  and  C_20
REMARK   11  A    between atoms: C_20  and  O_21
REMARK   12  A    between atoms: C_23  and  O_24
REMARK                            x       y       z     vdW  Elec       q    Type
REMARK                         _______ _______ _______ _____ _____    ______ ____
ROOT
ATOM      1  O   UNL     1       0.333   1.635   2.172  0.00  0.00    -0.347 OA
ATOM      2  C   UNL     1      -0.564  -0.069   0.024  0.00  0.00    +0.188 C 
ATOM      3  C   UNL     1      -0.146   1.389  -0.205  0.00  0.00    +0.227 C 
ATOM      4  C   UNL     1      -0.008  -0.632   1.337  0.00  0.00    +0.176 C 
ATOM      5  C   UNL     1      -0.343   2.236   1.063  0.00  0.00    +0.187 C 
ATOM      6  C   UNL     1      -0.185   0.344   2.498  0.00  0.00    +0.174 C 
ENDROOT
BRANCH   2   7
ATOM      7  O   UNL     1      -1.987  -0.163   0.030  0.00  0.00    -0.339 OA
BRANCH   7   8
ATOM      8  C   UNL     1      -2.419  -1.475  -0.298  0.00  0.00    +0.252 C 
BRANCH   8  10
ATOM      9  O   UNL     1      -4.644  -0.562   0.003  0.00  0.00    -0.247 OA
ATOM     10  C   UNL     1      -3.924  -1.511  -0.276  0.00  0.00    +0.348 C 
BRANCH  10  11
ATOM     11  O   UNL     1      -4.343  -2.765  -0.615  0.00  0.00    -0.443 OA
ATOM     12  C   UNL     1      -5.761  -2.956  -0.638  0.00  0.00    +0.256 C 
ENDBRANCH  10  11
ENDBRANCH   8  10
ENDBRANCH   7   8
ENDBRANCH   2   7
BRANCH   3  13
ATOM     13  O   UNL     1       1.224   1.398  -0.602  0.00  0.00    -0.447 OA
BRANCH  13  15
ATOM     14  O   UNL     1       0.598   1.182  -2.816  0.00  0.00    -0.250 OA
ATOM     15  C   UNL     1       1.451   1.286  -1.944  0.00  0.00    +0.318 C 
ATOM     16  C   UNL     1       2.925   1.310  -2.211  0.00  0.00    +0.121 C 
ENDBRANCH  13  15
ENDBRANCH   3  13
BRANCH   4  17
ATOM     17  O   UNL     1       1.388  -0.895   1.198  0.00  0.00    -0.340 OA
BRANCH  17  18
ATOM     18  C   UNL     1       1.617  -2.098   0.480  0.00  0.00    +0.252 C 
BRANCH  18  20
ATOM     19  O   UNL     1       3.960  -1.568   0.807  0.00  0.00    -0.247 OA
ATOM     20  C   UNL     1       3.102  -2.321   0.367  0.00  0.00    +0.348 C 
BRANCH  20  21
ATOM     21  O   UNL     1       3.325  -3.491  -0.302  0.00  0.00    -0.443 OA
ATOM     22  C   UNL     1       4.700  -3.840  -0.489  0.00  0.00    +0.256 C 
ENDBRANCH  20  21
ENDBRANCH  18  20
ENDBRANCH  17  18
ENDBRANCH   4  17
BRANCH   5  23
ATOM     23  C   UNL     1       0.197   3.655   0.919  0.00  0.00    +0.175 C 
BRANCH  23  24
ATOM     24  O   UNL     1      -0.476   4.287  -0.154  0.00  0.00    -0.348 OA
ATOM     25  C   UNL     1      -0.022   5.622  -0.348  0.00  0.00    +0.174 C 
ENDBRANCH  23  24
ENDBRANCH   5  23
TORSDOF 12
