REMARK  Name = 125902
REMARK  6 active torsions:
REMARK  status: ('A' for Active; 'I' for Inactive)
REMARK    1  A    between atoms: C_4  and  N_13
REMARK    2  A    between atoms: C_8  and  N_12
REMARK    3  A    between atoms: N_13  and  C_15
REMARK    4  A    between atoms: C_15  and  C_16
REMARK    5  A    between atoms: C_16  and  O_17
REMARK    6  A    between atoms: O_17  and  P_18
REMARK                            x       y       z     vdW  Elec       q    Type
REMARK                         _______ _______ _______ _____ _____    ______ ____
ROOT
ATOM      1  O   UNL     1      -2.042  -2.764  -0.146  0.00  0.00    -0.241 OA
ATOM      2  N   UNL     1      -0.856  -2.061  -0.272  0.00  0.00    -0.047 NA
ATOM      3  N   UNL     1      -3.127  -1.919   0.011  0.00  0.00    -0.047 NA
ATOM      4  C   UNL     1      -0.365   0.374  -0.262  0.00  0.00    +0.068 C 
ATOM      5  C   UNL     1      -1.187  -0.766  -0.194  0.00  0.00    +0.158 A 
ATOM      6  C   UNL     1      -2.631  -0.676  -0.014  0.00  0.00    +0.167 A 
ATOM      7  C   UNL     1      -1.053   1.595  -0.142  0.00  0.00    +0.018 C 
ATOM      8  C   UNL     1      -3.300   0.556   0.104  0.00  0.00    +0.165 C 
ATOM      9  C   UNL     1      -2.459   1.682   0.033  0.00  0.00    +0.027 C 
ENDROOT
BRANCH   8  12
ATOM     10  O   UNL     1      -5.242   1.767   0.382  0.00  0.00    -0.126 OA
ATOM     11  O   UNL     1      -5.375  -0.423   0.332  0.00  0.00    -0.126 OA
ATOM     12  N   UNL     1      -4.699   0.637   0.280  0.00  0.00    +0.059 N 
ENDBRANCH   8  12
BRANCH   4  13
ATOM     13  N   UNL     1       1.026   0.332  -0.435  0.00  0.00    -0.329 N 
ATOM     14  H   UNL     1       1.461  -0.547  -0.514  0.00  0.00    +0.147 HD
BRANCH  13  15
ATOM     15  C   UNL     1       1.844   1.508  -0.503  0.00  0.00    +0.120 C 
BRANCH  15  16
ATOM     16  C   UNL     1       3.296   1.119  -0.728  0.00  0.00    +0.173 C 
BRANCH  16  17
ATOM     17  O   UNL     1       3.750   0.331   0.365  0.00  0.00    -0.289 OA
BRANCH  17  18
ATOM     18  P   UNL     1       5.271  -0.217   0.373  0.00  0.00    +0.379 P 
ATOM     19  F   UNL     1       6.117   1.104   0.270  0.00  0.00    -0.155 F 
ATOM     20  O   UNL     1       5.626  -0.952   1.635  0.00  0.00    -0.253 OA
ATOM     21  C   UNL     1       5.408  -1.226  -1.089  0.00  0.00    +0.133 C 
ENDBRANCH  17  18
ENDBRANCH  16  17
ENDBRANCH  15  16
ENDBRANCH  13  15
ENDBRANCH   4  13
TORSDOF 6
