125903
  -OEChem-03292013323D

 39 40  0     1  0  0  0  0  0999 V2000
   -8.0763   -0.1661   -0.0955 P   0  0  1  0  0  0  0  0  0  0  0  0
   -8.0102   -1.0761   -1.3760 F   0  0  0  0  0  0  0  0  0  0  0  0
   -6.6090    0.5133   -0.0472 O   0  0  0  0  0  0  0  0  0  0  0  0
    4.6416    2.6803   -0.0303 O   0  0  0  0  0  0  0  0  0  0  0  0
   -9.1825    0.8399   -0.2424 O   0  0  0  0  0  0  0  0  0  0  0  0
    6.3647   -2.6190   -0.0751 O   0  5  0  0  0  0  0  0  0  0  0  0
    7.1444   -0.5672   -0.1095 O   0  0  0  0  0  0  0  0  0  0  0  0
    0.7740    0.6563    0.1086 N   0  0  0  0  0  0  0  0  0  0  0  0
    3.2934    2.3693    0.0176 N   0  0  0  0  0  0  0  0  0  0  0  0
    5.4322    1.5442   -0.0557 N   0  0  0  0  0  0  0  0  0  0  0  0
    6.1793   -1.3742   -0.0735 N   0  3  0  0  0  0  0  0  0  0  0  0
   -2.9216   -0.2934    0.1310 C   0  0  0  0  0  0  0  0  0  0  0  0
   -1.6732    0.5950    0.1334 C   0  0  0  0  0  0  0  0  0  0  0  0
   -4.1993    0.5480    0.0478 C   0  0  0  0  0  0  0  0  0  0  0  0
   -0.3778   -0.2129    0.1498 C   0  0  0  0  0  0  0  0  0  0  0  0
   -5.4556   -0.3135    0.0105 C   0  0  0  0  0  0  0  0  0  0  0  0
    2.0816    0.1990    0.0645 C   0  0  0  0  0  0  0  0  0  0  0  0
    3.2258    1.0321    0.0227 C   0  0  0  0  0  0  0  0  0  0  0  0
    2.3936   -1.1812    0.0564 C   0  0  0  0  0  0  0  0  0  0  0  0
    4.5854    0.5076   -0.0240 C   0  0  0  0  0  0  0  0  0  0  0  0
    4.8600   -0.8722   -0.0307 C   0  0  0  0  0  0  0  0  0  0  0  0
    3.7175   -1.6919    0.0110 C   0  0  0  0  0  0  0  0  0  0  0  0
   -8.1880   -1.1175    1.4067 C   0  0  0  0  0  0  0  0  0  0  0  0
   -2.9397   -0.9057    1.0404 H   0  0  0  0  0  0  0  0  0  0  0  0
   -2.8811   -0.9802   -0.7230 H   0  0  0  0  0  0  0  0  0  0  0  0
   -1.6846    1.2411   -0.7539 H   0  0  0  0  0  0  0  0  0  0  0  0
   -1.6999    1.2625    1.0042 H   0  0  0  0  0  0  0  0  0  0  0  0
   -4.2554    1.2332    0.9030 H   0  0  0  0  0  0  0  0  0  0  0  0
   -4.1753    1.1856   -0.8448 H   0  0  0  0  0  0  0  0  0  0  0  0
   -0.3721   -0.8828   -0.7185 H   0  0  0  0  0  0  0  0  0  0  0  0
   -0.3518   -0.8287    1.0568 H   0  0  0  0  0  0  0  0  0  0  0  0
   -5.4460   -0.9690   -0.8666 H   0  0  0  0  0  0  0  0  0  0  0  0
   -5.4974   -0.9338    0.9102 H   0  0  0  0  0  0  0  0  0  0  0  0
    0.6333    1.6606    0.1144 H   0  0  0  0  0  0  0  0  0  0  0  0
    1.5957   -1.9224    0.0876 H   0  0  0  0  0  0  0  0  0  0  0  0
    3.8265   -2.7765    0.0102 H   0  0  0  0  0  0  0  0  0  0  0  0
   -9.1819   -1.5667    1.4884 H   0  0  0  0  0  0  0  0  0  0  0  0
   -7.4573   -1.9298    1.4234 H   0  0  0  0  0  0  0  0  0  0  0  0
   -8.0266   -0.4809    2.2808 H   0  0  0  0  0  0  0  0  0  0  0  0
  1  2  1  0  0  0  0
  1  3  1  0  0  0  0
  1  5  2  0  0  0  0
  1 23  1  0  0  0  0
  3 16  1  0  0  0  0
  4  9  1  0  0  0  0
  4 10  1  0  0  0  0
  6 11  1  0  0  0  0
  7 11  2  0  0  0  0
  8 15  1  0  0  0  0
  8 17  1  0  0  0  0
  8 34  1  0  0  0  0
  9 18  2  0  0  0  0
 10 20  2  0  0  0  0
 11 21  1  0  0  0  0
 12 13  1  0  0  0  0
 12 14  1  0  0  0  0
 12 24  1  0  0  0  0
 12 25  1  0  0  0  0
 13 15  1  0  0  0  0
 13 26  1  0  0  0  0
 13 27  1  0  0  0  0
 14 16  1  0  0  0  0
 14 28  1  0  0  0  0
 14 29  1  0  0  0  0
 15 30  1  0  0  0  0
 15 31  1  0  0  0  0
 16 32  1  0  0  0  0
 16 33  1  0  0  0  0
 17 18  1  0  0  0  0
 17 19  2  0  0  0  0
 18 20  1  0  0  0  0
 19 22  1  0  0  0  0
 19 35  1  0  0  0  0
 20 21  1  0  0  0  0
 21 22  2  0  0  0  0
 22 36  1  0  0  0  0
 23 37  1  0  0  0  0
 23 38  1  0  0  0  0
 23 39  1  0  0  0  0
M  CHG  2   6  -1  11   1
M  END
> <PUBCHEM_COMPOUND_CID>
125903

> <PUBCHEM_CONFORMER_RMSD>
1

> <PUBCHEM_CONFORMER_DIVERSEORDER>
1
194
21
50
7
176
124
325
343
77
12
197
332
87
159
196
218
39
230
145
48
329
355
198
130
185
327
100
248
33
250
169
81
302
34
75
266
245
237
16
35
282
114
131
72
73
71
22
167
68
107
45
342
78
272
65
3
318
19
346
152
58
336
287
83
86
82
43
150
42
225
38
310
44
281
5
209
49
206
88
260
125
142
168
208
291
148
212
190
244
25
129
202
226
216
238
51
59
228
111
252
14
258
263
74
52
276
61
278
118
283
229
55
316
122
113
13
69
254
91
128
60
295
63
326
298
8
37
66
296
101
341
104
98
303
166
315
267
247
106
353
110
357
26
274
121
314
40
347
137
200
227
171
17
328
241
20
164
220
307
174
76
123
11
133
195
188
311
154
30
102
46
213
317
178
27
116
210
146
224
236
354
32
233
305
160
140
138
105
335
6
162
337
175
9
41
79
330
319
28
92
134
211
135
177
62
285
322
155
89
339
120
223
246
96
275
36
312
117
97
151
183
170
24
187
57
256
165
90
270
109
15
10
139
141
215
345
156
219
331
132
351
257
309
333
4
239
262
320
103
70
23
286
136
235
352
288
84
297
273
112
308
2
344
358
95
265
85
268
172
304
253
147
127
193
349
115
64
289
182
201
290
269
231
338
144
293
54
99
191
217
356
350
29
214
143
280
292
255
53
324
31
161
203
299
93
340
80
56
323
186
284
321
207
242
18
251
301
47
67
149
300
232
181
173
264
294
205
240
261
179
158
180
119
192
126
348
204
277
163
153
313
234
259
271
108
222
199
279
221
306
243
249
157
94
184
189
334

> <PUBCHEM_MMFF94_PARTIAL_CHARGES>
22
1 1.3
10 -0.41
11 0.91
15 0.37
16 0.28
17 0.1
18 0.29
19 -0.15
2 -0.33
20 0.29
21 0.13
22 -0.15
3 -0.55
34 0.4
35 0.15
36 0.15
4 0.24
5 -0.7
6 -0.52
7 -0.52
8 -0.87
9 -0.41

> <PUBCHEM_EFFECTIVE_ROTOR_COUNT>
9

> <PUBCHEM_PHARMACOPHORE_FEATURES>
9
1 10 acceptor
1 6 acceptor
1 6 anion
1 7 acceptor
1 8 cation
1 8 donor
1 9 acceptor
5 4 9 10 18 20 rings
6 17 18 19 20 21 22 rings

> <PUBCHEM_HEAVY_ATOM_COUNT>
23

> <PUBCHEM_ATOM_DEF_STEREO_COUNT>
0

> <PUBCHEM_ATOM_UDEF_STEREO_COUNT>
1

> <PUBCHEM_BOND_DEF_STEREO_COUNT>
0

> <PUBCHEM_BOND_UDEF_STEREO_COUNT>
0

> <PUBCHEM_ISOTOPIC_ATOM_COUNT>
0

> <PUBCHEM_COMPONENT_COUNT>
1

> <PUBCHEM_CACTVS_TAUTO_COUNT>
2

> <PUBCHEM_CONFORMER_ID>
0001EBCF00000001

> <PUBCHEM_MMFF94_ENERGY>
51.3419

> <PUBCHEM_FEATURE_SELFOVERLAP>
45.932

> <PUBCHEM_SHAPE_FINGERPRINT>
10066227 49 18411419467076899075
10299344 5 18131350817678001311
10411042 1 18194683662896855754
11719270 70 17775003475102406191
13533116 47 18343019986493431945
13885169 127 18335984178214258121
14170010 4 18410011044653296720
14251764 18 18060704987811359289
14251764 46 18186239523940417771
14933364 13 18334858321046091893
15183329 4 18412542107498560099
15419008 47 17458337542529646981
15419008 91 17531794866694067197
15716309 27 18343584049872024231
20157964 124 18411139151318553200
21150785 3 15574717984828670583
21267235 1 18341618079715149974
21315759 40 17775568633000943259
21315763 28 18412262818486155537
221357 26 18334574620938861228
23522609 53 17773621454059940257
28498 318 18410009901875374479
3004659 81 18334855013108618144
328311 84 18260833696189442571
335352 9 18410298004487958310
4073 2 18041284378038353251
4325135 7 18273495667773407599
5283156 175 18060701671832791113
8209 1 18408041801773371823

> <PUBCHEM_SHAPE_MULTIPOLES>
420.63
27.76
1.95
0.74
54.66
0.31
-0.03
-5.65
1.03
-4.4
-0.02
1.32
-0.17
0.44

> <PUBCHEM_SHAPE_SELFOVERLAP>
847.824

> <PUBCHEM_SHAPE_VOLUME>
248.3

> <PUBCHEM_COORDINATE_TYPE>
2
5
10

$$$$
