REMARK  Name = 125951
REMARK  18 active torsions:
REMARK  status: ('A' for Active; 'I' for Inactive)
REMARK    1  A    between atoms: O_1  and  C_7
REMARK    2  A    between atoms: O_1  and  C_17
REMARK    3  A    between atoms: C_3  and  O_8
REMARK    4  A    between atoms: C_4  and  O_10
REMARK    5  A    between atoms: C_5  and  O_12
REMARK    6  A    between atoms: C_6  and  C_14
REMARK    7  A    between atoms: C_14  and  O_15
REMARK    8  A    between atoms: C_17  and  C_18
REMARK    9  A    between atoms: C_18  and  C_19
REMARK   10  A    between atoms: C_19  and  C_20
REMARK   11  A    between atoms: C_20  and  C_21
REMARK   12  A    between atoms: C_21  and  C_22
REMARK   13  A    between atoms: C_22  and  C_23
REMARK   14  A    between atoms: C_23  and  C_24
REMARK   15  A    between atoms: C_24  and  C_25
REMARK   16  A    between atoms: C_25  and  C_26
REMARK   17  A    between atoms: C_26  and  N_28
REMARK   18  A    between atoms: C_29  and  C_32
REMARK                            x       y       z     vdW  Elec       q    Type
REMARK                         _______ _______ _______ _____ _____    ______ ____
ROOT
ATOM      1  O   UNL     1       3.703   0.705   0.531  0.00  0.00    -0.329 OA
ENDROOT
BRANCH   1   7
ATOM      2  O   UNL     1       5.471  -0.775   0.172  0.00  0.00    -0.326 OA
ATOM      3  C   UNL     1       7.327   1.391  -0.166  0.00  0.00    +0.172 C 
ATOM      4  C   UNL     1       7.781  -0.056   0.029  0.00  0.00    +0.169 C 
ATOM      5  C   UNL     1       5.912   1.604   0.374  0.00  0.00    +0.196 C 
ATOM      6  C   UNL     1       6.717  -1.033  -0.477  0.00  0.00    +0.176 C 
ATOM      7  C   UNL     1       4.957   0.521  -0.126  0.00  0.00    +0.266 C 
BRANCH   3   8
ATOM      8  O   UNL     1       8.237   2.239   0.536  0.00  0.00    -0.379 OA
ATOM      9  H   UNL     1       9.134   2.103   0.193  0.00  0.00    +0.211 HD
ENDBRANCH   3   8
BRANCH   4  10
ATOM     10  O   UNL     1       8.995  -0.269  -0.686  0.00  0.00    -0.379 OA
ATOM     11  H   UNL     1       9.671   0.349  -0.367  0.00  0.00    +0.211 HD
ENDBRANCH   4  10
BRANCH   5  12
ATOM     12  O   UNL     1       5.423   2.870  -0.067  0.00  0.00    -0.378 OA
ATOM     13  H   UNL     1       6.018   3.572   0.242  0.00  0.00    +0.211 HD
ENDBRANCH   5  12
BRANCH   6  14
ATOM     14  C   UNL     1       7.096  -2.481  -0.186  0.00  0.00    +0.169 C 
BRANCH  14  15
ATOM     15  O   UNL     1       6.066  -3.323  -0.671  0.00  0.00    -0.379 OA
ATOM     16  H   UNL     1       6.294  -4.249  -0.492  0.00  0.00    +0.211 HD
ENDBRANCH  14  15
ENDBRANCH   6  14
ENDBRANCH   1   7
BRANCH   1  17
ATOM     17  C   UNL     1       2.646   0.068  -0.175  0.00  0.00    +0.145 C 
BRANCH  17  18
ATOM     18  C   UNL     1       1.340   0.319   0.565  0.00  0.00    +0.032 C 
BRANCH  18  19
ATOM     19  C   UNL     1       0.159  -0.353  -0.133  0.00  0.00    +0.003 C 
BRANCH  19  20
ATOM     20  C   UNL     1      -1.155  -0.061   0.592  0.00  0.00    +0.000 C 
BRANCH  20  21
ATOM     21  C   UNL     1      -2.333  -0.762  -0.087  0.00  0.00    +0.000 C 
BRANCH  21  22
ATOM     22  C   UNL     1      -3.644  -0.497   0.657  0.00  0.00    +0.000 C 
BRANCH  22  23
ATOM     23  C   UNL     1      -4.814  -1.226  -0.006  0.00  0.00    +0.000 C 
BRANCH  23  24
ATOM     24  C   UNL     1      -6.167  -0.939   0.654  0.00  0.00    +0.002 C 
BRANCH  24  25
ATOM     25  C   UNL     1      -7.332  -1.695   0.007  0.00  0.00    +0.021 C 
BRANCH  25  26
ATOM     26  C   UNL     1      -8.659  -1.441   0.717  0.00  0.00    +0.089 C 
BRANCH  26  28
ATOM     27  O   UNL     1     -10.242  -0.116  -1.296  0.00  0.00    -0.274 OA
ATOM     28  N   UNL     1      -9.039  -0.055   0.692  0.00  0.00    -0.304 N 
ATOM     29  C   UNL     1      -9.807   0.499  -0.324  0.00  0.00    +0.234 C 
ATOM     30  H   UNL     1      -8.740   0.527   1.428  0.00  0.00    +0.149 HD
BRANCH  29  32
ATOM     31 BR   UNL     1      -8.581   2.894  -0.989  0.00  0.00    -0.070 Br
ATOM     32  C   UNL     1     -10.058   1.972  -0.139  0.00  0.00    +0.152 C 
ENDBRANCH  29  32
ENDBRANCH  26  28
ENDBRANCH  25  26
ENDBRANCH  24  25
ENDBRANCH  23  24
ENDBRANCH  22  23
ENDBRANCH  21  22
ENDBRANCH  20  21
ENDBRANCH  19  20
ENDBRANCH  18  19
ENDBRANCH  17  18
ENDBRANCH   1  17
TORSDOF 18
