125913
  -OEChem-03292013323D

 35 37  0     1  0  0  0  0  0999 V2000
   -2.2457    2.9096    0.3069 Cl  0  0  0  0  0  0  0  0  0  0  0  0
   -2.1094   -0.4852    0.9844 O   0  0  0  0  0  0  0  0  0  0  0  0
   -3.9406    1.3345   -1.5366 O   0  0  0  0  0  0  0  0  0  0  0  0
   -4.4507   -2.0330    1.2865 O   0  0  0  0  0  0  0  0  0  0  0  0
    4.1883   -1.6020    0.5461 O   0  0  0  0  0  0  0  0  0  0  0  0
    0.0763   -0.2663    0.0703 N   0  0  0  0  0  0  0  0  0  0  0  0
    1.2505   -1.8743   -0.9260 N   0  0  0  0  0  0  0  0  0  0  0  0
    1.7932    1.2133    0.8016 N   0  0  0  0  0  0  0  0  0  0  0  0
    4.2060    1.2848    0.3386 N   0  0  0  0  0  0  0  0  0  0  0  0
   -1.0983    0.4584    0.5703 C   0  0  1  0  0  0  0  0  0  0  0  0
   -1.7263    1.3806   -0.4779 C   0  0  1  0  0  0  0  0  0  0  0  0
   -2.9103    0.5597   -0.9620 C   0  0  1  0  0  0  0  0  0  0  0  0
   -3.3356   -0.1674    0.3034 C   0  0  1  0  0  0  0  0  0  0  0  0
   -4.1206   -1.4408    0.0424 C   0  0  0  0  0  0  0  0  0  0  0  0
    1.3873    0.0946    0.1749 C   0  0  0  0  0  0  0  0  0  0  0  0
    2.0982   -0.9081   -0.4397 C   0  0  0  0  0  0  0  0  0  0  0  0
    0.0440   -1.4580   -0.6034 C   0  0  0  0  0  0  0  0  0  0  0  0
    3.5720   -0.9901   -0.5847 C   0  0  1  0  0  0  0  0  0  0  0  0
    4.2110    0.3824   -0.8213 C   0  0  0  0  0  0  0  0  0  0  0  0
    3.1106    1.6073    0.9266 C   0  0  0  0  0  0  0  0  0  0  0  0
   -0.7779    0.9848    1.4747 H   0  0  0  0  0  0  0  0  0  0  0  0
   -1.0510    1.6699   -1.2882 H   0  0  0  0  0  0  0  0  0  0  0  0
   -2.5587   -0.1556   -1.7159 H   0  0  0  0  0  0  0  0  0  0  0  0
   -3.9196    0.4861    0.9639 H   0  0  0  0  0  0  0  0  0  0  0  0
   -3.5206   -2.1676   -0.5139 H   0  0  0  0  0  0  0  0  0  0  0  0
   -5.0432   -1.2463   -0.5123 H   0  0  0  0  0  0  0  0  0  0  0  0
   -0.8752   -1.9783   -0.8351 H   0  0  0  0  0  0  0  0  0  0  0  0
    3.8005   -1.6193   -1.4537 H   0  0  0  0  0  0  0  0  0  0  0  0
   -4.6703    0.7338   -1.7638 H   0  0  0  0  0  0  0  0  0  0  0  0
    1.1114    1.7917    1.2857 H   0  0  0  0  0  0  0  0  0  0  0  0
    5.2657    0.2248   -1.0781 H   0  0  0  0  0  0  0  0  0  0  0  0
    3.7532    0.8890   -1.6804 H   0  0  0  0  0  0  0  0  0  0  0  0
   -5.0175   -1.4082    1.7700 H   0  0  0  0  0  0  0  0  0  0  0  0
    3.1924    2.3597    1.7292 H   0  0  0  0  0  0  0  0  0  0  0  0
    3.8163   -2.4963    0.6349 H   0  0  0  0  0  0  0  0  0  0  0  0
  1 11  1  0  0  0  0
  2 10  1  0  0  0  0
  2 13  1  0  0  0  0
  3 12  1  0  0  0  0
  3 29  1  0  0  0  0
  4 14  1  0  0  0  0
  4 33  1  0  0  0  0
  5 18  1  0  0  0  0
  5 35  1  0  0  0  0
  6 10  1  0  0  0  0
  6 15  1  0  0  0  0
  6 17  1  0  0  0  0
  7 16  1  0  0  0  0
  7 17  2  0  0  0  0
  8 15  1  0  0  0  0
  8 20  1  0  0  0  0
  8 30  1  0  0  0  0
  9 19  1  0  0  0  0
  9 20  2  0  0  0  0
 10 11  1  0  0  0  0
 10 21  1  0  0  0  0
 11 12  1  0  0  0  0
 11 22  1  0  0  0  0
 12 13  1  0  0  0  0
 12 23  1  0  0  0  0
 13 14  1  0  0  0  0
 13 24  1  0  0  0  0
 14 25  1  0  0  0  0
 14 26  1  0  0  0  0
 15 16  2  0  0  0  0
 16 18  1  0  0  0  0
 17 27  1  0  0  0  0
 18 19  1  0  0  0  0
 18 28  1  0  0  0  0
 19 31  1  0  0  0  0
 19 32  1  0  0  0  0
 20 34  1  0  0  0  0
M  END
> <PUBCHEM_COMPOUND_CID>
125913

> <PUBCHEM_CONFORMER_RMSD>
0.6

> <PUBCHEM_CONFORMER_DIVERSEORDER>
2
7
10
5
19
21
11
4
12
20
3
23
9
17
18
6
8
15
14
1
16
13
22

> <PUBCHEM_MMFF94_PARTIAL_CHARGES>
26
1 -0.29
10 0.54
11 0.29
12 0.28
13 0.28
14 0.28
15 -0.07
16 0.05
17 0.04
18 0.46
19 0.25
2 -0.56
20 0.44
27 0.15
29 0.4
3 -0.68
30 0.4
33 0.4
34 0.06
35 0.4
4 -0.68
5 -0.68
6 0.05
7 -0.57
8 -0.53
9 -0.7

> <PUBCHEM_EFFECTIVE_ROTOR_COUNT>
3.6

> <PUBCHEM_PHARMACOPHORE_FEATURES>
13
1 2 acceptor
1 3 acceptor
1 3 donor
1 4 acceptor
1 4 donor
1 5 acceptor
1 5 donor
1 8 donor
3 6 7 17 cation
3 8 9 20 cation
5 2 10 11 12 13 rings
5 6 7 15 16 17 rings
7 8 9 15 16 18 19 20 rings

> <PUBCHEM_HEAVY_ATOM_COUNT>
20

> <PUBCHEM_ATOM_DEF_STEREO_COUNT>
5

> <PUBCHEM_ATOM_UDEF_STEREO_COUNT>
0

> <PUBCHEM_BOND_DEF_STEREO_COUNT>
0

> <PUBCHEM_BOND_UDEF_STEREO_COUNT>
0

> <PUBCHEM_ISOTOPIC_ATOM_COUNT>
0

> <PUBCHEM_COMPONENT_COUNT>
1

> <PUBCHEM_CACTVS_TAUTO_COUNT>
2

> <PUBCHEM_CONFORMER_ID>
0001EBD900000002

> <PUBCHEM_MMFF94_ENERGY>
42.2303

> <PUBCHEM_FEATURE_SELFOVERLAP>
66.016

> <PUBCHEM_SHAPE_FINGERPRINT>
10366900 7 18261968434896452386
10498660 4 18187078438449089036
10608611 8 18341048519258784648
10646746 165 18336825295360078908
11405975 8 18262798454147259041
11615757 297 17775289365178402330
12236239 1 16200436883715233083
12403259 226 18413387622859826576
12403259 415 18413109489315015600
12403260 363 18341881953641575012
12670546 56 15574707019523709822
13224815 77 18413951684877325276
13583140 156 18188193343413415098
14289901 80 17821736039281568634
14787075 74 17971756824469008585
15219456 202 18411697690530498057
16945 1 18060138700441644942
17349148 13 16081092579916194563
18186145 218 17704072906494877172
200 152 17632285749288678949
20645477 70 18131062701901240142
20681677 76 18409162220859040992
21065201 7 17821441348495296603
221490 88 18270688571495870446
23402539 116 18040996250141223039
23557571 272 18261117374457839885
23559900 14 18188204304386102294
2748010 2 17986107637650603686
3268164 11 17603859031651753199
3286 77 18410290281598364998
474 4 15983387872454491048
5104073 3 18411982438129825408
5283173 99 18188478096114915285
633830 44 17560813121011346284
7495541 125 18410860992478770282
9709674 26 18127412246203909703

> <PUBCHEM_SHAPE_MULTIPOLES>
370.06
8.97
2.35
1.09
0.99
0.71
-0.08
-1.11
0.14
-1.01
0.23
-0.53
0.01
1.33

> <PUBCHEM_SHAPE_SELFOVERLAP>
780.772

> <PUBCHEM_SHAPE_VOLUME>
208.3

> <PUBCHEM_COORDINATE_TYPE>
2
5
10

$$$$
