REMARK  Name = 126087
REMARK  6 active torsions:
REMARK  status: ('A' for Active; 'I' for Inactive)
REMARK    1  A    between atoms: C_3  and  O_21
REMARK    2  A    between atoms: C_7  and  C_31
REMARK    3  A    between atoms: C_8  and  C_26
REMARK    4  A    between atoms: C_9  and  O_23
REMARK    5  A    between atoms: C_17  and  O_29
REMARK    6  A    between atoms: C_26  and  O_27
REMARK                            x       y       z     vdW  Elec       q    Type
REMARK                         _______ _______ _______ _____ _____    ______ ____
ROOT
ATOM      1  O   UNL     1       2.869  -2.363   0.212  0.00  0.00    -0.286 OA
ATOM      2  O   UNL     1       1.590   2.793  -0.357  0.00  0.00    -0.287 OA
ATOM      3  C   UNL     1      -2.265  -2.412  -0.087  0.00  0.00    +0.140 C 
ATOM      4  C   UNL     1      -1.194  -1.357  -0.125  0.00  0.00    +0.039 C 
ATOM      5  C   UNL     1      -3.494  -1.996  -0.900  0.00  0.00    +0.056 C 
ATOM      6  C   UNL     1      -1.548   0.000  -0.247  0.00  0.00    +0.007 C 
ATOM      7  C   UNL     1      -3.909  -0.553  -0.663  0.00  0.00    -0.035 C 
ATOM      8  C   UNL     1      -2.983   0.382  -0.343  0.00  0.00    +0.068 C 
ATOM      9  C   UNL     1       0.154  -1.733  -0.007  0.00  0.00    +0.135 C 
ATOM     10  C   UNL     1       1.163  -0.767  -0.037  0.00  0.00    +0.076 C 
ATOM     11  C   UNL     1       0.827   0.577  -0.182  0.00  0.00    +0.045 C 
ATOM     12  C   UNL     1      -0.520   0.957  -0.288  0.00  0.00    +0.003 C 
ATOM     13  C   UNL     1       2.576  -1.181   0.082  0.00  0.00    +0.202 C 
ATOM     14  C   UNL     1       1.883   1.611  -0.226  0.00  0.00    +0.196 C 
ATOM     15  C   UNL     1       3.631  -0.148   0.041  0.00  0.00    +0.076 C 
ATOM     16  C   UNL     1       3.296   1.199  -0.108  0.00  0.00    +0.045 C 
ATOM     17  C   UNL     1       4.974  -0.526   0.153  0.00  0.00    +0.137 C 
ATOM     18  C   UNL     1       4.305   2.169  -0.147  0.00  0.00    +0.003 C 
ATOM     19  C   UNL     1       5.976   0.444   0.115  0.00  0.00    +0.037 C 
ATOM     20  C   UNL     1       5.643   1.788  -0.035  0.00  0.00    +0.003 C 
ENDROOT
BRANCH   3  21
ATOM     21  O   UNL     1      -2.628  -2.627   1.275  0.00  0.00    -0.380 OA
ATOM     22  H   UNL     1      -1.844  -2.890   1.781  0.00  0.00    +0.211 HD
ENDBRANCH   3  21
BRANCH   9  23
ATOM     23  O   UNL     1       0.443  -3.060   0.144  0.00  0.00    -0.506 OA
ATOM     24  H   UNL     1      -0.249  -3.691   0.161  0.00  0.00    +0.292 HD
ENDBRANCH   9  23
BRANCH   8  26
ATOM     25  O   UNL     1      -3.477   2.611  -0.980  0.00  0.00    -0.245 OA
ATOM     26  C   UNL     1      -3.407   1.774  -0.102  0.00  0.00    +0.341 C 
BRANCH  26  27
ATOM     27  O   UNL     1      -3.683   1.911   1.217  0.00  0.00    -0.441 OA
ATOM     28  C   UNL     1      -4.113   3.219   1.611  0.00  0.00    +0.256 C 
ENDBRANCH  26  27
ENDBRANCH   8  26
BRANCH  17  29
ATOM     29  O   UNL     1       5.373  -1.821   0.301  0.00  0.00    -0.505 OA
ATOM     30  H   UNL     1       4.735  -2.507   0.332  0.00  0.00    +0.292 HD
ENDBRANCH  17  29
BRANCH   7  31
ATOM     31  C   UNL     1      -5.394  -0.340  -0.819  0.00  0.00    +0.022 C 
ATOM     32  C   UNL     1      -6.086  -0.553   0.504  0.00  0.00    +0.005 C 
ENDBRANCH   7  31
TORSDOF 6
