126034
  -OEChem-03292013323D

 22 23  0     0  0  0  0  0  0999 V2000
    2.8620    0.5031   -0.2834 S   0  0  0  0  0  0  0  0  0  0  0  0
    1.7899    0.1028    0.8948 O   0  0  0  0  0  0  0  0  0  0  0  0
    0.9386   -2.4352    0.1955 O   0  0  0  0  0  0  0  0  0  0  0  0
    4.2996    0.5357    0.4893 O   0  0  0  0  0  0  0  0  0  0  0  0
    2.9075   -0.5646   -1.2654 O   0  0  0  0  0  0  0  0  0  0  0  0
    2.5650    1.8606   -0.7028 O   0  0  0  0  0  0  0  0  0  0  0  0
   -2.8087    1.5670    0.1351 N   0  0  0  0  0  0  0  0  0  0  0  0
   -1.7316    0.7129    0.2113 C   0  0  0  0  0  0  0  0  0  0  0  0
   -2.1884   -0.5574   -0.1465 C   0  0  0  0  0  0  0  0  0  0  0  0
   -0.4015    0.9652    0.5657 C   0  0  0  0  0  0  0  0  0  0  0  0
    0.4865   -0.1143    0.5536 C   0  0  0  0  0  0  0  0  0  0  0  0
   -1.2748   -1.6301   -0.1514 C   0  0  0  0  0  0  0  0  0  0  0  0
    0.0588   -1.3927    0.2010 C   0  0  0  0  0  0  0  0  0  0  0  0
   -3.5756   -0.4352   -0.4395 C   0  0  0  0  0  0  0  0  0  0  0  0
   -3.9274    0.8824   -0.2572 C   0  0  0  0  0  0  0  0  0  0  0  0
   -0.0745    1.9626    0.8415 H   0  0  0  0  0  0  0  0  0  0  0  0
   -1.6090   -2.6268   -0.4264 H   0  0  0  0  0  0  0  0  0  0  0  0
   -2.7771    2.5563    0.3394 H   0  0  0  0  0  0  0  0  0  0  0  0
   -4.2452   -1.2254   -0.7502 H   0  0  0  0  0  0  0  0  0  0  0  0
   -4.8732    1.3928   -0.3719 H   0  0  0  0  0  0  0  0  0  0  0  0
    0.4705   -3.2441   -0.0739 H   0  0  0  0  0  0  0  0  0  0  0  0
    4.3056    1.0217    1.3471 H   0  0  0  0  0  0  0  0  0  0  0  0
  1  2  1  0  0  0  0
  1  4  1  0  0  0  0
  1  5  2  0  0  0  0
  1  6  2  0  0  0  0
  2 11  1  0  0  0  0
  3 13  1  0  0  0  0
  3 21  1  0  0  0  0
  4 22  1  0  0  0  0
  7  8  1  0  0  0  0
  7 15  1  0  0  0  0
  7 18  1  0  0  0  0
  8  9  1  0  0  0  0
  8 10  2  0  0  0  0
  9 12  2  0  0  0  0
  9 14  1  0  0  0  0
 10 11  1  0  0  0  0
 10 16  1  0  0  0  0
 11 13  2  0  0  0  0
 12 13  1  0  0  0  0
 12 17  1  0  0  0  0
 14 15  2  0  0  0  0
 14 19  1  0  0  0  0
 15 20  1  0  0  0  0
M  END
> <PUBCHEM_COMPOUND_CID>
126034

> <PUBCHEM_CONFORMER_RMSD>
0.6

> <PUBCHEM_CONFORMER_DIVERSEORDER>
1
4
3
2

> <PUBCHEM_MMFF94_PARTIAL_CHARGES>
21
1 1.67
10 -0.15
11 0.08
12 -0.15
13 0.08
14 -0.15
15 -0.3
16 0.15
17 0.15
18 0.27
19 0.15
2 -0.27
20 0.15
21 0.45
22 0.5
3 -0.53
4 -0.68
5 -0.65
6 -0.65
7 0.03
8 -0.15

> <PUBCHEM_EFFECTIVE_ROTOR_COUNT>
2

> <PUBCHEM_PHARMACOPHORE_FEATURES>
9
1 3 donor
1 4 acceptor
1 5 acceptor
1 6 acceptor
1 7 cation
1 7 donor
4 1 4 5 6 anion
5 7 8 9 14 15 rings
6 8 9 10 11 12 13 rings

> <PUBCHEM_HEAVY_ATOM_COUNT>
15

> <PUBCHEM_ATOM_DEF_STEREO_COUNT>
0

> <PUBCHEM_ATOM_UDEF_STEREO_COUNT>
0

> <PUBCHEM_BOND_DEF_STEREO_COUNT>
0

> <PUBCHEM_BOND_UDEF_STEREO_COUNT>
0

> <PUBCHEM_ISOTOPIC_ATOM_COUNT>
0

> <PUBCHEM_COMPONENT_COUNT>
1

> <PUBCHEM_CACTVS_TAUTO_COUNT>
8

> <PUBCHEM_CONFORMER_ID>
0001EC5200000001

> <PUBCHEM_MMFF94_ENERGY>
26.0342

> <PUBCHEM_FEATURE_SELFOVERLAP>
45.819

> <PUBCHEM_SHAPE_FINGERPRINT>
11132069 177 18410852174568098049
12202030 40 14260482795667537671
13380535 21 18340493274946145475
13380535 76 18407757036467026027
14289901 80 15357697491934280865
14325111 11 18411418410118616897
14897335 6 18410288094948639594
14943859 89 18413386557391296275
14993402 34 18260826020734731509
15536298 74 18271805662340438278
15775835 57 17967533497428102364
16945 1 18341038697111463179
18186145 218 18342750580443492124
200 152 15913616055779628068
20201158 50 17846785130565780318
20279233 1 17561365110366340708
20281407 28 10735880564535809751
20361792 2 13254795728751676843
20645476 183 18187924018704161922
20653085 51 18334306391176710576
21501502 16 18196928882097684323
21524375 3 18260263066270038994
231179 274 17677041357032940781
23402539 116 18343291592120820300
23402655 69 18198888242315968061
23463225 33 18335130947677919114
23552423 10 18193552268919733211
23559900 14 18130788984664055360
25 1 18336266760395524499
2748010 2 17764010760059095003
353137 74 18271812280636965865
4990 188 17847062173109848461
528886 8 18409443695830249721
58051976 378 18411695461648316941
69090 78 17989202672382557590
7364860 26 18198339559484501702
9981440 41 17178276786996698304

> <PUBCHEM_SHAPE_MULTIPOLES>
278.21
6.52
1.82
0.84
1.35
0.56
0.07
-2.3
1.06
0.02
0.04
0.39
-0.02
-0.15

> <PUBCHEM_SHAPE_SELFOVERLAP>
596.003

> <PUBCHEM_SHAPE_VOLUME>
156.2

> <PUBCHEM_COORDINATE_TYPE>
2
5
10

$$$$
