REMARK  Name = 126079
REMARK  9 active torsions:
REMARK  status: ('A' for Active; 'I' for Inactive)
REMARK    1  A    between atoms: N_3  and  C_26
REMARK    2  A    between atoms: N_4  and  C_29
REMARK    3  A    between atoms: C_11  and  C_14
REMARK    4  A    between atoms: C_19  and  O_20
REMARK    5  A    between atoms: O_20  and  C_21
REMARK    6  A    between atoms: C_21  and  C_23
REMARK    7  A    between atoms: C_23  and  O_24
REMARK    8  A    between atoms: C_26  and  C_27
REMARK    9  A    between atoms: C_29  and  C_30
REMARK                            x       y       z     vdW  Elec       q    Type
REMARK                         _______ _______ _______ _____ _____    ______ ____
ROOT
ATOM      1  O   UNL     1       5.285   1.110   0.830  0.00  0.00    -0.246 OA
ATOM      2  O   UNL     1       3.007  -2.900  -0.051  0.00  0.00    -0.265 OA
ATOM      3  N   UNL     1       2.976   1.194   0.553  0.00  0.00    -0.269 N 
ATOM      4  N   UNL     1       4.174  -0.905   0.392  0.00  0.00    -0.248 N 
ATOM      5  N   UNL     1       0.536  -1.228  -0.114  0.00  0.00    -0.310 N 
ATOM      6  N   UNL     1       0.548   0.977   0.216  0.00  0.00    -0.301 N 
ATOM      7  C   UNL     1       1.818   0.473   0.300  0.00  0.00    +0.132 A 
ATOM      8  C   UNL     1       1.839  -0.881   0.101  0.00  0.00    +0.133 A 
ATOM      9  C   UNL     1       4.222   0.520   0.609  0.00  0.00    +0.335 A 
ATOM     10  C   UNL     1       3.017  -1.686   0.130  0.00  0.00    +0.280 A 
ATOM     11  C   UNL     1      -0.203  -0.075  -0.035  0.00  0.00    +0.169 C 
ATOM     12  H   UNL     1       0.192  -2.133  -0.291  0.00  0.00    +0.149 HD
ATOM     13  H   UNL     1       0.262   1.913   0.319  0.00  0.00    +0.150 HD
ENDROOT
BRANCH  11  14
ATOM     14  C   UNL     1      -1.635  -0.073  -0.214  0.00  0.00    +0.015 C 
ATOM     15  C   UNL     1      -2.269   1.051  -0.741  0.00  0.00    +0.002 C 
ATOM     16  C   UNL     1      -2.383  -1.195   0.141  0.00  0.00    +0.002 C 
ATOM     17  C   UNL     1      -3.654   1.053  -0.914  0.00  0.00    +0.037 C 
ATOM     18  C   UNL     1      -3.767  -1.193  -0.031  0.00  0.00    +0.037 C 
ATOM     19  C   UNL     1      -4.403  -0.069  -0.559  0.00  0.00    +0.139 C 
BRANCH  19  20
ATOM     20  O   UNL     1      -5.753  -0.066  -0.727  0.00  0.00    -0.464 OA
BRANCH  20  21
ATOM     21  C   UNL     1      -6.522  -0.854   0.180  0.00  0.00    +0.314 C 
BRANCH  21  23
ATOM     22  O   UNL     1      -8.279   0.788  -0.166  0.00  0.00    -0.246 OA
ATOM     23  C   UNL     1      -7.884  -0.242   0.359  0.00  0.00    +0.359 C 
BRANCH  23  24
ATOM     24  O   UNL     1      -8.633  -1.002   1.197  0.00  0.00    -0.478 OA
ATOM     25  H   UNL     1      -8.273  -1.783   1.569  0.00  0.00    +0.295 HD
ENDBRANCH  23  24
ENDBRANCH  21  23
ENDBRANCH  20  21
ENDBRANCH  19  20
ENDBRANCH  11  14
BRANCH   3  26
ATOM     26  C   UNL     1       2.904   2.636   0.758  0.00  0.00    +0.112 C 
BRANCH  26  27
ATOM     27  C   UNL     1       3.049   3.416  -0.543  0.00  0.00    +0.025 C 
ATOM     28  C   UNL     1       2.996   4.923  -0.335  0.00  0.00    +0.002 C 
ENDBRANCH  26  27
ENDBRANCH   3  26
BRANCH   4  29
ATOM     29  C   UNL     1       5.445  -1.618   0.447  0.00  0.00    +0.114 C 
BRANCH  29  30
ATOM     30  C   UNL     1       6.126  -1.696  -0.914  0.00  0.00    +0.025 C 
ATOM     31  C   UNL     1       7.443  -2.458  -0.870  0.00  0.00    +0.002 C 
ENDBRANCH  29  30
ENDBRANCH   4  29
TORSDOF 9
