126029
  -OEChem-03292013323D

 57 60  0     0  0  0  0  0  0999 V2000
    3.9308    0.1050    1.9802 O   0  0  0  0  0  0  0  0  0  0  0  0
    1.2337    4.4171    0.0757 O   0  0  0  0  0  0  0  0  0  0  0  0
    6.1617   -1.4243    1.4896 O   0  0  0  0  0  0  0  0  0  0  0  0
    6.8008   -2.1471   -1.1053 O   0  0  0  0  0  0  0  0  0  0  0  0
   -7.5001   -1.5085    0.0489 O   0  0  0  0  0  0  0  0  0  0  0  0
   -3.8807    0.0317   -2.6040 O   0  0  0  0  0  0  0  0  0  0  0  0
   -5.8592   -1.0893    2.2257 O   0  0  0  0  0  0  0  0  0  0  0  0
   -0.0280    2.5222    0.3056 N   0  0  0  0  0  0  0  0  0  0  0  0
   -2.2857    0.4450   -0.5181 N   0  0  0  0  0  0  0  0  0  0  0  0
    0.8315   -1.0236    0.1004 N   0  0  0  0  0  0  0  0  0  0  0  0
   -6.4428   -0.9146   -2.4977 N   0  0  0  0  0  0  0  0  0  0  0  0
    2.2257    0.9805   -0.1335 C   0  0  0  0  0  0  0  0  0  0  0  0
   -0.1571    1.1548    0.3213 C   0  0  0  0  0  0  0  0  0  0  0  0
    0.9071    0.3491    0.1090 C   0  0  0  0  0  0  0  0  0  0  0  0
    2.3651    2.3289   -0.1502 C   0  0  0  0  0  0  0  0  0  0  0  0
    3.4375    0.1566   -0.3649 C   0  0  0  0  0  0  0  0  0  0  0  0
   -1.5129    0.6385    0.5737 C   0  0  0  0  0  0  0  0  0  0  0  0
    1.1547    3.1898    0.0836 C   0  0  0  0  0  0  0  0  0  0  0  0
   -4.0384   -0.3168    0.9588 C   0  0  0  0  0  0  0  0  0  0  0  0
   -3.5334   -0.0296   -0.2964 C   0  0  0  0  0  0  0  0  0  0  0  0
    4.2374   -0.2483    0.6980 C   0  0  0  0  0  0  0  0  0  0  0  0
   -1.9257    0.3819    1.8711 C   0  0  0  0  0  0  0  0  0  0  0  0
    3.6349    3.1070   -0.3829 C   0  0  0  0  0  0  0  0  0  0  0  0
    3.7569   -0.2045   -1.6695 C   0  0  0  0  0  0  0  0  0  0  0  0
   -3.2144   -0.1051    2.0632 C   0  0  0  0  0  0  0  0  0  0  0  0
    5.3709   -1.0238    0.4535 C   0  0  0  0  0  0  0  0  0  0  0  0
   -4.3493   -0.2300   -1.5012 C   0  0  0  0  0  0  0  0  0  0  0  0
   -5.4048   -0.8302    1.1181 C   0  0  0  0  0  0  0  0  0  0  0  0
    4.8901   -0.9799   -1.9139 C   0  0  0  0  0  0  0  0  0  0  0  0
    5.6971   -1.3896   -0.8526 C   0  0  0  0  0  0  0  0  0  0  0  0
   -5.7383   -0.7513   -1.3379 C   0  0  0  0  0  0  0  0  0  0  0  0
   -6.2137   -1.0253   -0.1126 C   0  0  0  0  0  0  0  0  0  0  0  0
    5.8416   -2.6707    2.1033 C   0  0  0  0  0  0  0  0  0  0  0  0
    8.0224   -1.4519   -1.3473 C   0  0  0  0  0  0  0  0  0  0  0  0
   -8.4155   -0.4439    0.2082 C   0  0  0  0  0  0  0  0  0  0  0  0
   -0.8632    3.0783    0.4680 H   0  0  0  0  0  0  0  0  0  0  0  0
   -1.2752    0.5505    2.7235 H   0  0  0  0  0  0  0  0  0  0  0  0
    4.5155    2.4822   -0.5491 H   0  0  0  0  0  0  0  0  0  0  0  0
    3.8513    3.7413    0.4837 H   0  0  0  0  0  0  0  0  0  0  0  0
    3.5264    3.7496   -1.2633 H   0  0  0  0  0  0  0  0  0  0  0  0
    3.1375    0.1062   -2.5071 H   0  0  0  0  0  0  0  0  0  0  0  0
   -3.5568   -0.3127    3.0730 H   0  0  0  0  0  0  0  0  0  0  0  0
   -0.0561   -1.4843    0.2569 H   0  0  0  0  0  0  0  0  0  0  0  0
    1.6540   -1.5887   -0.0641 H   0  0  0  0  0  0  0  0  0  0  0  0
    5.1378   -1.2619   -2.9337 H   0  0  0  0  0  0  0  0  0  0  0  0
    3.1137    0.6265    2.0141 H   0  0  0  0  0  0  0  0  0  0  0  0
   -6.0140   -0.6868   -3.3860 H   0  0  0  0  0  0  0  0  0  0  0  0
   -7.3890   -1.2731   -2.4675 H   0  0  0  0  0  0  0  0  0  0  0  0
    5.9236   -3.4884    1.3802 H   0  0  0  0  0  0  0  0  0  0  0  0
    6.5556   -2.8473    2.9123 H   0  0  0  0  0  0  0  0  0  0  0  0
    4.8327   -2.6445    2.5270 H   0  0  0  0  0  0  0  0  0  0  0  0
    8.8082   -2.1914   -1.5235 H   0  0  0  0  0  0  0  0  0  0  0  0
    8.3001   -0.8464   -0.4787 H   0  0  0  0  0  0  0  0  0  0  0  0
    7.9331   -0.8175   -2.2348 H   0  0  0  0  0  0  0  0  0  0  0  0
   -8.4471    0.2000   -0.6775 H   0  0  0  0  0  0  0  0  0  0  0  0
   -8.1831    0.1543    1.0962 H   0  0  0  0  0  0  0  0  0  0  0  0
   -9.4135   -0.8715    0.3453 H   0  0  0  0  0  0  0  0  0  0  0  0
  1 21  1  0  0  0  0
  1 46  1  0  0  0  0
  2 18  2  0  0  0  0
  3 26  1  0  0  0  0
  3 33  1  0  0  0  0
  4 30  1  0  0  0  0
  4 34  1  0  0  0  0
  5 32  1  0  0  0  0
  5 35  1  0  0  0  0
  6 27  2  0  0  0  0
  7 28  2  0  0  0  0
  8 13  1  0  0  0  0
  8 18  1  0  0  0  0
  8 36  1  0  0  0  0
  9 17  2  0  0  0  0
  9 20  1  0  0  0  0
 10 14  1  0  0  0  0
 10 43  1  0  0  0  0
 10 44  1  0  0  0  0
 11 31  1  0  0  0  0
 11 47  1  0  0  0  0
 11 48  1  0  0  0  0
 12 14  1  0  0  0  0
 12 15  2  0  0  0  0
 12 16  1  0  0  0  0
 13 14  2  0  0  0  0
 13 17  1  0  0  0  0
 15 18  1  0  0  0  0
 15 23  1  0  0  0  0
 16 21  2  0  0  0  0
 16 24  1  0  0  0  0
 17 22  1  0  0  0  0
 19 20  2  0  0  0  0
 19 25  1  0  0  0  0
 19 28  1  0  0  0  0
 20 27  1  0  0  0  0
 21 26  1  0  0  0  0
 22 25  2  0  0  0  0
 22 37  1  0  0  0  0
 23 38  1  0  0  0  0
 23 39  1  0  0  0  0
 23 40  1  0  0  0  0
 24 29  2  0  0  0  0
 24 41  1  0  0  0  0
 25 42  1  0  0  0  0
 26 30  2  0  0  0  0
 27 31  1  0  0  0  0
 28 32  1  0  0  0  0
 29 30  1  0  0  0  0
 29 45  1  0  0  0  0
 31 32  2  0  0  0  0
 33 49  1  0  0  0  0
 33 50  1  0  0  0  0
 33 51  1  0  0  0  0
 34 52  1  0  0  0  0
 34 53  1  0  0  0  0
 34 54  1  0  0  0  0
 35 55  1  0  0  0  0
 35 56  1  0  0  0  0
 35 57  1  0  0  0  0
M  END
> <PUBCHEM_COMPOUND_CID>
126029

> <PUBCHEM_CONFORMER_RMSD>
0.8

> <PUBCHEM_CONFORMER_DIVERSEORDER>
2
5
9
4
7
11
10
3
1
8
6

> <PUBCHEM_MMFF94_PARTIAL_CHARGES>
45
1 -0.53
10 -0.9
11 -0.9
12 -0.03
13 0.08
14 0.1
15 -0.12
16 0.03
17 0.34
18 0.62
19 0.09
2 -0.57
20 0.4
21 0.08
22 -0.15
23 0.14
24 -0.15
25 -0.15
26 0.08
27 0.47
28 0.47
29 -0.15
3 -0.36
30 0.08
31 0.11
32 0.09
33 0.28
34 0.28
35 0.28
36 0.37
37 0.15
4 -0.36
41 0.15
42 0.15
43 0.4
44 0.4
45 0.15
46 0.45
47 0.4
48 0.4
5 -0.36
6 -0.57
7 -0.57
8 -0.54
9 -0.62

> <PUBCHEM_EFFECTIVE_ROTOR_COUNT>
5

> <PUBCHEM_PHARMACOPHORE_FEATURES>
17
1 1 donor
1 10 cation
1 10 donor
1 11 cation
1 11 donor
1 2 acceptor
1 3 acceptor
1 4 acceptor
1 5 acceptor
1 6 acceptor
1 7 acceptor
1 8 donor
1 9 acceptor
6 16 21 24 26 29 30 rings
6 19 20 27 28 31 32 rings
6 8 12 13 14 15 18 rings
6 9 17 19 20 22 25 rings

> <PUBCHEM_HEAVY_ATOM_COUNT>
35

> <PUBCHEM_ATOM_DEF_STEREO_COUNT>
0

> <PUBCHEM_ATOM_UDEF_STEREO_COUNT>
0

> <PUBCHEM_BOND_DEF_STEREO_COUNT>
0

> <PUBCHEM_BOND_UDEF_STEREO_COUNT>
0

> <PUBCHEM_ISOTOPIC_ATOM_COUNT>
0

> <PUBCHEM_COMPONENT_COUNT>
1

> <PUBCHEM_CACTVS_TAUTO_COUNT>
275

> <PUBCHEM_CONFORMER_ID>
0001EC4D00000002

> <PUBCHEM_MMFF94_ENERGY>
143.2243

> <PUBCHEM_FEATURE_SELFOVERLAP>
86.321

> <PUBCHEM_SHAPE_FINGERPRINT>
10 15 13470683758739240250
10319926 262 14979689774934293456
10670039 82 15430304811937448199
11331351 85 17988372463747462897
11505856 67 10085338056502182824
117089 54 18119251654288151234
11991303 11 17684371650795765868
12047536 79 12390691675176320614
12166972 35 18131070450059327808
12236239 1 17703516588487964601
12616971 3 18130793386419977609
13533116 47 18060418066257266608
13673619 4 18186803582375450437
13782708 43 18040434430028146163
14068700 675 18202008706847953777
14931854 50 17386014931998263834
15021287 119 18272099301165775913
15082195 135 15647349537106121494
15183329 4 15864068754232651875
15188451 53 17632297856548194491
15320294 125 17131832075824598181
1577012 14 17775006860169287125
17349148 13 18131357422509449585
1813 80 18272942604661115492
18222031 100 18413109450934486744
18393751 57 12319735860909963741
20028762 73 18060424611914396766
21033650 10 15936407819232437533
21344244 78 17704354372818961336
21792934 111 16558752291838323963
21792938 703 18199747114656799126
22061861 79 18040998470702443043
2303208 19 17749394827616222457
23559900 14 17240766232932381649
34797466 226 16878227575257106221
3504750 166 17560803187200299181
4339292 15 18341614747417244718
5104073 3 15195571169281787258
5265222 85 16515979158323106322
57527295 17 17895472510271247265
6669772 16 18116147956089118280
6697151 62 18410003373303889497
9663363 56 18410573972836235536
9962374 69 18272929470666688974

> <PUBCHEM_SHAPE_MULTIPOLES>
659.27
21.59
2.83
2.07
11.26
3.38
0.13
-17.96
3.68
-4.61
-0.32
0.71
-1.04
-0.37

> <PUBCHEM_SHAPE_SELFOVERLAP>
1460.939

> <PUBCHEM_SHAPE_VOLUME>
351.3

> <PUBCHEM_COORDINATE_TYPE>
2
5
10

$$$$
