12600646
  -OEChem-03292013303D

 36 36  0     1  0  0  0  0  0999 V2000
    6.4169    0.7682    1.5534 Cl  0  0  0  0  0  0  0  0  0  0  0  0
   -2.7189    1.3243    0.0719 O   0  0  0  0  0  0  0  0  0  0  0  0
   -0.9643   -2.2898    1.0209 O   0  0  0  0  0  0  0  0  0  0  0  0
   -3.7695   -2.1937    0.3740 O   0  0  0  0  0  0  0  0  0  0  0  0
   -1.4799    0.8742   -1.8945 O   0  0  0  0  0  0  0  0  0  0  0  0
   -5.4093    1.7225   -0.1673 O   0  0  0  0  0  0  0  0  0  0  0  0
    1.6383    1.2483    1.1008 O   0  0  0  0  0  0  0  0  0  0  0  0
    4.1167   -1.0780   -2.0009 O   0  0  0  0  0  0  0  0  0  0  0  0
    0.6101   -0.2484   -0.3095 N   0  0  0  0  0  0  0  0  0  0  0  0
    2.9441    0.1111   -0.4396 N   0  0  0  0  0  0  0  0  0  0  0  0
    2.9844   -0.8917   -1.5425 N   0  0  0  0  0  0  0  0  0  0  0  0
   -0.7142   -0.0327    0.2267 C   0  0  2  0  0  0  0  0  0  0  0  0
   -1.5548   -1.3106    0.1639 C   0  0  2  0  0  0  0  0  0  0  0  0
   -2.9836   -1.0352    0.6431 C   0  0  1  0  0  0  0  0  0  0  0  0
   -3.5809    0.1889   -0.0609 C   0  0  1  0  0  0  0  0  0  0  0  0
   -1.4204    1.1218   -0.4910 C   0  0  2  0  0  0  0  0  0  0  0  0
   -4.9331    0.5841    0.5264 C   0  0  0  0  0  0  0  0  0  0  0  0
    1.7256    0.4284    0.1810 C   0  0  0  0  0  0  0  0  0  0  0  0
    4.1922    0.7408   -0.0274 C   0  0  0  0  0  0  0  0  0  0  0  0
    4.9008   -0.0326    1.0718 C   0  0  0  0  0  0  0  0  0  0  0  0
   -0.6057    0.2418    1.2850 H   0  0  0  0  0  0  0  0  0  0  0  0
   -1.5624   -1.7522   -0.8388 H   0  0  0  0  0  0  0  0  0  0  0  0
   -2.9855   -0.8805    1.7295 H   0  0  0  0  0  0  0  0  0  0  0  0
   -3.7322   -0.0155   -1.1291 H   0  0  0  0  0  0  0  0  0  0  0  0
   -0.8609    2.0529   -0.3554 H   0  0  0  0  0  0  0  0  0  0  0  0
   -5.6680   -0.2194    0.4220 H   0  0  0  0  0  0  0  0  0  0  0  0
   -4.8480    0.8490    1.5855 H   0  0  0  0  0  0  0  0  0  0  0  0
    0.6906   -0.8487   -1.1222 H   0  0  0  0  0  0  0  0  0  0  0  0
   -0.9492   -1.9317    1.9248 H   0  0  0  0  0  0  0  0  0  0  0  0
   -3.3524   -2.9424    0.8334 H   0  0  0  0  0  0  0  0  0  0  0  0
   -1.5065   -0.0810   -2.0583 H   0  0  0  0  0  0  0  0  0  0  0  0
   -4.7470    2.4274   -0.0662 H   0  0  0  0  0  0  0  0  0  0  0  0
    3.9554    1.7462    0.3430 H   0  0  0  0  0  0  0  0  0  0  0  0
    4.8424    0.8878   -0.8977 H   0  0  0  0  0  0  0  0  0  0  0  0
    4.2715   -0.1165    1.9634 H   0  0  0  0  0  0  0  0  0  0  0  0
    5.1530   -1.0454    0.7428 H   0  0  0  0  0  0  0  0  0  0  0  0
  1 20  1  0  0  0  0
  2 15  1  0  0  0  0
  2 16  1  0  0  0  0
  3 13  1  0  0  0  0
  3 29  1  0  0  0  0
  4 14  1  0  0  0  0
  4 30  1  0  0  0  0
  5 16  1  0  0  0  0
  5 31  1  0  0  0  0
  6 17  1  0  0  0  0
  6 32  1  0  0  0  0
  7 18  2  0  0  0  0
  8 11  2  0  0  0  0
  9 12  1  0  0  0  0
  9 18  1  0  0  0  0
  9 28  1  0  0  0  0
 10 11  1  0  0  0  0
 10 18  1  0  0  0  0
 10 19  1  0  0  0  0
 12 13  1  0  0  0  0
 12 16  1  0  0  0  0
 12 21  1  0  0  0  0
 13 14  1  0  0  0  0
 13 22  1  0  0  0  0
 14 15  1  0  0  0  0
 14 23  1  0  0  0  0
 15 17  1  0  0  0  0
 15 24  1  0  0  0  0
 16 25  1  0  0  0  0
 17 26  1  0  0  0  0
 17 27  1  0  0  0  0
 19 20  1  0  0  0  0
 19 33  1  0  0  0  0
 19 34  1  0  0  0  0
 20 35  1  0  0  0  0
 20 36  1  0  0  0  0
M  END
> <PUBCHEM_COMPOUND_CID>
12600646

> <PUBCHEM_CONFORMER_RMSD>
0.8

> <PUBCHEM_CONFORMER_DIVERSEORDER>
1
128
169
14
76
148
113
176
243
54
184
126
279
190
223
40
108
10
11
188
197
165
242
103
170
65
236
249
264
134
180
253
99
106
150
131
162
82
181
199
36
189
44
213
179
239
45
13
234
154
68
85
74
273
229
228
202
214
182
138
80
265
114
69
58
75
267
247
141
210
198
96
116
97
174
155
230
177
77
185
63
168
151
192
23
79
67
89
221
110
7
111
16
262
231
35
21
241
225
159
205
194
250
38
59
92
102
203
8
218
248
61
282
263
46
208
12
29
269
240
6
120
95
146
207
118
187
209
129
147
281
25
51
256
183
87
259
220
94
121
152
9
244
235
160
34
140
216
171
117
268
20
222
78
28
274
55
127
277
237
2
149
71
254
50
280
52
283
56
212
166
123
156
37
252
215
119
90
24
88
41
27
47
272
195
4
60
26
196
224
81
122
206
98
139
107
84
153
31
232
227
193
57
257
211
62
271
72
32
275
186
83
157
48
246
161
219
109
49
226
3
5
261
201
137
125
278
18
33
22
17
124
135
270
260
143
217
30
43
266
158
133
145
136
104
276
130
191
255
167
284
73
245
115
164
132
70
144
100
178
112
142
258
19
238
204
86
172
173
163
64
42
251
93
66
101
200
105
53
91
39
175
233
15

> <PUBCHEM_MMFF94_PARTIAL_CHARGES>
25
1 -0.29
10 -0.18
11 -0.02
12 0.3
13 0.28
14 0.28
15 0.28
16 0.56
17 0.28
18 0.69
19 0.3
2 -0.56
20 0.29
28 0.37
29 0.4
3 -0.68
30 0.4
31 0.4
32 0.4
4 -0.68
5 -0.68
6 -0.68
7 -0.57
8 -0.16
9 -0.73

> <PUBCHEM_EFFECTIVE_ROTOR_COUNT>
8.2

> <PUBCHEM_PHARMACOPHORE_FEATURES>
12
1 2 acceptor
1 3 acceptor
1 3 donor
1 4 acceptor
1 4 donor
1 5 acceptor
1 5 donor
1 6 acceptor
1 6 donor
1 7 acceptor
1 9 donor
6 2 12 13 14 15 16 rings

> <PUBCHEM_HEAVY_ATOM_COUNT>
20

> <PUBCHEM_ATOM_DEF_STEREO_COUNT>
4

> <PUBCHEM_ATOM_UDEF_STEREO_COUNT>
1

> <PUBCHEM_BOND_DEF_STEREO_COUNT>
0

> <PUBCHEM_BOND_UDEF_STEREO_COUNT>
0

> <PUBCHEM_ISOTOPIC_ATOM_COUNT>
0

> <PUBCHEM_COMPONENT_COUNT>
1

> <PUBCHEM_CACTVS_TAUTO_COUNT>
2

> <PUBCHEM_CONFORMER_ID>
00C0454600000001

> <PUBCHEM_MMFF94_ENERGY>
40.2194

> <PUBCHEM_FEATURE_SELFOVERLAP>
60.953

> <PUBCHEM_SHAPE_FINGERPRINT>
10366900 7 9727635020731840932
11132069 177 18335427863346726485
12236239 1 16660082208836882452
12616971 3 16226049998082961678
13533116 47 13686303435481532284
13544592 145 18340499875867748454
13760787 5 15864073199460506326
14386348 63 18201725054680902454
15375358 24 18130790079326775786
200 152 16415481532613020289
20279233 1 18202569488285443054
20645477 56 18413669119021353328
20645477 70 16988286361498964484
23048698 100 15626228996403855510
23402539 116 18335411396057095660
23559900 14 18340220604715669598
300161 21 15410887458034286748
34934 24 17131827677514263972
474 4 15553588751692984202
5104073 3 18409449223532366234
573450 72 18041272248966001306

> <PUBCHEM_SHAPE_MULTIPOLES>
357.43
12.47
1.69
1.37
9.51
0.61
0.53
-3.03
-3.45
-1.71
-0.18
1.66
0.19
1.51

> <PUBCHEM_SHAPE_SELFOVERLAP>
699.467

> <PUBCHEM_SHAPE_VOLUME>
213.4

> <PUBCHEM_COORDINATE_TYPE>
2
5
10

$$$$
