126040
  -OEChem-03292013323D

 40 41  0     1  0  0  0  0  0999 V2000
    7.8584   -0.4655   -1.2631 Cl  0  0  0  0  0  0  0  0  0  0  0  0
   -5.5378    1.2636   -0.4606 F   0  0  0  0  0  0  0  0  0  0  0  0
   -1.0151    1.0864    1.1144 O   0  0  0  0  0  0  0  0  0  0  0  0
   -1.4057    3.8424    0.8237 O   0  0  0  0  0  0  0  0  0  0  0  0
   -2.0885   -2.8240    0.3385 O   0  0  0  0  0  0  0  0  0  0  0  0
    3.1136    0.2246   -1.7926 O   0  0  0  0  0  0  0  0  0  0  0  0
   -6.3714   -1.3238   -0.5021 O   0  0  0  0  0  0  0  0  0  0  0  0
    4.8899   -1.2537    2.1864 O   0  0  0  0  0  0  0  0  0  0  0  0
   -2.4390   -0.5182    0.1785 N   0  0  0  0  0  0  0  0  0  0  0  0
    1.8994    0.4282    0.1501 N   0  0  0  0  0  0  0  0  0  0  0  0
   -4.2200   -2.0767   -0.0790 N   0  0  0  0  0  0  0  0  0  0  0  0
    4.0655   -0.5417    0.1766 N   0  0  0  0  0  0  0  0  0  0  0  0
    3.9115   -0.7245    1.6484 N   0  0  0  0  0  0  0  0  0  0  0  0
    0.7556    1.0484   -0.4774 C   0  0  2  0  0  0  0  0  0  0  0  0
   -0.0094    1.9232    0.5120 C   0  0  1  0  0  0  0  0  0  0  0  0
   -0.2744    0.0124   -0.8702 C   0  0  0  0  0  0  0  0  0  0  0  0
   -1.0696   -0.1622    0.4120 C   0  0  1  0  0  0  0  0  0  0  0  0
   -0.7150    3.0935   -0.1629 C   0  0  0  0  0  0  0  0  0  0  0  0
   -2.8520   -1.8723    0.1606 C   0  0  0  0  0  0  0  0  0  0  0  0
   -3.3613    0.4991   -0.0323 C   0  0  0  0  0  0  0  0  0  0  0  0
    3.0348    0.0471   -0.5727 C   0  0  0  0  0  0  0  0  0  0  0  0
   -4.6533    0.2704   -0.2573 C   0  0  0  0  0  0  0  0  0  0  0  0
   -5.1835   -1.1008   -0.2953 C   0  0  0  0  0  0  0  0  0  0  0  0
    5.3041   -0.9826   -0.4523 C   0  0  0  0  0  0  0  0  0  0  0  0
    6.3630    0.1067   -0.4836 C   0  0  0  0  0  0  0  0  0  0  0  0
    1.1099    1.6174   -1.3434 H   0  0  0  0  0  0  0  0  0  0  0  0
    0.6293    2.2993    1.3198 H   0  0  0  0  0  0  0  0  0  0  0  0
    0.1441   -0.9327   -1.2313 H   0  0  0  0  0  0  0  0  0  0  0  0
   -0.9075    0.4153   -1.6708 H   0  0  0  0  0  0  0  0  0  0  0  0
   -0.5958   -0.9177    1.0503 H   0  0  0  0  0  0  0  0  0  0  0  0
   -1.4428    2.7694   -0.9106 H   0  0  0  0  0  0  0  0  0  0  0  0
    0.0048    3.7551   -0.6558 H   0  0  0  0  0  0  0  0  0  0  0  0
    1.8237    0.1983    1.1347 H   0  0  0  0  0  0  0  0  0  0  0  0
   -3.0143    1.5215   -0.0169 H   0  0  0  0  0  0  0  0  0  0  0  0
   -0.7476    4.1725    1.4589 H   0  0  0  0  0  0  0  0  0  0  0  0
   -4.5372   -3.0420   -0.0959 H   0  0  0  0  0  0  0  0  0  0  0  0
    5.0712   -1.2796   -1.4828 H   0  0  0  0  0  0  0  0  0  0  0  0
    5.6740   -1.8876    0.0436 H   0  0  0  0  0  0  0  0  0  0  0  0
    6.0121    0.9818   -1.0397 H   0  0  0  0  0  0  0  0  0  0  0  0
    6.6228    0.4343    0.5277 H   0  0  0  0  0  0  0  0  0  0  0  0
  1 25  1  0  0  0  0
  2 22  1  0  0  0  0
  3 15  1  0  0  0  0
  3 17  1  0  0  0  0
  4 18  1  0  0  0  0
  4 35  1  0  0  0  0
  5 19  2  0  0  0  0
  6 21  2  0  0  0  0
  7 23  2  0  0  0  0
  8 13  2  0  0  0  0
  9 17  1  0  0  0  0
  9 19  1  0  0  0  0
  9 20  1  0  0  0  0
 10 14  1  0  0  0  0
 10 21  1  0  0  0  0
 10 33  1  0  0  0  0
 11 19  1  0  0  0  0
 11 23  1  0  0  0  0
 11 36  1  0  0  0  0
 12 13  1  0  0  0  0
 12 21  1  0  0  0  0
 12 24  1  0  0  0  0
 14 15  1  0  0  0  0
 14 16  1  0  0  0  0
 14 26  1  0  0  0  0
 15 18  1  0  0  0  0
 15 27  1  0  0  0  0
 16 17  1  0  0  0  0
 16 28  1  0  0  0  0
 16 29  1  0  0  0  0
 17 30  1  0  0  0  0
 18 31  1  0  0  0  0
 18 32  1  0  0  0  0
 20 22  2  0  0  0  0
 20 34  1  0  0  0  0
 22 23  1  0  0  0  0
 24 25  1  0  0  0  0
 24 37  1  0  0  0  0
 24 38  1  0  0  0  0
 25 39  1  0  0  0  0
 25 40  1  0  0  0  0
M  END
> <PUBCHEM_COMPOUND_CID>
126040

> <PUBCHEM_CONFORMER_RMSD>
1

> <PUBCHEM_CONFORMER_DIVERSEORDER>
1
56
62
51
42
83
23
77
76
49
22
57
39
69
13
29
73
54
84
34
24
70
2
79
53
63
80
59
55
14
81
75
25
11
66
38
60
20
21
32
16
74
3
47
35
27
68
9
33
4
15
40
61
37
10
5
26
58
71
7
48
30
52
12
43
36
41
19
72
6
31
78
67
44
65
8
45
64
82
28
17
50
46
18

> <PUBCHEM_MMFF94_PARTIAL_CHARGES>
28
1 -0.29
10 -0.73
11 -0.49
12 -0.18
13 -0.02
14 0.3
15 0.28
17 0.58
18 0.28
19 0.69
2 -0.15
20 -0.04
21 0.69
22 0.16
23 0.62
24 0.3
25 0.29
3 -0.56
33 0.37
34 0.15
35 0.4
36 0.37
4 -0.68
5 -0.57
6 -0.57
7 -0.57
8 -0.16
9 -0.47

> <PUBCHEM_EFFECTIVE_ROTOR_COUNT>
9

> <PUBCHEM_PHARMACOPHORE_FEATURES>
10
1 10 donor
1 11 donor
1 3 acceptor
1 4 acceptor
1 4 donor
1 5 acceptor
1 6 acceptor
1 7 acceptor
5 3 14 15 16 17 rings
6 9 11 19 20 22 23 rings

> <PUBCHEM_HEAVY_ATOM_COUNT>
25

> <PUBCHEM_ATOM_DEF_STEREO_COUNT>
3

> <PUBCHEM_ATOM_UDEF_STEREO_COUNT>
0

> <PUBCHEM_BOND_DEF_STEREO_COUNT>
0

> <PUBCHEM_BOND_UDEF_STEREO_COUNT>
0

> <PUBCHEM_ISOTOPIC_ATOM_COUNT>
0

> <PUBCHEM_COMPONENT_COUNT>
1

> <PUBCHEM_CACTVS_TAUTO_COUNT>
6

> <PUBCHEM_CONFORMER_ID>
0001EC5800000001

> <PUBCHEM_MMFF94_ENERGY>
51.9758

> <PUBCHEM_FEATURE_SELFOVERLAP>
50.752

> <PUBCHEM_SHAPE_FINGERPRINT>
10 15 17846769738215479058
10165383 225 10881394348856450823
10366900 7 17775568611563211994
11265709 11 18411141358984848273
11315181 36 17988932179695121474
11796584 16 18260552250819047606
12236239 1 18040435477931308534
12403259 118 12391521862253339378
12516196 113 18272088318464556952
12788726 201 18336265643830849496
13288520 33 18411984680661993895
13782708 43 17417819383852534918
15183329 4 17675919898006445535
17980427 23 17131569313830933377
18006028 8 18343022211333970564
18681886 176 18410576223705079790
200 152 17748831813069570716
20511986 3 18041271149749571110
21267235 1 18409735101494333883
21703447 108 17619619624534999795
2297311 6 18272093777536879780
23366157 5 17900820762594222629
23402539 116 18343299254521818037
23557571 272 17987804003920296756
23559900 14 18341048605485230328
3004659 81 18259984898787333486
314173 85 18130520685602503924
335352 9 18410571782888490957
5104073 3 18199473341288829403
5283173 99 18334572434452686045
54446538 1 11815897855821264298
559249 180 18335417954862923471
59755656 215 18412268311776273046
7226269 152 18411419475692655305

> <PUBCHEM_SHAPE_MULTIPOLES>
448.96
16.07
2.65
1.2
17.3
2
0.35
-7.9
-3.94
-3.16
0.59
1.86
-0.17
-0.6

> <PUBCHEM_SHAPE_SELFOVERLAP>
917.339

> <PUBCHEM_SHAPE_VOLUME>
261.1

> <PUBCHEM_COORDINATE_TYPE>
2
5
10

$$$$
