REMARK  Name = 126051
REMARK  5 active torsions:
REMARK  status: ('A' for Active; 'I' for Inactive)
REMARK    1  A    between atoms: N_1  and  C_12
REMARK    2  A    between atoms: C_4  and  O_10
REMARK    3  A    between atoms: C_12  and  C_13
REMARK    4  A    between atoms: C_13  and  S_14
REMARK    5  A    between atoms: S_14  and  C_17
REMARK                            x       y       z     vdW  Elec       q    Type
REMARK                         _______ _______ _______ _____ _____    ______ ____
ROOT
ATOM      1  N   UNL     1      -0.628   0.367  -0.431  0.00  0.00    -0.256 N 
ATOM      2  N   UNL     1      -2.505   1.314   0.245  0.00  0.00    -0.368 NA
ATOM      3  C   UNL     1      -1.247   1.523  -0.074  0.00  0.00    +0.164 C 
ATOM      4  C   UNL     1      -1.528  -0.646  -0.340  0.00  0.00    +0.269 C 
ATOM      5  C   UNL     1      -2.686  -0.037   0.081  0.00  0.00    +0.298 C 
ATOM      6  C   UNL     1      -0.554   2.828  -0.060  0.00  0.00    +0.084 C 
ATOM      7  O   UNL     1      -4.097  -1.852   0.188  0.00  0.00    -0.124 OA
ATOM      8  O   UNL     1      -4.890   0.126   0.725  0.00  0.00    -0.124 OA
ATOM      9  N   UNL     1      -3.938  -0.609   0.341  0.00  0.00    +0.088 N 
ENDROOT
BRANCH   4  10
ATOM     10  O   UNL     1      -1.225  -1.904  -0.625  0.00  0.00    -0.360 OA
ATOM     11  H   UNL     1      -0.358  -2.125  -0.904  0.00  0.00    +0.213 HD
ENDBRANCH   4  10
BRANCH   1  12
ATOM     12  C   UNL     1       0.765   0.234  -0.843  0.00  0.00    +0.121 C 
BRANCH  12  13
ATOM     13  C   UNL     1       1.719  -0.033   0.314  0.00  0.00    +0.172 C 
BRANCH  13  14
ATOM     14  S   UNL     1       3.404  -0.139  -0.200  0.00  0.00    -0.008 S 
ATOM     15  O   UNL     1       3.550  -1.317  -1.039  0.00  0.00    -0.173 OA
ATOM     16  O   UNL     1       3.815   1.168  -0.683  0.00  0.00    -0.173 OA
BRANCH  14  17
ATOM     17  C   UNL     1       4.277  -0.449   1.317  0.00  0.00    +0.151 C 
ATOM     18  C   UNL     1       5.766  -0.575   1.085  0.00  0.00    +0.027 C 
ENDBRANCH  14  17
ENDBRANCH  13  14
ENDBRANCH  12  13
ENDBRANCH   1  12
TORSDOF 5
