126061
  -OEChem-03292013323D

 26 27  0     0  0  0  0  0  0999 V2000
   -4.1504    0.3659   -0.2052 S   0  0  0  0  0  0  0  0  0  0  0  0
   -1.4356    1.2628    0.3762 S   0  0  0  0  0  0  0  0  0  0  0  0
    3.6086    0.1005    0.7796 O   0  0  0  0  0  0  0  0  0  0  0  0
   -4.2035    1.7940   -0.4963 O   0  0  0  0  0  0  0  0  0  0  0  0
   -4.6953   -0.6036   -1.1472 O   0  0  0  0  0  0  0  0  0  0  0  0
    3.8751    0.6277   -1.4856 O   0  0  0  0  0  0  0  0  0  0  0  0
   -4.8958    0.1148    1.3220 N   0  0  0  0  0  0  0  0  0  0  0  0
   -0.3286   -1.0390   -0.0264 C   0  0  0  0  0  0  0  0  0  0  0  0
   -0.0212    0.2775    0.3309 C   0  0  0  0  0  0  0  0  0  0  0  0
   -2.4447   -0.0360   -0.0714 C   0  0  0  0  0  0  0  0  0  0  0  0
   -1.7364   -1.1998   -0.2552 C   0  0  0  0  0  0  0  0  0  0  0  0
    0.7305   -1.9752   -0.1075 C   0  0  0  0  0  0  0  0  0  0  0  0
    1.3018    0.6764    0.6055 C   0  0  0  0  0  0  0  0  0  0  0  0
    2.3241   -0.2703    0.5170 C   0  0  0  0  0  0  0  0  0  0  0  0
    2.0437   -1.5829    0.1647 C   0  0  0  0  0  0  0  0  0  0  0  0
    4.3155    0.5523   -0.3462 C   0  0  0  0  0  0  0  0  0  0  0  0
    5.7121    0.9349    0.0452 C   0  0  0  0  0  0  0  0  0  0  0  0
   -2.2010   -2.1355   -0.5414 H   0  0  0  0  0  0  0  0  0  0  0  0
    0.5264   -3.0072   -0.3823 H   0  0  0  0  0  0  0  0  0  0  0  0
    1.5243    1.7035    0.8825 H   0  0  0  0  0  0  0  0  0  0  0  0
    2.8429   -2.3166    0.0979 H   0  0  0  0  0  0  0  0  0  0  0  0
   -4.9695   -0.8591    1.6432 H   0  0  0  0  0  0  0  0  0  0  0  0
   -4.6257    0.7583    2.0770 H   0  0  0  0  0  0  0  0  0  0  0  0
    5.6808    1.7403    0.7832 H   0  0  0  0  0  0  0  0  0  0  0  0
    6.2518    1.2902   -0.8371 H   0  0  0  0  0  0  0  0  0  0  0  0
    6.2343    0.0634    0.4473 H   0  0  0  0  0  0  0  0  0  0  0  0
  1  4  2  0  0  0  0
  1  5  2  0  0  0  0
  1  7  1  0  0  0  0
  1 10  1  0  0  0  0
  2  9  1  0  0  0  0
  2 10  1  0  0  0  0
  3 14  1  0  0  0  0
  3 16  1  0  0  0  0
  6 16  2  0  0  0  0
  7 22  1  0  0  0  0
  7 23  1  0  0  0  0
  8  9  2  0  0  0  0
  8 11  1  0  0  0  0
  8 12  1  0  0  0  0
  9 13  1  0  0  0  0
 10 11  2  0  0  0  0
 11 18  1  0  0  0  0
 12 15  2  0  0  0  0
 12 19  1  0  0  0  0
 13 14  2  0  0  0  0
 13 20  1  0  0  0  0
 14 15  1  0  0  0  0
 15 21  1  0  0  0  0
 16 17  1  0  0  0  0
 17 24  1  0  0  0  0
 17 25  1  0  0  0  0
 17 26  1  0  0  0  0
M  END
> <PUBCHEM_COMPOUND_CID>
126061

> <PUBCHEM_CONFORMER_RMSD>
0.6

> <PUBCHEM_CONFORMER_DIVERSEORDER>
1
11
13
20
12
19
8
3
7
16
4
5
15
2
18
17
14
9
10
6

> <PUBCHEM_MMFF94_PARTIAL_CHARGES>
22
1 1.5
10 -0.02
11 -0.15
12 -0.15
13 -0.15
14 0.08
15 -0.15
16 0.66
17 0.06
18 0.15
19 0.15
2 -0.08
20 0.15
21 0.15
22 0.42
23 0.42
3 -0.23
4 -0.65
5 -0.65
6 -0.57
7 -0.98
9 0.04

> <PUBCHEM_EFFECTIVE_ROTOR_COUNT>
3

> <PUBCHEM_PHARMACOPHORE_FEATURES>
6
1 4 acceptor
1 5 acceptor
1 6 acceptor
1 7 donor
5 2 8 9 10 11 rings
6 8 9 12 13 14 15 rings

> <PUBCHEM_HEAVY_ATOM_COUNT>
17

> <PUBCHEM_ATOM_DEF_STEREO_COUNT>
0

> <PUBCHEM_ATOM_UDEF_STEREO_COUNT>
0

> <PUBCHEM_BOND_DEF_STEREO_COUNT>
0

> <PUBCHEM_BOND_UDEF_STEREO_COUNT>
0

> <PUBCHEM_ISOTOPIC_ATOM_COUNT>
0

> <PUBCHEM_COMPONENT_COUNT>
1

> <PUBCHEM_CACTVS_TAUTO_COUNT>
1

> <PUBCHEM_CONFORMER_ID>
0001EC6D00000001

> <PUBCHEM_MMFF94_ENERGY>
35.8701

> <PUBCHEM_FEATURE_SELFOVERLAP>
30.522

> <PUBCHEM_SHAPE_FINGERPRINT>
10354089 29 17240484723922837364
10498660 4 18341330011383832924
11796584 16 12967133804333023053
12236239 1 18040994055829516776
12251169 10 10809343343277119168
12507557 5 17022903471455801573
12670543 26 18202287974838552422
13288520 33 9655585119022297568
13583140 156 16588018039641686043
13760787 5 18411134697759519443
14251718 22 17917709140573163821
14911166 2 18130786789270920848
15196674 1 18340201891173713315
1601671 61 18409729556232664316
16945 1 18343576347930253787
18186145 218 17561074809274106657
200 152 14836409137827236330
20645477 56 18410572916195315280
20645477 70 18270959020948998287
20871999 31 17774996955157252590
21267235 1 18130224973511041463
21637258 2 13901908873990473620
22079108 93 16588309448793577344
231179 274 17894908516793396230
23402539 116 18272082834060261180
23402655 69 18201151053876985285
23559900 14 18125432008408900946
26918003 58 8718827600372850173
2748010 2 17910945065340459130
293599 30 18413108381418908832
296302 2 18187363199428578475
3071541 37 18410575042167567302
32948 21 13326860993801785659
3759504 43 18186802525602739058
42 15 9367347046035977196
4340502 62 16950285100343260571
449060 62 18341331115258850450
474 4 17458630038291646196
4990 188 17418095420878045014
5104073 3 18189618250564266681
537710 114 18410575080526633576
57096353 35 18271514343361690255
58051976 378 18412546505070220028
59755656 215 18337676322277684038
633830 44 18115585925174470683
81539 233 18261390009970355802

> <PUBCHEM_SHAPE_MULTIPOLES>
329.09
10.71
1.58
0.95
1.56
0.38
0.07
-4.02
1.26
-0.12
0.08
-0.17
-0.09
-0.28

> <PUBCHEM_SHAPE_SELFOVERLAP>
680.041

> <PUBCHEM_SHAPE_VOLUME>
189.5

> <PUBCHEM_COORDINATE_TYPE>
2
5
10

$$$$
