REMARK  Name = 126034
REMARK  3 active torsions:
REMARK  status: ('A' for Active; 'I' for Inactive)
REMARK    1  A    between atoms: C_5  and  O_13
REMARK    2  A    between atoms: C_7  and  O_11
REMARK    3  A    between atoms: O_13  and  S_14
REMARK                            x       y       z     vdW  Elec       q    Type
REMARK                         _______ _______ _______ _____ _____    ______ ____
ROOT
ATOM      1  N   UNL     1      -2.809   1.567   0.135  0.00  0.00    -0.311 N 
ATOM      2  C   UNL     1      -1.732   0.713   0.211  0.00  0.00    +0.052 C 
ATOM      3  C   UNL     1      -2.188  -0.557  -0.146  0.00  0.00    +0.018 C 
ATOM      4  C   UNL     1      -0.402   0.965   0.566  0.00  0.00    +0.058 C 
ATOM      5  C   UNL     1       0.486  -0.114   0.554  0.00  0.00    +0.210 C 
ATOM      6  C   UNL     1      -1.275  -1.630  -0.151  0.00  0.00    +0.041 C 
ATOM      7  C   UNL     1       0.059  -1.393   0.201  0.00  0.00    +0.171 C 
ATOM      8  C   UNL     1      -3.576  -0.435  -0.440  0.00  0.00    +0.017 C 
ATOM      9  C   UNL     1      -3.927   0.882  -0.257  0.00  0.00    +0.062 C 
ATOM     10  H   UNL     1      -2.779   2.531   0.334  0.00  0.00    +0.152 HD
ENDROOT
BRANCH   7  11
ATOM     11  O   UNL     1       0.939  -2.435   0.196  0.00  0.00    -0.503 OA
ATOM     12  H   UNL     1       1.835  -2.293   0.429  0.00  0.00    +0.292 HD
ENDBRANCH   7  11
BRANCH   5  13
ATOM     13  O   UNL     1       1.790   0.103   0.895  0.00  0.00    -0.319 OA
BRANCH  13  14
ATOM     14  S   UNL     1       2.862   0.503  -0.283  0.00  0.00    +0.282 S 
ATOM     15  O   UNL     1       4.300   0.536   0.489  0.00  0.00    -0.012 OA
ATOM     16  O   UNL     1       2.908  -0.565  -1.265  0.00  0.00    -0.105 OA
ATOM     17  O   UNL     1       2.565   1.861  -0.703  0.00  0.00    -0.105 OA
ENDBRANCH  13  14
ENDBRANCH   5  13
TORSDOF 3
