REMARK  Name = 12600646
REMARK  9 active torsions:
REMARK  status: ('A' for Active; 'I' for Inactive)
REMARK    1  A    between atoms: C_2  and  N_8
REMARK    2  A    between atoms: C_3  and  O_17
REMARK    3  A    between atoms: C_4  and  O_19
REMARK    4  A    between atoms: C_5  and  C_23
REMARK    5  A    between atoms: C_6  and  O_21
REMARK    6  A    between atoms: N_9  and  N_13
REMARK    7  A    between atoms: N_9  and  C_14
REMARK    8  A    between atoms: C_14  and  C_16
REMARK    9  A    between atoms: C_23  and  O_24
REMARK                            x       y       z     vdW  Elec       q    Type
REMARK                         _______ _______ _______ _____ _____    ______ ____
ROOT
ATOM      1  O   UNL     1      -2.719   1.324   0.072  0.00  0.00    -0.327 OA
ATOM      2  C   UNL     1      -0.714  -0.033   0.227  0.00  0.00    +0.159 C 
ATOM      3  C   UNL     1      -1.555  -1.311   0.164  0.00  0.00    +0.163 C 
ATOM      4  C   UNL     1      -2.984  -1.035   0.643  0.00  0.00    +0.169 C 
ATOM      5  C   UNL     1      -3.581   0.189  -0.061  0.00  0.00    +0.176 C 
ATOM      6  C   UNL     1      -1.420   1.122  -0.491  0.00  0.00    +0.253 C 
ENDROOT
BRANCH   2   8
ATOM      7  O   UNL     1       1.638   1.248   1.101  0.00  0.00    -0.251 OA
ATOM      8  N   UNL     1       0.610  -0.248  -0.309  0.00  0.00    -0.282 N 
ATOM      9  N   UNL     1       2.944   0.111  -0.440  0.00  0.00    -0.163 N 
ATOM     10  C   UNL     1       1.726   0.428   0.181  0.00  0.00    +0.320 C 
ATOM     11  H   UNL     1       0.728  -0.893  -1.044  0.00  0.00    +0.151 HD
BRANCH   9  13
ATOM     12  O   UNL     1       4.117  -1.078  -2.001  0.00  0.00    -0.078 OA
ATOM     13  N   UNL     1       2.984  -0.892  -1.542  0.00  0.00    +0.054 NA
ENDBRANCH   9  13
BRANCH   9  14
ATOM     14  C   UNL     1       4.192   0.741  -0.027  0.00  0.00    +0.134 C 
BRANCH  14  16
ATOM     15 CL   UNL     1       6.417   0.768   1.553  0.00  0.00    -0.112 Cl
ATOM     16  C   UNL     1       4.901  -0.033   1.072  0.00  0.00    +0.118 C 
ENDBRANCH  14  16
ENDBRANCH   9  14
ENDBRANCH   2   8
BRANCH   3  17
ATOM     17  O   UNL     1      -0.964  -2.290   1.021  0.00  0.00    -0.380 OA
ATOM     18  H   UNL     1      -0.058  -2.473   0.727  0.00  0.00    +0.211 HD
ENDBRANCH   3  17
BRANCH   4  19
ATOM     19  O   UNL     1      -3.769  -2.194   0.374  0.00  0.00    -0.379 OA
ATOM     20  H   UNL     1      -3.381  -2.960   0.825  0.00  0.00    +0.211 HD
ENDBRANCH   4  19
BRANCH   6  21
ATOM     21  O   UNL     1      -1.480   0.874  -1.895  0.00  0.00    -0.359 OA
ATOM     22  H   UNL     1      -1.929   1.613  -2.334  0.00  0.00    +0.213 HD
ENDBRANCH   6  21
BRANCH   5  23
ATOM     23  C   UNL     1      -4.933   0.584   0.526  0.00  0.00    +0.169 C 
BRANCH  23  24
ATOM     24  O   UNL     1      -5.409   1.722  -0.167  0.00  0.00    -0.379 OA
ATOM     25  H   UNL     1      -6.269   1.986   0.196  0.00  0.00    +0.211 HD
ENDBRANCH  23  24
ENDBRANCH   5  23
TORSDOF 9
