REMARK  Name = 126061
REMARK  4 active torsions:
REMARK  status: ('A' for Active; 'I' for Inactive)
REMARK    1  A    between atoms: C_4  and  S_10
REMARK    2  A    between atoms: C_8  and  O_16
REMARK    3  A    between atoms: S_10  and  N_13
REMARK    4  A    between atoms: O_16  and  C_18
REMARK                            x       y       z     vdW  Elec       q    Type
REMARK                         _______ _______ _______ _____ _____    ______ ____
ROOT
ATOM      1  S   UNL     1      -1.436   1.263   0.376  0.00  0.00    -0.067 S 
ATOM      2  C   UNL     1      -0.329  -1.039  -0.026  0.00  0.00    +0.008 C 
ATOM      3  C   UNL     1      -0.021   0.278   0.331  0.00  0.00    +0.034 C 
ATOM      4  C   UNL     1      -2.445  -0.036  -0.071  0.00  0.00    +0.151 C 
ATOM      5  C   UNL     1      -1.736  -1.200  -0.255  0.00  0.00    +0.027 C 
ATOM      6  C   UNL     1       0.731  -1.975  -0.107  0.00  0.00    +0.004 C 
ATOM      7  C   UNL     1       1.302   0.676   0.606  0.00  0.00    +0.044 C 
ATOM      8  C   UNL     1       2.324  -0.270   0.517  0.00  0.00    +0.149 C 
ATOM      9  C   UNL     1       2.044  -1.583   0.165  0.00  0.00    +0.038 C 
ENDROOT
BRANCH   4  10
ATOM     10  S   UNL     1      -4.150   0.366  -0.205  0.00  0.00    +0.063 S 
ATOM     11  O   UNL     1      -4.204   1.794  -0.496  0.00  0.00    -0.153 OA
ATOM     12  O   UNL     1      -4.695  -0.604  -1.147  0.00  0.00    -0.153 OA
BRANCH  10  13
ATOM     13  N   UNL     1      -4.896   0.115   1.322  0.00  0.00    -0.203 NA
ATOM     14  H   UNL     1      -5.888   0.345   1.258  0.00  0.00    +0.144 HD
ATOM     15  H   UNL     1      -4.452   0.713   2.019  0.00  0.00    +0.144 HD
ENDBRANCH  10  13
ENDBRANCH   4  10
BRANCH   8  16
ATOM     16  O   UNL     1       3.609   0.101   0.780  0.00  0.00    -0.424 OA
BRANCH  16  18
ATOM     17  O   UNL     1       3.875   0.628  -1.486  0.00  0.00    -0.250 OA
ATOM     18  C   UNL     1       4.316   0.552  -0.346  0.00  0.00    +0.322 C 
ATOM     19  C   UNL     1       5.712   0.935   0.045  0.00  0.00    +0.122 C 
ENDBRANCH  16  18
ENDBRANCH   8  16
TORSDOF 4
