REMARK  Name = 126040
REMARK  7 active torsions:
REMARK  status: ('A' for Active; 'I' for Inactive)
REMARK    1  A    between atoms: C_2  and  N_17
REMARK    2  A    between atoms: C_3  and  C_26
REMARK    3  A    between atoms: C_5  and  N_9
REMARK    4  A    between atoms: N_18  and  N_22
REMARK    5  A    between atoms: N_18  and  C_23
REMARK    6  A    between atoms: C_23  and  C_25
REMARK    7  A    between atoms: C_26  and  O_27
REMARK                            x       y       z     vdW  Elec       q    Type
REMARK                         _______ _______ _______ _____ _____    ______ ____
ROOT
ATOM      1  O   UNL     1      -1.015   1.086   1.114  0.00  0.00    -0.335 OA
ATOM      2  C   UNL     1       0.756   1.048  -0.477  0.00  0.00    +0.107 C 
ATOM      3  C   UNL     1      -0.009   1.923   0.512  0.00  0.00    +0.164 C 
ATOM      4  C   UNL     1      -0.274   0.012  -0.870  0.00  0.00    +0.073 C 
ATOM      5  C   UNL     1      -1.070  -0.162   0.412  0.00  0.00    +0.201 C 
ENDROOT
BRANCH   5   9
ATOM      6  F   UNL     1      -5.538   1.264  -0.461  0.00  0.00    -0.198 F 
ATOM      7  O   UNL     1      -2.088  -2.824   0.339  0.00  0.00    -0.252 OA
ATOM      8  O   UNL     1      -6.371  -1.324  -0.502  0.00  0.00    -0.267 OA
ATOM      9  N   UNL     1      -2.439  -0.518   0.178  0.00  0.00    -0.216 N 
ATOM     10  N   UNL     1      -4.220  -2.077  -0.079  0.00  0.00    -0.234 N 
ATOM     11  C   UNL     1      -2.852  -1.872   0.161  0.00  0.00    +0.316 C 
ATOM     12  C   UNL     1      -3.361   0.499  -0.032  0.00  0.00    +0.105 C 
ATOM     13  C   UNL     1      -4.653   0.270  -0.257  0.00  0.00    +0.208 C 
ATOM     14  C   UNL     1      -5.184  -1.101  -0.295  0.00  0.00    +0.282 C 
ATOM     15  H   UNL     1      -4.529  -3.011  -0.095  0.00  0.00    +0.159 HD
ENDBRANCH   5   9
BRANCH   2  17
ATOM     16  O   UNL     1       3.114   0.225  -1.793  0.00  0.00    -0.251 OA
ATOM     17  N   UNL     1       1.899   0.428   0.150  0.00  0.00    -0.287 N 
ATOM     18  N   UNL     1       4.066  -0.542   0.177  0.00  0.00    -0.163 N 
ATOM     19  C   UNL     1       3.035   0.047  -0.573  0.00  0.00    +0.320 C 
ATOM     20  H   UNL     1       1.879   0.268   1.121  0.00  0.00    +0.151 HD
BRANCH  18  22
ATOM     21  O   UNL     1       4.890  -1.254   2.186  0.00  0.00    -0.078 OA
ATOM     22  N   UNL     1       3.912  -0.725   1.648  0.00  0.00    +0.054 NA
ENDBRANCH  18  22
BRANCH  18  23
ATOM     23  C   UNL     1       5.304  -0.983  -0.452  0.00  0.00    +0.134 C 
BRANCH  23  25
ATOM     24 CL   UNL     1       7.858  -0.466  -1.263  0.00  0.00    -0.112 Cl
ATOM     25  C   UNL     1       6.363   0.107  -0.484  0.00  0.00    +0.118 C 
ENDBRANCH  23  25
ENDBRANCH  18  23
ENDBRANCH   2  17
BRANCH   3  26
ATOM     26  C   UNL     1      -0.715   3.094  -0.163  0.00  0.00    +0.168 C 
BRANCH  26  27
ATOM     27  O   UNL     1      -1.406   3.842   0.824  0.00  0.00    -0.379 OA
ATOM     28  H   UNL     1      -1.859   4.590   0.404  0.00  0.00    +0.211 HD
ENDBRANCH  26  27
ENDBRANCH   3  26
TORSDOF 7
