REMARK  Name = 126029
REMARK  8 active torsions:
REMARK  status: ('A' for Active; 'I' for Inactive)
REMARK    1  A    between atoms: C_3  and  C_27
REMARK    2  A    between atoms: C_4  and  C_13
REMARK    3  A    between atoms: C_5  and  N_39
REMARK    4  A    between atoms: C_20  and  N_22
REMARK    5  A    between atoms: C_21  and  O_25
REMARK    6  A    between atoms: C_28  and  O_33
REMARK    7  A    between atoms: C_30  and  O_35
REMARK    8  A    between atoms: C_32  and  O_37
REMARK                            x       y       z     vdW  Elec       q    Type
REMARK                         _______ _______ _______ _____ _____    ______ ____
ROOT
ATOM      1  O   UNL     1       1.234   4.417   0.076  0.00  0.00    -0.268 OA
ATOM      2  N   UNL     1      -0.028   2.522   0.306  0.00  0.00    -0.319 N 
ATOM      3  C   UNL     1       2.226   0.981  -0.134  0.00  0.00    +0.018 A 
ATOM      4  C   UNL     1      -0.157   1.155   0.321  0.00  0.00    +0.098 A 
ATOM      5  C   UNL     1       0.907   0.349   0.109  0.00  0.00    +0.060 A 
ATOM      6  C   UNL     1       2.365   2.329  -0.150  0.00  0.00    +0.035 A 
ATOM      7  C   UNL     1       1.155   3.190   0.084  0.00  0.00    +0.254 A 
ATOM      8  C   UNL     1       3.635   3.107  -0.383  0.00  0.00    +0.036 C 
ATOM      9  H   UNL     1      -0.836   3.061   0.464  0.00  0.00    +0.169 HD
ENDROOT
BRANCH   4  13
ATOM     10  O   UNL     1      -3.881   0.032  -2.604  0.00  0.00    -0.282 OA
ATOM     11  O   UNL     1      -5.859  -1.089   2.226  0.00  0.00    -0.283 OA
ATOM     12  N   UNL     1      -2.286   0.445  -0.518  0.00  0.00    -0.401 NA
ATOM     13  C   UNL     1      -1.513   0.638   0.574  0.00  0.00    +0.130 C 
ATOM     14  C   UNL     1      -4.038  -0.317   0.959  0.00  0.00    +0.071 C 
ATOM     15  C   UNL     1      -3.533  -0.030  -0.296  0.00  0.00    +0.174 C 
ATOM     16  C   UNL     1      -1.926   0.382   1.871  0.00  0.00    +0.087 C 
ATOM     17  C   UNL     1      -3.214  -0.105   2.063  0.00  0.00    -0.013 C 
ATOM     18  C   UNL     1      -4.349  -0.230  -1.501  0.00  0.00    +0.241 C 
ATOM     19  C   UNL     1      -5.405  -0.830   1.118  0.00  0.00    +0.233 C 
ATOM     20  C   UNL     1      -5.738  -0.751  -1.338  0.00  0.00    +0.121 C 
ATOM     21  C   UNL     1      -6.214  -1.025  -0.113  0.00  0.00    +0.193 C 
BRANCH  20  22
ATOM     22  N   UNL     1      -6.443  -0.915  -2.498  0.00  0.00    -0.352 N 
ATOM     23  H   UNL     1      -6.027  -0.692  -3.362  0.00  0.00    +0.143 HD
ATOM     24  H   UNL     1      -7.366  -1.255  -2.469  0.00  0.00    +0.143 HD
ENDBRANCH  20  22
BRANCH  21  25
ATOM     25  O   UNL     1      -7.500  -1.508   0.049  0.00  0.00    -0.467 OA
ATOM     26  C   UNL     1      -8.415  -0.444   0.208  0.00  0.00    +0.253 C 
ENDBRANCH  21  25
ENDBRANCH   4  13
BRANCH   3  27
ATOM     27  C   UNL     1       3.438   0.157  -0.365  0.00  0.00    +0.038 C 
ATOM     28  C   UNL     1       4.237  -0.248   0.698  0.00  0.00    +0.171 C 
ATOM     29  C   UNL     1       3.757  -0.204  -1.669  0.00  0.00    +0.006 C 
ATOM     30  C   UNL     1       5.371  -1.024   0.454  0.00  0.00    +0.206 C 
ATOM     31  C   UNL     1       4.890  -0.980  -1.914  0.00  0.00    +0.040 C 
ATOM     32  C   UNL     1       5.697  -1.390  -0.853  0.00  0.00    +0.175 C 
BRANCH  28  33
ATOM     33  O   UNL     1       3.931   0.105   1.980  0.00  0.00    -0.503 OA
ATOM     34  H   UNL     1       3.171   0.626   2.154  0.00  0.00    +0.292 HD
ENDBRANCH  28  33
BRANCH  30  35
ATOM     35  O   UNL     1       6.162  -1.424   1.490  0.00  0.00    -0.465 OA
ATOM     36  C   UNL     1       5.842  -2.671   2.103  0.00  0.00    +0.253 C 
ENDBRANCH  30  35
BRANCH  32  37
ATOM     37  O   UNL     1       6.801  -2.147  -1.105  0.00  0.00    -0.468 OA
ATOM     38  C   UNL     1       8.022  -1.452  -1.347  0.00  0.00    +0.253 C 
ENDBRANCH  32  37
ENDBRANCH   3  27
BRANCH   5  39
ATOM     39  N   UNL     1       0.832  -1.024   0.100  0.00  0.00    -0.356 N 
ATOM     40  H   UNL     1       1.641  -1.560  -0.060  0.00  0.00    +0.142 HD
ATOM     41  H   UNL     1      -0.032  -1.470   0.255  0.00  0.00    +0.142 HD
ENDBRANCH   5  39
TORSDOF 8
