REMARK  Name = 126010
REMARK  7 active torsions:
REMARK  status: ('A' for Active; 'I' for Inactive)
REMARK    1  A    between atoms: C_1  and  C_8
REMARK    2  A    between atoms: C_1  and  N_14
REMARK    3  A    between atoms: C_1  and  C_26
REMARK    4  A    between atoms: C_4  and  C_10
REMARK    5  A    between atoms: C_10  and  O_11
REMARK    6  A    between atoms: C_15  and  C_20
REMARK    7  A    between atoms: C_26  and  C_29
REMARK                            x       y       z     vdW  Elec       q    Type
REMARK                         _______ _______ _______ _____ _____    ______ ____
ROOT
ATOM      1  C   UNK     1       0.779  -0.370   0.122  0.00  0.00    +0.155 C 
ENDROOT
BRANCH   1   8
ATOM      2  O   UNK     1       2.128   0.796   1.700  0.00  0.00    -0.273 OA
ATOM      3  N   UNK     1       3.041   0.416  -0.392  0.00  0.00    -0.270 N 
ATOM      4  C   UNK     1       4.251   1.201  -0.191  0.00  0.00    +0.175 C 
ATOM      5  C   UNK     1       4.828   1.389  -1.590  0.00  0.00    +0.033 C 
ATOM      6  C   UNK     1       2.974  -0.111  -1.753  0.00  0.00    +0.094 C 
ATOM      7  C   UNK     1       4.355   0.146  -2.339  0.00  0.00    +0.024 C 
ATOM      8  C   UNK     1       2.036   0.339   0.560  0.00  0.00    +0.244 C 
BRANCH   4  10
ATOM      9  O   UNK     1       5.200  -0.828   0.717  0.00  0.00    -0.248 OA
ATOM     10  C   UNK     1       5.162   0.393   0.682  0.00  0.00    +0.332 C 
BRANCH  10  11
ATOM     11  O   UNK     1       5.944   1.202   1.438  0.00  0.00    -0.479 OA
ATOM     12  H   UNK     1       5.865   2.133   1.363  0.00  0.00    +0.295 HD
ENDBRANCH  10  11
ENDBRANCH   4  10
ENDBRANCH   1   8
BRANCH   1  14
ATOM     13  O   UNK     1      -1.327   1.232  -1.073  0.00  0.00    -0.273 OA
ATOM     14  N   UNK     1      -0.265   0.344   0.800  0.00  0.00    -0.297 N 
ATOM     15  C   UNK     1      -1.237   1.090   0.143  0.00  0.00    +0.242 C 
ATOM     16  H   UNK     1      -0.294   0.303   1.783  0.00  0.00    +0.150 HD
BRANCH  15  20
ATOM     17  S   UNK     1      -4.324  -0.187   1.127  0.00  0.00    -0.130 S 
ATOM     18  O   UNK     1      -4.985   2.867  -0.953  0.00  0.00    -0.274 OA
ATOM     19  N   UNK     1      -3.118   2.561   0.330  0.00  0.00    -0.297 N 
ATOM     20  C   UNK     1      -2.222   1.712   1.087  0.00  0.00    +0.159 C 
ATOM     21  C   UNK     1      -2.964   0.707   1.955  0.00  0.00    +0.087 C 
ATOM     22  C   UNK     1      -4.300   0.589  -0.521  0.00  0.00    +0.124 C 
ATOM     23  C   UNK     1      -4.199   2.101  -0.396  0.00  0.00    +0.232 C 
ATOM     24  C   UNK     1      -5.558   0.168  -1.275  0.00  0.00    +0.021 C 
ATOM     25  H   UNK     1      -2.945   3.530   0.333  0.00  0.00    +0.150 HD
ENDBRANCH  15  20
ENDBRANCH   1  14
BRANCH   1  26
ATOM     26  C   UNK     1       0.842  -1.843   0.507  0.00  0.00    +0.071 C 
BRANCH  26  29
ATOM     27  N   UNK     1      -1.201  -3.244   1.000  0.00  0.00    -0.319 N 
ATOM     28  N   UNK     1      -2.164  -3.525  -0.981  0.00  0.00    -0.315 N 
ATOM     29  C   UNK     1      -0.411  -2.581   0.103  0.00  0.00    +0.040 C 
ATOM     30  C   UNK     1      -1.026  -2.769  -1.113  0.00  0.00    +0.069 C 
ATOM     31  C   UNK     1      -2.240  -3.794   0.304  0.00  0.00    +0.182 C 
ATOM     32  H   UNK     1      -1.049  -3.312   1.971  0.00  0.00    +0.148 HD
ATOM     33  H   UNK     1      -2.787  -3.803  -1.691  0.00  0.00    +0.148 HD
ENDBRANCH  26  29
ENDBRANCH   1  26
TORSDOF 7
