REMARK  Name = 126050
REMARK  11 active torsions:
REMARK  status: ('A' for Active; 'I' for Inactive)
REMARK    1  A    between atoms: O_1  and  C_6
REMARK    2  A    between atoms: O_1  and  C_19
REMARK    3  A    between atoms: C_3  and  O_8
REMARK    4  A    between atoms: C_4  and  O_10
REMARK    5  A    between atoms: C_5  and  O_12
REMARK    6  A    between atoms: C_7  and  C_15
REMARK    7  A    between atoms: C_15  and  O_16
REMARK    8  A    between atoms: C_19  and  C_20
REMARK    9  A    between atoms: C_20  and  C_22
REMARK   10  A    between atoms: C_27  and  C_29
REMARK   11  A    between atoms: C_29  and  C_31
REMARK                            x       y       z     vdW  Elec       q    Type
REMARK                         _______ _______ _______ _____ _____    ______ ____
ROOT
ATOM      1  O   UNL     1       2.175   1.523  -0.229  0.00  0.00    -0.421 OA
ENDROOT
BRANCH   1   6
ATOM      2  O   UNL     1       3.238  -0.475   0.338  0.00  0.00    -0.307 OA
ATOM      3  C   UNL     1       5.657   0.339  -0.981  0.00  0.00    +0.173 C 
ATOM      4  C   UNL     1       4.510   1.311  -0.700  0.00  0.00    +0.211 C 
ATOM      5  C   UNL     1       5.605  -0.871  -0.048  0.00  0.00    +0.178 C 
ATOM      6  C   UNL     1       3.171   0.578  -0.620  0.00  0.00    +0.321 C 
ATOM      7  C   UNL     1       4.201  -1.463  -0.009  0.00  0.00    +0.246 C 
BRANCH   3   8
ATOM      8  O   UNL     1       6.905   1.002  -0.775  0.00  0.00    -0.379 OA
ATOM      9  H   UNL     1       6.961   1.775  -1.359  0.00  0.00    +0.211 HD
ENDBRANCH   3   8
BRANCH   4  10
ATOM     10  O   UNL     1       4.434   2.270  -1.754  0.00  0.00    -0.377 OA
ATOM     11  H   UNL     1       5.276   2.746  -1.819  0.00  0.00    +0.211 HD
ENDBRANCH   4  10
BRANCH   5  12
ATOM     12  O   UNL     1       6.509  -1.866  -0.523  0.00  0.00    -0.379 OA
ATOM     13  H   UNL     1       7.407  -1.500  -0.552  0.00  0.00    +0.211 HD
ENDBRANCH   5  12
BRANCH   7  15
ATOM     14  O   UNL     1       3.333  -2.363   2.055  0.00  0.00    -0.247 OA
ATOM     15  C   UNL     1       4.074  -2.468   1.089  0.00  0.00    +0.344 C 
BRANCH  15  16
ATOM     16  O   UNL     1       4.900  -3.521   0.872  0.00  0.00    -0.478 OA
ATOM     17  H   UNL     1       5.444  -3.541   0.110  0.00  0.00    +0.295 HD
ENDBRANCH  15  16
ENDBRANCH   7  15
ENDBRANCH   1   6
BRANCH   1  19
ATOM     18  O   UNL     1       0.578  -0.135  -0.292  0.00  0.00    -0.250 OA
ATOM     19  C   UNL     1       0.904   1.029  -0.100  0.00  0.00    +0.322 C 
BRANCH  19  20
ATOM     20  C   UNL     1      -0.046   2.154   0.290  0.00  0.00    +0.121 C 
ATOM     21  C   UNL     1       0.405   2.815   1.596  0.00  0.00    +0.016 C 
BRANCH  20  22
ATOM     22  C   UNL     1      -1.488   1.677   0.355  0.00  0.00    -0.012 C 
ATOM     23  C   UNL     1      -2.410   2.216  -0.519  0.00  0.00    -0.004 C 
ATOM     24  C   UNL     1      -1.834   0.717   1.285  0.00  0.00    -0.004 C 
ATOM     25  C   UNL     1      -3.733   1.778  -0.461  0.00  0.00    +0.003 C 
ATOM     26  C   UNL     1      -3.157   0.279   1.343  0.00  0.00    +0.003 C 
ATOM     27  C   UNL     1      -4.107   0.810   0.470  0.00  0.00    +0.039 C 
BRANCH  27  29
ATOM     28  O   UNL     1      -6.255   0.956   1.301  0.00  0.00    -0.286 OA
ATOM     29  C   UNL     1      -5.487   0.354   0.532  0.00  0.00    +0.201 C 
BRANCH  29  31
ATOM     30  S   UNL     1      -7.569  -1.248  -0.134  0.00  0.00    -0.083 S 
ATOM     31  C   UNL     1      -5.949  -0.795  -0.275  0.00  0.00    +0.068 C 
ATOM     32  C   UNL     1      -5.217  -1.537  -1.127  0.00  0.00    +0.010 C 
ATOM     33  C   UNL     1      -6.022  -2.554  -1.716  0.00  0.00    +0.008 C 
ATOM     34  C   UNL     1      -7.323  -2.511  -1.264  0.00  0.00    +0.036 C 
ENDBRANCH  29  31
ENDBRANCH  27  29
ENDBRANCH  20  22
ENDBRANCH  19  20
ENDBRANCH   1  19
TORSDOF 11
