REMARK  Name = 126049
REMARK  6 active torsions:
REMARK  status: ('A' for Active; 'I' for Inactive)
REMARK    1  A    between atoms: C_3  and  C_28
REMARK    2  A    between atoms: C_7  and  O_21
REMARK    3  A    between atoms: C_7  and  C_24
REMARK    4  A    between atoms: C_24  and  C_25
REMARK    5  A    between atoms: C_25  and  O_26
REMARK    6  A    between atoms: C_28  and  O_29
REMARK                            x       y       z     vdW  Elec       q    Type
REMARK                         _______ _______ _______ _____ _____    ______ ____
ROOT
ATOM      1  O   UNL     1       0.500  -2.469   0.432  0.00  0.00    -0.296 OA
ATOM      2  O   UNL     1       6.557  -0.301  -1.110  0.00  0.00    -0.291 OA
ATOM      3  C   UNL     1      -1.825   0.110   0.067  0.00  0.00    +0.063 C 
ATOM      4  C   UNL     1      -0.873   1.289  -0.250  0.00  0.00    +0.006 C 
ATOM      5  C   UNL     1       0.521   1.119   0.371  0.00  0.00    +0.008 C 
ATOM      6  C   UNL     1       1.171  -0.188  -0.173  0.00  0.00    +0.061 C 
ATOM      7  C   UNL     1      -3.124   0.646  -0.584  0.00  0.00    +0.144 C 
ATOM      8  C   UNL     1      -1.690   2.520   0.135  0.00  0.00    +0.003 C 
ATOM      9  C   UNL     1       2.625  -0.432   0.380  0.00  0.00    +0.022 C 
ATOM     10  C   UNL     1      -1.225  -1.153  -0.559  0.00  0.00    +0.070 C 
ATOM     11  C   UNL     1      -3.144   2.144  -0.213  0.00  0.00    +0.034 C 
ATOM     12  C   UNL     1       1.418   2.322   0.055  0.00  0.00    +0.005 C 
ATOM     13  C   UNL     1       0.185  -1.371  -0.023  0.00  0.00    +0.151 C 
ATOM     14  C   UNL     1       3.453   0.852   0.206  0.00  0.00    -0.042 C 
ATOM     15  C   UNL     1       2.807   2.143   0.651  0.00  0.00    +0.022 C 
ATOM     16  C   UNL     1       3.278  -1.587  -0.436  0.00  0.00    +0.012 C 
ATOM     17  C   UNL     1       2.628  -0.791   1.883  0.00  0.00    +0.004 C 
ATOM     18  C   UNL     1       4.787  -1.676  -0.270  0.00  0.00    +0.069 C 
ATOM     19  C   UNL     1       4.702   0.882  -0.287  0.00  0.00    +0.029 C 
ATOM     20  C   UNL     1       5.430  -0.362  -0.623  0.00  0.00    +0.173 C 
ENDROOT
BRANCH   7  21
ATOM     21  O   UNL     1      -3.080   0.508  -2.002  0.00  0.00    -0.380 OA
ATOM     22  H   UNL     1      -2.290   0.953  -2.345  0.00  0.00    +0.211 HD
ENDBRANCH   7  21
BRANCH   7  24
ATOM     23  O   UNL     1      -5.025   0.281   0.804  0.00  0.00    -0.291 OA
ATOM     24  C   UNL     1      -4.374  -0.074  -0.177  0.00  0.00    +0.204 C 
BRANCH  24  25
ATOM     25  C   UNL     1      -4.780  -1.250  -1.039  0.00  0.00    +0.204 C 
BRANCH  25  26
ATOM     26  O   UNL     1      -5.974  -1.831  -0.559  0.00  0.00    -0.375 OA
ATOM     27  H   UNL     1      -6.218  -2.582  -1.123  0.00  0.00    +0.211 HD
ENDBRANCH  25  26
ENDBRANCH  24  25
ENDBRANCH   7  24
BRANCH   3  28
ATOM     28  C   UNL     1      -2.031  -0.124   1.589  0.00  0.00    +0.140 C 
BRANCH  28  29
ATOM     29  O   UNL     1      -2.918  -1.207   1.733  0.00  0.00    -0.382 OA
ATOM     30  H   UNL     1      -3.068  -1.379   2.676  0.00  0.00    +0.210 HD
ENDBRANCH  28  29
ENDBRANCH   3  28
TORSDOF 6
