REMARK  Name = 126008
REMARK  3 active torsions:
REMARK  status: ('A' for Active; 'I' for Inactive)
REMARK    1  A    between atoms: C_20  and  O_26
REMARK    2  A    between atoms: C_21  and  O_24
REMARK    3  A    between atoms: O_26  and  S_27
REMARK                            x       y       z     vdW  Elec       q    Type
REMARK                         _______ _______ _______ _____ _____    ______ ____
ROOT
ATOM      1  O   UNL     1      -4.123  -1.750   0.630  0.00  0.00    -0.447 OA
ATOM      2  O   UNL     1      -5.332   2.405   0.590  0.00  0.00    -0.291 OA
ATOM      3  O   UNL     1      -1.882  -3.545   0.191  0.00  0.00    -0.283 OA
ATOM      4  C   UNL     1      -1.673   0.632  -0.746  0.00  0.00    +0.041 C 
ATOM      5  C   UNL     1      -1.694   2.053  -0.101  0.00  0.00    +0.016 C 
ATOM      6  C   UNL     1      -2.829  -0.101  -0.168  0.00  0.00    +0.025 C 
ATOM      7  C   UNL     1      -0.432  -0.232  -0.422  0.00  0.00    -0.016 C 
ATOM      8  C   UNL     1      -3.074   2.757  -0.203  0.00  0.00    +0.070 C 
ATOM      9  C   UNL     1      -1.806   0.729  -2.280  0.00  0.00    +0.009 C 
ATOM     10  C   UNL     1      -4.034   0.476   0.274  0.00  0.00    +0.072 C 
ATOM     11  C   UNL     1      -2.900  -1.427   0.137  0.00  0.00    +0.180 C 
ATOM     12  C   UNL     1      -0.489  -1.624  -0.121  0.00  0.00    +0.038 C 
ATOM     13  C   UNL     1      -4.259   1.903   0.270  0.00  0.00    +0.176 C 
ATOM     14  C   UNL     1      -1.803  -2.331   0.066  0.00  0.00    +0.229 C 
ATOM     15  C   UNL     1       0.843   0.356  -0.526  0.00  0.00    -0.001 C 
ATOM     16  C   UNL     1      -4.818  -0.569   0.710  0.00  0.00    +0.182 C 
ATOM     17  C   UNL     1       0.683  -2.369   0.069  0.00  0.00    +0.006 C 
ATOM     18  C   UNL     1       2.024  -0.382  -0.332  0.00  0.00    +0.040 C 
ATOM     19  C   UNL     1       1.943  -1.760  -0.032  0.00  0.00    +0.037 C 
ATOM     20  C   UNL     1       3.288   0.223  -0.435  0.00  0.00    +0.176 C 
ATOM     21  C   UNL     1       3.125  -2.493   0.159  0.00  0.00    +0.134 C 
ATOM     22  C   UNL     1       4.453  -0.520  -0.243  0.00  0.00    +0.043 C 
ATOM     23  C   UNL     1       4.372  -1.876   0.054  0.00  0.00    +0.040 C 
ENDROOT
BRANCH  21  24
ATOM     24  O   UNL     1       3.096  -3.828   0.451  0.00  0.00    -0.506 OA
ATOM     25  H   UNL     1       2.275  -4.272   0.528  0.00  0.00    +0.292 HD
ENDBRANCH  21  24
BRANCH  20  26
ATOM     26  O   UNL     1       3.419   1.551  -0.724  0.00  0.00    -0.322 OA
BRANCH  26  27
ATOM     27  S   UNL     1       3.461   2.630   0.512  0.00  0.00    +0.282 S 
ATOM     28  O   UNL     1       3.482   4.082  -0.234  0.00  0.00    -0.105 OA
ATOM     29  O   UNL     1       2.225   2.534   1.267  0.00  0.00    -0.012 OA
ATOM     30  O   UNL     1       4.736   2.472   1.188  0.00  0.00    -0.105 OA
ENDBRANCH  26  27
ENDBRANCH  20  26
TORSDOF 3
