REMARK  Name = 126110
REMARK  10 active torsions:
REMARK  status: ('A' for Active; 'I' for Inactive)
REMARK    1  A    between atoms: C_1  and  C_4
REMARK    2  A    between atoms: C_1  and  S_9
REMARK    3  A    between atoms: C_1  and  C_20
REMARK    4  A    between atoms: S_9  and  C_10
REMARK    5  A    between atoms: C_10  and  C_11
REMARK    6  A    between atoms: C_11  and  N_12
REMARK    7  A    between atoms: C_11  and  C_17
REMARK    8  A    between atoms: C_17  and  O_18
REMARK    9  A    between atoms: C_20  and  C_22
REMARK   10  A    between atoms: C_22  and  O_23
REMARK                            x       y       z     vdW  Elec       q    Type
REMARK                         _______ _______ _______ _____ _____    ______ ____
ROOT
ATOM      1  C   UNK     1       0.799   0.670  -0.002  0.00  0.00    +0.095 C 
ENDROOT
BRANCH   1   4
ATOM      2  N   UNK     1       1.581  -1.454  -1.039  0.00  0.00    -0.318 N 
ATOM      3  N   UNK     1       2.231  -2.685   0.692  0.00  0.00    -0.315 N 
ATOM      4  C   UNK     1       1.379  -0.732   0.072  0.00  0.00    +0.048 C 
ATOM      5  C   UNK     1       1.768  -1.468   1.125  0.00  0.00    +0.070 C 
ATOM      6  C   UNK     1       2.104  -2.645  -0.616  0.00  0.00    +0.182 C 
ATOM      7  H   UNK     1       1.393  -1.184  -1.967  0.00  0.00    +0.148 HD
ATOM      8  H   UNK     1       2.580  -3.425   1.239  0.00  0.00    +0.148 HD
ENDBRANCH   1   4
BRANCH   1   9
ATOM      9  S   UNK     1      -0.817   0.735   0.804  0.00  0.00    -0.136 S 
BRANCH   9  10
ATOM     10  C   UNK     1      -1.675  -0.489  -0.236  0.00  0.00    +0.047 C 
BRANCH  10  11
ATOM     11  C   UNK     1      -3.148  -0.633   0.147  0.00  0.00    +0.047 C 
BRANCH  11  12
ATOM     12  N   UNK     1      -3.801  -1.607  -0.730  0.00  0.00    +0.389 N 
ATOM     13  H   UNK     1      -3.314  -2.501  -0.668  0.00  0.00    -0.088 HD
ATOM     14  H   UNK     1      -3.773  -1.271  -1.692  0.00  0.00    -0.088 HD
ATOM     15  H   UNK     1      -4.772  -1.728  -0.440  0.00  0.00    -0.088 HD
ENDBRANCH  11  12
BRANCH  11  17
ATOM     16  O   UNK     1      -3.974   1.317  -1.021  0.00  0.00    -0.253 OA
ATOM     17  C   UNK     1      -3.906   0.675   0.021  0.00  0.00    +0.294 C 
BRANCH  17  18
ATOM     18  O   UNK     1      -4.476   1.092   1.180  0.00  0.00    -0.482 OA
ATOM     19  H   UNK     1      -4.400   0.570   1.954  0.00  0.00    +0.295 HD
ENDBRANCH  17  18
ENDBRANCH  11  17
ENDBRANCH  10  11
ENDBRANCH   9  10
ENDBRANCH   1   9
BRANCH   1  20
ATOM     20  C   UNK     1       1.720   1.747   0.584  0.00  0.00    +0.126 C 
BRANCH  20  22
ATOM     21  O   UNK     1       3.091   2.106  -1.375  0.00  0.00    -0.250 OA
ATOM     22  C   UNK     1       3.020   1.830  -0.184  0.00  0.00    +0.315 C 
BRANCH  22  23
ATOM     23  O   UNK     1       4.105   1.541   0.577  0.00  0.00    -0.480 OA
ATOM     24  H   UNK     1       3.999   1.335   1.485  0.00  0.00    +0.295 HD
ENDBRANCH  22  23
ENDBRANCH  20  22
ENDBRANCH   1  20
TORSDOF 10
