126175
  -OEChem-03292013323D

 65 68  0     1  0  0  0  0  0999 V2000
   -2.1740   -0.1906   -1.5777 O   0  0  0  0  0  0  0  0  0  0  0  0
    1.6697   -2.4110    1.2118 O   0  0  0  0  0  0  0  0  0  0  0  0
   -2.9503   -2.5607   -0.4778 O   0  0  0  0  0  0  0  0  0  0  0  0
   -4.9993   -1.1075   -1.5701 O   0  0  0  0  0  0  0  0  0  0  0  0
    6.8973    0.9829   -1.9850 O   0  0  0  0  0  0  0  0  0  0  0  0
   -5.3667   -0.1180    0.4968 N   0  0  0  0  0  0  0  0  0  0  0  0
   -0.7956   -0.6835    0.4150 C   0  0  1  0  0  0  0  0  0  0  0  0
   -0.1059    0.6921    0.2820 C   0  0  2  0  0  0  0  0  0  0  0  0
    1.3318    0.7121    0.8215 C   0  0  1  0  0  0  0  0  0  0  0  0
    2.1879   -0.3236    0.0097 C   0  0  2  0  0  0  0  0  0  0  0  0
   -2.2046   -0.3229   -0.1505 C   0  0  1  0  0  0  0  0  0  0  0  0
    0.0224   -1.6934   -0.4164 C   0  0  0  0  0  0  0  0  0  0  0  0
   -1.1300    1.6629    0.8654 C   0  0  0  0  0  0  0  0  0  0  0  0
    1.5178   -1.7341   -0.0278 C   0  0  2  0  0  0  0  0  0  0  0  0
   -2.4994    1.0626    0.4798 C   0  0  0  0  0  0  0  0  0  0  0  0
    3.7130   -0.2908    0.4236 C   0  0  1  0  0  0  0  0  0  0  0  0
    1.9259    2.1283    0.7167 C   0  0  0  0  0  0  0  0  0  0  0  0
   -0.9199   -1.1669    1.8854 C   0  0  0  0  0  0  0  0  0  0  0  0
   -3.3086   -1.3365    0.1373 C   0  0  1  0  0  0  0  0  0  0  0  0
    3.3946    2.1711    1.1193 C   0  0  0  0  0  0  0  0  0  0  0  0
    4.1833    1.1645    0.3216 C   0  0  0  0  0  0  0  0  0  0  0  0
    3.9851   -0.7835    1.8629 C   0  0  0  0  0  0  0  0  0  0  0  0
    4.5216   -1.1955   -0.4951 C   0  0  0  0  0  0  0  0  0  0  0  0
    5.2025    1.5669   -0.4537 C   0  0  0  0  0  0  0  0  0  0  0  0
   -4.6408   -0.8623   -0.4202 C   0  0  0  0  0  0  0  0  0  0  0  0
    5.5361   -0.8009   -1.2708 C   0  0  0  0  0  0  0  0  0  0  0  0
    5.9566    0.6119   -1.2912 C   0  0  0  0  0  0  0  0  0  0  0  0
   -6.6527    0.4592    0.1831 C   0  0  0  0  0  0  0  0  0  0  0  0
   -6.4778    1.8640   -0.3882 C   0  0  0  0  0  0  0  0  0  0  0  0
   -7.8203    2.5031   -0.7074 C   0  0  0  0  0  0  0  0  0  0  0  0
   -0.0328    0.9425   -0.7893 H   0  0  0  0  0  0  0  0  0  0  0  0
    1.3316    0.4377    1.8810 H   0  0  0  0  0  0  0  0  0  0  0  0
    2.1532    0.0240   -1.0373 H   0  0  0  0  0  0  0  0  0  0  0  0
   -0.0246   -1.4342   -1.4807 H   0  0  0  0  0  0  0  0  0  0  0  0
   -0.4058   -2.6969   -0.3131 H   0  0  0  0  0  0  0  0  0  0  0  0
   -1.0141    2.6721    0.4568 H   0  0  0  0  0  0  0  0  0  0  0  0
   -1.0377    1.7350    1.9551 H   0  0  0  0  0  0  0  0  0  0  0  0
    2.0269   -2.3479   -0.7795 H   0  0  0  0  0  0  0  0  0  0  0  0
   -3.0948    0.9932    1.3954 H   0  0  0  0  0  0  0  0  0  0  0  0
   -3.0174    1.7253   -0.2223 H   0  0  0  0  0  0  0  0  0  0  0  0
    1.3659    2.8183    1.3589 H   0  0  0  0  0  0  0  0  0  0  0  0
    1.8212    2.5000   -0.3114 H   0  0  0  0  0  0  0  0  0  0  0  0
   -1.2865   -2.1990    1.9241 H   0  0  0  0  0  0  0  0  0  0  0  0
    0.0276   -1.1482    2.4267 H   0  0  0  0  0  0  0  0  0  0  0  0
   -1.6125   -0.5557    2.4728 H   0  0  0  0  0  0  0  0  0  0  0  0
   -3.4237   -1.5231    1.2102 H   0  0  0  0  0  0  0  0  0  0  0  0
    3.4997    1.9634    2.1903 H   0  0  0  0  0  0  0  0  0  0  0  0
    3.7742    3.1889    0.9672 H   0  0  0  0  0  0  0  0  0  0  0  0
    3.9126   -1.8729    1.9520 H   0  0  0  0  0  0  0  0  0  0  0  0
    5.0016   -0.5202    2.1846 H   0  0  0  0  0  0  0  0  0  0  0  0
    3.2963   -0.3497    2.5939 H   0  0  0  0  0  0  0  0  0  0  0  0
   -2.1168   -1.0808   -1.9643 H   0  0  0  0  0  0  0  0  0  0  0  0
    4.2748   -2.2549   -0.5030 H   0  0  0  0  0  0  0  0  0  0  0  0
    1.2823   -3.2975    1.1158 H   0  0  0  0  0  0  0  0  0  0  0  0
    5.5024    2.6081   -0.5091 H   0  0  0  0  0  0  0  0  0  0  0  0
   -3.6085   -3.2258   -0.2128 H   0  0  0  0  0  0  0  0  0  0  0  0
    6.0787   -1.5048   -1.8911 H   0  0  0  0  0  0  0  0  0  0  0  0
   -5.0097    0.0128    1.4381 H   0  0  0  0  0  0  0  0  0  0  0  0
   -7.1767   -0.1862   -0.5303 H   0  0  0  0  0  0  0  0  0  0  0  0
   -7.2317    0.4888    1.1119 H   0  0  0  0  0  0  0  0  0  0  0  0
   -5.9359    2.4933    0.3281 H   0  0  0  0  0  0  0  0  0  0  0  0
   -5.8680    1.8268   -1.2990 H   0  0  0  0  0  0  0  0  0  0  0  0
   -8.3689    1.9132   -1.4486 H   0  0  0  0  0  0  0  0  0  0  0  0
   -8.4385    2.5865    0.1921 H   0  0  0  0  0  0  0  0  0  0  0  0
   -7.6741    3.5088   -1.1139 H   0  0  0  0  0  0  0  0  0  0  0  0
  1 11  1  0  0  0  0
  1 52  1  0  0  0  0
  2 14  1  0  0  0  0
  2 54  1  0  0  0  0
  3 19  1  0  0  0  0
  3 56  1  0  0  0  0
  4 25  2  0  0  0  0
  5 27  2  0  0  0  0
  6 25  1  0  0  0  0
  6 28  1  0  0  0  0
  6 58  1  0  0  0  0
  7  8  1  0  0  0  0
  7 11  1  0  0  0  0
  7 12  1  0  0  0  0
  7 18  1  0  0  0  0
  8  9  1  0  0  0  0
  8 13  1  0  0  0  0
  8 31  1  0  0  0  0
  9 10  1  0  0  0  0
  9 17  1  0  0  0  0
  9 32  1  0  0  0  0
 10 14  1  0  0  0  0
 10 16  1  0  0  0  0
 10 33  1  0  0  0  0
 11 15  1  0  0  0  0
 11 19  1  0  0  0  0
 12 14  1  0  0  0  0
 12 34  1  0  0  0  0
 12 35  1  0  0  0  0
 13 15  1  0  0  0  0
 13 36  1  0  0  0  0
 13 37  1  0  0  0  0
 14 38  1  0  0  0  0
 15 39  1  0  0  0  0
 15 40  1  0  0  0  0
 16 21  1  0  0  0  0
 16 22  1  0  0  0  0
 16 23  1  0  0  0  0
 17 20  1  0  0  0  0
 17 41  1  0  0  0  0
 17 42  1  0  0  0  0
 18 43  1  0  0  0  0
 18 44  1  0  0  0  0
 18 45  1  0  0  0  0
 19 25  1  0  0  0  0
 19 46  1  0  0  0  0
 20 21  1  0  0  0  0
 20 47  1  0  0  0  0
 20 48  1  0  0  0  0
 21 24  2  0  0  0  0
 22 49  1  0  0  0  0
 22 50  1  0  0  0  0
 22 51  1  0  0  0  0
 23 26  2  0  0  0  0
 23 53  1  0  0  0  0
 24 27  1  0  0  0  0
 24 55  1  0  0  0  0
 26 27  1  0  0  0  0
 26 57  1  0  0  0  0
 28 29  1  0  0  0  0
 28 59  1  0  0  0  0
 28 60  1  0  0  0  0
 29 30  1  0  0  0  0
 29 61  1  0  0  0  0
 29 62  1  0  0  0  0
 30 63  1  0  0  0  0
 30 64  1  0  0  0  0
 30 65  1  0  0  0  0
M  END
> <PUBCHEM_COMPOUND_CID>
126175

> <PUBCHEM_CONFORMER_RMSD>
0.8

> <PUBCHEM_CONFORMER_DIVERSEORDER>
1
3
4
2

> <PUBCHEM_MMFF94_PARTIAL_CHARGES>
25
1 -0.68
11 0.28
14 0.28
16 0.28
19 0.34
2 -0.68
20 0.14
21 -0.28
23 -0.29
24 -0.14
25 0.57
26 -0.14
27 0.54
28 0.3
3 -0.68
4 -0.57
5 -0.57
52 0.4
53 0.15
54 0.4
55 0.15
56 0.4
57 0.15
58 0.37
6 -0.73

> <PUBCHEM_EFFECTIVE_ROTOR_COUNT>
6.4

> <PUBCHEM_PHARMACOPHORE_FEATURES>
14
1 1 acceptor
1 1 donor
1 2 acceptor
1 2 donor
1 3 acceptor
1 3 donor
1 30 hydrophobe
1 4 acceptor
1 5 acceptor
1 6 donor
5 7 8 11 13 15 rings
6 16 21 23 24 26 27 rings
6 7 8 9 10 12 14 rings
6 9 10 16 17 20 21 rings

> <PUBCHEM_HEAVY_ATOM_COUNT>
30

> <PUBCHEM_ATOM_DEF_STEREO_COUNT>
8

> <PUBCHEM_ATOM_UDEF_STEREO_COUNT>
0

> <PUBCHEM_BOND_DEF_STEREO_COUNT>
0

> <PUBCHEM_BOND_UDEF_STEREO_COUNT>
0

> <PUBCHEM_ISOTOPIC_ATOM_COUNT>
0

> <PUBCHEM_COMPONENT_COUNT>
1

> <PUBCHEM_CACTVS_TAUTO_COUNT>
6

> <PUBCHEM_CONFORMER_ID>
0001ECDF00000001

> <PUBCHEM_MMFF94_ENERGY>
91.5426

> <PUBCHEM_FEATURE_SELFOVERLAP>
71.165

> <PUBCHEM_SHAPE_FINGERPRINT>
10 15 8070020048298336964
10554248 39 18115849833703643623
10906281 52 17967823746843540123
11135609 187 18339365279148289224
11578080 2 14274892998939847509
11646440 116 12973889203810566982
12011746 2 18340494443192794764
12236239 1 18186803581984975322
12596602 18 13767915823760674653
12788726 201 17988644026450461121
13533116 47 17749382625261207218
13782708 43 13542174031184992677
14461889 52 10737289051779716797
14790565 3 18267582588544054713
14856354 85 16805613590361254171
14931854 50 18341909489241510036
15064981 113 16629957713015892357
15183329 4 18131351891193127825
16994733 274 17385723574059412965
19377110 9 13623530126302875293
21033648 29 18334851779510278328
21267235 1 18201726214718140007
21279426 13 18201718479144254529
21304303 64 17240488026351957069
21424621 283 17676490502224532529
221357 26 18202288000592836920
22149856 69 11603098302614934501
2215653 11 17703792517733546324
22393880 68 18342452694354668734
23559900 14 18129942411654306528
23569914 152 17268353821265320109
29717793 49 17346602984491410236
3004659 81 18343582962417383288
335352 9 18343300353326375686
350125 39 18411138013495565889
3633792 109 17561368387558516784
4058900 60 18337679611853484499
4073 2 17894355480073316315
4340502 62 12829487069513087672
5104073 3 18335973281228244331
58260988 393 14923936830466707412
59682541 35 7853567981762547980
59755656 215 18271811198241897309
6086070 43 17489300923944160041
6328613 192 18411140208619499477
633830 44 18267855245625923958

> <PUBCHEM_SHAPE_MULTIPOLES>
583.06
16.97
2.43
1.43
15.25
0.22
0
8.12
7.58
1.05
-0.15
-1.33
-0.11
-0.01

> <PUBCHEM_SHAPE_SELFOVERLAP>
1242.09

> <PUBCHEM_SHAPE_VOLUME>
320.2

> <PUBCHEM_COORDINATE_TYPE>
2
5
10

$$$$
