126107
  -OEChem-03292013323D

 22 22  0     0  0  0  0  0  0999 V2000
   -2.1258    1.2069    0.2288 S   0  0  0  0  0  0  0  0  0  0  0  0
    1.7065   -1.4093    0.3716 O   0  0  0  0  0  0  0  0  0  0  0  0
    4.0079    0.6147   -1.4700 O   0  0  0  0  0  0  0  0  0  0  0  0
    5.9160   -0.2076   -0.5584 O   0  0  0  0  0  0  0  0  0  0  0  0
   -5.4175   -0.7178   -0.4516 O   0  5  0  0  0  0  0  0  0  0  0  0
   -5.0118    1.4175   -0.1142 O   0  0  0  0  0  0  0  0  0  0  0  0
    0.3991    0.5443    0.4641 N   0  0  0  0  0  0  0  0  0  0  0  0
    2.6679    0.6518    0.7720 N   0  0  0  0  0  0  0  0  0  0  0  0
   -1.2047   -1.1999    0.0244 N   0  0  0  0  0  0  0  0  0  0  0  0
   -4.6071    0.2248   -0.2220 N   0  3  0  0  0  0  0  0  0  0  0  0
   -0.8825    0.0407    0.2317 C   0  0  0  0  0  0  0  0  0  0  0  0
    4.0275    0.1771    0.8841 C   0  0  0  0  0  0  0  0  0  0  0  0
    1.5831   -0.1958    0.5178 C   0  0  0  0  0  0  0  0  0  0  0  0
   -3.2429   -0.0560   -0.0845 C   0  0  0  0  0  0  0  0  0  0  0  0
   -2.5723   -1.2589   -0.1589 C   0  0  0  0  0  0  0  0  0  0  0  0
    4.7564    0.1676   -0.4349 C   0  0  0  0  0  0  0  0  0  0  0  0
    4.0238   -0.8393    1.2883 H   0  0  0  0  0  0  0  0  0  0  0  0
    4.5504    0.8528    1.5666 H   0  0  0  0  0  0  0  0  0  0  0  0
    0.4511    1.5490    0.6056 H   0  0  0  0  0  0  0  0  0  0  0  0
    2.4981    1.6491    0.8572 H   0  0  0  0  0  0  0  0  0  0  0  0
   -3.0299   -2.2217   -0.3463 H   0  0  0  0  0  0  0  0  0  0  0  0
    4.5044    0.5992   -2.3159 H   0  0  0  0  0  0  0  0  0  0  0  0
  1 11  1  0  0  0  0
  1 14  1  0  0  0  0
  2 13  2  0  0  0  0
  3 16  1  0  0  0  0
  3 22  1  0  0  0  0
  4 16  2  0  0  0  0
  5 10  1  0  0  0  0
  6 10  2  0  0  0  0
  7 11  1  0  0  0  0
  7 13  1  0  0  0  0
  7 19  1  0  0  0  0
  8 12  1  0  0  0  0
  8 13  1  0  0  0  0
  8 20  1  0  0  0  0
  9 11  2  0  0  0  0
  9 15  1  0  0  0  0
 10 14  1  0  0  0  0
 12 16  1  0  0  0  0
 12 17  1  0  0  0  0
 12 18  1  0  0  0  0
 14 15  2  0  0  0  0
 15 21  1  0  0  0  0
M  CHG  2   5  -1  10   1
M  END
> <PUBCHEM_COMPOUND_CID>
126107

> <PUBCHEM_CONFORMER_RMSD>
0.8

> <PUBCHEM_CONFORMER_DIVERSEORDER>
1
12
9
14
16
6
17
8
15
10
19
5
3
11
18
13
7
2
4

> <PUBCHEM_MMFF94_PARTIAL_CHARGES>
20
1 -0.08
10 0.96
11 0.44
12 0.36
13 0.69
14 0.12
15 0.08
16 0.66
19 0.37
2 -0.57
20 0.37
21 0.15
22 0.5
3 -0.65
4 -0.57
5 -0.52
6 -0.52
7 -0.49
8 -0.73
9 -0.57

> <PUBCHEM_EFFECTIVE_ROTOR_COUNT>
6

> <PUBCHEM_PHARMACOPHORE_FEATURES>
10
1 2 acceptor
1 3 acceptor
1 4 acceptor
1 5 acceptor
1 5 anion
1 6 acceptor
1 7 donor
1 8 donor
3 3 4 16 anion
5 1 9 11 14 15 rings

> <PUBCHEM_HEAVY_ATOM_COUNT>
16

> <PUBCHEM_ATOM_DEF_STEREO_COUNT>
0

> <PUBCHEM_ATOM_UDEF_STEREO_COUNT>
0

> <PUBCHEM_BOND_DEF_STEREO_COUNT>
0

> <PUBCHEM_BOND_UDEF_STEREO_COUNT>
0

> <PUBCHEM_ISOTOPIC_ATOM_COUNT>
0

> <PUBCHEM_COMPONENT_COUNT>
1

> <PUBCHEM_CACTVS_TAUTO_COUNT>
5

> <PUBCHEM_CONFORMER_ID>
0001EC9B00000001

> <PUBCHEM_MMFF94_ENERGY>
23.1892

> <PUBCHEM_FEATURE_SELFOVERLAP>
50.939

> <PUBCHEM_SHAPE_FINGERPRINT>
10354089 29 16370727037191467820
10912923 1 17312813879736219361
12236239 1 18040152916185362728
12390115 104 18058177116280401673
12670543 26 18201160957918459294
12815109 37 9295289438991802058
13533116 47 14490738040952958760
13760787 19 17822006536301090522
14123238 8 17385720301040378515
14251718 22 18272370888346600935
14573314 32 17775008951027179693
15048467 5 17822009804618007333
15242439 84 18060418023476002176
17834072 33 17676206913680748427
17834076 25 18259420827515073419
200 152 15267063640201999667
20279233 1 17346605187951824150
20645477 70 16415487030419202844
21119208 17 18411138052102370072
21267235 1 18341053012496059875
2297311 6 18202007628958543145
23402539 116 18060412513238995037
23402655 69 18342170021467061433
23557571 272 18272656705725704060
23559900 14 17988916816871618592
26918003 58 10952046766997098965
3004659 81 18338238164119038630
3545911 37 18411699885401341131
42788 4 18412824694185939544
449060 50 13190340180157976538
474 4 16950571008069098444
4990 188 17775569740780563806
542803 24 17530682104189666953

> <PUBCHEM_SHAPE_MULTIPOLES>
283.85
12.52
1.19
0.86
3.53
0.07
0.11
-1.02
3
-1
-0.03
0.92
-0.09
-0.15

> <PUBCHEM_SHAPE_SELFOVERLAP>
571.462

> <PUBCHEM_SHAPE_VOLUME>
166.5

> <PUBCHEM_COORDINATE_TYPE>
2
5
10

$$$$
