126114
  -OEChem-03292013323D

 27 27  0     1  0  0  0  0  0999 V2000
    0.3475   -0.7693   -1.2378 S   0  0  0  0  0  0  0  0  0  0  0  0
   -0.5121   -1.0848    0.6016 S   0  0  0  0  0  0  0  0  0  0  0  0
    3.9412    0.1761   -1.1179 O   0  0  0  0  0  0  0  0  0  0  0  0
    2.5542    2.3615    0.1897 N   0  0  0  0  0  0  0  0  0  0  0  0
    3.4357   -0.7690    0.9428 N   0  0  0  0  0  0  0  0  0  0  0  0
    4.5149   -1.6281    0.9051 N   0  0  0  0  0  0  0  0  0  0  0  0
   -2.8910   -1.1066   -0.6256 N   0  0  0  0  0  0  0  0  0  0  0  0
    2.0174    1.0008    0.1001 C   0  0  1  0  0  0  0  0  0  0  0  0
    1.0026    0.9193   -1.0441 C   0  0  0  0  0  0  0  0  0  0  0  0
    3.2301    0.0985   -0.1172 C   0  0  0  0  0  0  0  0  0  0  0  0
   -2.1726   -0.4891    0.3392 C   0  0  0  0  0  0  0  0  0  0  0  0
   -2.6510    0.5573    1.1118 C   0  0  0  0  0  0  0  0  0  0  0  0
   -3.9492    0.9976    0.8796 C   0  0  0  0  0  0  0  0  0  0  0  0
   -4.7190    0.3870   -0.1044 C   0  0  0  0  0  0  0  0  0  0  0  0
   -4.1486   -0.6513   -0.8229 C   0  0  0  0  0  0  0  0  0  0  0  0
    1.5431    0.7917    1.0631 H   0  0  0  0  0  0  0  0  0  0  0  0
    0.1690    1.6132   -0.8871 H   0  0  0  0  0  0  0  0  0  0  0  0
    1.4710    1.1884   -1.9979 H   0  0  0  0  0  0  0  0  0  0  0  0
    3.0289    2.6107   -0.6772 H   0  0  0  0  0  0  0  0  0  0  0  0
    3.2508    2.4141    0.9319 H   0  0  0  0  0  0  0  0  0  0  0  0
    2.8286   -0.8020    1.7556 H   0  0  0  0  0  0  0  0  0  0  0  0
   -2.0470    1.0326    1.8780 H   0  0  0  0  0  0  0  0  0  0  0  0
   -4.3604    1.8153    1.4639 H   0  0  0  0  0  0  0  0  0  0  0  0
   -5.7332    0.7139   -0.3028 H   0  0  0  0  0  0  0  0  0  0  0  0
    5.0630   -1.4513    1.7460 H   0  0  0  0  0  0  0  0  0  0  0  0
    4.1447   -2.5724    1.0042 H   0  0  0  0  0  0  0  0  0  0  0  0
   -4.7069   -1.1605   -1.6014 H   0  0  0  0  0  0  0  0  0  0  0  0
  1  2  1  0  0  0  0
  1  9  1  0  0  0  0
  2 11  1  0  0  0  0
  3 10  2  0  0  0  0
  4  8  1  0  0  0  0
  4 19  1  0  0  0  0
  4 20  1  0  0  0  0
  5  6  1  0  0  0  0
  5 10  1  0  0  0  0
  5 21  1  0  0  0  0
  6 25  1  0  0  0  0
  6 26  1  0  0  0  0
  7 11  1  0  0  0  0
  7 15  2  0  0  0  0
  8  9  1  0  0  0  0
  8 10  1  0  0  0  0
  8 16  1  0  0  0  0
  9 17  1  0  0  0  0
  9 18  1  0  0  0  0
 11 12  2  0  0  0  0
 12 13  1  0  0  0  0
 12 22  1  0  0  0  0
 13 14  2  0  0  0  0
 13 23  1  0  0  0  0
 14 15  1  0  0  0  0
 14 24  1  0  0  0  0
 15 27  1  0  0  0  0
M  END
> <PUBCHEM_COMPOUND_CID>
126114

> <PUBCHEM_CONFORMER_RMSD>
0.8

> <PUBCHEM_CONFORMER_DIVERSEORDER>
1
209
187
117
175
150
59
158
21
69
9
154
189
87
179
233
100
236
27
114
167
94
232
149
48
177
181
174
119
157
148
185
71
237
234
140
49
102
231
221
73
137
163
217
141
8
130
56
225
111
60
25
134
57
44
146
200
194
197
97
35
84
85
51
152
238
110
227
10
78
229
144
127
103
32
211
30
112
133
191
235
76
129
81
54
98
109
176
22
219
79
42
104
201
205
230
128
216
66
72
147
178
34
50
86
224
182
240
155
74
68
204
106
143
139
220
37
43
52
91
159
18
188
171
123
107
6
38
64
131
20
192
138
63
186
226
26
55
15
36
215
239
77
184
180
122
242
124
170
223
126
93
83
195
53
198
96
39
40
28
207
196
41
218
214
95
89
33
88
165
202
70
105
23
113
108
132
67
99
65
136
118
228
121
151
183
190
153
135
241
166
82
92
11
90
12
13
101
210
145
206
208
116
161
142
173
58
199
17
120
156
80
61
160
203
4
45
193
46
19
75
162
47
168
169
213
172
16
31
125
164
3
5
62
222
2
7
29
212
14
24
115

> <PUBCHEM_MMFF94_PARTIAL_CHARGES>
24
1 -0.23
10 0.57
11 0.41
12 -0.15
13 -0.15
14 -0.15
15 0.16
19 0.36
2 -0.1
20 0.36
21 0.37
22 0.15
23 0.15
24 0.15
25 0.36
26 0.36
27 0.15
3 -0.57
4 -0.99
5 -0.42
6 -0.73
7 -0.62
8 0.33
9 0.23

> <PUBCHEM_EFFECTIVE_ROTOR_COUNT>
6

> <PUBCHEM_PHARMACOPHORE_FEATURES>
7
1 3 acceptor
1 4 cation
1 4 donor
1 5 donor
1 6 donor
1 7 acceptor
6 7 11 12 13 14 15 rings

> <PUBCHEM_HEAVY_ATOM_COUNT>
15

> <PUBCHEM_ATOM_DEF_STEREO_COUNT>
1

> <PUBCHEM_ATOM_UDEF_STEREO_COUNT>
0

> <PUBCHEM_BOND_DEF_STEREO_COUNT>
0

> <PUBCHEM_BOND_UDEF_STEREO_COUNT>
0

> <PUBCHEM_ISOTOPIC_ATOM_COUNT>
0

> <PUBCHEM_COMPONENT_COUNT>
1

> <PUBCHEM_CACTVS_TAUTO_COUNT>
2

> <PUBCHEM_CONFORMER_ID>
0001ECA200000001

> <PUBCHEM_MMFF94_ENERGY>
18.6671

> <PUBCHEM_FEATURE_SELFOVERLAP>
37.032

> <PUBCHEM_SHAPE_FINGERPRINT>
10062212 137 18202559592712558467
12162725 195 18202288030298742925
124424 183 18187368722508614361
12760667 363 17751350678382521442
128620 24 12463570668856185953
13675066 3 16877947156731209757
14004511 7 18334579048975829111
14251739 40 18412260601650437446
14251764 38 16774071882097296760
14252887 29 15357700799101076110
17492 89 18200032983226843911
17802600 8 18343299262758454529
17834072 14 16630524029115085784
17862501 102 18272645744884437191
18186145 218 18408604794396995253
19107657 47 18259984881544199561
192875 21 18060699498400400761
20645477 70 17603581915893040818
212847 35 18259706683326933452
21728266 224 17703491273439545711
23402539 116 17989199335667676645
23557571 272 16486988266914615801
23559900 14 17202780206167887766
265663 24 18343579651087229863
328317 168 12751226026338955418
3286 77 17846206804455742881
345986 75 17972862688796631834
351380 180 18343017796281916681
573450 72 18201996616899636771
57812782 119 17203612600762572235
9971528 1 18202567250797256036
9981440 41 17545873193199976456

> <PUBCHEM_SHAPE_MULTIPOLES>
290.6
9.73
1.57
1.21
0.48
0.46
0.07
-0.21
-0.9
-0.93
-0.14
-0.23
-0.16
-1.12

> <PUBCHEM_SHAPE_SELFOVERLAP>
558.61

> <PUBCHEM_SHAPE_VOLUME>
179.3

> <PUBCHEM_COORDINATE_TYPE>
2
5
10

$$$$
