REMARK  Name = 126104
REMARK  10 active torsions:
REMARK  status: ('A' for Active; 'I' for Inactive)
REMARK    1  A    between atoms: C_1  and  N_3
REMARK    2  A    between atoms: C_1  and  C_12
REMARK    3  A    between atoms: C_1  and  C_15
REMARK    4  A    between atoms: C_4  and  C_6
REMARK    5  A    between atoms: C_6  and  C_8
REMARK    6  A    between atoms: C_8  and  O_9
REMARK    7  A    between atoms: C_12  and  O_13
REMARK    8  A    between atoms: C_15  and  S_16
REMARK    9  A    between atoms: S_16  and  C_17
REMARK   10  A    between atoms: C_17  and  C_18
REMARK                            x       y       z     vdW  Elec       q    Type
REMARK                         _______ _______ _______ _____ _____    ______ ____
ROOT
ATOM      1  C   UNK A   1      -1.398   1.455   0.480  0.00  0.00    +0.182 C 
ENDROOT
BRANCH   1   3
ATOM      2  O   UNK A   0      -3.268  -0.308   1.757  0.00  0.00    -0.274 OA
ATOM      3  N   UNK A   1      -2.081   0.339  -0.130  0.00  0.00    -0.296 N 
ATOM      4  C   UNK A   0      -2.970  -0.457   0.575  0.00  0.00    +0.234 C 
ATOM      5  H   UNK A   1      -1.909   0.136  -1.078  0.00  0.00    +0.150 HD
BRANCH   4   6
ATOM      6  C   UNK A   0      -3.535  -1.571  -0.278  0.00  0.00    +0.194 C 
BRANCH   6   8
ATOM      7  O   UNK A   0      -5.766  -0.738   0.112  0.00  0.00    -0.250 OA
ATOM      8  C   UNK A   0      -5.036  -1.587  -0.382  0.00  0.00    +0.323 C 
BRANCH   8   9
ATOM      9  O   UNK A   0      -5.497  -2.659  -1.075  0.00  0.00    -0.480 OA
ATOM     10  H   UNK A   0      -4.894  -3.280  -1.433  0.00  0.00    +0.295 HD
ENDBRANCH   8   9
ENDBRANCH   6   8
ENDBRANCH   4   6
ENDBRANCH   1   3
BRANCH   1  12
ATOM     11  O   UNK A   1      -0.751   3.697  -0.180  0.00  0.00    -0.248 OA
ATOM     12  C   UNK A   1      -1.211   2.606  -0.495  0.00  0.00    +0.333 C 
BRANCH  12  13
ATOM     13  O   UNK A   1      -1.619   2.314  -1.753  0.00  0.00    -0.479 OA
ATOM     14  H   UNK A   1      -1.964   1.466  -1.949  0.00  0.00    +0.295 HD
ENDBRANCH  12  13
ENDBRANCH   1  12
BRANCH   1  15
ATOM     15  C   UNK A   1      -0.084   1.032   1.141  0.00  0.00    +0.089 C 
BRANCH  15  16
ATOM     16  S   UNK A   1       1.190   0.481  -0.043  0.00  0.00    -0.133 S 
BRANCH  16  17
ATOM     17  C   UNK A   1       2.512   0.152   1.142  0.00  0.00    +0.084 C 
BRANCH  17  18
ATOM     18  C   UNK A   1       3.765  -0.340   0.472  0.00  0.00    -0.011 C 
ATOM     19  C   UNK A   1       4.722   0.575   0.052  0.00  0.00    -0.003 C 
ATOM     20  C   UNK A   1       3.950  -1.703   0.281  0.00  0.00    -0.003 C 
ATOM     21  C   UNK A   1       5.884   0.119  -0.570  0.00  0.00    -0.000 C 
ATOM     22  C   UNK A   1       5.113  -2.159  -0.340  0.00  0.00    -0.000 C 
ATOM     23  C   UNK A   1       6.080  -1.248  -0.766  0.00  0.00    -0.000 C 
ENDBRANCH  17  18
ENDBRANCH  16  17
ENDBRANCH  15  16
ENDBRANCH   1  15
TORSDOF 10
