REMARK  Name = 126125
REMARK  8 active torsions:
REMARK  status: ('A' for Active; 'I' for Inactive)
REMARK    1  A    between atoms: C_2  and  O_18
REMARK    2  A    between atoms: C_3  and  O_20
REMARK    3  A    between atoms: C_4  and  N_6
REMARK    4  A    between atoms: C_5  and  C_22
REMARK    5  A    between atoms: C_22  and  S_23
REMARK    6  A    between atoms: S_23  and  C_24
REMARK    7  A    between atoms: C_24  and  C_25
REMARK    8  A    between atoms: C_25  and  C_27
REMARK                            x       y       z     vdW  Elec       q    Type
REMARK                         _______ _______ _______ _____ _____    ______ ____
ROOT
ATOM      1  O   UNL     1      -0.403  -1.572   1.047  0.00  0.00    -0.335 OA
ATOM      2  C   UNL     1      -1.817  -2.111  -0.775  0.00  0.00    +0.187 C 
ATOM      3  C   UNL     1      -0.942  -3.315  -0.483  0.00  0.00    +0.169 C 
ATOM      4  C   UNL     1      -1.732  -1.350   0.538  0.00  0.00    +0.225 C 
ATOM      5  C   UNL     1       0.174  -2.708   0.362  0.00  0.00    +0.157 C 
ENDROOT
BRANCH   4   6
ATOM      6  N   UNL     1      -1.978   0.085   0.412  0.00  0.00    -0.247 N 
ATOM      7  N   UNL     1      -3.092   2.018   0.405  0.00  0.00    -0.242 NA
ATOM      8  N   UNL     1       0.245   0.886  -0.152  0.00  0.00    -0.228 NA
ATOM      9  N   UNL     1       0.266   3.308  -0.456  0.00  0.00    -0.229 NA
ATOM     10  C   UNL     1      -1.062   1.051   0.101  0.00  0.00    +0.152 C 
ATOM     11  C   UNL     1      -3.182   0.717   0.585  0.00  0.00    +0.223 C 
ATOM     12  C   UNL     1      -1.772   2.241   0.102  0.00  0.00    +0.140 C 
ATOM     13  C   UNL     1      -1.059   3.399  -0.190  0.00  0.00    +0.143 C 
ATOM     14  C   UNL     1       0.828   2.075  -0.422  0.00  0.00    +0.253 C 
ATOM     15  N   UNL     1      -1.699   4.651  -0.209  0.00  0.00    -0.342 N 
ATOM     16  H   UNL     1      -1.185   5.464  -0.417  0.00  0.00    +0.144 HD
ATOM     17  H   UNL     1      -2.662   4.714  -0.015  0.00  0.00    +0.144 HD
ENDBRANCH   4   6
BRANCH   2  18
ATOM     18  O   UNL     1      -3.147  -2.459  -1.099  0.00  0.00    -0.378 OA
ATOM     19  H   UNL     1      -3.160  -2.942  -1.940  0.00  0.00    +0.211 HD
ENDBRANCH   2  18
BRANCH   3  20
ATOM     20  O   UNL     1      -1.669  -4.248   0.316  0.00  0.00    -0.379 OA
ATOM     21  H   UNL     1      -2.382  -4.640  -0.212  0.00  0.00    +0.211 HD
ENDBRANCH   3  20
BRANCH   5  22
ATOM     22  C   UNL     1       1.350  -2.220  -0.471  0.00  0.00    +0.090 C 
BRANCH  22  23
ATOM     23  S   UNL     1       2.636  -1.525   0.599  0.00  0.00    -0.138 S 
BRANCH  23  24
ATOM     24  C   UNL     1       3.828  -1.066  -0.680  0.00  0.00    +0.061 C 
BRANCH  24  25
ATOM     25  C   UNL     1       5.101  -0.441  -0.110  0.00  0.00    +0.050 C 
BRANCH  25  27
ATOM     26  F   UNL     1       4.269   1.756  -0.110  0.00  0.00    -0.234 F 
ATOM     27  C   UNL     1       4.860   0.829   0.691  0.00  0.00    +0.194 C 
ENDBRANCH  25  27
ENDBRANCH  24  25
ENDBRANCH  23  24
ENDBRANCH  22  23
ENDBRANCH   5  22
TORSDOF 8
