REMARK  Name = 126164
REMARK  4 active torsions:
REMARK  status: ('A' for Active; 'I' for Inactive)
REMARK    1  A    between atoms: C_16  and  C_28
REMARK    2  A    between atoms: C_22  and  O_24
REMARK    3  A    between atoms: C_23  and  O_26
REMARK    4  A    between atoms: C_28  and  C_32
REMARK                            x       y       z     vdW  Elec       q    Type
REMARK                         _______ _______ _______ _____ _____    ______ ____
ROOT
ATOM      1  O   UNL     1       1.658   0.158   2.073  0.00  0.00    -0.440 OA
ATOM      2  O   UNL     1       3.987  -0.470  -1.212  0.00  0.00    -0.454 OA
ATOM      3  O   UNL     1       0.008   0.559   3.647  0.00  0.00    -0.245 OA
ATOM      4  C   UNL     1       1.771   0.055   0.618  0.00  0.00    +0.198 C 
ATOM      5  C   UNL     1       0.360   0.300   0.189  0.00  0.00    +0.028 C 
ATOM      6  C   UNL     1       2.728   1.129   0.141  0.00  0.00    +0.056 C 
ATOM      7  C   UNL     1       2.258  -1.340   0.280  0.00  0.00    +0.056 C 
ATOM      8  C   UNL     1      -0.437   0.514   1.299  0.00  0.00    +0.075 C 
ATOM      9  C   UNL     1       3.756   0.804  -0.751  0.00  0.00    +0.148 C 
ATOM     10  C   UNL     1       3.316  -1.513  -0.620  0.00  0.00    +0.148 C 
ATOM     11  C   UNL     1       0.382   0.425   2.498  0.00  0.00    +0.342 C 
ATOM     12  C   UNL     1      -0.191   0.334  -1.082  0.00  0.00    -0.000 C 
ATOM     13  C   UNL     1      -1.793   0.767   1.208  0.00  0.00    +0.002 C 
ATOM     14  C   UNL     1       2.597   2.469   0.547  0.00  0.00    +0.006 C 
ATOM     15  C   UNL     1       1.654  -2.486   0.826  0.00  0.00    +0.006 C 
ATOM     16  C   UNL     1      -2.356   0.803  -0.068  0.00  0.00    -0.013 C 
ATOM     17  C   UNL     1      -1.560   0.588  -1.206  0.00  0.00    -0.004 C 
ATOM     18  C   UNL     1       4.624   1.789  -1.234  0.00  0.00    +0.074 C 
ATOM     19  C   UNL     1       3.752  -2.793  -0.975  0.00  0.00    +0.074 C 
ATOM     20  C   UNL     1       3.467   3.451   0.071  0.00  0.00    +0.037 C 
ATOM     21  C   UNL     1       2.094  -3.764   0.477  0.00  0.00    +0.037 C 
ATOM     22  C   UNL     1       4.479   3.112  -0.822  0.00  0.00    +0.137 C 
ATOM     23  C   UNL     1       3.142  -3.918  -0.425  0.00  0.00    +0.137 C 
ENDROOT
BRANCH  22  24
ATOM     24  O   UNL     1       5.325   4.069  -1.290  0.00  0.00    -0.505 OA
ATOM     25  H   UNL     1       6.007   3.839  -1.890  0.00  0.00    +0.292 HD
ENDBRANCH  22  24
BRANCH  23  26
ATOM     26  O   UNL     1       3.570  -5.163  -0.769  0.00  0.00    -0.505 OA
ATOM     27  H   UNL     1       4.276  -5.265  -1.376  0.00  0.00    +0.292 HD
ENDBRANCH  23  26
BRANCH  16  28
ATOM     28  C   UNL     1      -3.815   1.071  -0.227  0.00  0.00    +0.112 C 
BRANCH  28  32
ATOM     29  O   UNL     1      -4.222  -1.305  -0.041  0.00  0.00    -0.274 OA
ATOM     30  N   UNL     1      -6.019   0.015  -0.420  0.00  0.00    -0.217 N 
ATOM     31  N   UNL     1      -8.184  -0.522  -0.660  0.00  0.00    -0.224 NA
ATOM     32  C   UNL     1      -4.649  -0.173  -0.215  0.00  0.00    +0.239 C 
ATOM     33  C   UNL     1      -6.706   1.190  -0.632  0.00  0.00    +0.094 C 
ATOM     34  C   UNL     1      -6.971  -0.983  -0.449  0.00  0.00    +0.174 C 
ATOM     35  C   UNL     1      -8.026   0.830  -0.775  0.00  0.00    +0.117 C 
ENDBRANCH  28  32
ENDBRANCH  16  28
TORSDOF 4
