126164
  -OEChem-03292013323D

 49 54  0     0  0  0  0  0  0999 V2000
    1.6578    0.1581    2.0731 O   0  0  0  0  0  0  0  0  0  0  0  0
    3.9868   -0.4698   -1.2121 O   0  0  0  0  0  0  0  0  0  0  0  0
    0.0079    0.5586    3.6465 O   0  0  0  0  0  0  0  0  0  0  0  0
    5.3254    4.0688   -1.2897 O   0  0  0  0  0  0  0  0  0  0  0  0
    3.5697   -5.1632   -0.7686 O   0  0  0  0  0  0  0  0  0  0  0  0
   -4.2219   -1.3050   -0.0412 O   0  0  0  0  0  0  0  0  0  0  0  0
   -6.0194    0.0154   -0.4201 N   0  0  0  0  0  0  0  0  0  0  0  0
   -8.1835   -0.5221   -0.6599 N   0  0  0  0  0  0  0  0  0  0  0  0
    1.7712    0.0549    0.6182 C   0  0  0  0  0  0  0  0  0  0  0  0
    0.3604    0.2996    0.1888 C   0  0  0  0  0  0  0  0  0  0  0  0
    2.7284    1.1290    0.1411 C   0  0  0  0  0  0  0  0  0  0  0  0
    2.2584   -1.3402    0.2799 C   0  0  0  0  0  0  0  0  0  0  0  0
   -0.4366    0.5138    1.2988 C   0  0  0  0  0  0  0  0  0  0  0  0
    3.7564    0.8037   -0.7511 C   0  0  0  0  0  0  0  0  0  0  0  0
    3.3160   -1.5126   -0.6204 C   0  0  0  0  0  0  0  0  0  0  0  0
    0.3815    0.4249    2.4985 C   0  0  0  0  0  0  0  0  0  0  0  0
   -0.1913    0.3335   -1.0822 C   0  0  0  0  0  0  0  0  0  0  0  0
   -1.7928    0.7671    1.2082 C   0  0  0  0  0  0  0  0  0  0  0  0
    2.5971    2.4690    0.5472 C   0  0  0  0  0  0  0  0  0  0  0  0
    1.6536   -2.4864    0.8255 C   0  0  0  0  0  0  0  0  0  0  0  0
   -2.3557    0.8027   -0.0677 C   0  0  0  0  0  0  0  0  0  0  0  0
   -1.5604    0.5876   -1.2059 C   0  0  0  0  0  0  0  0  0  0  0  0
    4.6237    1.7894   -1.2340 C   0  0  0  0  0  0  0  0  0  0  0  0
    3.7525   -2.7935   -0.9752 C   0  0  0  0  0  0  0  0  0  0  0  0
    3.4669    3.4514    0.0707 C   0  0  0  0  0  0  0  0  0  0  0  0
    2.0938   -3.7644    0.4768 C   0  0  0  0  0  0  0  0  0  0  0  0
   -3.8147    1.0715   -0.2273 C   0  0  0  0  0  0  0  0  0  0  0  0
    4.4792    3.1116   -0.8215 C   0  0  0  0  0  0  0  0  0  0  0  0
    3.1422   -3.9178   -0.4251 C   0  0  0  0  0  0  0  0  0  0  0  0
   -4.6494   -0.1727   -0.2148 C   0  0  0  0  0  0  0  0  0  0  0  0
   -6.7063    1.1896   -0.6324 C   0  0  0  0  0  0  0  0  0  0  0  0
   -6.9713   -0.9826   -0.4487 C   0  0  0  0  0  0  0  0  0  0  0  0
   -8.0256    0.8303   -0.7753 C   0  0  0  0  0  0  0  0  0  0  0  0
    0.4175    0.1673   -1.9647 H   0  0  0  0  0  0  0  0  0  0  0  0
   -2.3934    0.9292    2.0969 H   0  0  0  0  0  0  0  0  0  0  0  0
    1.8099    2.7644    1.2362 H   0  0  0  0  0  0  0  0  0  0  0  0
    0.8267   -2.3964    1.5254 H   0  0  0  0  0  0  0  0  0  0  0  0
   -2.0036    0.6140   -2.1985 H   0  0  0  0  0  0  0  0  0  0  0  0
    5.4140    1.5169   -1.9300 H   0  0  0  0  0  0  0  0  0  0  0  0
    4.5729   -2.9135   -1.6790 H   0  0  0  0  0  0  0  0  0  0  0  0
    3.3452    4.4805    0.3976 H   0  0  0  0  0  0  0  0  0  0  0  0
    1.6058   -4.6313    0.9143 H   0  0  0  0  0  0  0  0  0  0  0  0
   -4.1500    1.7354    0.5795 H   0  0  0  0  0  0  0  0  0  0  0  0
   -3.9736    1.6047   -1.1729 H   0  0  0  0  0  0  0  0  0  0  0  0
    5.9636    3.6562   -1.8967 H   0  0  0  0  0  0  0  0  0  0  0  0
    3.0350   -5.8223   -0.2935 H   0  0  0  0  0  0  0  0  0  0  0  0
   -6.2254    2.1570   -0.6630 H   0  0  0  0  0  0  0  0  0  0  0  0
   -6.7182   -2.0253   -0.3089 H   0  0  0  0  0  0  0  0  0  0  0  0
   -8.8678    1.4823   -0.9550 H   0  0  0  0  0  0  0  0  0  0  0  0
  1  9  1  0  0  0  0
  1 16  1  0  0  0  0
  2 14  1  0  0  0  0
  2 15  1  0  0  0  0
  3 16  2  0  0  0  0
  4 28  1  0  0  0  0
  4 45  1  0  0  0  0
  5 29  1  0  0  0  0
  5 46  1  0  0  0  0
  6 30  2  0  0  0  0
  7 30  1  0  0  0  0
  7 31  1  0  0  0  0
  7 32  1  0  0  0  0
  8 32  2  0  0  0  0
  8 33  1  0  0  0  0
  9 10  1  0  0  0  0
  9 11  1  0  0  0  0
  9 12  1  0  0  0  0
 10 13  2  0  0  0  0
 10 17  1  0  0  0  0
 11 14  2  0  0  0  0
 11 19  1  0  0  0  0
 12 15  2  0  0  0  0
 12 20  1  0  0  0  0
 13 16  1  0  0  0  0
 13 18  1  0  0  0  0
 14 23  1  0  0  0  0
 15 24  1  0  0  0  0
 17 22  2  0  0  0  0
 17 34  1  0  0  0  0
 18 21  2  0  0  0  0
 18 35  1  0  0  0  0
 19 25  2  0  0  0  0
 19 36  1  0  0  0  0
 20 26  2  0  0  0  0
 20 37  1  0  0  0  0
 21 22  1  0  0  0  0
 21 27  1  0  0  0  0
 22 38  1  0  0  0  0
 23 28  2  0  0  0  0
 23 39  1  0  0  0  0
 24 29  2  0  0  0  0
 24 40  1  0  0  0  0
 25 28  1  0  0  0  0
 25 41  1  0  0  0  0
 26 29  1  0  0  0  0
 26 42  1  0  0  0  0
 27 30  1  0  0  0  0
 27 43  1  0  0  0  0
 27 44  1  0  0  0  0
 31 33  2  0  0  0  0
 31 47  1  0  0  0  0
 32 48  1  0  0  0  0
 33 49  1  0  0  0  0
M  END
> <PUBCHEM_COMPOUND_CID>
126164

> <PUBCHEM_CONFORMER_RMSD>
0.8

> <PUBCHEM_CONFORMER_DIVERSEORDER>
1
12
13
2
17
8
19
6
9
14
15
16
18
21
22
20
3
4
10
5
11
7

> <PUBCHEM_MMFF94_PARTIAL_CHARGES>
47
1 -0.43
10 -0.14
11 -0.14
12 -0.14
13 0.09
14 0.08
15 0.08
16 0.63
17 -0.15
18 -0.15
19 -0.15
2 -0.17
20 -0.15
21 -0.14
22 -0.15
23 -0.15
24 -0.15
25 -0.15
26 -0.15
27 0.2
28 0.08
29 0.08
3 -0.57
30 0.52
31 -0.3
32 0.04
33 0.08
34 0.15
35 0.15
36 0.15
37 0.15
38 0.15
39 0.15
4 -0.53
40 0.15
41 0.15
42 0.15
45 0.45
46 0.45
47 0.15
48 0.15
49 0.15
5 -0.53
6 -0.57
7 0.29
8 -0.57
9 0.71

> <PUBCHEM_EFFECTIVE_ROTOR_COUNT>
3.4

> <PUBCHEM_PHARMACOPHORE_FEATURES>
11
1 2 acceptor
1 3 acceptor
1 4 donor
1 5 donor
1 6 acceptor
5 1 9 10 13 16 rings
5 7 8 31 32 33 rings
6 10 13 17 18 21 22 rings
6 11 14 19 23 25 28 rings
6 12 15 20 24 26 29 rings
6 2 9 11 12 14 15 rings

> <PUBCHEM_HEAVY_ATOM_COUNT>
33

> <PUBCHEM_ATOM_DEF_STEREO_COUNT>
0

> <PUBCHEM_ATOM_UDEF_STEREO_COUNT>
0

> <PUBCHEM_BOND_DEF_STEREO_COUNT>
0

> <PUBCHEM_BOND_UDEF_STEREO_COUNT>
0

> <PUBCHEM_ISOTOPIC_ATOM_COUNT>
0

> <PUBCHEM_COMPONENT_COUNT>
1

> <PUBCHEM_CACTVS_TAUTO_COUNT>
5

> <PUBCHEM_CONFORMER_ID>
0001ECD400000001

> <PUBCHEM_MMFF94_ENERGY>
90.0213

> <PUBCHEM_FEATURE_SELFOVERLAP>
55.971

> <PUBCHEM_SHAPE_FINGERPRINT>
10165383 225 18188493583788343732
10673678 19 18265058118321136468
10693767 8 18057902242768548342
10721379 63 18412830153411061284
11135609 127 18338507638134471045
11181472 205 18342461388624380125
11443803 9 18045207491682865536
11582403 64 17750506463957982088
117089 54 17484812511058612943
11719270 70 18411975897437938904
12107183 9 17766567850501468729
12730499 353 18335145327165135472
12788726 201 17346610646639018763
13009979 54 17415848985811198538
13533116 47 18412824660374807983
13540713 5 17916038862331336649
1361 2 18262521501924572757
13636023 51 18411418410651672799
13911987 19 18121802748813032812
14022347 108 16128374899825258760
14675020 138 18129647721263842448
15183329 4 17775569715918108337
15276724 80 18410013192348649829
15324884 4 17388294288005303786
15484559 13 18340775931275973676
16991971 28 18197225754849591702
16993427 108 17244403211529513738
18222031 100 15410897370860991169
18365409 1 17975980083345184159
19319366 153 18202275940029446422
20554085 129 18057876026230138072
20721686 124 18260264162299524586
20775438 99 18333724749901131467
21344244 246 18339367362571509270
21599406 157 18263340604645419607
21716022 299 18200042729108044204
23522609 53 17916891053322150881
23559900 14 18268978796802574401
238 59 18335714836213930850
24771293 8 17168423878452885685
255183 451 18127415544886876206
27425 322 17096089219809976691
3004659 81 18270677567731811107
34797466 226 18260265257468439469
394071 54 17822293509353242549
4073 2 18261114132116539259
4093350 32 18333449859261525685
46194498 28 18261668186443370717
513532 50 17676486124961689882
57527295 17 17535194345797769210
5951187 136 16081383967825157110
6004065 56 18337390440616983146
6025842 7 18410293618566472942
6327066 14 17972888235484524580
6695519 79 17982749754524305779
70251023 43 18265053535590375152
9831232 110 18266453214510317103

> <PUBCHEM_SHAPE_MULTIPOLES>
633.95
15.9
4.47
1.73
43.36
3.52
1.67
-3.06
-8.1
-11.26
-1.37
-0.74
-0.41
-0.36

> <PUBCHEM_SHAPE_SELFOVERLAP>
1454.943

> <PUBCHEM_SHAPE_VOLUME>
327.5

> <PUBCHEM_COORDINATE_TYPE>
2
5
10

$$$$
