REMARK  Name = 126113
REMARK  7 active torsions:
REMARK  status: ('A' for Active; 'I' for Inactive)
REMARK    1  A    between atoms: C_2  and  O_7
REMARK    2  A    between atoms: C_3  and  O_9
REMARK    3  A    between atoms: C_4  and  O_11
REMARK    4  A    between atoms: C_5  and  C_20
REMARK    5  A    between atoms: C_6  and  O_13
REMARK    6  A    between atoms: O_13  and  C_14
REMARK    7  A    between atoms: C_20  and  O_21
REMARK                            x       y       z     vdW  Elec       q    Type
REMARK                         _______ _______ _______ _____ _____    ______ ____
ROOT
ATOM      1  O   UNL     1      -1.521  -0.807  -0.870  0.00  0.00    -0.316 OA
ATOM      2  C   UNL     1      -3.420   1.136   0.109  0.00  0.00    +0.173 C 
ATOM      3  C   UNL     1      -3.775  -0.344  -0.045  0.00  0.00    +0.169 C 
ATOM      4  C   UNL     1      -2.258   1.509  -0.810  0.00  0.00    +0.210 C 
ATOM      5  C   UNL     1      -2.525  -1.228   0.061  0.00  0.00    +0.177 C 
ATOM      6  C   UNL     1      -1.086   0.538  -0.661  0.00  0.00    +0.318 C 
ENDROOT
BRANCH   2   7
ATOM      7  O   UNL     1      -4.566   1.912  -0.248  0.00  0.00    -0.379 OA
ATOM      8  H   UNL     1      -5.307   1.680   0.333  0.00  0.00    +0.211 HD
ENDBRANCH   2   7
BRANCH   3   9
ATOM      9  O   UNL     1      -4.709  -0.683   0.977  0.00  0.00    -0.379 OA
ATOM     10  H   UNL     1      -5.493  -0.117   0.898  0.00  0.00    +0.211 HD
ENDBRANCH   3   9
BRANCH   4  11
ATOM     11  O   UNL     1      -1.838   2.838  -0.525  0.00  0.00    -0.377 OA
ATOM     12  H   UNL     1      -2.590   3.443  -0.623  0.00  0.00    +0.211 HD
ENDBRANCH   4  11
BRANCH   6  13
ATOM     13  O   UNL     1      -0.397   0.697   0.577  0.00  0.00    -0.451 OA
BRANCH  13  14
ATOM     14  C   UNL     1       0.946   0.433   0.571  0.00  0.00    +0.141 C 
ATOM     15  C   UNL     1       1.398  -0.834   0.217  0.00  0.00    +0.037 C 
ATOM     16  C   UNL     1       1.848   1.434   0.919  0.00  0.00    +0.037 C 
ATOM     17  C   UNL     1       2.767  -1.103   0.210  0.00  0.00    +0.003 C 
ATOM     18  C   UNL     1       3.216   1.164   0.912  0.00  0.00    +0.003 C 
ATOM     19  C   UNL     1       3.676  -0.104   0.558  0.00  0.00    +0.000 C 
ENDBRANCH  13  14
ENDBRANCH   6  13
BRANCH   5  20
ATOM     20  C   UNL     1      -2.831  -2.692  -0.246  0.00  0.00    +0.169 C 
BRANCH  20  21
ATOM     21  O   UNL     1      -1.631  -3.435  -0.138  0.00  0.00    -0.379 OA
ATOM     22  H   UNL     1      -1.810  -4.368  -0.331  0.00  0.00    +0.211 HD
ENDBRANCH  20  21
ENDBRANCH   5  20
TORSDOF 7
REMARK  Name = 126113
REMARK  7 active torsions:
REMARK  status: ('A' for Active; 'I' for Inactive)
REMARK    1  A    between atoms: C_2  and  O_7
REMARK    2  A    between atoms: C_3  and  O_9
REMARK    3  A    between atoms: C_4  and  O_11
REMARK    4  A    between atoms: C_5  and  C_20
REMARK    5  A    between atoms: C_6  and  O_13
REMARK    6  A    between atoms: O_13  and  C_14
REMARK    7  A    between atoms: C_20  and  O_21
REMARK                            x       y       z     vdW  Elec       q    Type
REMARK                         _______ _______ _______ _____ _____    ______ ____
ROOT
ATOM      1  N   UNL     1       5.583  -0.136  -0.555  0.00  0.00    +0.000 NA
ATOM      2  N   UNL     1       6.077   0.079  -1.562  0.00  0.00    +0.000 NA
ENDROOT
TORSDOF 0
