REMARK  Name = 126114
REMARK  7 active torsions:
REMARK  status: ('A' for Active; 'I' for Inactive)
REMARK    1  A    between atoms: C_1  and  C_4
REMARK    2  A    between atoms: C_1  and  N_9
REMARK    3  A    between atoms: C_1  and  C_13
REMARK    4  A    between atoms: N_3  and  N_6
REMARK    5  A    between atoms: C_13  and  S_14
REMARK    6  A    between atoms: S_14  and  S_15
REMARK    7  A    between atoms: S_15  and  C_17
REMARK                            x       y       z     vdW  Elec       q    Type
REMARK                         _______ _______ _______ _____ _____    ______ ____
ROOT
ATOM      1  C   UNL     1       2.017   1.001   0.100  0.00  0.00    +0.026 C 
ENDROOT
BRANCH   1   4
ATOM      2  O   UNL     1       3.941   0.176  -1.118  0.00  0.00    -0.276 OA
ATOM      3  N   UNL     1       3.436  -0.769   0.943  0.00  0.00    -0.255 N 
ATOM      4  C   UNL     1       3.230   0.099  -0.117  0.00  0.00    +0.215 C 
ATOM      5  H   UNL     1       2.821  -0.773   1.712  0.00  0.00    +0.169 HD
BRANCH   3   6
ATOM      6  N   UNL     1       4.515  -1.628   0.905  0.00  0.00    -0.254 NA
ATOM      7  H   UNL     1       5.035  -1.483   0.040  0.00  0.00    +0.140 HD
ATOM      8  H   UNL     1       4.184  -2.592   0.945  0.00  0.00    +0.140 HD
ENDBRANCH   3   6
ENDBRANCH   1   4
BRANCH   1   9
ATOM      9  N   UNL     1       2.554   2.361   0.190  0.00  0.00    +0.388 N 
ATOM     10  H   UNL     1       1.789   3.020   0.336  0.00  0.00    -0.089 HD
ATOM     11  H   UNL     1       3.041   2.593  -0.676  0.00  0.00    -0.089 HD
ATOM     12  H   UNL     1       3.207   2.419   0.972  0.00  0.00    -0.089 HD
ENDBRANCH   1   9
BRANCH   1  13
ATOM     13  C   UNL     1       1.003   0.919  -1.044  0.00  0.00    +0.056 C 
BRANCH  13  14
ATOM     14  S   UNL     1       0.347  -0.769  -1.238  0.00  0.00    -0.078 S 
BRANCH  14  15
ATOM     15  S   UNL     1      -0.512  -1.085   0.602  0.00  0.00    -0.036 S 
BRANCH  15  17
ATOM     16  N   UNL     1      -2.891  -1.107  -0.626  0.00  0.00    -0.237 NA
ATOM     17  C   UNL     1      -2.173  -0.489   0.339  0.00  0.00    +0.116 C 
ATOM     18  C   UNL     1      -2.651   0.557   1.112  0.00  0.00    +0.026 C 
ATOM     19  C   UNL     1      -3.949   0.998   0.880  0.00  0.00    +0.004 C 
ATOM     20  C   UNL     1      -4.719   0.387  -0.104  0.00  0.00    +0.021 C 
ATOM     21  C   UNL     1      -4.149  -0.651  -0.823  0.00  0.00    +0.099 C 
ENDBRANCH  15  17
ENDBRANCH  14  15
ENDBRANCH  13  14
ENDBRANCH   1  13
TORSDOF 7
