REMARK  Name = 126105
REMARK  5 active torsions:
REMARK  status: ('A' for Active; 'I' for Inactive)
REMARK    1  A    between atoms: N_3  and  C1*_17
REMARK    2  A    between atoms: C_7  and  C_12
REMARK    3  A    between atoms: C3*_18  and  O3*_21
REMARK    4  A    between atoms: C4*_20  and  C5*_23
REMARK    5  A    between atoms: C5*_23  and  O5*_24
REMARK                            x       y       z     vdW  Elec       q    Type
REMARK                         _______ _______ _______ _____ _____    ______ ____
ROOT
ATOM      1  O   UNL     1      -1.730  -3.495   0.046  0.00  0.00    -0.252 OA
ATOM      2  O   UNL     1       2.794  -2.689   0.183  0.00  0.00    -0.270 OA
ATOM      3  N   UNL     1      -1.001  -1.281   0.119  0.00  0.00    -0.219 N 
ATOM      4  N   UNL     1       0.524  -3.074   0.100  0.00  0.00    -0.236 N 
ATOM      5  C   UNL     1       0.066  -0.405   0.160  0.00  0.00    +0.076 C 
ATOM      6  C   UNL     1      -0.815  -2.669   0.085  0.00  0.00    +0.315 C 
ATOM      7  C   UNL     1       1.347  -0.798   0.176  0.00  0.00    +0.075 C 
ATOM      8  C   UNL     1       1.644  -2.258   0.151  0.00  0.00    +0.254 C 
ATOM      9  H   UNL     1       0.689  -4.044   0.071  0.00  0.00    +0.159 HD
ENDROOT
BRANCH   7  12
ATOM     10 BR   UNL     1       5.404   2.909  -1.307  0.00  0.00    -0.042 Br
ATOM     11  S   UNL     1       3.054   0.762  -1.259  0.00  0.00    -0.080 S 
ATOM     12  C   UNL     1       2.402   0.164   0.211  0.00  0.00    +0.036 C 
ATOM     13  C   UNL     1       3.023   0.731   1.309  0.00  0.00    +0.008 C 
ATOM     14  C   UNL     1       4.039   1.659   0.938  0.00  0.00    +0.014 C 
ATOM     15  C   UNL     1       4.161   1.772  -0.430  0.00  0.00    +0.064 C 
ENDBRANCH   7  12
BRANCH   3  17
ATOM     16  O4* UNL     1      -2.335   0.492   0.873  0.00  0.00    -0.335 OA
ATOM     17  C1* UNL     1      -2.321  -0.723   0.107  0.00  0.00    +0.202 C 
ATOM     18  C3* UNL     1      -3.721   0.795  -1.014  0.00  0.00    +0.144 C 
ATOM     19  C2* UNL     1      -2.807  -0.376  -1.288  0.00  0.00    +0.083 C 
ATOM     20  C4* UNL     1      -2.957   1.519   0.082  0.00  0.00    +0.173 C 
BRANCH  18  21
ATOM     21  O3* UNL     1      -3.896   1.593  -2.166  0.00  0.00    -0.382 OA
ATOM     22  H3* UNL     1      -4.387   1.091  -2.836  0.00  0.00    +0.210 HD
ENDBRANCH  18  21
BRANCH  20  23
ATOM     23  C5* UNL     1      -3.841   2.378   0.969  0.00  0.00    +0.169 C 
BRANCH  23  24
ATOM     24  O5* UNL     1      -3.033   2.994   1.955  0.00  0.00    -0.379 OA
ATOM     25  H5* UNL     1      -3.587   3.546   2.529  0.00  0.00    +0.211 HD
ENDBRANCH  23  24
ENDBRANCH  20  23
ENDBRANCH   3  17
TORSDOF 5
