REMARK  Name = 126101
REMARK  5 active torsions:
REMARK  status: ('A' for Active; 'I' for Inactive)
REMARK    1  A    between atoms: N_1  and  C1*_29
REMARK    2  A    between atoms: N_2  and  C_12
REMARK    3  A    between atoms: C3*_31  and  O3*_33
REMARK    4  A    between atoms: C4*_32  and  C5*_35
REMARK    5  A    between atoms: C5*_35  and  O5*_36
REMARK                            x       y       z     vdW  Elec       q    Type
REMARK                         _______ _______ _______ _____ _____    ______ ____
ROOT
ATOM      1  N   UNL     1      -2.686   0.071   0.127  0.00  0.00    -0.210 N 
ATOM      2  N   UNL     1      -0.392   0.590   0.133  0.00  0.00    -0.275 N 
ATOM      3  N   UNL     1      -1.269  -1.644  -0.017  0.00  0.00    -0.367 NA
ATOM      4  N   UNL     1      -4.798  -1.127   0.066  0.00  0.00    -0.227 NA
ATOM      5  N   UNL     1      -4.447  -3.535  -0.114  0.00  0.00    -0.227 NA
ATOM      6  C   UNL     1      -1.418  -0.372   0.077  0.00  0.00    +0.249 C 
ATOM      7  C   UNL     1      -3.459  -1.053   0.055  0.00  0.00    +0.170 C 
ATOM      8  C   UNL     1      -2.562  -2.105  -0.034  0.00  0.00    +0.196 C 
ATOM      9  C   UNL     1      -3.100  -3.385  -0.120  0.00  0.00    +0.155 C 
ATOM     10  C   UNL     1      -5.201  -2.413  -0.023  0.00  0.00    +0.253 C 
ATOM     11  H   UNL     1      -0.721   1.515   0.206  0.00  0.00    +0.156 HD
ATOM     12  N   UNL     1      -2.264  -4.511  -0.216  0.00  0.00    -0.341 N 
ATOM     13  H   UNL     1      -2.656  -5.412  -0.277  0.00  0.00    +0.144 HD
ATOM     14  H   UNL     1      -1.286  -4.398  -0.223  0.00  0.00    +0.144 HD
ENDROOT
BRANCH   2  15
ATOM     15  C   UNL     1       1.016   0.489   0.105  0.00  0.00    +0.051 C 
ATOM     16  C   UNL     1       3.812   0.288   0.050  0.00  0.00    +0.000 C 
ATOM     17  C   UNL     1       5.225   0.186   0.023  0.00  0.00    +0.000 C 
ATOM     18  C   UNL     1       3.018  -0.880  -0.023  0.00  0.00    +0.001 C 
ATOM     19  C   UNL     1       3.196   1.557   0.151  0.00  0.00    +0.001 C 
ATOM     20  C   UNL     1       1.620  -0.763   0.006  0.00  0.00    +0.015 C 
ATOM     21  C   UNL     1       1.797   1.641   0.178  0.00  0.00    +0.015 C 
ATOM     22  C   UNL     1       6.019   1.354   0.096  0.00  0.00    +0.000 C 
ATOM     23  C   UNL     1       5.841  -1.083  -0.078  0.00  0.00    +0.000 C 
ATOM     24  C   UNL     1       3.645  -2.129  -0.122  0.00  0.00    +0.000 C 
ATOM     25  C   UNL     1       4.000   2.703   0.223  0.00  0.00    +0.000 C 
ATOM     26  C   UNL     1       5.392   2.603   0.195  0.00  0.00    +0.000 C 
ATOM     27  C   UNL     1       5.038  -2.229  -0.150  0.00  0.00    +0.000 C 
ATOM     28  C   UNL     1       7.417   1.237   0.067  0.00  0.00    +0.000 C 
ATOM     29  C   UNL     1       7.240  -1.167  -0.104  0.00  0.00    +0.000 C 
ATOM     30  C   UNL     1       8.021  -0.015  -0.032  0.00  0.00    +0.000 C 
ENDBRANCH   2  15
BRANCH   1  32
ATOM     31  O4* UNL     1      -4.407   1.456   0.986  0.00  0.00    -0.335 OA
ATOM     32  C1* UNL     1      -3.180   1.444   0.231  0.00  0.00    +0.202 C 
ATOM     33  C2* UNL     1      -3.461   2.102  -1.115  0.00  0.00    +0.083 C 
ATOM     34  C3* UNL     1      -4.968   2.034  -1.224  0.00  0.00    +0.144 C 
ATOM     35  C4* UNL     1      -5.391   2.176   0.228  0.00  0.00    +0.173 C 
BRANCH  34  36
ATOM     36  O3* UNL     1      -5.472   3.076  -2.035  0.00  0.00    -0.382 OA
ATOM     37  H3* UNL     1      -5.178   2.945  -2.950  0.00  0.00    +0.210 HD
ENDBRANCH  34  36
BRANCH  35  38
ATOM     38  C5* UNL     1      -6.771   1.613   0.517  0.00  0.00    +0.169 C 
BRANCH  38  39
ATOM     39  O5* UNL     1      -7.053   1.789   1.894  0.00  0.00    -0.379 OA
ATOM     40  H5* UNL     1      -7.934   1.433   2.092  0.00  0.00    +0.211 HD
ENDBRANCH  38  39
ENDBRANCH  35  38
ENDBRANCH   1  32
TORSDOF 5
