REMARK  Name = 126107
REMARK  4 active torsions:
REMARK  status: ('A' for Active; 'I' for Inactive)
REMARK    1  A    between atoms: N_4  and  C_15
REMARK    2  A    between atoms: C_8  and  N_14
REMARK    3  A    between atoms: C_15  and  C_17
REMARK    4  A    between atoms: C_17  and  O_18
REMARK                            x       y       z     vdW  Elec       q    Type
REMARK                         _______ _______ _______ _____ _____    ______ ____
ROOT
ATOM      1  S   UNL     1      -2.126   1.207   0.229  0.00  0.00    -0.027 S 
ATOM      2  O   UNL     1       1.706  -1.409   0.372  0.00  0.00    -0.252 OA
ATOM      3  N   UNL     1       0.399   0.544   0.464  0.00  0.00    -0.248 N 
ATOM      4  N   UNL     1       2.668   0.652   0.772  0.00  0.00    -0.279 N 
ATOM      5  N   UNL     1      -1.205  -1.200   0.024  0.00  0.00    -0.221 NA
ATOM      6  C   UNL     1      -0.882   0.041   0.232  0.00  0.00    +0.168 C 
ATOM      7  C   UNL     1       1.583  -0.196   0.518  0.00  0.00    +0.306 C 
ATOM      8  C   UNL     1      -3.243  -0.056  -0.085  0.00  0.00    +0.194 C 
ATOM      9  C   UNL     1      -2.572  -1.259  -0.159  0.00  0.00    +0.132 C 
ATOM     10  H   UNL     1       0.476   1.516   0.604  0.00  0.00    +0.158 HD
ATOM     11  H   UNL     1       2.496   1.615   0.879  0.00  0.00    +0.151 HD
ENDROOT
BRANCH   8  14
ATOM     12  O   UNL     1      -5.418  -0.718  -0.452  0.00  0.00    -0.126 OA
ATOM     13  O   UNL     1      -5.012   1.417  -0.114  0.00  0.00    -0.126 OA
ATOM     14  N   UNL     1      -4.607   0.225  -0.222  0.00  0.00    +0.065 N 
ENDBRANCH   8  14
BRANCH   4  15
ATOM     15  C   UNL     1       4.027   0.177   0.884  0.00  0.00    +0.202 C 
BRANCH  15  17
ATOM     16  O   UNL     1       5.916  -0.208  -0.558  0.00  0.00    -0.248 OA
ATOM     17  C   UNL     1       4.756   0.168  -0.435  0.00  0.00    +0.334 C 
BRANCH  17  18
ATOM     18  O   UNL     1       4.008   0.615  -1.470  0.00  0.00    -0.479 OA
ATOM     19  H   UNL     1       3.125   0.891  -1.324  0.00  0.00    +0.295 HD
ENDBRANCH  17  18
ENDBRANCH  15  17
ENDBRANCH   4  15
TORSDOF 4
