REMARK  Name = 126106
REMARK  5 active torsions:
REMARK  status: ('A' for Active; 'I' for Inactive)
REMARK    1  A    between atoms: N_3  and  C1*_17
REMARK    2  A    between atoms: C_7  and  C_12
REMARK    3  A    between atoms: C3*_18  and  O3*_21
REMARK    4  A    between atoms: C4*_20  and  C5*_23
REMARK    5  A    between atoms: C5*_23  and  O5*_24
REMARK                            x       y       z     vdW  Elec       q    Type
REMARK                         _______ _______ _______ _____ _____    ______ ____
ROOT
ATOM      1  O   UNL     1       1.681  -3.508  -0.059  0.00  0.00    -0.252 OA
ATOM      2  O   UNL     1      -2.832  -2.649  -0.189  0.00  0.00    -0.270 OA
ATOM      3  N   UNL     1       0.978  -1.285  -0.124  0.00  0.00    -0.219 N 
ATOM      4  N   UNL     1      -0.567  -3.061  -0.109  0.00  0.00    -0.236 N 
ATOM      5  C   UNL     1      -0.078  -0.397  -0.161  0.00  0.00    +0.076 C 
ATOM      6  C   UNL     1       0.777  -2.671  -0.094  0.00  0.00    +0.315 C 
ATOM      7  C   UNL     1      -1.363  -0.775  -0.177  0.00  0.00    +0.075 C 
ATOM      8  C   UNL     1      -1.678  -2.231  -0.156  0.00  0.00    +0.254 C 
ATOM      9  H   UNL     1      -0.743  -4.029  -0.083  0.00  0.00    +0.159 HD
ENDROOT
BRANCH   7  12
ATOM     10 CL   UNL     1      -5.220   2.828   1.324  0.00  0.00    -0.075 Cl
ATOM     11  S   UNL     1      -3.051   0.800   1.265  0.00  0.00    -0.075 S 
ATOM     12  C   UNL     1      -2.407   0.200  -0.208  0.00  0.00    +0.036 C 
ATOM     13  C   UNL     1      -3.023   0.777  -1.304  0.00  0.00    +0.008 C 
ATOM     14  C   UNL     1      -4.027   1.715  -0.928  0.00  0.00    +0.018 C 
ATOM     15  C   UNL     1      -4.147   1.825   0.440  0.00  0.00    +0.087 C 
ENDBRANCH   7  12
BRANCH   3  17
ATOM     16  O4* UNL     1       2.332   0.474  -0.874  0.00  0.00    -0.335 OA
ATOM     17  C1* UNL     1       2.306  -0.744  -0.112  0.00  0.00    +0.202 C 
ATOM     18  C3* UNL     1       3.724   0.755   1.012  0.00  0.00    +0.144 C 
ATOM     19  C2* UNL     1       2.797  -0.406   1.284  0.00  0.00    +0.083 C 
ATOM     20  C4* UNL     1       2.967   1.492  -0.081  0.00  0.00    +0.173 C 
BRANCH  18  21
ATOM     21  O3* UNL     1       3.910   1.547   2.166  0.00  0.00    -0.382 OA
ATOM     22  H3* UNL     1       4.395   1.037   2.834  0.00  0.00    +0.210 HD
ENDBRANCH  18  21
BRANCH  20  23
ATOM     23  C5* UNL     1       3.861   2.343  -0.966  0.00  0.00    +0.169 C 
BRANCH  23  24
ATOM     24  O5* UNL     1       3.059   2.971  -1.950  0.00  0.00    -0.379 OA
ATOM     25  H5* UNL     1       3.619   3.518  -2.522  0.00  0.00    +0.211 HD
ENDBRANCH  23  24
ENDBRANCH  20  23
ENDBRANCH   3  17
TORSDOF 5
