REMARK  Name = 126178
REMARK  8 active torsions:
REMARK  status: ('A' for Active; 'I' for Inactive)
REMARK    1  A    between atoms: C_2  and  O_18
REMARK    2  A    between atoms: C_3  and  O_20
REMARK    3  A    between atoms: C_4  and  N_6
REMARK    4  A    between atoms: C_5  and  C_22
REMARK    5  A    between atoms: C_22  and  O_23
REMARK    6  A    between atoms: O_23  and  C_25
REMARK    7  A    between atoms: C_25  and  C_26
REMARK    8  A    between atoms: C_31  and  C_33
REMARK                            x       y       z     vdW  Elec       q    Type
REMARK                         _______ _______ _______ _____ _____    ______ ____
ROOT
ATOM      1  O   UNL     1       0.678   1.397   0.893  0.00  0.00    -0.332 OA
ATOM      2  C   UNL     1       2.427   2.370  -0.372  0.00  0.00    +0.187 C 
ATOM      3  C   UNL     1       1.507   3.481   0.095  0.00  0.00    +0.172 C 
ATOM      4  C   UNL     1       2.083   1.260   0.609  0.00  0.00    +0.225 C 
ATOM      5  C   UNL     1       0.246   2.716   0.486  0.00  0.00    +0.190 C 
ENDROOT
BRANCH   4   6
ATOM      6  N   UNL     1       2.355  -0.085   0.105  0.00  0.00    -0.247 N 
ATOM      7  N   UNL     1       2.030  -2.019  -0.959  0.00  0.00    -0.242 NA
ATOM      8  N   UNL     1       4.587  -0.465   0.985  0.00  0.00    -0.228 NA
ATOM      9  N   UNL     1       5.429  -2.666   0.348  0.00  0.00    -0.229 NA
ATOM     10  C   UNL     1       3.491  -0.820   0.297  0.00  0.00    +0.152 C 
ATOM     11  C   UNL     1       1.508  -0.849  -0.655  0.00  0.00    +0.223 C 
ATOM     12  C   UNL     1       3.269  -2.014  -0.370  0.00  0.00    +0.140 C 
ATOM     13  C   UNL     1       4.292  -2.957  -0.329  0.00  0.00    +0.143 C 
ATOM     14  C   UNL     1       5.505  -1.456   0.954  0.00  0.00    +0.253 C 
ATOM     15  N   UNL     1       4.154  -4.195  -0.980  0.00  0.00    -0.342 N 
ATOM     16  H   UNL     1       4.884  -4.854  -0.944  0.00  0.00    +0.144 HD
ATOM     17  H   UNL     1       3.327  -4.403  -1.471  0.00  0.00    +0.144 HD
ENDBRANCH   4   6
BRANCH   2  18
ATOM     18  O   UNL     1       3.794   2.722  -0.312  0.00  0.00    -0.378 OA
ATOM     19  H   UNL     1       3.974   3.430  -0.949  0.00  0.00    +0.211 HD
ENDBRANCH   2  18
BRANCH   3  20
ATOM     20  O   UNL     1       2.055   4.092   1.264  0.00  0.00    -0.379 OA
ATOM     21  H   UNL     1       2.858   4.582   1.026  0.00  0.00    +0.211 HD
ENDBRANCH   3  20
BRANCH   5  22
ATOM     22  C   UNL     1      -0.737   2.565  -0.667  0.00  0.00    +0.241 C 
BRANCH  22  23
ATOM     23  O   UNL     1      -1.863   1.836  -0.210  0.00  0.00    -0.443 OA
BRANCH  23  25
ATOM     24  O   UNL     1      -2.198   0.975  -2.318  0.00  0.00    -0.245 OA
ATOM     25  C   UNL     1      -2.507   1.077  -1.141  0.00  0.00    +0.341 C 
BRANCH  25  26
ATOM     26  C   UNL     1      -3.664   0.367  -0.539  0.00  0.00    +0.076 C 
ATOM     27  C   UNL     1      -4.759   0.085  -1.330  0.00  0.00    +0.006 C 
ATOM     28  C   UNL     1      -3.609   0.013   0.793  0.00  0.00    +0.006 C 
ATOM     29  C   UNL     1      -5.846  -0.581  -0.764  0.00  0.00    -0.003 C 
ATOM     30  C   UNL     1      -4.696  -0.654   1.360  0.00  0.00    -0.003 C 
ATOM     31  C   UNL     1      -5.815  -0.951   0.581  0.00  0.00    -0.011 C 
BRANCH  31  33
ATOM     32 BR   UNL     1      -6.739  -3.583   0.990  0.00  0.00    -0.076 Br
ATOM     33  C   UNL     1      -6.977  -1.662   1.186  0.00  0.00    +0.094 C 
ENDBRANCH  31  33
ENDBRANCH  25  26
ENDBRANCH  23  25
ENDBRANCH  22  23
ENDBRANCH   5  22
TORSDOF 8
