REMARK  Name = 126175
REMARK  7 active torsions:
REMARK  status: ('A' for Active; 'I' for Inactive)
REMARK    1  A    between atoms: C_6  and  O_21
REMARK    2  A    between atoms: C_6  and  C_25
REMARK    3  A    between atoms: C_9  and  O_23
REMARK    4  A    between atoms: C_25  and  C_28
REMARK    5  A    between atoms: C_25  and  O_33
REMARK    6  A    between atoms: N_27  and  C_30
REMARK    7  A    between atoms: C_30  and  C_31
REMARK                            x       y       z     vdW  Elec       q    Type
REMARK                         _______ _______ _______ _____ _____    ______ ____
ROOT
ATOM      1  O   UNL     1       6.897   0.983  -1.985  0.00  0.00    -0.287 OA
ATOM      2  C   UNL     1      -0.796  -0.683   0.415  0.00  0.00    +0.028 C 
ATOM      3  C   UNL     1      -0.106   0.692   0.282  0.00  0.00    +0.003 C 
ATOM      4  C   UNL     1       1.332   0.712   0.822  0.00  0.00    +0.003 C 
ATOM      5  C   UNL     1       2.188  -0.324   0.010  0.00  0.00    +0.034 C 
ATOM      6  C   UNL     1      -2.205  -0.323  -0.150  0.00  0.00    +0.121 C 
ATOM      7  C   UNL     1       0.022  -1.693  -0.416  0.00  0.00    +0.032 C 
ATOM      8  C   UNL     1      -1.130   1.663   0.865  0.00  0.00    +0.003 C 
ATOM      9  C   UNL     1       1.518  -1.734  -0.028  0.00  0.00    +0.111 C 
ATOM     10  C   UNL     1      -2.499   1.063   0.480  0.00  0.00    +0.030 C 
ATOM     11  C   UNL     1       3.713  -0.291   0.424  0.00  0.00    +0.036 C 
ATOM     12  C   UNL     1       1.926   2.128   0.717  0.00  0.00    +0.004 C 
ATOM     13  C   UNL     1      -0.920  -1.167   1.885  0.00  0.00    +0.002 C 
ATOM     14  C   UNL     1       3.395   2.171   1.119  0.00  0.00    +0.022 C 
ATOM     15  C   UNL     1       4.183   1.165   0.322  0.00  0.00    -0.038 C 
ATOM     16  C   UNL     1       3.985  -0.783   1.863  0.00  0.00    +0.009 C 
ATOM     17  C   UNL     1       4.522  -1.196  -0.495  0.00  0.00    -0.020 C 
ATOM     18  C   UNL     1       5.202   1.567  -0.454  0.00  0.00    +0.034 C 
ATOM     19  C   UNL     1       5.536  -0.801  -1.271  0.00  0.00    +0.038 C 
ATOM     20  C   UNL     1       5.957   0.612  -1.291  0.00  0.00    +0.195 C 
ENDROOT
BRANCH   6  21
ATOM     21  O   UNL     1      -2.174  -0.191  -1.578  0.00  0.00    -0.384 OA
ATOM     22  H   UNL     1      -1.486   0.446  -1.829  0.00  0.00    +0.210 HD
ENDBRANCH   6  21
BRANCH   9  23
ATOM     23  O   UNL     1       1.670  -2.411   1.212  0.00  0.00    -0.384 OA
ATOM     24  H   UNL     1       2.609  -2.435   1.454  0.00  0.00    +0.210 HD
ENDBRANCH   9  23
BRANCH   6  25
ATOM     25  C   UNL     1      -3.309  -1.337   0.137  0.00  0.00    +0.211 C 
BRANCH  25  28
ATOM     26  O   UNL     1      -4.999  -1.107  -1.570  0.00  0.00    -0.272 OA
ATOM     27  N   UNL     1      -5.367  -0.118   0.497  0.00  0.00    -0.302 N 
ATOM     28  C   UNL     1      -4.641  -0.862  -0.420  0.00  0.00    +0.252 C 
ATOM     29  H   UNL     1      -4.991   0.022   1.396  0.00  0.00    +0.150 HD
BRANCH  27  30
ATOM     30  C   UNL     1      -6.653   0.459   0.183  0.00  0.00    +0.089 C 
BRANCH  30  31
ATOM     31  C   UNL     1      -6.478   1.864  -0.388  0.00  0.00    +0.021 C 
ATOM     32  C   UNL     1      -7.820   2.503  -0.707  0.00  0.00    +0.002 C 
ENDBRANCH  30  31
ENDBRANCH  27  30
ENDBRANCH  25  28
BRANCH  25  33
ATOM     33  O   UNL     1      -2.950  -2.561  -0.478  0.00  0.00    -0.374 OA
ATOM     34  H   UNL     1      -2.100  -2.864  -0.123  0.00  0.00    +0.211 HD
ENDBRANCH  25  33
ENDBRANCH   6  25
TORSDOF 7
