REMARK  Name = 126248
REMARK  6 active torsions:
REMARK  status: ('A' for Active; 'I' for Inactive)
REMARK    1  A    between atoms: C_1  and  C_3
REMARK    2  A    between atoms: C_1  and  C_11
REMARK    3  A    between atoms: C_1  and  C_16
REMARK    4  A    between atoms: C_6  and  O_9
REMARK    5  A    between atoms: C_11  and  S_12
REMARK    6  A    between atoms: C_16  and  N_17
REMARK                            x       y       z     vdW  Elec       q    Type
REMARK                         _______ _______ _______ _____ _____    ______ ____
ROOT
ATOM      1  C   UNL     1      -1.234   1.037   0.378  0.00  0.00    +0.025 C 
ENDROOT
BRANCH   1   3
ATOM      2 CL   UNL     1       4.480  -0.814   0.357  0.00  0.00    -0.079 Cl
ATOM      3  C   UNL     1       0.217   0.569   0.365  0.00  0.00    -0.020 C 
ATOM      4  C   UNL     1       0.925   0.630  -0.817  0.00  0.00    +0.033 C 
ATOM      5  C   UNL     1       0.774   0.099   1.535  0.00  0.00    -0.003 C 
ATOM      6  C   UNL     1       2.252   0.202  -0.829  0.00  0.00    +0.144 C 
ATOM      7  C   UNL     1       2.101  -0.329   1.524  0.00  0.00    +0.014 C 
ATOM      8  C   UNL     1       2.840  -0.278   0.342  0.00  0.00    +0.091 C 
BRANCH   6   9
ATOM      9  O   UNL     1       2.950   0.263  -1.998  0.00  0.00    -0.505 OA
ATOM     10  H   UNL     1       2.538   0.588  -2.773  0.00  0.00    +0.292 HD
ENDBRANCH   6   9
ENDBRANCH   1   3
BRANCH   1  11
ATOM     11  C   UNL     1      -2.121   0.197  -0.556  0.00  0.00    +0.160 C 
BRANCH  11  12
ATOM     12  S   UNL     1      -2.200  -1.503  -0.074  0.00  0.00    +0.023 S 
ATOM     13  O   UNL     1      -3.343  -1.968  -1.140  0.00  0.00    -0.069 OA
ATOM     14  O   UNL     1      -2.749  -1.583   1.266  0.00  0.00    -0.069 OA
ATOM     15  O   UNL     1      -0.947  -2.143  -0.424  0.00  0.00    -0.069 OA
ENDBRANCH  11  12
ENDBRANCH   1  11
BRANCH   1  16
ATOM     16  C   UNL     1      -1.293   2.545   0.044  0.00  0.00    -0.080 C 
BRANCH  16  17
ATOM     17  N   UNL     1      -2.652   3.078   0.027  0.00  0.00    +0.381 N 
ATOM     18  H   UNL     1      -2.625   4.072  -0.199  0.00  0.00    -0.089 HD
ATOM     19  H   UNL     1      -3.079   2.949   0.944  0.00  0.00    -0.089 HD
ATOM     20  H   UNL     1      -3.202   2.585  -0.677  0.00  0.00    -0.089 HD
ENDBRANCH  16  17
ENDBRANCH   1  16
TORSDOF 6
