REMARK  Name = 126296
REMARK  7 active torsions:
REMARK  status: ('A' for Active; 'I' for Inactive)
REMARK    1  A    between atoms: N_1  and  C_5
REMARK    2  A    between atoms: N_1  and  CA_15
REMARK    3  A    between atoms: CA_15  and  C_17
REMARK    4  A    between atoms: CA_15  and  CB_20
REMARK    5  A    between atoms: C_17  and  O_18
REMARK    6  A    between atoms: CB_20  and  CG_21
REMARK    7  A    between atoms: CG_21  and  CD_24
REMARK                            x       y       z     vdW  Elec       q    Type
REMARK                         _______ _______ _______ _____ _____    ______ ____
ROOT
ATOM      1  N   GLN A   1       1.432   1.357  -0.342  0.00  0.00    -0.325 N 
ATOM      2  H   GLN A   1       1.864   1.876  -1.059  0.00  0.00    +0.147 HD
ENDROOT
BRANCH   1   5
ATOM      3  O   UNK A   0      -2.539  -0.711   1.425  0.00  0.00    -0.421 OA
ATOM      4  O   UNK A   0      -4.410  -1.703   2.288  0.00  0.00    -0.244 OA
ATOM      5  C   UNK A   0       0.061   1.054  -0.464  0.00  0.00    +0.048 C 
ATOM      6  C   UNK A   0      -2.683   0.454  -0.717  0.00  0.00    +0.031 C 
ATOM      7  C   UNK A   0      -1.942   0.033   0.388  0.00  0.00    +0.150 C 
ATOM      8  C   UNK A   0      -0.583   0.322   0.528  0.00  0.00    +0.052 C 
ATOM      9  C   UNK A   0      -0.654   1.487  -1.579  0.00  0.00    +0.014 C 
ATOM     10  C   UNK A   0      -2.016   1.190  -1.706  0.00  0.00    +0.004 C 
ATOM     11  C   UNK A   0      -4.109   0.104  -0.782  0.00  0.00    -0.012 C 
ATOM     12  C   UNK A   0      -4.650  -0.604   0.219  0.00  0.00    +0.078 C 
ATOM     13  C   UNK A   0      -4.933   0.541  -1.958  0.00  0.00    +0.031 C 
ATOM     14  C   UNK A   0      -3.881  -1.055   1.391  0.00  0.00    +0.346 C 
ENDBRANCH   1   5
BRANCH   1  15
ATOM     15  CA  GLN A   1       2.223   0.945   0.776  0.00  0.00    +0.170 C 
BRANCH  15  17
ATOM     16  OXT GLN A   1       3.684   2.789   0.149  0.00  0.00    -0.248 OA
ATOM     17  C   GLN A   1       3.406   1.882   0.922  0.00  0.00    +0.332 C 
BRANCH  17  18
ATOM     18  O   GLN A   1       4.135   1.618   2.037  0.00  0.00    -0.479 OA
ATOM     19  H   GLN A   1       3.888   0.913   2.603  0.00  0.00    +0.295 HD
ENDBRANCH  17  18
ENDBRANCH  15  17
BRANCH  15  20
ATOM     20  CB  GLN A   1       2.624  -0.531   0.640  0.00  0.00    +0.041 C 
BRANCH  20  21
ATOM     21  CG  GLN A   1       3.416  -0.896  -0.620  0.00  0.00    +0.087 C 
BRANCH  21  24
ATOM     22  OE1 GLN A   1       3.324  -3.199   0.069  0.00  0.00    -0.275 OA
ATOM     23  NE2 GLN A   1       4.404  -2.701  -1.899  0.00  0.00    -0.329 N 
ATOM     24  CD  GLN A   1       3.693  -2.377  -0.766  0.00  0.00    +0.219 C 
ATOM     25 HE21 GLN A   1       4.635  -3.640  -2.084  0.00  0.00    +0.145 HD
ATOM     26 HE22 GLN A   1       4.683  -1.993  -2.524  0.00  0.00    +0.145 HD
ENDBRANCH  21  24
ENDBRANCH  20  21
ENDBRANCH  15  20
ENDBRANCH   1  15
TORSDOF 7
