REMARK  Name = 126255
REMARK  13 active torsions:
REMARK  status: ('A' for Active; 'I' for Inactive)
REMARK    1  A    between atoms: N_2  and  CA_19
REMARK    2  A    between atoms: C_3  and  C_5
REMARK    3  A    between atoms: C_5  and  C_6
REMARK    4  A    between atoms: C_6  and  C_7
REMARK    5  A    between atoms: C_7  and  N_10
REMARK    6  A    between atoms: C_7  and  C_16
REMARK    7  A    between atoms: C_16  and  O_17
REMARK    8  A    between atoms: CA_19  and  C_22
REMARK    9  A    between atoms: CA_19  and  CB_29
REMARK   10  A    between atoms: N_21  and  CA_24
REMARK   11  A    between atoms: CA_24  and  C_26
REMARK   12  A    between atoms: C_26  and  O_27
REMARK   13  A    between atoms: CB_29  and  SG_30
REMARK                            x       y       z     vdW  Elec       q    Type
REMARK                         _______ _______ _______ _____ _____    ______ ____
ROOT
ATOM      1  O   UNL     1      -0.384   2.507   0.580  0.00  0.00    -0.275 OA
ATOM      2  N   UNL     1       0.914   0.899  -0.480  0.00  0.00    -0.298 N 
ATOM      3  C   ACE A   0      -0.224   1.673  -0.308  0.00  0.00    +0.223 C 
ATOM      4  H   UNL     1       0.941   0.258  -1.226  0.00  0.00    +0.150 HD
ENDROOT
BRANCH   3   5
ATOM      5  C   UNL     1      -1.262   1.390  -1.382  0.00  0.00    +0.087 C 
BRANCH   5   6
ATOM      6  C   UNL     1      -2.703   1.593  -0.910  0.00  0.00    +0.041 C 
BRANCH   6   7
ATOM      7  C   UNL     1      -3.079   0.722   0.291  0.00  0.00    +0.182 C 
BRANCH   7  10
ATOM      8  O   UNL     1      -4.466  -0.845  -1.834  0.00  0.00    -0.269 OA
ATOM      9  O   UNL     1      -1.488  -1.412   1.631  0.00  0.00    -0.269 OA
ATOM     10  N   UNL     1      -3.003  -0.686  -0.006  0.00  0.00    -0.214 N 
ATOM     11  C   UNL     1      -3.692  -1.312  -1.016  0.00  0.00    +0.256 C 
ATOM     12  C   UNL     1      -2.232  -1.592   0.682  0.00  0.00    +0.256 C 
ATOM     13  C   UNL     1      -3.322  -2.735  -0.955  0.00  0.00    +0.063 C 
ATOM     14  C   UNL     1      -2.459  -2.900   0.049  0.00  0.00    +0.063 C 
ENDBRANCH   7  10
BRANCH   7  16
ATOM     15  O   UNL     1      -5.424   0.186   0.679  0.00  0.00    -0.248 OA
ATOM     16  C   UNL     1      -4.508   0.998   0.713  0.00  0.00    +0.332 C 
BRANCH  16  17
ATOM     17  O   UNL     1      -4.683   2.290   1.096  0.00  0.00    -0.479 OA
ATOM     18  H   UNL     1      -3.953   2.878   1.107  0.00  0.00    +0.295 HD
ENDBRANCH  16  17
ENDBRANCH   7  16
ENDBRANCH   6   7
ENDBRANCH   5   6
ENDBRANCH   3   5
BRANCH   2  19
ATOM     19  CA  UNL     1       2.062   0.995   0.392  0.00  0.00    +0.159 C 
BRANCH  19  22
ATOM     20  O   UNL     1       3.308   0.443  -1.616  0.00  0.00    -0.273 OA
ATOM     21  N   UNL     1       4.481   0.957   0.318  0.00  0.00    -0.294 N 
ATOM     22  C   UNL     1       3.328   0.771  -0.431  0.00  0.00    +0.242 C 
ATOM     23  H   UNL     1       4.393   1.221   1.262  0.00  0.00    +0.150 HD
BRANCH  21  24
ATOM     24  CA  UNL     1       5.805   0.778  -0.231  0.00  0.00    +0.200 C 
BRANCH  24  26
ATOM     25  OXT UNL     1       7.420  -0.989  -0.475  0.00  0.00    -0.248 OA
ATOM     26  C   UNL     1       6.316  -0.631  -0.083  0.00  0.00    +0.334 C 
BRANCH  26  27
ATOM     27  O   UNL     1       5.439  -1.464   0.523  0.00  0.00    -0.479 OA
ATOM     28  H   UNL     1       4.606  -1.142   0.805  0.00  0.00    +0.295 HD
ENDBRANCH  26  27
ENDBRANCH  24  26
ENDBRANCH  21  24
ENDBRANCH  19  22
BRANCH  19  29
ATOM     29  CB  UNL     1       1.953   0.066   1.603  0.00  0.00    +0.082 C 
BRANCH  29  30
ATOM     30  SG  UNL     1       1.903  -1.704   1.169  0.00  0.00    -0.166 S 
ATOM     31  HG  UNL     1       1.807  -2.446   2.304  0.00  0.00    +0.102 HD
ENDBRANCH  29  30
ENDBRANCH  19  29
ENDBRANCH   2  19
TORSDOF 13
