REMARK  Name = 126239
REMARK  4 active torsions:
REMARK  status: ('A' for Active; 'I' for Inactive)
REMARK    1  A    between atoms: C_5  and  C_17
REMARK    2  A    between atoms: CA_10  and  C_14
REMARK    3  A    between atoms: C_14  and  O_15
REMARK    4  A    between atoms: C_17  and  C_22
REMARK                            x       y       z     vdW  Elec       q    Type
REMARK                         _______ _______ _______ _____ _____    ______ ____
ROOT
ATOM      1  N   UNL     1       3.369   0.725  -0.481  0.00  0.00    +0.392 N 
ATOM      2  C   UNL     1       0.818   0.406   0.971  0.00  0.00    -0.004 C 
ATOM      3  C   UNL     1       1.424   1.787   0.648  0.00  0.00    -0.021 C 
ATOM      4  C   UNL     1      -0.328   0.034   0.013  0.00  0.00    +0.001 C 
ATOM      5  C   UNL     1      -1.410   1.121  -0.030  0.00  0.00    +0.015 C 
ATOM      6  C   UNL     1       0.335   2.864   0.535  0.00  0.00    -0.002 C 
ATOM      7  C   UNL     1       1.921  -0.664   0.976  0.00  0.00    -0.011 C 
ATOM      8  C   UNL     1      -0.803   2.478  -0.406  0.00  0.00    +0.001 C 
ATOM      9  C   UNL     1       2.312   1.733  -0.609  0.00  0.00    -0.081 C 
ATOM     10  CA  UNL     1       2.794  -0.606  -0.279  0.00  0.00    +0.040 C 
ATOM     11  H1  UNL     1       3.960   0.959   0.317  0.00  0.00    -0.084 HD
ATOM     12  H2  UNL     1       3.920   0.717  -1.340  0.00  0.00    -0.084 HD
ENDROOT
BRANCH  10  14
ATOM     13  OXT UNL     1       5.128  -1.220  -0.174  0.00  0.00    -0.253 OA
ATOM     14  C   UNL     1       3.950  -1.547  -0.151  0.00  0.00    +0.293 C 
BRANCH  14  15
ATOM     15  O   UNL     1       3.516  -2.823  -0.007  0.00  0.00    -0.482 OA
ATOM     16  H   UNL     1       2.597  -3.006   0.002  0.00  0.00    +0.295 HD
ENDBRANCH  14  15
ENDBRANCH  10  14
BRANCH   5  17
ATOM     17  C   UNL     1      -2.521   0.739  -1.006  0.00  0.00    +0.102 C 
BRANCH  17  22
ATOM     18  N   UNL     1      -4.529   0.102   0.266  0.00  0.00    -0.114 NA
ATOM     19  N   UNL     1      -3.253  -1.589  -0.533  0.00  0.00    -0.091 NA
ATOM     20  N   UNL     1      -4.993  -1.120   0.564  0.00  0.00    -0.140 N 
ATOM     21  N   UNL     1      -4.268  -2.152   0.111  0.00  0.00    -0.022 NA
ATOM     22  C   UNL     1      -3.462  -0.269  -0.407  0.00  0.00    +0.050 C 
ATOM     23  H   UNL     1      -5.817  -1.251   1.086  0.00  0.00    +0.197 HD
ENDBRANCH  17  22
ENDBRANCH   5  17
TORSDOF 4
