REMARK  Name = 126276
REMARK  11 active torsions:
REMARK  status: ('A' for Active; 'I' for Inactive)
REMARK    1  A    between atoms: N_3  and  C_19
REMARK    2  A    between atoms: C_11  and  C_32
REMARK    3  A    between atoms: C_19  and  C_20
REMARK    4  A    between atoms: C_20  and  O_21
REMARK    5  A    between atoms: C_20  and  C_23
REMARK    6  A    between atoms: C_23  and  O_24
REMARK    7  A    between atoms: C_23  and  C_26
REMARK    8  A    between atoms: C_26  and  O_27
REMARK    9  A    between atoms: C_26  and  C_29
REMARK   10  A    between atoms: C_29  and  O_30
REMARK   11  A    between atoms: C_32  and  N_33
REMARK                            x       y       z     vdW  Elec       q    Type
REMARK                         _______ _______ _______ _____ _____    ______ ____
ROOT
ATOM      1  O   UNL     1      -4.700  -2.798   1.297  0.00  0.00    -0.266 OA
ATOM      2  O   UNL     1      -5.676   1.495  -0.021  0.00  0.00    -0.193 OA
ATOM      3  N   UNL     1      -1.322  -0.005  -0.742  0.00  0.00    -0.255 N 
ATOM      4  N   UNL     1      -2.173  -2.444   0.423  0.00  0.00    -0.396 NA
ATOM      5  N   UNL     1      -3.549   0.768  -0.376  0.00  0.00    -0.303 NA
ATOM      6  N   UNL     1      -5.215  -0.626   0.637  0.00  0.00    -0.196 N 
ATOM      7  C   UNL     1      -0.406  -1.073  -0.610  0.00  0.00    +0.079 C 
ATOM      8  C   UNL     1      -2.632  -0.151  -0.301  0.00  0.00    +0.236 C 
ATOM      9  C   UNL     1      -0.854  -2.276  -0.027  0.00  0.00    +0.127 C 
ATOM     10  C   UNL     1       0.935  -1.004  -1.030  0.00  0.00    +0.014 C 
ATOM     11  C   UNL     1       1.802  -2.089  -0.877  0.00  0.00    -0.008 C 
ATOM     12  C   UNL     1       1.347  -3.268  -0.302  0.00  0.00    -0.039 C 
ATOM     13  C   UNL     1      -3.018  -1.471   0.307  0.00  0.00    +0.230 C 
ATOM     14  C   UNL     1       0.025  -3.360   0.121  0.00  0.00    +0.082 C 
ATOM     15  C   UNL     1       2.252  -4.442  -0.127  0.00  0.00    +0.027 C 
ATOM     16  C   UNL     1      -4.402  -1.722   0.807  0.00  0.00    +0.293 C 
ATOM     17  C   UNL     1      -4.841   0.593   0.070  0.00  0.00    +0.273 C 
ATOM     18  H   UNL     1      -6.147  -0.710   0.943  0.00  0.00    +0.169 HD
ENDROOT
BRANCH   3  19
ATOM     19  C   UNL     1      -0.848   1.238  -1.347  0.00  0.00    +0.130 C 
BRANCH  19  20
ATOM     20  C   UNL     1      -0.296   2.173  -0.264  0.00  0.00    +0.160 C 
BRANCH  20  21
ATOM     21  O   UNL     1      -1.333   2.433   0.683  0.00  0.00    -0.380 OA
ATOM     22  H   UNL     1      -1.658   1.595   1.046  0.00  0.00    +0.211 HD
ENDBRANCH  20  21
BRANCH  20  23
ATOM     23  C   UNL     1       0.217   3.509  -0.838  0.00  0.00    +0.168 C 
BRANCH  23  24
ATOM     24  O   UNL     1       1.239   3.256  -1.800  0.00  0.00    -0.379 OA
ATOM     25  H   UNL     1       0.897   2.663  -2.487  0.00  0.00    +0.211 HD
ENDBRANCH  23  24
BRANCH  23  26
ATOM     26  C   UNL     1       0.779   4.452   0.243  0.00  0.00    +0.169 C 
BRANCH  26  27
ATOM     27  O   UNL     1       1.251   5.648  -0.381  0.00  0.00    -0.379 OA
ATOM     28  H   UNL     1       0.528   6.060  -0.879  0.00  0.00    +0.211 HD
ENDBRANCH  26  27
BRANCH  26  29
ATOM     29  C   UNL     1       1.935   3.822   1.019  0.00  0.00    +0.169 C 
BRANCH  29  30
ATOM     30  O   UNL     1       2.372   4.741   2.015  0.00  0.00    -0.379 OA
ATOM     31  H   UNL     1       3.107   4.351   2.515  0.00  0.00    +0.211 HD
ENDBRANCH  29  30
ENDBRANCH  26  29
ENDBRANCH  23  26
ENDBRANCH  20  23
ENDBRANCH  19  20
ENDBRANCH   3  19
BRANCH  11  32
ATOM     32  C   UNL     1       3.216  -1.958  -1.342  0.00  0.00    +0.123 C 
BRANCH  32  33
ATOM     33  N   UNL     1       4.092  -1.450  -0.282  0.00  0.00    -0.264 N 
ATOM     34  N   UNL     1       5.464  -1.462   1.437  0.00  0.00    -0.225 NA
ATOM     35  C   UNL     1       4.358  -0.145  -0.040  0.00  0.00    +0.088 C 
ATOM     36  C   UNL     1       4.764  -2.211   0.613  0.00  0.00    +0.168 C 
ATOM     37  C   UNL     1       5.215  -0.174   1.035  0.00  0.00    +0.117 C 
ENDBRANCH  32  33
ENDBRANCH  11  32
TORSDOF 11
