REMARK  Name = 126261
REMARK  9 active torsions:
REMARK  status: ('A' for Active; 'I' for Inactive)
REMARK    1  A    between atoms: N_2  and  CA_16
REMARK    2  A    between atoms: C_3  and  CA_5
REMARK    3  A    between atoms: CA_5  and  N_8
REMARK    4  A    between atoms: C_9  and  CA_11
REMARK    5  A    between atoms: CA_11  and  N_12
REMARK    6  A    between atoms: CA_16  and  C_18
REMARK    7  A    between atoms: CA_16  and  CB_21
REMARK    8  A    between atoms: C_18  and  O_19
REMARK    9  A    between atoms: CB_21  and  CG1_23
REMARK                            x       y       z     vdW  Elec       q    Type
REMARK                         _______ _______ _______ _____ _____    ______ ____
ROOT
ATOM      1  O   ALA A   2       0.673   1.077  -1.526  0.00  0.00    -0.273 OA
ATOM      2  N   ILE A   3      -0.759   0.487   0.203  0.00  0.00    -0.295 N 
ATOM      3  C   ALA A   2       0.451   0.918  -0.327  0.00  0.00    +0.241 C 
ATOM      4  H   ILE A   3      -0.838   0.390   1.179  0.00  0.00    +0.150 HD
ENDROOT
BRANCH   3   5
ATOM      5  CA  ALA A   2       1.478   1.222   0.756  0.00  0.00    +0.149 C 
ATOM      6  CB  ALA A   2       1.387   2.674   1.198  0.00  0.00    +0.031 C 
BRANCH   5   8
ATOM      7  O   GLY A   1       2.837  -1.331   0.822  0.00  0.00    -0.277 OA
ATOM      8  N   ALA A   2       2.782   0.915   0.231  0.00  0.00    -0.300 N 
ATOM      9  C   GLY A   1       3.362  -0.347   0.306  0.00  0.00    +0.201 C 
ATOM     10  H   ALA A   2       3.291   1.637  -0.204  0.00  0.00    +0.150 HD
BRANCH   9  11
ATOM     11  CA  GLY A   1       4.751  -0.373  -0.298  0.00  0.00    +0.001 C 
BRANCH  11  12
ATOM     12  N   GLY A   1       5.014  -1.712  -0.808  0.00  0.00    +0.386 N 
ATOM     13  H1  GLY A   1       5.947  -1.742  -1.218  0.00  0.00    -0.089 HD
ATOM     14  H2  GLY A   1       4.322  -1.947  -1.519  0.00  0.00    -0.089 HD
ATOM     15  H3  GLY A   1       4.957  -2.384  -0.043  0.00  0.00    -0.089 HD
ENDBRANCH  11  12
ENDBRANCH   9  11
ENDBRANCH   5   8
ENDBRANCH   3   5
BRANCH   2  16
ATOM     16  CA  ILE A   3      -1.903   0.176  -0.617  0.00  0.00    +0.171 C 
BRANCH  16  18
ATOM     17  OXT ILE A   3      -4.083   1.147  -1.030  0.00  0.00    -0.248 OA
ATOM     18  C   ILE A   3      -3.049   1.150  -0.370  0.00  0.00    +0.332 C 
BRANCH  18  19
ATOM     19  O   ILE A   3      -2.833   2.033   0.634  0.00  0.00    -0.479 OA
ATOM     20  H   ILE A   3      -2.031   2.006   1.117  0.00  0.00    +0.295 HD
ENDBRANCH  18  19
ENDBRANCH  16  18
BRANCH  16  21
ATOM     21  CB  ILE A   3      -2.366  -1.294  -0.470  0.00  0.00    +0.029 C 
ATOM     22  CG2 ILE A   3      -1.243  -2.296  -0.770  0.00  0.00    +0.002 C 
BRANCH  21  23
ATOM     23  CG1 ILE A   3      -2.977  -1.521   0.930  0.00  0.00    +0.002 C 
ATOM     24  CD1 ILE A   3      -3.524  -2.927   1.136  0.00  0.00    +0.000 C 
ENDBRANCH  21  23
ENDBRANCH  16  21
ENDBRANCH   2  16
TORSDOF 9
