126276
  -OEChem-03292013323D

 54 57  0     1  0  0  0  0  0999 V2000
   -1.3334    2.4335    0.6827 O   0  0  0  0  0  0  0  0  0  0  0  0
    1.2391    3.2562   -1.8004 O   0  0  0  0  0  0  0  0  0  0  0  0
    1.2510    5.6477   -0.3811 O   0  0  0  0  0  0  0  0  0  0  0  0
    2.3724    4.7413    2.0155 O   0  0  0  0  0  0  0  0  0  0  0  0
   -4.6999   -2.7978    1.2974 O   0  0  0  0  0  0  0  0  0  0  0  0
   -5.6764    1.4951   -0.0213 O   0  0  0  0  0  0  0  0  0  0  0  0
   -1.3217   -0.0053   -0.7417 N   0  0  0  0  0  0  0  0  0  0  0  0
   -2.1728   -2.4438    0.4228 N   0  0  0  0  0  0  0  0  0  0  0  0
   -3.5490    0.7682   -0.3758 N   0  0  0  0  0  0  0  0  0  0  0  0
    4.0919   -1.4496   -0.2817 N   0  0  0  0  0  0  0  0  0  0  0  0
   -5.2150   -0.6265    0.6367 N   0  0  0  0  0  0  0  0  0  0  0  0
    5.4643   -1.4621    1.4365 N   0  0  0  0  0  0  0  0  0  0  0  0
   -0.2963    2.1727   -0.2640 C   0  0  1  0  0  0  0  0  0  0  0  0
   -0.8481    1.2383   -1.3473 C   0  0  0  0  0  0  0  0  0  0  0  0
    0.2167    3.5086   -0.8375 C   0  0  1  0  0  0  0  0  0  0  0  0
   -0.4063   -1.0727   -0.6099 C   0  0  0  0  0  0  0  0  0  0  0  0
    0.7793    4.4518    0.2429 C   0  0  1  0  0  0  0  0  0  0  0  0
   -2.6319   -0.1508   -0.3012 C   0  0  0  0  0  0  0  0  0  0  0  0
   -0.8538   -2.2760   -0.0274 C   0  0  0  0  0  0  0  0  0  0  0  0
    0.9355   -1.0037   -1.0296 C   0  0  0  0  0  0  0  0  0  0  0  0
    1.8023   -2.0891   -0.8775 C   0  0  0  0  0  0  0  0  0  0  0  0
    1.3472   -3.2680   -0.3024 C   0  0  0  0  0  0  0  0  0  0  0  0
   -3.0176   -1.4713    0.3068 C   0  0  0  0  0  0  0  0  0  0  0  0
    0.0249   -3.3602    0.1206 C   0  0  0  0  0  0  0  0  0  0  0  0
    1.9350    3.8223    1.0193 C   0  0  0  0  0  0  0  0  0  0  0  0
    3.2163   -1.9575   -1.3416 C   0  0  0  0  0  0  0  0  0  0  0  0
    2.2524   -4.4420   -0.1266 C   0  0  0  0  0  0  0  0  0  0  0  0
   -4.4024   -1.7221    0.8072 C   0  0  0  0  0  0  0  0  0  0  0  0
   -4.8413    0.5925    0.0701 C   0  0  0  0  0  0  0  0  0  0  0  0
    4.3582   -0.1455   -0.0401 C   0  0  0  0  0  0  0  0  0  0  0  0
    4.7642   -2.2106    0.6133 C   0  0  0  0  0  0  0  0  0  0  0  0
    5.2152   -0.1736    1.0350 C   0  0  0  0  0  0  0  0  0  0  0  0
    0.5150    1.6517    0.2542 H   0  0  0  0  0  0  0  0  0  0  0  0
   -1.6999    1.7375   -1.8294 H   0  0  0  0  0  0  0  0  0  0  0  0
   -0.1443    1.0748   -2.1692 H   0  0  0  0  0  0  0  0  0  0  0  0
   -0.5979    4.0258   -1.3596 H   0  0  0  0  0  0  0  0  0  0  0  0
   -0.0181    4.7495    0.9335 H   0  0  0  0  0  0  0  0  0  0  0  0
    1.3457   -0.0989   -1.4677 H   0  0  0  0  0  0  0  0  0  0  0  0
   -0.3387   -4.2801    0.5752 H   0  0  0  0  0  0  0  0  0  0  0  0
    1.6549    2.8999    1.5323 H   0  0  0  0  0  0  0  0  0  0  0  0
    2.7925    3.6233    0.3693 H   0  0  0  0  0  0  0  0  0  0  0  0
    3.6566   -2.8805   -1.7277 H   0  0  0  0  0  0  0  0  0  0  0  0
    3.2834   -1.2434   -2.1733 H   0  0  0  0  0  0  0  0  0  0  0  0
   -1.4814    1.6152    1.1859 H   0  0  0  0  0  0  0  0  0  0  0  0
    1.5396    4.1167   -2.1394 H   0  0  0  0  0  0  0  0  0  0  0  0
    1.6636   -5.3609   -0.0117 H   0  0  0  0  0  0  0  0  0  0  0  0
    2.8979   -4.6265   -0.9878 H   0  0  0  0  0  0  0  0  0  0  0  0
    2.8451   -4.3365    0.7845 H   0  0  0  0  0  0  0  0  0  0  0  0
    1.6052    6.2215    0.3197 H   0  0  0  0  0  0  0  0  0  0  0  0
   -6.1775   -0.7104    0.9515 H   0  0  0  0  0  0  0  0  0  0  0  0
    1.6235    4.9023    2.6146 H   0  0  0  0  0  0  0  0  0  0  0  0
    3.9404    0.6673   -0.6178 H   0  0  0  0  0  0  0  0  0  0  0  0
    4.7533   -3.2902    0.6184 H   0  0  0  0  0  0  0  0  0  0  0  0
    5.6649    0.6687    1.5402 H   0  0  0  0  0  0  0  0  0  0  0  0
  1 13  1  0  0  0  0
  1 44  1  0  0  0  0
  2 15  1  0  0  0  0
  2 45  1  0  0  0  0
  3 17  1  0  0  0  0
  3 49  1  0  0  0  0
  4 25  1  0  0  0  0
  4 51  1  0  0  0  0
  5 28  2  0  0  0  0
  6 29  2  0  0  0  0
  7 14  1  0  0  0  0
  7 16  1  0  0  0  0
  7 18  1  0  0  0  0
  8 19  1  0  0  0  0
  8 23  2  0  0  0  0
  9 18  2  0  0  0  0
  9 29  1  0  0  0  0
 10 26  1  0  0  0  0
 10 30  1  0  0  0  0
 10 31  1  0  0  0  0
 11 28  1  0  0  0  0
 11 29  1  0  0  0  0
 11 50  1  0  0  0  0
 12 31  2  0  0  0  0
 12 32  1  0  0  0  0
 13 14  1  0  0  0  0
 13 15  1  0  0  0  0
 13 33  1  0  0  0  0
 14 34  1  0  0  0  0
 14 35  1  0  0  0  0
 15 17  1  0  0  0  0
 15 36  1  0  0  0  0
 16 19  2  0  0  0  0
 16 20  1  0  0  0  0
 17 25  1  0  0  0  0
 17 37  1  0  0  0  0
 18 23  1  0  0  0  0
 19 24  1  0  0  0  0
 20 21  2  0  0  0  0
 20 38  1  0  0  0  0
 21 22  1  0  0  0  0
 21 26  1  0  0  0  0
 22 24  2  0  0  0  0
 22 27  1  0  0  0  0
 23 28  1  0  0  0  0
 24 39  1  0  0  0  0
 25 40  1  0  0  0  0
 25 41  1  0  0  0  0
 26 42  1  0  0  0  0
 26 43  1  0  0  0  0
 27 46  1  0  0  0  0
 27 47  1  0  0  0  0
 27 48  1  0  0  0  0
 30 32  2  0  0  0  0
 30 52  1  0  0  0  0
 31 53  1  0  0  0  0
 32 54  1  0  0  0  0
M  END
> <PUBCHEM_COMPOUND_CID>
126276

> <PUBCHEM_CONFORMER_RMSD>
1

> <PUBCHEM_CONFORMER_DIVERSEORDER>
1
26
29
53
33
83
88
99
47
38
100
44
16
30
57
42
103
72
39
76
98
104
7
15
84
66
23
46
75
79
4
97
45
40
74
93
106
94
19
92
61
24
34
6
80
102
89
90
10
20
11
48
62
37
78
82
12
41
32
50
96
87
3
81
105
68
13
14
54
67
28
91
35
56
17
59
8
85
70
25
36
64
95
2
52
86
49
60
58
51
18
69
65
43
73
63
5
31
9
101
77
21
27
22
71
55

> <PUBCHEM_MMFF94_PARTIAL_CHARGES>
42
1 -0.68
10 0.05
11 -0.49
12 -0.57
13 0.28
14 0.37
15 0.28
16 0.1
17 0.28
18 0.5
19 0.18
2 -0.68
20 -0.15
21 -0.14
22 -0.14
23 0.45
24 -0.15
25 0.28
26 0.4
27 0.14
28 0.63
29 0.84
3 -0.68
30 -0.3
31 0.04
32 0.08
38 0.15
39 0.15
4 -0.68
44 0.4
45 0.4
49 0.4
5 -0.57
50 0.37
51 0.4
52 0.15
53 0.15
54 0.15
6 -0.57
7 -0.52
8 -0.63
9 -0.66

> <PUBCHEM_EFFECTIVE_ROTOR_COUNT>
7

> <PUBCHEM_PHARMACOPHORE_FEATURES>
18
1 1 acceptor
1 1 donor
1 11 donor
1 2 acceptor
1 2 donor
1 3 acceptor
1 3 donor
1 4 acceptor
1 4 donor
1 5 acceptor
1 6 acceptor
1 8 acceptor
1 9 donor
3 10 12 31 cation
5 10 12 30 31 32 rings
6 16 19 20 21 22 24 rings
6 7 8 16 18 19 23 rings
6 9 11 18 23 28 29 rings

> <PUBCHEM_HEAVY_ATOM_COUNT>
32

> <PUBCHEM_ATOM_DEF_STEREO_COUNT>
0

> <PUBCHEM_ATOM_UDEF_STEREO_COUNT>
3

> <PUBCHEM_BOND_DEF_STEREO_COUNT>
0

> <PUBCHEM_BOND_UDEF_STEREO_COUNT>
0

> <PUBCHEM_ISOTOPIC_ATOM_COUNT>
0

> <PUBCHEM_COMPONENT_COUNT>
1

> <PUBCHEM_CACTVS_TAUTO_COUNT>
3

> <PUBCHEM_CONFORMER_ID>
0001ED4400000001

> <PUBCHEM_MMFF94_ENERGY>
85.7625

> <PUBCHEM_FEATURE_SELFOVERLAP>
91.475

> <PUBCHEM_SHAPE_FINGERPRINT>
10006869 2 18050558552454886511
10439779 11 18339646642529281129
10670039 82 18193574281165215622
10675989 125 17035840037917082813
1100329 8 18410295843370237663
11621639 254 11664103811934923986
12422481 6 18051385638934640544
12788726 201 17974298628959310018
13140716 1 18267867366176471231
13402501 40 18412821361644973226
140371 6 18264781964802968269
14081887 123 18120938308917972582
14466204 15 18408043992064540971
14955137 171 18409735066401320591
15230672 131 17904774624242202996
15420108 30 16758912082289235530
15927050 60 17619640515118257958
16110190 28 18050267457353138312
17980427 23 17774449253166004121
18785283 64 18267589202487527624
19611394 137 17970926659321728866
20642791 178 18188505656276585917
20642791 268 18129685048893345771
23559900 14 18408881863422815555
24771293 8 18272084972632331341
3493558 16 17917721157992164985
3680242 22 18188217502498999090
392239 28 18410578340290974859
469060 322 18266754493127107384
5265222 85 17326909872451186172
6004065 56 18411972564754619319
653340 110 17978791199405913952
9777508 108 17544757833342629452
9981440 41 17906453586912482587

> <PUBCHEM_SHAPE_MULTIPOLES>
593.44
10.01
7.05
1.26
2.31
9.56
-0.05
-5.7
-3.89
-3.86
-1.01
-0.7
0.63
1.55

> <PUBCHEM_SHAPE_SELFOVERLAP>
1287.977

> <PUBCHEM_SHAPE_VOLUME>
321.3

> <PUBCHEM_COORDINATE_TYPE>
2
5
10

$$$$
