126296
  -OEChem-03292013323D

 38 39  0     1  0  0  0  0  0999 V2000
   -2.5389   -0.7107    1.4255 O   0  0  0  0  0  0  0  0  0  0  0  0
    4.1350    1.6181    2.0373 O   0  0  0  0  0  0  0  0  0  0  0  0
    3.6843    2.7894    0.1488 O   0  0  0  0  0  0  0  0  0  0  0  0
    3.3238   -3.1991    0.0694 O   0  0  0  0  0  0  0  0  0  0  0  0
   -4.4102   -1.7026    2.2877 O   0  0  0  0  0  0  0  0  0  0  0  0
    1.4320    1.3572   -0.3422 N   0  0  0  0  0  0  0  0  0  0  0  0
    4.4043   -2.7007   -1.8986 N   0  0  0  0  0  0  0  0  0  0  0  0
    2.2232    0.9450    0.7760 C   0  0  1  0  0  0  0  0  0  0  0  0
    2.6238   -0.5313    0.6403 C   0  0  0  0  0  0  0  0  0  0  0  0
    0.0606    1.0541   -0.4637 C   0  0  0  0  0  0  0  0  0  0  0  0
    3.4164   -0.8960   -0.6204 C   0  0  0  0  0  0  0  0  0  0  0  0
   -2.6833    0.4535   -0.7172 C   0  0  0  0  0  0  0  0  0  0  0  0
   -1.9419    0.0332    0.3880 C   0  0  0  0  0  0  0  0  0  0  0  0
   -0.5834    0.3223    0.5283 C   0  0  0  0  0  0  0  0  0  0  0  0
   -0.6545    1.4872   -1.5789 C   0  0  0  0  0  0  0  0  0  0  0  0
    3.4057    1.8816    0.9216 C   0  0  0  0  0  0  0  0  0  0  0  0
   -2.0162    1.1896   -1.7056 C   0  0  0  0  0  0  0  0  0  0  0  0
   -4.1089    0.1043   -0.7823 C   0  0  0  0  0  0  0  0  0  0  0  0
    3.6929   -2.3772   -0.7661 C   0  0  0  0  0  0  0  0  0  0  0  0
   -4.6500   -0.6043    0.2187 C   0  0  0  0  0  0  0  0  0  0  0  0
   -4.9334    0.5412   -1.9577 C   0  0  0  0  0  0  0  0  0  0  0  0
   -3.8812   -1.0547    1.3913 C   0  0  0  0  0  0  0  0  0  0  0  0
    1.6682    1.0942    1.7114 H   0  0  0  0  0  0  0  0  0  0  0  0
    3.2223   -0.8198    1.5147 H   0  0  0  0  0  0  0  0  0  0  0  0
    1.7332   -1.1690    0.6788 H   0  0  0  0  0  0  0  0  0  0  0  0
    1.8777    1.8186   -1.1279 H   0  0  0  0  0  0  0  0  0  0  0  0
    2.8675   -0.5802   -1.5154 H   0  0  0  0  0  0  0  0  0  0  0  0
    4.3784   -0.3701   -0.6192 H   0  0  0  0  0  0  0  0  0  0  0  0
   -0.0867   -0.0357    1.4231 H   0  0  0  0  0  0  0  0  0  0  0  0
   -0.1641    2.0602   -2.3622 H   0  0  0  0  0  0  0  0  0  0  0  0
   -2.5353    1.5468   -2.5912 H   0  0  0  0  0  0  0  0  0  0  0  0
   -5.7001   -0.8800    0.2034 H   0  0  0  0  0  0  0  0  0  0  0  0
   -4.5375    0.1208   -2.8884 H   0  0  0  0  0  0  0  0  0  0  0  0
   -4.9472    1.6334   -2.0388 H   0  0  0  0  0  0  0  0  0  0  0  0
   -5.9747    0.2109   -1.8718 H   0  0  0  0  0  0  0  0  0  0  0  0
    4.8943    2.2320    2.1308 H   0  0  0  0  0  0  0  0  0  0  0  0
    4.7017   -1.9995   -2.5695 H   0  0  0  0  0  0  0  0  0  0  0  0
    4.6545   -3.6626   -2.1017 H   0  0  0  0  0  0  0  0  0  0  0  0
  1 13  1  0  0  0  0
  1 22  1  0  0  0  0
  2 16  1  0  0  0  0
  2 36  1  0  0  0  0
  3 16  2  0  0  0  0
  4 19  2  0  0  0  0
  5 22  2  0  0  0  0
  6  8  1  0  0  0  0
  6 10  1  0  0  0  0
  6 26  1  0  0  0  0
  7 19  1  0  0  0  0
  7 37  1  0  0  0  0
  7 38  1  0  0  0  0
  8  9  1  0  0  0  0
  8 16  1  0  0  0  0
  8 23  1  0  0  0  0
  9 11  1  0  0  0  0
  9 24  1  0  0  0  0
  9 25  1  0  0  0  0
 10 14  2  0  0  0  0
 10 15  1  0  0  0  0
 11 19  1  0  0  0  0
 11 27  1  0  0  0  0
 11 28  1  0  0  0  0
 12 13  2  0  0  0  0
 12 17  1  0  0  0  0
 12 18  1  0  0  0  0
 13 14  1  0  0  0  0
 14 29  1  0  0  0  0
 15 17  2  0  0  0  0
 15 30  1  0  0  0  0
 17 31  1  0  0  0  0
 18 20  2  0  0  0  0
 18 21  1  0  0  0  0
 20 22  1  0  0  0  0
 20 32  1  0  0  0  0
 21 33  1  0  0  0  0
 21 34  1  0  0  0  0
 21 35  1  0  0  0  0
M  END
> <PUBCHEM_COMPOUND_CID>
126296

> <PUBCHEM_CONFORMER_RMSD>
0.8

> <PUBCHEM_CONFORMER_DIVERSEORDER>
1
64
99
160
174
197
182
70
96
37
202
60
80
104
136
175
189
100
81
75
119
73
120
168
190
39
167
106
74
146
16
18
7
156
188
13
123
180
91
32
145
169
155
4
31
154
109
164
124
163
61
140
90
116
3
192
114
55
178
153
142
27
148
173
191
58
46
11
68
122
179
149
9
92
83
36
20
113
72
108
195
35
181
47
198
2
184
95
12
139
84
186
33
102
63
194
131
185
79
66
94
45
97
6
40
17
125
38
52
128
110
21
176
143
34
24
67
144
25
161
158
88
48
200
152
141
78
28
93
132
59
171
129
107
98
5
133
162
56
89
69
19
126
14
101
43
85
29
53
50
76
193
157
23
147
111
22
151
134
201
112
199
86
150
196
51
103
105
121
65
118
26
62
57
203
135
8
42
115
187
165
54
87
49
77
127
117
177
138
137
71
10
183
44
15
41
166
82
170
130
172
30
159

> <PUBCHEM_MMFF94_PARTIAL_CHARGES>
29
1 -0.23
10 0.1
11 0.06
12 0.03
13 0.08
14 -0.15
15 -0.15
16 0.66
17 -0.15
18 -0.17
19 0.57
2 -0.65
20 -0.14
21 0.14
22 0.71
26 0.4
29 0.15
3 -0.57
30 0.15
31 0.15
32 0.15
36 0.5
37 0.37
38 0.37
4 -0.57
5 -0.57
6 -0.87
7 -0.8
8 0.43

> <PUBCHEM_EFFECTIVE_ROTOR_COUNT>
6

> <PUBCHEM_PHARMACOPHORE_FEATURES>
10
1 2 acceptor
1 3 acceptor
1 4 acceptor
1 5 acceptor
1 6 cation
1 6 donor
1 7 donor
3 2 3 16 anion
6 1 12 13 18 20 22 rings
6 10 12 13 14 15 17 rings

> <PUBCHEM_HEAVY_ATOM_COUNT>
22

> <PUBCHEM_ATOM_DEF_STEREO_COUNT>
1

> <PUBCHEM_ATOM_UDEF_STEREO_COUNT>
0

> <PUBCHEM_BOND_DEF_STEREO_COUNT>
0

> <PUBCHEM_BOND_UDEF_STEREO_COUNT>
0

> <PUBCHEM_ISOTOPIC_ATOM_COUNT>
0

> <PUBCHEM_COMPONENT_COUNT>
1

> <PUBCHEM_CACTVS_TAUTO_COUNT>
2

> <PUBCHEM_CONFORMER_ID>
0001ED5800000001

> <PUBCHEM_MMFF94_ENERGY>
67.542

> <PUBCHEM_FEATURE_SELFOVERLAP>
50.831

> <PUBCHEM_SHAPE_FINGERPRINT>
11370993 144 18412550890522181073
12236239 1 16486969626667042456
12596602 18 16773225326958018435
12633257 1 17561090176393259551
12644460 14 17489594476068193908
12892183 10 18200605790577972257
13533116 47 18060135457846818411
13544592 145 18187359879366163229
13583140 156 17559665330004342673
13911882 115 18261962954428258442
14251764 30 16915112712015434398
14252887 29 18336266829109941056
14289901 80 18201993365446110209
14386348 63 18259983760309802478
14739800 52 14548149105269725170
15142526 21 16698056205656607360
15342816 4 16660926702444202304
15375358 24 18041546031656414369
1813 80 17345485778057044958
19078846 21 15482671277676259354
20645477 70 18341881987690161782
20681651 13 17632001066024087527
20693207 138 18187926123285161934
2215653 11 18334572396314334623
22182313 1 18113898282078541803
23557571 272 17821731666836270597
23559900 14 17894349947643365542
239999 70 18187642535701681448
2838139 119 17559116472430243369
312423 11 17917157117169758224
314194 84 18130511821402415798
458136 41 18199471137765156688
474 4 16985728003931482672
5104073 3 17459174330718094041
5486654 36 18126299536173158122
6049 1 18334575698833117308
6823239 73 18040438785008556248
9709674 26 18260539022440640629

> <PUBCHEM_SHAPE_MULTIPOLES>
413.44
10.88
2.68
1.91
1.88
1.13
0.09
3.75
-0.04
-4.55
-0.25
0.79
0.3
4

> <PUBCHEM_SHAPE_SELFOVERLAP>
874.335

> <PUBCHEM_SHAPE_VOLUME>
229.9

> <PUBCHEM_COORDINATE_TYPE>
2
5
10

$$$$
