REMARK  Name = 126256
REMARK  5 active torsions:
REMARK  status: ('A' for Active; 'I' for Inactive)
REMARK    1  A    between atoms: N_3  and  C1*_17
REMARK    2  A    between atoms: C_8  and  O_26
REMARK    3  A    between atoms: C3*_19  and  O3*_21
REMARK    4  A    between atoms: C4*_20  and  C5*_23
REMARK    5  A    between atoms: C5*_23  and  O5*_24
REMARK                            x       y       z     vdW  Elec       q    Type
REMARK                         _______ _______ _______ _____ _____    ______ ____
ROOT
ATOM      1  O   UNL     1      -0.695  -3.360   0.499  0.00  0.00    -0.193 OA
ATOM      2  O   UNL     1      -4.440   0.059  -0.614  0.00  0.00    -0.267 OA
ATOM      3  N   UNL     1      -0.149  -1.156  -0.045  0.00  0.00    -0.159 N 
ATOM      4  N   UNL     1      -2.310  -1.752   0.112  0.00  0.00    -0.315 NA
ATOM      5  N   UNL     1      -0.626   1.221   0.354  0.00  0.00    -0.196 NA
ATOM      6  N   UNL     1      -2.944   1.685   0.173  0.00  0.00    -0.252 N 
ATOM      7  N   UNL     1      -1.509   3.205   1.215  0.00  0.00    -0.331 N 
ATOM      8  C   UNL     1      -0.839   0.042  -0.478  0.00  0.00    +0.309 C 
ATOM      9  C   UNL     1      -2.199  -0.509  -0.218  0.00  0.00    +0.242 C 
ATOM     10  C   UNL     1      -1.014  -2.213   0.211  0.00  0.00    +0.274 C 
ATOM     11  C   UNL     1      -3.337   0.438  -0.269  0.00  0.00    +0.284 C 
ATOM     12  C   UNL     1      -1.642   2.004   0.568  0.00  0.00    +0.184 C 
ATOM     13  H   UNL     1      -3.625   2.395   0.212  0.00  0.00    +0.158 HD
ATOM     14  H   UNL     1      -0.623   3.502   1.525  0.00  0.00    +0.145 HD
ATOM     15  H   UNL     1      -2.299   3.771   1.370  0.00  0.00    +0.145 HD
ENDROOT
BRANCH   3  17
ATOM     16  O4* UNL     1       1.909  -0.405  -0.877  0.00  0.00    -0.334 OA
ATOM     17  C1* UNL     1       1.274  -1.242   0.103  0.00  0.00    +0.209 C 
ATOM     18  C2* UNL     1       1.758  -0.777   1.465  0.00  0.00    +0.084 C 
ATOM     19  C3* UNL     1       3.129  -0.236   1.137  0.00  0.00    +0.144 C 
ATOM     20  C4* UNL     1       2.875   0.424  -0.209  0.00  0.00    +0.173 C 
BRANCH  19  21
ATOM     21  O3* UNL     1       3.567   0.685   2.114  0.00  0.00    -0.382 OA
ATOM     22  H3* UNL     1       3.716   0.220   2.953  0.00  0.00    +0.210 HD
ENDBRANCH  19  21
BRANCH  20  23
ATOM     23  C5* UNL     1       4.122   0.545  -1.067  0.00  0.00    +0.169 C 
BRANCH  23  24
ATOM     24  O5* UNL     1       3.770   1.160  -2.294  0.00  0.00    -0.379 OA
ATOM     25  H5* UNL     1       4.559   1.243  -2.852  0.00  0.00    +0.211 HD
ENDBRANCH  23  24
ENDBRANCH  20  23
ENDBRANCH   3  17
BRANCH   8  26
ATOM     26  O   UNL     1      -0.701   0.183  -1.883  0.00  0.00    -0.347 OA
ATOM     27  H   UNL     1       0.177   0.542  -2.086  0.00  0.00    +0.214 HD
ENDBRANCH   8  26
TORSDOF 5
