126243
  -OEChem-03292013323D

 22 22  0     0  0  0  0  0  0999 V2000
   -3.0438   -0.0267   -1.1547 S   0  0  0  0  0  0  0  0  0  0  0  0
    1.7747    2.1686    1.1685 O   0  0  0  0  0  0  0  0  0  0  0  0
    2.4259    2.1821   -1.0091 O   0  0  0  0  0  0  0  0  0  0  0  0
    3.0470   -2.2158    0.4589 O   0  5  0  0  0  0  0  0  0  0  0  0
    3.4672   -0.0586    0.4233 O   0  0  0  0  0  0  0  0  0  0  0  0
   -3.1698    0.0483    1.4866 O   0  0  0  0  0  0  0  0  0  0  0  0
    2.6856   -1.0283    0.2959 N   0  3  0  0  0  0  0  0  0  0  0  0
   -5.1314    0.3693    0.3152 N   0  0  0  0  0  0  0  0  0  0  0  0
    0.8713    0.5332   -0.2424 C   0  0  0  0  0  0  0  0  0  0  0  0
    1.3297   -0.7699   -0.0486 C   0  0  0  0  0  0  0  0  0  0  0  0
   -0.4631    0.7602   -0.5796 C   0  0  0  0  0  0  0  0  0  0  0  0
   -1.3390   -0.3160   -0.7229 C   0  0  0  0  0  0  0  0  0  0  0  0
    0.4540   -1.8460   -0.1919 C   0  0  0  0  0  0  0  0  0  0  0  0
   -0.8803   -1.6191   -0.5291 C   0  0  0  0  0  0  0  0  0  0  0  0
    1.7571    1.6829   -0.1014 C   0  0  0  0  0  0  0  0  0  0  0  0
   -3.7850    0.1361    0.4314 C   0  0  0  0  0  0  0  0  0  0  0  0
   -0.8150    1.7791   -0.7294 H   0  0  0  0  0  0  0  0  0  0  0  0
    0.7711   -2.8759   -0.0495 H   0  0  0  0  0  0  0  0  0  0  0  0
   -1.5486   -2.4700   -0.6364 H   0  0  0  0  0  0  0  0  0  0  0  0
    2.3726    2.9415    1.2556 H   0  0  0  0  0  0  0  0  0  0  0  0
   -5.5814    0.4299   -0.5920 H   0  0  0  0  0  0  0  0  0  0  0  0
   -5.7195    0.4884    1.1331 H   0  0  0  0  0  0  0  0  0  0  0  0
  1 12  1  0  0  0  0
  1 16  1  0  0  0  0
  2 15  1  0  0  0  0
  2 20  1  0  0  0  0
  3 15  2  0  0  0  0
  4  7  1  0  0  0  0
  5  7  2  0  0  0  0
  6 16  2  0  0  0  0
  7 10  1  0  0  0  0
  8 16  1  0  0  0  0
  8 21  1  0  0  0  0
  8 22  1  0  0  0  0
  9 10  2  0  0  0  0
  9 11  1  0  0  0  0
  9 15  1  0  0  0  0
 10 13  1  0  0  0  0
 11 12  2  0  0  0  0
 11 17  1  0  0  0  0
 12 14  1  0  0  0  0
 13 14  2  0  0  0  0
 13 18  1  0  0  0  0
 14 19  1  0  0  0  0
M  CHG  2   4  -1   7   1
M  END
> <PUBCHEM_COMPOUND_CID>
126243

> <PUBCHEM_CONFORMER_RMSD>
0.6

> <PUBCHEM_CONFORMER_DIVERSEORDER>
1
15
9
16
14
10
13
2
8
11
6
7
12
5
4
3

> <PUBCHEM_MMFF94_PARTIAL_CHARGES>
22
1 -0.24
10 0.13
11 -0.15
12 0.1
13 -0.15
14 -0.15
15 0.63
16 0.77
17 0.15
18 0.15
19 0.15
2 -0.65
20 0.5
21 0.37
22 0.37
3 -0.57
4 -0.52
5 -0.52
6 -0.57
7 0.91
8 -0.8
9 0.09

> <PUBCHEM_EFFECTIVE_ROTOR_COUNT>
4

> <PUBCHEM_PHARMACOPHORE_FEATURES>
8
1 2 acceptor
1 3 acceptor
1 4 acceptor
1 4 anion
1 5 acceptor
1 8 donor
3 2 3 15 anion
6 9 10 11 12 13 14 rings

> <PUBCHEM_HEAVY_ATOM_COUNT>
16

> <PUBCHEM_ATOM_DEF_STEREO_COUNT>
0

> <PUBCHEM_ATOM_UDEF_STEREO_COUNT>
0

> <PUBCHEM_BOND_DEF_STEREO_COUNT>
0

> <PUBCHEM_BOND_UDEF_STEREO_COUNT>
0

> <PUBCHEM_ISOTOPIC_ATOM_COUNT>
0

> <PUBCHEM_COMPONENT_COUNT>
1

> <PUBCHEM_CACTVS_TAUTO_COUNT>
2

> <PUBCHEM_CONFORMER_ID>
0001ED2300000001

> <PUBCHEM_MMFF94_ENERGY>
50.948

> <PUBCHEM_FEATURE_SELFOVERLAP>
40.739

> <PUBCHEM_SHAPE_FINGERPRINT>
10980938 120 18410572928621242421
11471102 20 18409441462610922631
11471102 22 18261116253244561123
12032990 46 18192148192296984022
12251169 10 18410855456165789735
12644460 14 18186521025135390208
13140716 1 18338227284112173330
13380535 21 18190746520976616366
13922767 16 18412260610609039389
14178342 30 17979057607394542976
15219456 202 17967810552988921645
15653759 3 17458061539171783287
15775835 57 18272655696666572989
16945 1 18408597050571084214
17357990 137 17560534936095511985
17844478 74 17821723914620450045
1813 80 18056210072397300326
18175812 5 17894633664814583039
18186145 218 18342735243247134261
20559304 39 18202287974284891569
20645477 70 18261377945744598087
20671657 1 18341610490059707508
20715346 28 17676196996722445301
21029758 27 18189054201199560694
21041028 32 18269553827892701592
21501502 16 18265890448369817414
22854114 111 18411418449016117037
2334 1 18121209050534144174
23402539 116 14907600269763765653
23559900 14 16370720396692188151
2748010 2 18191860339261976174
276578 36 18339087102120633157
6049 1 17676479523955808533
7364860 26 18343013424295087006
77492 1 17918268766707123303
81228 2 17042597614035872270

> <PUBCHEM_SHAPE_MULTIPOLES>
293.81
6.74
2.09
1.04
6.34
0.09
-0.07
0.62
-1.57
-2.35
-0.03
0.53
0.23
-0.43

> <PUBCHEM_SHAPE_SELFOVERLAP>
609.484

> <PUBCHEM_SHAPE_VOLUME>
168

> <PUBCHEM_COORDINATE_TYPE>
2
5
10

$$$$
