REMARK  Name = 126213
REMARK  3 active torsions:
REMARK  status: ('A' for Active; 'I' for Inactive)
REMARK    1  A    between atoms: C_1  and  S_7
REMARK    2  A    between atoms: C_2  and  N_12
REMARK    3  A    between atoms: C_4  and  N_15
REMARK                            x       y       z     vdW  Elec       q    Type
REMARK                         _______ _______ _______ _____ _____    ______ ____
ROOT
ATOM      1  C   UNL     1      -0.397   0.473  -0.365  0.00  0.00    +0.132 C 
ATOM      2  C   UNL     1      -0.767  -0.843  -0.641  0.00  0.00    +0.109 C 
ATOM      3  C   UNL     1       0.952   0.831  -0.353  0.00  0.00    +0.040 C 
ATOM      4  C   UNL     1       1.930  -0.128  -0.618  0.00  0.00    +0.092 C 
ATOM      5  C   UNL     1       0.211  -1.802  -0.906  0.00  0.00    +0.023 C 
ATOM      6  C   UNL     1       1.559  -1.444  -0.895  0.00  0.00    +0.022 C 
ENDROOT
BRANCH   1   7
ATOM      7  S   UNL     1      -1.598   1.700  -0.026  0.00  0.00    +0.044 S 
ATOM      8  O   UNL     1      -2.207   1.306   1.438  0.00  0.00    -0.065 OA
ATOM      9  O   UNL     1      -0.906   2.970   0.128  0.00  0.00    -0.065 OA
ATOM     10  O   UNL     1      -2.652   1.540  -1.014  0.00  0.00    -0.065 OA
ENDBRANCH   1   7
BRANCH   2  12
ATOM     11  S   UNL     1      -3.066  -2.089   1.799  0.00  0.00    +0.021 S 
ATOM     12  N   UNL     1      -2.114  -1.227  -0.659  0.00  0.00    -0.195 NA
ATOM     13  C   UNL     1      -2.507  -1.591   0.392  0.00  0.00    +0.042 C 
ENDBRANCH   2  12
BRANCH   4  15
ATOM     14  S   UNL     1       4.493  -0.036   1.874  0.00  0.00    +0.021 S 
ATOM     15  N   UNL     1       3.281   0.230  -0.607  0.00  0.00    -0.196 NA
ATOM     16  C   UNL     1       3.786   0.113   0.453  0.00  0.00    +0.041 C 
ENDBRANCH   4  15
TORSDOF 3
