REMARK  Name = 126243
REMARK  5 active torsions:
REMARK  status: ('A' for Active; 'I' for Inactive)
REMARK    1  A    between atoms: C_1  and  C_11
REMARK    2  A    between atoms: C_2  and  N_9
REMARK    3  A    between atoms: C_4  and  S_14
REMARK    4  A    between atoms: C_11  and  O_12
REMARK    5  A    between atoms: S_14  and  C_17
REMARK                            x       y       z     vdW  Elec       q    Type
REMARK                         _______ _______ _______ _____ _____    ______ ____
ROOT
ATOM      1  C   UNL     1       0.871   0.533  -0.242  0.00  0.00    +0.098 C 
ATOM      2  C   UNL     1       1.330  -0.770  -0.049  0.00  0.00    +0.149 C 
ATOM      3  C   UNL     1      -0.463   0.760  -0.580  0.00  0.00    +0.015 C 
ATOM      4  C   UNL     1      -1.339  -0.316  -0.723  0.00  0.00    +0.034 C 
ATOM      5  C   UNL     1       0.454  -1.846  -0.192  0.00  0.00    +0.025 C 
ATOM      6  C   UNL     1      -0.880  -1.619  -0.529  0.00  0.00    +0.008 C 
ENDROOT
BRANCH   2   9
ATOM      7  O   UNL     1       3.047  -2.216   0.459  0.00  0.00    -0.126 OA
ATOM      8  O   UNL     1       3.467  -0.059   0.423  0.00  0.00    -0.126 OA
ATOM      9  N   UNL     1       2.686  -1.028   0.296  0.00  0.00    +0.058 N 
ENDBRANCH   2   9
BRANCH   1  11
ATOM     10  O   UNL     1       2.426   2.182  -1.009  0.00  0.00    -0.245 OA
ATOM     11  C   UNL     1       1.757   1.683  -0.101  0.00  0.00    +0.340 C 
BRANCH  11  12
ATOM     12  O   UNL     1       1.775   2.169   1.169  0.00  0.00    -0.477 OA
ATOM     13  H   UNL     1       1.253   1.763   1.833  0.00  0.00    +0.295 HD
ENDBRANCH  11  12
ENDBRANCH   1  11
BRANCH   4  14
ATOM     14  S   UNL     1      -3.044  -0.027  -1.155  0.00  0.00    -0.031 S 
BRANCH  14  17
ATOM     15  O   UNL     1      -3.170   0.048   1.487  0.00  0.00    -0.263 OA
ATOM     16  N   UNL     1      -5.131   0.369   0.315  0.00  0.00    -0.320 N 
ATOM     17  C   UNL     1      -3.785   0.136   0.431  0.00  0.00    +0.274 C 
ATOM     18  H   UNL     1      -5.546   0.425  -0.576  0.00  0.00    +0.146 HD
ATOM     19  H   UNL     1      -5.683   0.481   1.123  0.00  0.00    +0.146 HD
ENDBRANCH  14  17
ENDBRANCH   4  14
TORSDOF 5
