REMARK  Name = 126220
REMARK  6 active torsions:
REMARK  status: ('A' for Active; 'I' for Inactive)
REMARK    1  A    between atoms: N9_1  and  C1*_12
REMARK    2  A    between atoms: C6_8  and  O6_23
REMARK    3  A    between atoms: C2*_13  and  O2*_16
REMARK    4  A    between atoms: C3*_14  and  O3*_18
REMARK    5  A    between atoms: C4*_15  and  C5*_20
REMARK    6  A    between atoms: C5*_20  and  O5*_21
REMARK                            x       y       z     vdW  Elec       q    Type
REMARK                         _______ _______ _______ _____ _____    ______ ____
ROOT
ATOM      1  N9  I   A   1      -0.197  -0.275  -0.201  0.00  0.00    -0.210 NA
ATOM      2  N3  I   A   1      -1.866   1.451  -0.599  0.00  0.00    -0.260 NA
ATOM      3  N7  I   A   1      -1.613  -1.961   0.238  0.00  0.00    -0.249 NA
ATOM      4  N1  I   A   1      -4.179   0.780  -0.400  0.00  0.00    -0.219 NA
ATOM      5  C4  I   A   1      -1.455   0.216  -0.297  0.00  0.00    +0.166 C 
ATOM      6  C8  I   A   1      -0.345  -1.604   0.127  0.00  0.00    +0.204 C 
ATOM      7  C5  I   A   1      -2.309  -0.815  -0.026  0.00  0.00    +0.138 C 
ATOM      8  C6  I   A   1      -3.789  -0.629  -0.044  0.00  0.00    +0.235 C 
ATOM      9  C2  I   A   1      -3.236   1.641  -0.629  0.00  0.00    +0.202 C 
ATOM     10  H3  I   A   1      -1.233   2.181  -0.788  0.00  0.00    +0.127 HD
ENDROOT
BRANCH   1  12
ATOM     11  O4* I   A   1       2.043  -0.465  -0.961  0.00  0.00    -0.336 OA
ATOM     12  C1* I   A   1       1.065   0.433  -0.401  0.00  0.00    +0.209 C 
ATOM     13  C2* I   A   1       1.678   0.982   0.879  0.00  0.00    +0.183 C 
ATOM     14  C3* I   A   1       3.145   1.054   0.504  0.00  0.00    +0.171 C 
ATOM     15  C4* I   A   1       3.326  -0.199  -0.347  0.00  0.00    +0.175 C 
BRANCH  13  16
ATOM     16  O2* I   A   1       1.133   2.238   1.228  0.00  0.00    -0.378 OA
ATOM     17  H2* I   A   1       0.197   2.132   1.457  0.00  0.00    +0.211 HD
ENDBRANCH  13  16
BRANCH  14  18
ATOM     18  O3* I   A   1       3.371   2.202  -0.314  0.00  0.00    -0.379 OA
ATOM     19  H3* I   A   1       3.259   3.005   0.219  0.00  0.00    +0.211 HD
ENDBRANCH  14  18
BRANCH  15  20
ATOM     20  C5* I   A   1       3.729  -1.418   0.469  0.00  0.00    +0.169 C 
BRANCH  20  21
ATOM     21  O5* I   A   1       3.861  -2.526  -0.404  0.00  0.00    -0.379 OA
ATOM     22  H5* I   A   1       4.118  -3.311   0.105  0.00  0.00    +0.211 HD
ENDBRANCH  20  21
ENDBRANCH  15  20
ENDBRANCH   1  12
BRANCH   8  23
ATOM     23  O6  I   A   1      -4.364  -1.105   1.177  0.00  0.00    -0.491 OA
ATOM     24  H6  I   A   1      -5.325  -0.979   1.152  0.00  0.00    +0.294 HD
ENDBRANCH   8  23
TORSDOF 6
