REMARK  Name = 126281
REMARK  5 active torsions:
REMARK  status: ('A' for Active; 'I' for Inactive)
REMARK    1  A    between atoms: N_2  and  C1*_15
REMARK    2  A    between atoms: C2*_16  and  O2*_19
REMARK    3  A    between atoms: C3*_17  and  O3*_21
REMARK    4  A    between atoms: C4*_18  and  C5*_23
REMARK    5  A    between atoms: C5*_23  and  O5*_24
REMARK                            x       y       z     vdW  Elec       q    Type
REMARK                         _______ _______ _______ _____ _____    ______ ____
ROOT
ATOM      1  F   UNL     1      -4.684  -0.048  -0.249  0.00  0.00    -0.181 F 
ATOM      2  N   UNL     1      -0.223  -0.875   0.310  0.00  0.00    -0.209 N 
ATOM      3  N   UNL     1      -2.263  -1.783   0.240  0.00  0.00    -0.366 NA
ATOM      4  N   UNL     1      -0.797   1.453  -0.085  0.00  0.00    -0.227 NA
ATOM      5  N   UNL     1      -0.360  -3.201   0.632  0.00  0.00    -0.320 N 
ATOM      6  N   UNL     1      -3.204   1.742  -0.364  0.00  0.00    -0.215 NA
ATOM      7  C   UNL     1      -1.094   0.155   0.075  0.00  0.00    +0.171 C 
ATOM      8  C   UNL     1      -0.977  -2.018   0.401  0.00  0.00    +0.242 C 
ATOM      9  C   UNL     1      -2.350  -0.429   0.036  0.00  0.00    +0.211 C 
ATOM     10  C   UNL     1      -3.430   0.418  -0.194  0.00  0.00    +0.252 C 
ATOM     11  C   UNL     1      -1.920   2.172  -0.300  0.00  0.00    +0.254 C 
ATOM     12  H   UNL     1       0.619  -3.234   0.733  0.00  0.00    +0.146 HD
ATOM     13  H   UNL     1      -0.890  -4.028   0.698  0.00  0.00    +0.146 HD
ENDROOT
BRANCH   2  15
ATOM     14  O4* UNL     1       1.563   0.509   1.034  0.00  0.00    -0.333 OA
ATOM     15  C1* UNL     1       1.228  -0.758   0.437  0.00  0.00    +0.230 C 
ATOM     16  C2* UNL     1       1.972  -0.812  -0.889  0.00  0.00    +0.187 C 
ATOM     17  C3* UNL     1       3.246  -0.063  -0.550  0.00  0.00    +0.171 C 
ATOM     18  C4* UNL     1       2.739   1.037   0.378  0.00  0.00    +0.175 C 
BRANCH  16  19
ATOM     19  O2* UNL     1       2.206  -2.141  -1.308  0.00  0.00    -0.378 OA
ATOM     20  H2* UNL     1       1.360  -2.570  -1.511  0.00  0.00    +0.211 HD
ENDBRANCH  16  19
BRANCH  17  21
ATOM     21  O3* UNL     1       4.120  -0.919   0.185  0.00  0.00    -0.379 OA
ATOM     22  H3* UNL     1       4.448  -1.623  -0.396  0.00  0.00    +0.211 HD
ENDBRANCH  17  21
BRANCH  18  23
ATOM     23  C5* UNL     1       2.346   2.306  -0.365  0.00  0.00    +0.169 C 
BRANCH  23  24
ATOM     24  O5* UNL     1       1.882   3.257   0.577  0.00  0.00    -0.379 OA
ATOM     25  H5* UNL     1       1.628   4.071   0.115  0.00  0.00    +0.211 HD
ENDBRANCH  23  24
ENDBRANCH  18  23
ENDBRANCH   2  15
TORSDOF 5
