REMARK  Name = 126268
REMARK  5 active torsions:
REMARK  status: ('A' for Active; 'I' for Inactive)
REMARK    1  A    between atoms: C_20  and  O_24
REMARK    2  A    between atoms: O_24  and  C_26
REMARK    3  A    between atoms: C_26  and  C_27
REMARK    4  A    between atoms: C_32  and  N_33
REMARK    5  A    between atoms: N_33  and  C_36
REMARK                            x       y       z     vdW  Elec       q    Type
REMARK                         _______ _______ _______ _____ _____    ______ ____
ROOT
ATOM      1  O   UNL     1      -4.019  -0.548  -1.707  0.00  0.00    -0.440 OA
ATOM      2  O   UNL     1      -2.024   2.333   0.374  0.00  0.00    -0.454 OA
ATOM      3  O   UNL     1      -5.190  -2.382  -2.496  0.00  0.00    -0.245 OA
ATOM      4  C   UNL     1      -3.502  -0.054  -0.431  0.00  0.00    +0.198 C 
ATOM      5  C   UNL     1      -3.926  -1.140   0.505  0.00  0.00    +0.028 C 
ATOM      6  C   UNL     1      -1.996   0.070  -0.547  0.00  0.00    +0.056 C 
ATOM      7  C   UNL     1      -4.167   1.275  -0.134  0.00  0.00    +0.056 C 
ATOM      8  C   UNL     1      -4.605  -2.122  -0.194  0.00  0.00    +0.076 C 
ATOM      9  C   UNL     1      -1.356   1.241  -0.123  0.00  0.00    +0.148 C 
ATOM     10  C   UNL     1      -3.393   2.371   0.264  0.00  0.00    +0.145 C 
ATOM     11  C   UNL     1      -4.667  -1.752  -1.599  0.00  0.00    +0.342 C 
ATOM     12  C   UNL     1      -3.734  -1.264   1.872  0.00  0.00    -0.000 C 
ATOM     13  C   UNL     1      -1.204  -0.979  -1.045  0.00  0.00    +0.006 C 
ATOM     14  C   UNL     1      -5.561   1.439  -0.216  0.00  0.00    +0.003 C 
ATOM     15  C   UNL     1      -5.118  -3.253   0.414  0.00  0.00    +0.006 C 
ATOM     16  C   UNL     1       0.037   1.358  -0.184  0.00  0.00    +0.075 C 
ATOM     17  C   UNL     1      -3.993   3.595   0.580  0.00  0.00    +0.037 C 
ATOM     18  C   UNL     1       0.185  -0.860  -1.113  0.00  0.00    +0.038 C 
ATOM     19  C   UNL     1      -4.241  -2.397   2.514  0.00  0.00    -0.000 C 
ATOM     20  C   UNL     1       0.806   0.308  -0.681  0.00  0.00    +0.152 C 
ATOM     21  C   UNL     1      -6.160   2.661   0.093  0.00  0.00    +0.000 C 
ATOM     22  C   UNL     1      -4.928  -3.385   1.790  0.00  0.00    +0.000 C 
ATOM     23  C   UNL     1      -5.375   3.739   0.493  0.00  0.00    +0.003 C 
ENDROOT
BRANCH  20  24
ATOM     24  O   UNL     1       2.160   0.426  -0.745  0.00  0.00    -0.421 OA
BRANCH  24  26
ATOM     25  O   UNL     1       2.302  -0.456   1.409  0.00  0.00    -0.244 OA
ATOM     26  C   UNL     1       2.830  -0.011   0.401  0.00  0.00    +0.346 C 
BRANCH  26  27
ATOM     27  C   UNL     1       4.299   0.149   0.256  0.00  0.00    +0.076 C 
ATOM     28  C   UNL     1       5.058   0.397   1.381  0.00  0.00    +0.008 C 
ATOM     29  C   UNL     1       4.860   0.044  -1.000  0.00  0.00    +0.008 C 
ATOM     30  C   UNL     1       6.438   0.547   1.245  0.00  0.00    +0.019 C 
ATOM     31  C   UNL     1       6.240   0.194  -1.137  0.00  0.00    +0.019 C 
ATOM     32  C   UNL     1       7.029   0.445  -0.014  0.00  0.00    +0.084 C 
BRANCH  32  33
ATOM     33  N   UNL     1       8.413   0.596  -0.151  0.00  0.00    -0.214 NA
BRANCH  33  36
ATOM     34  N   UNL     1      10.544  -0.359  -0.184  0.00  0.00    -0.370 N 
ATOM     35  N   UNL     1       8.781  -1.764   0.169  0.00  0.00    -0.370 N 
ATOM     36  C   UNL     1       9.179  -0.464  -0.056  0.00  0.00    +0.193 C 
ATOM     37  H   UNL     1      10.957   0.519  -0.349  0.00  0.00    +0.159 HD
ATOM     38  H   UNL     1      11.108  -1.162  -0.112  0.00  0.00    +0.159 HD
ATOM     39  H   UNL     1       7.825  -1.974   0.279  0.00  0.00    +0.159 HD
ATOM     40  H   UNL     1       9.452  -2.483   0.221  0.00  0.00    +0.159 HD
ENDBRANCH  33  36
ENDBRANCH  32  33
ENDBRANCH  26  27
ENDBRANCH  24  26
ENDBRANCH  20  24
TORSDOF 5
