REMARK  Name = 126200
REMARK  3 active torsions:
REMARK  status: ('A' for Active; 'I' for Inactive)
REMARK    1  A    between atoms: C_6  and  C_15
REMARK    2  A    between atoms: C_10  and  N_23
REMARK    3  A    between atoms: C_16  and  C_20
REMARK                            x       y       z     vdW  Elec       q    Type
REMARK                         _______ _______ _______ _____ _____    ______ ____
ROOT
ATOM      1  O   UNL     1       0.240  -1.896   0.379  0.00  0.00    -0.285 OA
ATOM      2  O   UNL     1      -4.689   0.227  -0.253  0.00  0.00    -0.285 OA
ATOM      3  N   UNL     1      -2.221   1.914  -0.229  0.00  0.00    -0.281 N 
ATOM      4  C   UNL     1      -1.089   0.022   0.065  0.00  0.00    +0.061 C 
ATOM      5  C   UNL     1      -2.349   0.558  -0.096  0.00  0.00    +0.094 C 
ATOM      6  C   UNL     1      -0.167   1.098   0.027  0.00  0.00    +0.055 C 
ATOM      7  C   UNL     1      -0.894   2.255  -0.155  0.00  0.00    +0.069 C 
ATOM      8  C   UNL     1      -0.870  -1.397   0.234  0.00  0.00    +0.210 C 
ATOM      9  C   UNL     1      -3.554  -0.218  -0.113  0.00  0.00    +0.211 C 
ATOM     10  C   UNL     1      -2.126  -2.237   0.219  0.00  0.00    +0.084 C 
ATOM     11  C   UNL     1      -3.295   2.865  -0.418  0.00  0.00    +0.117 C 
ATOM     12  C   UNL     1      -3.346  -1.685   0.060  0.00  0.00    +0.061 C 
ENDROOT
BRANCH   6  15
ATOM     13  S   UNL     1       2.188   2.372   0.824  0.00  0.00    -0.075 S 
ATOM     14  N   UNL     1       2.011   0.024  -0.243  0.00  0.00    -0.394 NA
ATOM     15  C   UNL     1       1.297   1.062   0.152  0.00  0.00    +0.158 C 
ATOM     16  C   UNL     1       3.348   0.274  -0.003  0.00  0.00    +0.174 C 
ATOM     17  C   UNL     1       3.639   1.494   0.571  0.00  0.00    +0.128 C 
BRANCH  16  20
ATOM     18  O   UNL     1       5.561  -0.548  -0.134  0.00  0.00    -0.268 OA
ATOM     19  N   UNL     1       3.901  -1.898  -0.920  0.00  0.00    -0.323 N 
ATOM     20  C   UNL     1       4.341  -0.705  -0.345  0.00  0.00    +0.269 C 
ATOM     21  H   UNL     1       4.551  -2.594  -1.169  0.00  0.00    +0.145 HD
ATOM     22  H   UNL     1       2.940  -2.043  -1.078  0.00  0.00    +0.145 HD
ENDBRANCH  16  20
ENDBRANCH   6  15
BRANCH  10  23
ATOM     23  N   UNL     1      -1.925  -3.580   0.377  0.00  0.00    -0.354 N 
ATOM     24  H   UNL     1      -1.013  -3.931   0.490  0.00  0.00    +0.142 HD
ATOM     25  H   UNL     1      -2.694  -4.196   0.379  0.00  0.00    +0.142 HD
ENDBRANCH  10  23
TORSDOF 3
