126308
  -OEChem-03292013323D

 45 48  0     1  0  0  0  0  0999 V2000
    2.3295   -0.3518    0.5880 O   0  0  0  0  0  0  0  0  0  0  0  0
    3.0848    2.8578   -1.0222 O   0  0  0  0  0  0  0  0  0  0  0  0
    5.6937    1.6493   -0.6701 O   0  0  0  0  0  0  0  0  0  0  0  0
    5.5340   -1.2171   -0.9774 O   0  0  0  0  0  0  0  0  0  0  0  0
    4.2320   -3.2808    0.2850 O   0  0  0  0  0  0  0  0  0  0  0  0
    2.7855   -2.5023    1.8654 O   0  0  0  0  0  0  0  0  0  0  0  0
    1.0410    1.6033    0.6043 N   0  0  0  0  0  0  0  0  0  0  0  0
    3.3284    1.7148   -0.2033 C   0  0  2  0  0  0  0  0  0  0  0  0
    4.4744    0.9219   -0.8325 C   0  0  2  0  0  0  0  0  0  0  0  0
    2.0597    0.8634   -0.1087 C   0  0  1  0  0  0  0  0  0  0  0  0
    4.6393   -0.4476   -0.1751 C   0  0  1  0  0  0  0  0  0  0  0  0
    3.2953   -1.1609   -0.0748 C   0  0  1  0  0  0  0  0  0  0  0  0
   -0.3335    1.2881    0.5212 C   0  0  0  0  0  0  0  0  0  0  0  0
   -2.1056   -0.0559   -0.3323 C   0  0  0  0  0  0  0  0  0  0  0  0
   -3.0463    0.7094    0.3931 C   0  0  0  0  0  0  0  0  0  0  0  0
   -2.8027   -1.1483   -1.1163 C   0  0  0  0  0  0  0  0  0  0  0  0
    3.3859   -2.3613    0.8104 C   0  0  0  0  0  0  0  0  0  0  0  0
   -0.7510    0.2219   -0.2775 C   0  0  0  0  0  0  0  0  0  0  0  0
   -4.3688    0.1815    0.1355 C   0  0  0  0  0  0  0  0  0  0  0  0
   -4.2533   -0.9132   -0.7505 C   0  0  0  0  0  0  0  0  0  0  0  0
   -1.2643    2.0528    1.2454 C   0  0  0  0  0  0  0  0  0  0  0  0
   -2.6317    1.7671    1.1852 C   0  0  0  0  0  0  0  0  0  0  0  0
   -5.6097    0.5783    0.6053 C   0  0  0  0  0  0  0  0  0  0  0  0
   -5.3646   -1.6197   -1.1756 C   0  0  0  0  0  0  0  0  0  0  0  0
   -6.7367   -0.1314    0.1796 C   0  0  0  0  0  0  0  0  0  0  0  0
   -6.6153   -1.2194   -0.7019 C   0  0  0  0  0  0  0  0  0  0  0  0
    3.6379    2.0762    0.7859 H   0  0  0  0  0  0  0  0  0  0  0  0
    4.3235    0.8116   -1.9139 H   0  0  0  0  0  0  0  0  0  0  0  0
    1.7296    0.6502   -1.1339 H   0  0  0  0  0  0  0  0  0  0  0  0
    5.0978   -0.3369    0.8159 H   0  0  0  0  0  0  0  0  0  0  0  0
    2.9062   -1.4810   -1.0491 H   0  0  0  0  0  0  0  0  0  0  0  0
    1.3157    2.3198    1.2672 H   0  0  0  0  0  0  0  0  0  0  0  0
   -2.4736   -2.1360   -0.7809 H   0  0  0  0  0  0  0  0  0  0  0  0
   -2.6471   -1.0135   -2.1906 H   0  0  0  0  0  0  0  0  0  0  0  0
   -0.0745   -0.4058   -0.8446 H   0  0  0  0  0  0  0  0  0  0  0  0
    2.3383    3.3420   -0.6298 H   0  0  0  0  0  0  0  0  0  0  0  0
    5.5655    2.5244   -1.0744 H   0  0  0  0  0  0  0  0  0  0  0  0
    6.3715   -0.7259   -1.0329 H   0  0  0  0  0  0  0  0  0  0  0  0
   -0.9276    2.8815    1.8646 H   0  0  0  0  0  0  0  0  0  0  0  0
   -3.3382    2.3663    1.7497 H   0  0  0  0  0  0  0  0  0  0  0  0
   -5.7193    1.4158    1.2861 H   0  0  0  0  0  0  0  0  0  0  0  0
   -5.2726   -2.4594   -1.8554 H   0  0  0  0  0  0  0  0  0  0  0  0
   -7.7215    0.1612    0.5347 H   0  0  0  0  0  0  0  0  0  0  0  0
   -7.5071   -1.7544   -1.0176 H   0  0  0  0  0  0  0  0  0  0  0  0
    4.3067   -4.0770    0.8532 H   0  0  0  0  0  0  0  0  0  0  0  0
  1 10  1  0  0  0  0
  1 12  1  0  0  0  0
  2  8  1  0  0  0  0
  2 36  1  0  0  0  0
  3  9  1  0  0  0  0
  3 37  1  0  0  0  0
  4 11  1  0  0  0  0
  4 38  1  0  0  0  0
  5 17  1  0  0  0  0
  5 45  1  0  0  0  0
  6 17  2  0  0  0  0
  7 10  1  0  0  0  0
  7 13  1  0  0  0  0
  7 32  1  0  0  0  0
  8  9  1  0  0  0  0
  8 10  1  0  0  0  0
  8 27  1  0  0  0  0
  9 11  1  0  0  0  0
  9 28  1  0  0  0  0
 10 29  1  0  0  0  0
 11 12  1  0  0  0  0
 11 30  1  0  0  0  0
 12 17  1  0  0  0  0
 12 31  1  0  0  0  0
 13 18  2  0  0  0  0
 13 21  1  0  0  0  0
 14 15  2  0  0  0  0
 14 16  1  0  0  0  0
 14 18  1  0  0  0  0
 15 19  1  0  0  0  0
 15 22  1  0  0  0  0
 16 20  1  0  0  0  0
 16 33  1  0  0  0  0
 16 34  1  0  0  0  0
 18 35  1  0  0  0  0
 19 20  1  0  0  0  0
 19 23  2  0  0  0  0
 20 24  2  0  0  0  0
 21 22  2  0  0  0  0
 21 39  1  0  0  0  0
 22 40  1  0  0  0  0
 23 25  1  0  0  0  0
 23 41  1  0  0  0  0
 24 26  1  0  0  0  0
 24 42  1  0  0  0  0
 25 26  2  0  0  0  0
 25 43  1  0  0  0  0
 26 44  1  0  0  0  0
M  END
> <PUBCHEM_COMPOUND_CID>
126308

> <PUBCHEM_CONFORMER_RMSD>
0.8

> <PUBCHEM_CONFORMER_DIVERSEORDER>
1
50
34
39
45
46
4
24
35
30
55
41
49
43
15
26
7
54
44
8
2
36
13
52
48
42
53
20
51
10
14
22
27
23
12
47
21
28
6
33
16
25
31
9
11
37
32
19
5
3
29
18
40
38
17

> <PUBCHEM_MMFF94_PARTIAL_CHARGES>
36
1 -0.56
10 0.65
11 0.28
12 0.34
13 0.1
14 -0.14
16 0.29
17 0.66
18 -0.15
2 -0.68
20 -0.14
21 -0.15
22 -0.15
23 -0.15
24 -0.15
25 -0.15
26 -0.15
3 -0.68
32 0.4
35 0.15
36 0.4
37 0.4
38 0.4
39 0.15
4 -0.68
40 0.15
41 0.15
42 0.15
43 0.15
44 0.15
45 0.5
5 -0.65
6 -0.57
7 -0.87
8 0.28
9 0.28

> <PUBCHEM_EFFECTIVE_ROTOR_COUNT>
4.4

> <PUBCHEM_PHARMACOPHORE_FEATURES>
16
1 1 acceptor
1 2 acceptor
1 2 donor
1 3 acceptor
1 3 donor
1 4 acceptor
1 4 donor
1 5 acceptor
1 6 acceptor
1 7 cation
1 7 donor
3 5 6 17 anion
5 14 15 16 19 20 rings
6 1 8 9 10 11 12 rings
6 13 14 15 18 21 22 rings
6 19 20 23 24 25 26 rings

> <PUBCHEM_HEAVY_ATOM_COUNT>
26

> <PUBCHEM_ATOM_DEF_STEREO_COUNT>
5

> <PUBCHEM_ATOM_UDEF_STEREO_COUNT>
0

> <PUBCHEM_BOND_DEF_STEREO_COUNT>
0

> <PUBCHEM_BOND_UDEF_STEREO_COUNT>
0

> <PUBCHEM_ISOTOPIC_ATOM_COUNT>
0

> <PUBCHEM_COMPONENT_COUNT>
1

> <PUBCHEM_CACTVS_TAUTO_COUNT>
1

> <PUBCHEM_CONFORMER_ID>
0001ED6400000001

> <PUBCHEM_MMFF94_ENERGY>
86.6311

> <PUBCHEM_FEATURE_SELFOVERLAP>
81.45

> <PUBCHEM_SHAPE_FINGERPRINT>
10462674 125 10803381958762060717
10595046 47 18411984662949744809
10622 236 18120080689637817714
10693767 8 18268722623948372582
11135609 187 18261956344347456792
11796584 16 17988648523191490397
12107183 9 17907864994116556441
12236239 1 18342744017860304613
12516196 113 17632295709144012033
12553582 1 17774709939862296077
12730499 353 17821733853211839058
12788726 201 17988651774439756561
13009979 54 18057604253341332082
13167823 11 18341896294342346989
13533116 47 18410573980872321291
13862211 1 17775283902802837373
14347332 77 18410007694120103709
14576447 43 18410857638341212656
15001296 14 18341046427662407398
15183329 4 18272368668713802125
15250474 111 18341603828745286215
15537594 2 18342458166354039511
16993427 108 16881296115333149090
16993438 75 17826239784912454722
17134984 74 18114175397674477595
17492 89 18197779899486598238
17857418 61 18343581837288620659
1813 80 18259976081272573077
18681886 176 17846218886625962404
19319366 153 18336259128566369166
20028762 73 18269552754621116502
20511986 3 18343010116695859757
20645477 70 18186517683492474418
21267235 1 18201446869290418573
220451 1 18342744035498804385
22950370 63 18343018900441634371
23522609 53 18056790752176634313
23559900 14 18262518229312447873
239999 70 17774725372065327900
25147074 1 18271255936459602377
3004659 81 18413107259978809381
335352 9 17988643022156386309
3411729 13 16628820993421423176
345986 75 18270388391814935723
34797466 226 16630532869129010472
351380 3 18201999936840739335
3680242 22 18271249326805704691
397830 11 13182442439817785271
4073 2 18191870230666344411
4098825 35 18113894927978356189
46194498 28 17386006208260134060
465052 167 17846221098169934933
5104073 3 17775280526088235217

> <PUBCHEM_SHAPE_MULTIPOLES>
494.87
15.95
2.71
1.16
7.96
0.7
0.18
5.32
-3.18
-3.3
0.5
-0.25
0.18
-2.73

> <PUBCHEM_SHAPE_SELFOVERLAP>
1091.47

> <PUBCHEM_SHAPE_VOLUME>
266.2

> <PUBCHEM_COORDINATE_TYPE>
2
5
10

$$$$
