REMARK  Name = 126382
REMARK  4 active torsions:
REMARK  status: ('A' for Active; 'I' for Inactive)
REMARK    1  A    between atoms: C_2  and  O_16
REMARK    2  A    between atoms: C_3  and  O_18
REMARK    3  A    between atoms: C_4  and  N_8
REMARK    4  A    between atoms: C_5  and  C_15
REMARK                            x       y       z     vdW  Elec       q    Type
REMARK                         _______ _______ _______ _____ _____    ______ ____
ROOT
ATOM      1  O   UNL     1       1.345   0.317   0.900  0.00  0.00    -0.334 OA
ATOM      2  C   UNL     1       0.776  -1.098  -0.925  0.00  0.00    +0.187 C 
ATOM      3  C   UNL     1       2.158  -1.489  -0.440  0.00  0.00    +0.169 C 
ATOM      4  C   UNL     1       0.229  -0.353   0.289  0.00  0.00    +0.228 C 
ATOM      5  C   UNL     1       2.561  -0.330   0.474  0.00  0.00    +0.157 C 
ENDROOT
BRANCH   4   8
ATOM      6  O   UNL     1      -3.894  -0.919   0.968  0.00  0.00    -0.123 OA
ATOM      7  O   UNL     1      -2.139  -1.951   0.139  0.00  0.00    -0.123 OA
ATOM      8  N   UNL     1      -0.848   0.592   0.017  0.00  0.00    -0.226 N 
ATOM      9  N   UNL     1      -2.903   1.415  -0.240  0.00  0.00    -0.207 NA
ATOM     10  N   UNL     1      -2.764  -0.886   0.404  0.00  0.00    +0.091 N 
ATOM     11  C   UNL     1      -2.198   0.349   0.067  0.00  0.00    +0.286 C 
ATOM     12  C   UNL     1      -0.692   1.904  -0.349  0.00  0.00    +0.091 C 
ATOM     13  C   UNL     1      -1.970   2.388  -0.501  0.00  0.00    +0.118 C 
ENDBRANCH   4   8
BRANCH   5  15
ATOM     14  I   UNL     1       3.976   2.263   1.133  0.00  0.00    -0.072 I 
ATOM     15  C   UNL     1       3.426   0.713  -0.221  0.00  0.00    +0.095 C 
ENDBRANCH   5  15
BRANCH   2  16
ATOM     16  O   UNL     1       0.897  -0.233  -2.047  0.00  0.00    -0.378 OA
ATOM     17  H   UNL     1       1.247  -0.731  -2.803  0.00  0.00    +0.211 HD
ENDBRANCH   2  16
BRANCH   3  18
ATOM     18  O   UNL     1       2.040  -2.680   0.334  0.00  0.00    -0.379 OA
ATOM     19  H   UNL     1       1.784  -3.417  -0.243  0.00  0.00    +0.211 HD
ENDBRANCH   3  18
TORSDOF 4
