REMARK  Name = 126306
REMARK  7 active torsions:
REMARK  status: ('A' for Active; 'I' for Inactive)
REMARK    1  A    between atoms: N_3  and  C1*_11
REMARK    2  A    between atoms: N_4  and  C_20
REMARK    3  A    between atoms: C3*_12  and  O3*_15
REMARK    4  A    between atoms: C4*_14  and  C5*_17
REMARK    5  A    between atoms: C5*_17  and  O5*_18
REMARK    6  A    between atoms: C_20  and  C_21
REMARK    7  A    between atoms: C_21  and  C_23
REMARK                            x       y       z     vdW  Elec       q    Type
REMARK                         _______ _______ _______ _____ _____    ______ ____
ROOT
ATOM      1  O   UNL     1      -1.010   1.960   0.168  0.00  0.00    -0.252 OA
ATOM      2  O   UNL     1      -2.671  -2.384   0.538  0.00  0.00    -0.270 OA
ATOM      3  N   UNL     1       0.439   0.156   0.008  0.00  0.00    -0.219 N 
ATOM      4  N   UNL     1      -1.882  -0.190   0.366  0.00  0.00    -0.209 N 
ATOM      5  C   UNL     1      -0.825   0.739   0.179  0.00  0.00    +0.319 C 
ATOM      6  C   UNL     1       0.626  -1.207   0.018  0.00  0.00    +0.071 C 
ATOM      7  C   UNL     1      -0.361  -2.090   0.190  0.00  0.00    +0.047 C 
ATOM      8  C   UNL     1      -1.748  -1.586   0.382  0.00  0.00    +0.253 C 
ATOM      9  C   UNL     1      -0.145  -3.571   0.198  0.00  0.00    +0.037 C 
ENDROOT
BRANCH   3  11
ATOM     10  O4* UNL     1       2.516   0.358  -1.050  0.00  0.00    -0.335 OA
ATOM     11  C1* UNL     1       1.575   1.009  -0.185  0.00  0.00    +0.202 C 
ATOM     12  C3* UNL     1       3.737   1.450   0.664  0.00  0.00    +0.144 C 
ATOM     13  C2* UNL     1       2.299   1.329   1.113  0.00  0.00    +0.083 C 
ATOM     14  C4* UNL     1       3.832   0.436  -0.468  0.00  0.00    +0.173 C 
BRANCH  12  15
ATOM     15  O3* UNL     1       3.973   2.763   0.160  0.00  0.00    -0.382 OA
ATOM     16  H3* UNL     1       3.911   3.404   0.886  0.00  0.00    +0.210 HD
ENDBRANCH  12  15
BRANCH  14  17
ATOM     17  C5* UNL     1       4.214  -0.957   0.015  0.00  0.00    +0.169 C 
BRANCH  17  18
ATOM     18  O5* UNL     1       4.266  -1.830  -1.101  0.00  0.00    -0.379 OA
ATOM     19  H5* UNL     1       4.509  -2.721  -0.803  0.00  0.00    +0.211 HD
ENDBRANCH  17  18
ENDBRANCH  14  17
ENDBRANCH   3  11
BRANCH   4  20
ATOM     20  C   UNL     1      -3.215   0.376   0.550  0.00  0.00    +0.119 C 
BRANCH  20  21
ATOM     21  C   UNL     1      -3.954   0.566  -0.769  0.00  0.00    +0.127 C 
BRANCH  21  23
ATOM     22  N   UNL     1      -6.365   1.554  -0.409  0.00  0.00    -0.196 NA
ATOM     23  C   UNL     1      -5.302   1.118  -0.567  0.00  0.00    +0.075 C 
ENDBRANCH  21  23
ENDBRANCH  20  21
ENDBRANCH   4  20
TORSDOF 7
