REMARK  Name = 126394
REMARK  6 active torsions:
REMARK  status: ('A' for Active; 'I' for Inactive)
REMARK    1  A    between atoms: C_1  and  C_12
REMARK    2  A    between atoms: C_4  and  O_7
REMARK    3  A    between atoms: O_7  and  S_8
REMARK    4  A    between atoms: C_12  and  C_15
REMARK    5  A    between atoms: CA_17  and  C_20
REMARK    6  A    between atoms: C_20  and  O_21
REMARK                            x       y       z     vdW  Elec       q    Type
REMARK                         _______ _______ _______ _____ _____    ______ ____
ROOT
ATOM      1  C   UNL     1       0.080   1.562   0.103  0.00  0.00    -0.013 C 
ATOM      2  C   UNL     1       0.860   1.467   1.256  0.00  0.00    -0.001 C 
ATOM      3  C   UNL     1       0.641   1.284  -1.143  0.00  0.00    -0.001 C 
ATOM      4  C   UNL     1       2.762   0.817  -0.084  0.00  0.00    +0.176 C 
ATOM      5  C   UNL     1       2.200   1.095   1.163  0.00  0.00    +0.040 C 
ATOM      6  C   UNL     1       1.982   0.912  -1.237  0.00  0.00    +0.040 C 
ENDROOT
BRANCH   4   7
ATOM      7  O   UNL     1       4.070   0.454  -0.174  0.00  0.00    -0.322 OA
BRANCH   7   8
ATOM      8  S   UNL     1       4.463  -1.141  -0.088  0.00  0.00    +0.282 S 
ATOM      9  O   UNL     1       6.095  -1.142  -0.091  0.00  0.00    -0.105 OA
ATOM     10  O   UNL     1       4.019  -1.667   1.190  0.00  0.00    -0.012 OA
ATOM     11  O   UNL     1       4.027  -1.769  -1.321  0.00  0.00    -0.105 OA
ENDBRANCH   7   8
ENDBRANCH   4   7
BRANCH   1  12
ATOM     12  C   UNL     1      -1.353   1.960   0.204  0.00  0.00    +0.112 C 
BRANCH  12  15
ATOM     13  O   UNL     1      -2.245   0.015   1.334  0.00  0.00    -0.274 OA
ATOM     14  N   UNL     1      -3.232   0.712  -0.656  0.00  0.00    -0.282 N 
ATOM     15  C   ACE A   0      -2.309   0.787   0.380  0.00  0.00    +0.230 C 
ATOM     16  H   UNL     1      -3.185   1.390  -1.370  0.00  0.00    +0.155 HD
ATOM     17  CA  UNL     1      -4.198  -0.246  -0.741  0.00  0.00    +0.104 C 
ATOM     18  CB  UNL     1      -5.067  -0.278  -1.759  0.00  0.00    +0.054 C 
BRANCH  17  20
ATOM     19  OXT UNL     1      -4.964  -1.186   1.335  0.00  0.00    -0.244 OA
ATOM     20  C   UNL     1      -4.295  -1.279   0.318  0.00  0.00    +0.348 C 
BRANCH  20  21
ATOM     21  O   UNL     1      -3.535  -2.357   0.011  0.00  0.00    -0.476 OA
ATOM     22  H   UNL     1      -3.042  -2.372  -0.785  0.00  0.00    +0.295 HD
ENDBRANCH  20  21
ENDBRANCH  17  20
ENDBRANCH  12  15
ENDBRANCH   1  12
TORSDOF 6
