REMARK  Name = 126323
REMARK  6 active torsions:
REMARK  status: ('A' for Active; 'I' for Inactive)
REMARK    1  A    between atoms: N_2  and  C1*_14
REMARK    2  A    between atoms: C_9  and  N_25
REMARK    3  A    between atoms: C2*_15  and  O2*_18
REMARK    4  A    between atoms: C3*_16  and  O3*_20
REMARK    5  A    between atoms: C4*_17  and  C5*_22
REMARK    6  A    between atoms: C5*_22  and  O5*_23
REMARK                            x       y       z     vdW  Elec       q    Type
REMARK                         _______ _______ _______ _____ _____    ______ ____
ROOT
ATOM      1  O   UNL     1       3.522   2.164   1.436  0.00  0.00    -0.253 OA
ATOM      2  N   UNL     1      -0.282  -0.192  -0.040  0.00  0.00    -0.208 NA
ATOM      3  N   UNL     1       1.614   1.144   0.699  0.00  0.00    -0.273 N 
ATOM      4  N   UNL     1       0.935  -1.963  -0.788  0.00  0.00    -0.255 NA
ATOM      5  N   UNL     1       3.732   0.208   0.156  0.00  0.00    -0.246 N 
ATOM      6  C   UNL     1       1.005   0.385  -0.352  0.00  0.00    +0.178 C 
ATOM      7  C   UNL     1       1.782  -0.885  -0.563  0.00  0.00    +0.100 C 
ATOM      8  C   UNL     1      -0.231  -1.500  -0.435  0.00  0.00    +0.204 C 
ATOM      9  C   UNL     1       3.115  -0.944  -0.373  0.00  0.00    +0.171 C 
ATOM     10  C   UNL     1       3.001   1.247   0.795  0.00  0.00    +0.306 C 
ATOM     11  C   UNL     1       5.184   0.340   0.043  0.00  0.00    +0.118 C 
ATOM     12  H   UNL     1       1.046   1.598   1.362  0.00  0.00    +0.153 HD
ENDROOT
BRANCH   2  14
ATOM     13  O4* UNL     1      -2.288   0.016   1.142  0.00  0.00    -0.336 OA
ATOM     14  C1* UNL     1      -1.468   0.602   0.118  0.00  0.00    +0.209 C 
ATOM     15  C2* UNL     1      -2.313   0.640  -1.144  0.00  0.00    +0.183 C 
ATOM     16  C3* UNL     1      -3.709   0.803  -0.583  0.00  0.00    +0.171 C 
ATOM     17  C4* UNL     1      -3.652  -0.060   0.671  0.00  0.00    +0.175 C 
BRANCH  15  18
ATOM     18  O2* UNL     1      -1.954   1.700  -2.006  0.00  0.00    -0.378 OA
ATOM     19  H2* UNL     1      -1.055   1.554  -2.341  0.00  0.00    +0.211 HD
ENDBRANCH  15  18
BRANCH  16  20
ATOM     20  O3* UNL     1      -3.924   2.155  -0.177  0.00  0.00    -0.379 OA
ATOM     21  H3* UNL     1      -3.964   2.725  -0.960  0.00  0.00    +0.211 HD
ENDBRANCH  16  20
BRANCH  17  22
ATOM     22  C5* UNL     1      -3.984  -1.523   0.410  0.00  0.00    +0.169 C 
BRANCH  22  23
ATOM     23  O5* UNL     1      -3.891  -2.234   1.632  0.00  0.00    -0.379 OA
ATOM     24  H5* UNL     1      -4.100  -3.168   1.479  0.00  0.00    +0.211 HD
ENDBRANCH  22  23
ENDBRANCH  17  22
ENDBRANCH   2  14
BRANCH   9  25
ATOM     25  N   UNL     1       3.804  -2.104  -0.639  0.00  0.00    -0.302 NA
ATOM     26  H   UNL     1       4.778  -2.141  -0.499  0.00  0.00    +0.121 HD
ATOM     27  H   UNL     1       3.323  -2.897  -0.970  0.00  0.00    +0.121 HD
ENDBRANCH   9  25
TORSDOF 6
