REMARK  Name = 126363
REMARK  7 active torsions:
REMARK  status: ('A' for Active; 'I' for Inactive)
REMARK    1  A    between atoms: C_1  and  C_9
REMARK    2  A    between atoms: C_1  and  N_10
REMARK    3  A    between atoms: C_1  and  C_22
REMARK    4  A    between atoms: N_10  and  S_12
REMARK    5  A    between atoms: S_12  and  C_15
REMARK    6  A    between atoms: C_22  and  C_23
REMARK    7  A    between atoms: C_26  and  C_31
REMARK                            x       y       z     vdW  Elec       q    Type
REMARK                         _______ _______ _______ _____ _____    ______ ____
ROOT
ATOM      1  C   UNL     1       1.411  -0.069   0.665  0.00  0.00    +0.156 C 
ENDROOT
BRANCH   1   9
ATOM      2  O   UNL     1       3.114  -0.927   2.071  0.00  0.00    -0.273 OA
ATOM      3  N   UNL     1       3.778  -0.191  -0.030  0.00  0.00    -0.278 N 
ATOM      4  C   UNL     1       3.477   0.348  -1.362  0.00  0.00    +0.093 C 
ATOM      5  C   UNL     1       5.188  -0.519   0.194  0.00  0.00    +0.093 C 
ATOM      6  C   UNL     1       4.336   1.576  -1.657  0.00  0.00    +0.022 C 
ATOM      7  C   UNL     1       6.079   0.692  -0.069  0.00  0.00    +0.022 C 
ATOM      8  C   UNL     1       5.821   1.276  -1.458  0.00  0.00    +0.004 C 
ATOM      9  C   UNL     1       2.841  -0.437   0.972  0.00  0.00    +0.242 C 
ENDBRANCH   1   9
BRANCH   1  10
ATOM     10  N   UNL     1       0.626  -1.085   1.389  0.00  0.00    -0.172 NA
ATOM     11  H   UNL     1       1.122  -1.276   2.259  0.00  0.00    +0.149 HD
BRANCH  10  12
ATOM     12  S   UNL     1       0.308  -2.593   0.666  0.00  0.00    +0.061 S 
ATOM     13  O   UNL     1       0.052  -3.577   1.701  0.00  0.00    -0.153 OA
ATOM     14  O   UNL     1       1.308  -2.850  -0.354  0.00  0.00    -0.153 OA
BRANCH  12  15
ATOM     15  C   UNL     1      -1.215  -2.277  -0.174  0.00  0.00    +0.122 C 
ATOM     16  C   UNL     1      -1.184  -1.814  -1.478  0.00  0.00    +0.020 C 
ATOM     17  C   UNL     1      -2.410  -2.501   0.487  0.00  0.00    +0.020 C 
ATOM     18  C   UNL     1      -2.386  -1.567  -2.142  0.00  0.00    -0.003 C 
ATOM     19  C   UNL     1      -3.612  -2.253  -0.176  0.00  0.00    -0.003 C 
ATOM     20  C   UNL     1      -3.600  -1.786  -1.490  0.00  0.00    -0.022 C 
ATOM     21  C   UNL     1      -4.885  -1.521  -2.199  0.00  0.00    +0.031 C 
ENDBRANCH  12  15
ENDBRANCH  10  12
ENDBRANCH   1  10
BRANCH   1  22
ATOM     22  C   UNL     1       1.101   1.328   1.179  0.00  0.00    +0.053 C 
BRANCH  22  23
ATOM     23  C   UNL     1      -0.121   1.920   0.522  0.00  0.00    -0.020 C 
ATOM     24  C   UNL     1      -1.367   1.714   1.093  0.00  0.00    -0.001 C 
ATOM     25  C   UNL     1       0.023   2.659  -0.642  0.00  0.00    -0.004 C 
ATOM     26  C   UNL     1      -2.498   2.260   0.485  0.00  0.00    +0.030 C 
ATOM     27  C   UNL     1      -1.108   3.205  -1.250  0.00  0.00    -0.000 C 
ATOM     28  C   UNL     1      -2.368   3.006  -0.686  0.00  0.00    +0.003 C 
BRANCH  26  31
ATOM     29  N   UNL     1      -4.960   2.585   0.487  0.00  0.00    -0.343 N 
ATOM     30  N   UNL     1      -3.933   1.349   2.184  0.00  0.00    -0.285 NA
ATOM     31  C   UNL     1      -3.812   2.052   1.072  0.00  0.00    +0.117 C 
ATOM     32  H   UNL     1      -5.840   2.432   0.900  0.00  0.00    +0.144 HD
ATOM     33  H   UNL     1      -4.890   3.114  -0.340  0.00  0.00    +0.144 HD
ATOM     34  H   UNL     1      -4.822   1.207   2.582  0.00  0.00    +0.188 HD
ENDBRANCH  26  31
ENDBRANCH  22  23
ENDBRANCH   1  22
TORSDOF 7
