126343
  -OEChem-03292013323D

 36 35  0     1  0  0  0  0  0999 V2000
   -5.8739    0.2336    1.4234 Cl  0  0  0  0  0  0  0  0  0  0  0  0
    2.6482   -0.3894   -1.6346 O   0  0  0  0  0  0  0  0  0  0  0  0
    1.8450   -1.6239    1.7070 O   0  0  0  0  0  0  0  0  0  0  0  0
    0.5112    2.9863   -0.2988 O   0  0  0  0  0  0  0  0  0  0  0  0
    2.6852   -4.0836    0.5614 O   0  0  0  0  0  0  0  0  0  0  0  0
   -1.0513    0.2556    1.5390 O   0  0  0  0  0  0  0  0  0  0  0  0
    2.8780    3.7406    0.7245 O   0  0  0  0  0  0  0  0  0  0  0  0
   -3.3513   -1.0077   -2.2410 O   0  0  0  0  0  0  0  0  0  0  0  0
   -0.0038    0.2576   -0.5072 N   0  0  0  0  0  0  0  0  0  0  0  0
   -2.2663   -0.3936   -0.3248 N   0  0  0  0  0  0  0  0  0  0  0  0
   -2.2661   -0.6147   -1.7995 N   0  0  0  0  0  0  0  0  0  0  0  0
    1.2678    0.7196    0.0087 C   0  0  1  0  0  0  0  0  0  0  0  0
    2.3767   -0.3257   -0.2338 C   0  0  1  0  0  0  0  0  0  0  0  0
    2.0403   -1.7372    0.2937 C   0  0  1  0  0  0  0  0  0  0  0  0
    1.6045    2.1146   -0.5523 C   0  0  2  0  0  0  0  0  0  0  0  0
    3.0821   -2.8275    0.0299 C   0  0  0  0  0  0  0  0  0  0  0  0
   -1.1031    0.0535    0.3213 C   0  0  0  0  0  0  0  0  0  0  0  0
    2.8583    2.7098    0.0591 C   0  0  0  0  0  0  0  0  0  0  0  0
   -3.4956   -0.6479    0.4157 C   0  0  0  0  0  0  0  0  0  0  0  0
   -4.3858    0.5799    0.5083 C   0  0  0  0  0  0  0  0  0  0  0  0
    1.1686    0.8348    1.0956 H   0  0  0  0  0  0  0  0  0  0  0  0
    3.2919    0.0146    0.2650 H   0  0  0  0  0  0  0  0  0  0  0  0
    1.0925   -2.0842   -0.1344 H   0  0  0  0  0  0  0  0  0  0  0  0
    1.7442    2.0727   -1.6383 H   0  0  0  0  0  0  0  0  0  0  0  0
   -0.0648    0.0895   -1.5048 H   0  0  0  0  0  0  0  0  0  0  0  0
    4.0322   -2.5581    0.5035 H   0  0  0  0  0  0  0  0  0  0  0  0
    3.2471   -2.9550   -1.0441 H   0  0  0  0  0  0  0  0  0  0  0  0
    3.4920   -0.8573   -1.7512 H   0  0  0  0  0  0  0  0  0  0  0  0
    3.7973    2.1741   -0.1586 H   0  0  0  0  0  0  0  0  0  0  0  0
    1.6111   -2.5071    2.0404 H   0  0  0  0  0  0  0  0  0  0  0  0
    0.6892    3.8220   -0.7632 H   0  0  0  0  0  0  0  0  0  0  0  0
   -4.0291   -1.4980   -0.0255 H   0  0  0  0  0  0  0  0  0  0  0  0
   -3.2185   -0.9618    1.4301 H   0  0  0  0  0  0  0  0  0  0  0  0
    3.3955   -4.7167    0.3606 H   0  0  0  0  0  0  0  0  0  0  0  0
   -4.6834    0.9280   -0.4856 H   0  0  0  0  0  0  0  0  0  0  0  0
   -3.8701    1.4037    1.0118 H   0  0  0  0  0  0  0  0  0  0  0  0
  1 20  1  0  0  0  0
  2 13  1  0  0  0  0
  2 28  1  0  0  0  0
  3 14  1  0  0  0  0
  3 30  1  0  0  0  0
  4 15  1  0  0  0  0
  4 31  1  0  0  0  0
  5 16  1  0  0  0  0
  5 34  1  0  0  0  0
  6 17  2  0  0  0  0
  7 18  2  0  0  0  0
  8 11  2  0  0  0  0
  9 12  1  0  0  0  0
  9 17  1  0  0  0  0
  9 25  1  0  0  0  0
 10 11  1  0  0  0  0
 10 17  1  0  0  0  0
 10 19  1  0  0  0  0
 12 13  1  0  0  0  0
 12 15  1  0  0  0  0
 12 21  1  0  0  0  0
 13 14  1  0  0  0  0
 13 22  1  0  0  0  0
 14 16  1  0  0  0  0
 14 23  1  0  0  0  0
 15 18  1  0  0  0  0
 15 24  1  0  0  0  0
 16 26  1  0  0  0  0
 16 27  1  0  0  0  0
 18 29  1  0  0  0  0
 19 20  1  0  0  0  0
 19 32  1  0  0  0  0
 19 33  1  0  0  0  0
 20 35  1  0  0  0  0
 20 36  1  0  0  0  0
M  END
> <PUBCHEM_COMPOUND_CID>
126343

> <PUBCHEM_CONFORMER_RMSD>
1

> <PUBCHEM_CONFORMER_DIVERSEORDER>
2
64
11
38
63
43
53
74
14
67
46
33
58
50
56
66
40
51
39
20
27
60
52
10
34
21
61
78
68
41
77
15
76
69
1
22
26
18
17
48
32
70
16
7
59
47
75
23
55
28
4
42
25
30
35
3
44
36
73
37
65
8
72
49
13
62
54
19
6
31
24
5
71
29
45
9
12
57

> <PUBCHEM_MMFF94_PARTIAL_CHARGES>
26
1 -0.29
10 -0.18
11 -0.02
12 0.3
13 0.28
14 0.28
15 0.34
16 0.28
17 0.69
18 0.45
19 0.3
2 -0.68
20 0.29
25 0.37
28 0.4
29 0.06
3 -0.68
30 0.4
31 0.4
34 0.4
4 -0.68
5 -0.68
6 -0.57
7 -0.57
8 -0.16
9 -0.73

> <PUBCHEM_EFFECTIVE_ROTOR_COUNT>
11

> <PUBCHEM_PHARMACOPHORE_FEATURES>
11
1 2 acceptor
1 2 donor
1 3 acceptor
1 3 donor
1 4 acceptor
1 4 donor
1 5 acceptor
1 5 donor
1 6 acceptor
1 7 acceptor
1 9 donor

> <PUBCHEM_HEAVY_ATOM_COUNT>
20

> <PUBCHEM_ATOM_DEF_STEREO_COUNT>
4

> <PUBCHEM_ATOM_UDEF_STEREO_COUNT>
0

> <PUBCHEM_BOND_DEF_STEREO_COUNT>
0

> <PUBCHEM_BOND_UDEF_STEREO_COUNT>
0

> <PUBCHEM_ISOTOPIC_ATOM_COUNT>
0

> <PUBCHEM_COMPONENT_COUNT>
1

> <PUBCHEM_CACTVS_TAUTO_COUNT>
8

> <PUBCHEM_CONFORMER_ID>
0001ED8700000002

> <PUBCHEM_MMFF94_ENERGY>
34.5561

> <PUBCHEM_FEATURE_SELFOVERLAP>
55.846

> <PUBCHEM_SHAPE_FINGERPRINT>
11578080 2 17772155709847972193
12553582 1 18267017267679515534
12788726 201 17182476422601782266
13533116 47 18261685813748945347
13583140 156 18268167503366234641
13955234 65 18410019848613535171
14178342 30 17973447886458923961
15042514 8 17472702425242640602
15806764 133 17240763948331358973
15842332 3 17988349473256291727
1813 80 18198912396262741174
18186145 218 18260830440503940325
19765921 60 17913493711813721144
19784866 34 18125159583001934881
20645477 70 18261655052644688039
20832881 197 17970917661195795379
21041028 32 18192715531532408247
2255824 54 18341051899603554294
23419403 2 16812021479455171996
23526113 38 17241061928350390560
23558518 356 17764030559589330542
23598291 2 18130784603079956581
3091708 16 9432170940411469656
31174 14 18260270737366420751
3421961 26 18335989683359901683
34934 24 17845662584944656049
474 4 18193840572604644841
603831 33 17629187488809342359
6049 1 17603578600320226109
621550 5 17459764626838181799
633830 44 18055078915202762300
7364860 26 18410013247443888520
7615 1 17916851517767629109
81228 2 17615667558789959256
88987 49 16415193524985816989

> <PUBCHEM_SHAPE_MULTIPOLES>
357.43
8.48
3.78
1.47
13.93
0.39
0.53
-0.97
-1.95
-7.13
-0.85
1.11
-0.47
-0.77

> <PUBCHEM_SHAPE_SELFOVERLAP>
678.661

> <PUBCHEM_SHAPE_VOLUME>
218.6

> <PUBCHEM_COORDINATE_TYPE>
2
5
10

$$$$
