REMARK  Name = 126341
REMARK  5 active torsions:
REMARK  status: ('A' for Active; 'I' for Inactive)
REMARK    1  A    between atoms: C_1  and  O_10
REMARK    2  A    between atoms: C_2  and  N_9
REMARK    3  A    between atoms: O_10  and  C_12
REMARK    4  A    between atoms: C_12  and  S_13
REMARK    5  A    between atoms: S_13  and  S_14
REMARK                            x       y       z     vdW  Elec       q    Type
REMARK                         _______ _______ _______ _____ _____    ______ ____
ROOT
ATOM      1  C   UNL     1       0.079   0.555  -0.666  0.00  0.00    +0.149 C 
ATOM      2  C   UNL     1      -2.555  -0.067   0.009  0.00  0.00    +0.143 C 
ATOM      3  C   UNL     1      -0.662   1.429   0.128  0.00  0.00    +0.039 C 
ATOM      4  C   UNL     1      -0.497  -0.631  -1.123  0.00  0.00    +0.039 C 
ATOM      5  C   UNL     1      -1.980   1.118   0.466  0.00  0.00    +0.027 C 
ATOM      6  C   UNL     1      -1.815  -0.942  -0.786  0.00  0.00    +0.027 C 
ENDROOT
BRANCH   2   9
ATOM      7  O   UNL     1      -4.540   0.417   1.069  0.00  0.00    -0.126 OA
ATOM      8  O   UNL     1      -4.389  -1.456  -0.071  0.00  0.00    -0.126 OA
ATOM      9  N   UNL     1      -3.896  -0.385   0.353  0.00  0.00    +0.058 N 
ENDBRANCH   2   9
BRANCH   1  10
ATOM     10  O   UNL     1       1.364   0.859  -0.996  0.00  0.00    -0.416 OA
BRANCH  10  12
ATOM     11  O   UNL     1       2.064  -0.249   0.921  0.00  0.00    -0.236 OA
ATOM     12  C   UNL     1       2.337   0.387  -0.091  0.00  0.00    +0.384 C 
BRANCH  12  13
ATOM     13  S   UNL     1       4.007   0.778  -0.537  0.00  0.00    +0.026 S 
BRANCH  13  14
ATOM     14  S   UNL     1       5.092  -0.076   0.989  0.00  0.00    -0.071 S 
ATOM     15  C   UNL     1       5.390  -1.737   0.336  0.00  0.00    +0.082 C 
ENDBRANCH  13  14
ENDBRANCH  12  13
ENDBRANCH  10  12
ENDBRANCH   1  10
TORSDOF 5
