126323
  -OEChem-03292013323D

 38 40  0     1  0  0  0  0  0999 V2000
   -2.2885    0.0157    1.1418 O   0  0  0  0  0  0  0  0  0  0  0  0
   -1.9535    1.7002   -2.0062 O   0  0  0  0  0  0  0  0  0  0  0  0
   -3.9244    2.1547   -0.1767 O   0  0  0  0  0  0  0  0  0  0  0  0
   -3.8911   -2.2336    1.6317 O   0  0  0  0  0  0  0  0  0  0  0  0
    3.5220    2.1636    1.4360 O   0  0  0  0  0  0  0  0  0  0  0  0
   -0.2821   -0.1915   -0.0398 N   0  0  0  0  0  0  0  0  0  0  0  0
    1.6139    1.1437    0.6987 N   0  0  0  0  0  0  0  0  0  0  0  0
    0.9354   -1.9626   -0.7882 N   0  0  0  0  0  0  0  0  0  0  0  0
    3.7325    0.2083    0.1560 N   0  0  0  0  0  0  0  0  0  0  0  0
    3.8038   -2.1037   -0.6394 N   0  0  0  0  0  0  0  0  0  0  0  0
   -1.4679    0.6015    0.1179 C   0  0  1  0  0  0  0  0  0  0  0  0
   -2.3125    0.6400   -1.1440 C   0  0  1  0  0  0  0  0  0  0  0  0
   -3.7090    0.8033   -0.5825 C   0  0  1  0  0  0  0  0  0  0  0  0
   -3.6520   -0.0596    0.6706 C   0  0  1  0  0  0  0  0  0  0  0  0
    1.0054    0.3850   -0.3524 C   0  0  1  0  0  0  0  0  0  0  0  0
    1.7824   -0.8854   -0.5630 C   0  0  0  0  0  0  0  0  0  0  0  0
   -3.9836   -1.5228    0.4096 C   0  0  0  0  0  0  0  0  0  0  0  0
   -0.2309   -1.5000   -0.4348 C   0  0  0  0  0  0  0  0  0  0  0  0
    3.1152   -0.9438   -0.3731 C   0  0  0  0  0  0  0  0  0  0  0  0
    3.0012    1.2468    0.7951 C   0  0  0  0  0  0  0  0  0  0  0  0
    5.1837    0.3404    0.0428 C   0  0  0  0  0  0  0  0  0  0  0  0
   -1.2010    1.6118    0.4494 H   0  0  0  0  0  0  0  0  0  0  0  0
   -2.2585   -0.2951   -1.7126 H   0  0  0  0  0  0  0  0  0  0  0  0
   -4.5027    0.5362   -1.2850 H   0  0  0  0  0  0  0  0  0  0  0  0
   -4.2861    0.3298    1.4753 H   0  0  0  0  0  0  0  0  0  0  0  0
    0.9744    0.9831   -1.2702 H   0  0  0  0  0  0  0  0  0  0  0  0
   -3.3025   -1.9869   -0.3056 H   0  0  0  0  0  0  0  0  0  0  0  0
   -5.0063   -1.6195    0.0310 H   0  0  0  0  0  0  0  0  0  0  0  0
   -1.1636   -2.0754   -0.4478 H   0  0  0  0  0  0  0  0  0  0  0  0
    1.0504    1.8319    1.1876 H   0  0  0  0  0  0  0  0  0  0  0  0
   -1.0343    1.5519   -2.2851 H   0  0  0  0  0  0  0  0  0  0  0  0
   -3.2981    2.3770    0.5321 H   0  0  0  0  0  0  0  0  0  0  0  0
   -4.1198   -3.1597    1.4429 H   0  0  0  0  0  0  0  0  0  0  0  0
    5.4949    0.1230   -0.9838 H   0  0  0  0  0  0  0  0  0  0  0  0
    5.6588   -0.3583    0.7382 H   0  0  0  0  0  0  0  0  0  0  0  0
    5.5075    1.3545    0.2933 H   0  0  0  0  0  0  0  0  0  0  0  0
    4.7938   -2.1607   -0.4419 H   0  0  0  0  0  0  0  0  0  0  0  0
    3.3093   -2.9132   -0.9937 H   0  0  0  0  0  0  0  0  0  0  0  0
  1 11  1  0  0  0  0
  1 14  1  0  0  0  0
  2 12  1  0  0  0  0
  2 31  1  0  0  0  0
  3 13  1  0  0  0  0
  3 32  1  0  0  0  0
  4 17  1  0  0  0  0
  4 33  1  0  0  0  0
  5 20  2  0  0  0  0
  6 11  1  0  0  0  0
  6 15  1  0  0  0  0
  6 18  1  0  0  0  0
  7 15  1  0  0  0  0
  7 20  1  0  0  0  0
  7 30  1  0  0  0  0
  8 16  1  0  0  0  0
  8 18  2  0  0  0  0
  9 19  1  0  0  0  0
  9 20  1  0  0  0  0
  9 21  1  0  0  0  0
 10 19  1  0  0  0  0
 10 37  1  0  0  0  0
 10 38  1  0  0  0  0
 11 12  1  0  0  0  0
 11 22  1  0  0  0  0
 12 13  1  0  0  0  0
 12 23  1  0  0  0  0
 13 14  1  0  0  0  0
 13 24  1  0  0  0  0
 14 17  1  0  0  0  0
 14 25  1  0  0  0  0
 15 16  1  0  0  0  0
 15 26  1  0  0  0  0
 16 19  2  0  0  0  0
 17 27  1  0  0  0  0
 17 28  1  0  0  0  0
 18 29  1  0  0  0  0
 21 34  1  0  0  0  0
 21 35  1  0  0  0  0
 21 36  1  0  0  0  0
M  END
> <PUBCHEM_COMPOUND_CID>
126323

> <PUBCHEM_CONFORMER_RMSD>
0.6

> <PUBCHEM_CONFORMER_DIVERSEORDER>
1
31
28
32
26
16
15
30
9
17
8
34
22
29
6
13
18
35
21
24
10
11
20
2
36
27
12
19
14
3
4
33
5
25
23
7

> <PUBCHEM_MMFF94_PARTIAL_CHARGES>
28
1 -0.56
10 -0.9
11 0.65
12 0.28
13 0.28
14 0.28
15 0.81
16 0.03
17 0.28
18 0.44
19 0.21
2 -0.68
20 0.69
21 0.3
29 0.06
3 -0.68
30 0.37
31 0.4
32 0.4
33 0.4
37 0.4
38 0.4
4 -0.68
5 -0.57
6 -0.79
7 -0.73
8 -0.62
9 -0.47

> <PUBCHEM_EFFECTIVE_ROTOR_COUNT>
3.6

> <PUBCHEM_PHARMACOPHORE_FEATURES>
15
1 1 acceptor
1 10 cation
1 10 donor
1 2 acceptor
1 2 donor
1 3 acceptor
1 3 donor
1 4 acceptor
1 4 donor
1 5 acceptor
1 7 donor
3 6 8 18 cation
5 1 11 12 13 14 rings
5 6 8 15 16 18 rings
6 7 9 15 16 19 20 rings

> <PUBCHEM_HEAVY_ATOM_COUNT>
21

> <PUBCHEM_ATOM_DEF_STEREO_COUNT>
4

> <PUBCHEM_ATOM_UDEF_STEREO_COUNT>
1

> <PUBCHEM_BOND_DEF_STEREO_COUNT>
0

> <PUBCHEM_BOND_UDEF_STEREO_COUNT>
0

> <PUBCHEM_ISOTOPIC_ATOM_COUNT>
0

> <PUBCHEM_COMPONENT_COUNT>
1

> <PUBCHEM_CACTVS_TAUTO_COUNT>
4

> <PUBCHEM_CONFORMER_ID>
0001ED7300000001

> <PUBCHEM_MMFF94_ENERGY>
74.1188

> <PUBCHEM_FEATURE_SELFOVERLAP>
76.278

> <PUBCHEM_SHAPE_FINGERPRINT>
10608611 8 18412823560362214997
11132069 177 18186239528762938349
11370993 144 18270976643647674139
11405975 8 18337954484995456243
11471102 20 18201997682135733812
11615757 297 17775286057984980107
12236239 1 16559028285656237341
12403259 415 18341895224916784248
12507557 5 18201433666851107688
12507560 40 18411136956785521794
12670546 56 15719388456124871548
13214271 11 18410009931892672981
13583140 156 18412541015817432423
13675066 3 18411418418935326814
14178342 30 18113908135002349323
14289901 80 17530967968754712410
15099037 37 18187928443137350035
15219456 202 18411699876663570503
15653759 3 18114184111772152469
16945 1 18059569149239449830
18186145 218 17704071811146341468
18219364 16 18343863333418407992
200 152 17846491518201375879
20645477 56 18262238816447501173
20645477 70 17916580930084835566
20681677 76 18412258450113882505
21033648 29 18342726438580456496
21065201 7 17894910706868118571
21639500 275 17988346127323793380
22854114 59 18343305885365669507
22943178 12 18409446968669227599
23402539 116 17385438834637901871
23402655 69 17774999046969790572
23557571 272 18186521012271587245
23559900 14 18114463353735413814
25 1 18272642429507061220
350125 39 18197782300436094030
474 4 17917423242096798720
49207404 50 18339361971505974026
5104073 3 18411702054043399730
602551 16 17676210203689183034
633830 44 17274556368052183253
77492 1 16559024982736703005
81228 2 17548955098580583902

> <PUBCHEM_SHAPE_MULTIPOLES>
377.92
9.38
2.16
1.23
2.19
0.3
0.04
-0.37
-1.66
-0.25
-0.12
-0.71
-0.2
2.19

> <PUBCHEM_SHAPE_SELFOVERLAP>
812.121

> <PUBCHEM_SHAPE_VOLUME>
208.6

> <PUBCHEM_COORDINATE_TYPE>
2
5
10

$$$$
