REMARK  Name = 126350
REMARK  15 active torsions:
REMARK  status: ('A' for Active; 'I' for Inactive)
REMARK    1  A    between atoms: C_2  and  C_21
REMARK    2  A    between atoms: C_3  and  O_7
REMARK    3  A    between atoms: C_4  and  C_11
REMARK    4  A    between atoms: C_6  and  O_9
REMARK    5  A    between atoms: C_12  and  C_13
REMARK    6  A    between atoms: C_13  and  O_14
REMARK    7  A    between atoms: C_13  and  C_16
REMARK    8  A    between atoms: C_16  and  C_17
REMARK    9  A    between atoms: C_18  and  C_19
REMARK   10  A    between atoms: C_21  and  C_22
REMARK   11  A    between atoms: C_23  and  C_24
REMARK   12  A    between atoms: C_24  and  C_25
REMARK   13  A    between atoms: C_25  and  C_26
REMARK   14  A    between atoms: C_26  and  C_28
REMARK   15  A    between atoms: C_28  and  O_29
REMARK                            x       y       z     vdW  Elec       q    Type
REMARK                         _______ _______ _______ _____ _____    ______ ____
ROOT
ATOM      1  O   UNL     1      -1.075  -2.326  -0.479  0.00  0.00    -0.329 OA
ATOM      2  C   UNL     1      -2.608  -0.933   0.832  0.00  0.00    +0.063 C 
ATOM      3  C   UNL     1      -3.630  -1.015  -0.315  0.00  0.00    +0.118 C 
ATOM      4  C   UNL     1      -1.181  -1.113   0.274  0.00  0.00    +0.142 C 
ATOM      5  C   UNL     1      -3.406  -2.279  -1.144  0.00  0.00    +0.090 C 
ATOM      6  C   UNL     1      -1.957  -2.392  -1.600  0.00  0.00    +0.234 C 
ENDROOT
BRANCH   3   7
ATOM      7  O   UNL     1      -4.951  -1.036   0.219  0.00  0.00    -0.384 OA
ATOM      8  H   UNL     1      -5.099  -0.236   0.747  0.00  0.00    +0.210 HD
ENDBRANCH   3   7
BRANCH   6   9
ATOM      9  O   UNL     1      -1.680  -1.393  -2.576  0.00  0.00    -0.360 OA
ATOM     10  H   UNL     1      -0.756  -1.469  -2.864  0.00  0.00    +0.213 HD
ENDBRANCH   6   9
BRANCH   4  11
ATOM     11  C   UNL     1      -0.145  -1.192   1.349  0.00  0.00    +0.001 C 
ATOM     12  C   UNL     1       0.895  -0.351   1.447  0.00  0.00    +0.001 C 
BRANCH  12  13
ATOM     13  C   UNL     1       1.941  -0.439   2.524  0.00  0.00    +0.137 C 
BRANCH  13  14
ATOM     14  O   UNL     1       1.862   0.761   3.294  0.00  0.00    -0.380 OA
ATOM     15  H   UNL     1       0.969   0.851   3.662  0.00  0.00    +0.211 HD
ENDBRANCH  13  14
BRANCH  13  16
ATOM     16  C   UNL     1       3.358  -0.564   1.949  0.00  0.00    +0.059 C 
BRANCH  16  17
ATOM     17  C   UNL     1       3.527  -1.782   1.087  0.00  0.00    -0.028 C 
ATOM     18  C   UNL     1       3.857  -1.735  -0.212  0.00  0.00    -0.031 C 
BRANCH  18  19
ATOM     19  C   UNL     1       4.019  -2.950  -1.075  0.00  0.00    +0.026 C 
ATOM     20  C   UNL     1       2.705  -3.334  -1.739  0.00  0.00    +0.005 C 
ENDBRANCH  18  19
ENDBRANCH  16  17
ENDBRANCH  13  16
ENDBRANCH  12  13
ENDBRANCH   4  11
BRANCH   2  21
ATOM     21  C   UNL     1      -2.766   0.383   1.604  0.00  0.00    +0.031 C 
BRANCH  21  22
ATOM     22  C   UNL     1      -2.511   1.644   0.834  0.00  0.00    -0.031 C 
ATOM     23  C   UNL     1      -1.617   2.604   1.111  0.00  0.00    -0.031 C 
BRANCH  23  24
ATOM     24  C   UNL     1      -1.427   3.832   0.268  0.00  0.00    +0.026 C 
BRANCH  24  25
ATOM     25  C   UNL     1      -0.013   3.970  -0.312  0.00  0.00    +0.016 C 
BRANCH  25  26
ATOM     26  C   UNL     1       0.397   2.816  -1.233  0.00  0.00    +0.110 C 
BRANCH  26  28
ATOM     27  O   UNL     1       2.539   3.907  -1.618  0.00  0.00    -0.250 OA
ATOM     28  C   UNL     1       1.781   2.970  -1.824  0.00  0.00    +0.314 C 
BRANCH  28  29
ATOM     29  O   UNL     1       2.084   1.947  -2.666  0.00  0.00    -0.480 OA
ATOM     30  H   UNL     1       1.472   1.249  -2.794  0.00  0.00    +0.295 HD
ENDBRANCH  28  29
ENDBRANCH  26  28
ENDBRANCH  25  26
ENDBRANCH  24  25
ENDBRANCH  23  24
ENDBRANCH  21  22
ENDBRANCH   2  21
TORSDOF 15
