126326
  -OEChem-03292013323D

 72 76  0     1  0  0  0  0  0999 V2000
   -2.3691   -1.9050   -1.3841 O   0  0  0  0  0  0  0  0  0  0  0  0
   -1.2450    1.9861   -1.3384 O   0  0  0  0  0  0  0  0  0  0  0  0
    4.1530   -0.4655    2.5231 O   0  0  0  0  0  0  0  0  0  0  0  0
   -7.8584    0.3857    0.7378 O   0  0  0  0  0  0  0  0  0  0  0  0
   -0.3539    2.0290    0.8087 N   0  0  0  0  0  0  0  0  0  0  0  0
    3.9443   -1.2386   -0.3748 N   0  0  0  0  0  0  0  0  0  0  0  0
    1.9173   -0.8806    2.9735 N   0  0  0  0  0  0  0  0  0  0  0  0
    3.8438    2.0338   -2.3504 N   0  0  0  0  0  0  0  0  0  0  0  0
   -1.5060   -0.0288   -0.0797 C   0  0  1  0  0  0  0  0  0  0  0  0
   -2.5765   -0.4890   -1.1077 C   0  0  2  0  0  0  0  0  0  0  0  0
   -0.4678   -1.0471   -0.4106 C   0  0  0  0  0  0  0  0  0  0  0  0
   -1.0324    1.4105   -0.2653 C   0  0  0  0  0  0  0  0  0  0  0  0
   -1.0446   -2.1034   -1.0922 C   0  0  0  0  0  0  0  0  0  0  0  0
    3.0814   -2.3365    0.0898 C   0  0  2  0  0  0  0  0  0  0  0  0
    1.6296   -2.2320   -0.3542 C   0  0  0  0  0  0  0  0  0  0  0  0
    0.8704   -1.0909   -0.0670 C   0  0  0  0  0  0  0  0  0  0  0  0
   -3.9878   -0.2554   -0.6148 C   0  0  0  0  0  0  0  0  0  0  0  0
    0.0364    3.4394    0.6382 C   0  0  0  0  0  0  0  0  0  0  0  0
   -0.1306    1.4130    2.1375 C   0  0  0  0  0  0  0  0  0  0  0  0
   -0.3316   -3.2417   -1.4139 C   0  0  0  0  0  0  0  0  0  0  0  0
    1.4746    3.6796    0.1478 C   0  0  0  0  0  0  0  0  0  0  0  0
    3.1926   -2.4860    1.6337 C   0  0  0  0  0  0  0  0  0  0  0  0
    1.0129   -3.3046   -1.0331 C   0  0  0  0  0  0  0  0  0  0  0  0
    1.3114    1.5019    2.6592 C   0  0  0  0  0  0  0  0  0  0  0  0
    1.9325    2.7402   -0.9694 C   0  0  0  0  0  0  0  0  0  0  0  0
    4.0571   -1.1082   -1.8257 C   0  0  0  0  0  0  0  0  0  0  0  0
    1.6491    0.3823    3.6524 C   0  0  0  0  0  0  0  0  0  0  0  0
    5.1498   -0.0890   -2.1946 C   0  0  0  0  0  0  0  0  0  0  0  0
    3.3006    3.1293   -1.5394 C   0  0  0  0  0  0  0  0  0  0  0  0
   -4.6594    0.9180   -0.9553 C   0  0  0  0  0  0  0  0  0  0  0  0
   -4.6156   -1.2141    0.1799 C   0  0  0  0  0  0  0  0  0  0  0  0
    3.1550   -1.1796    2.4256 C   0  0  0  0  0  0  0  0  0  0  0  0
    4.9331    1.3376   -1.6648 C   0  0  0  0  0  0  0  0  0  0  0  0
   -5.9603    1.1334   -0.5006 C   0  0  0  0  0  0  0  0  0  0  0  0
   -5.9167   -0.9989    0.6346 C   0  0  0  0  0  0  0  0  0  0  0  0
   -6.5891    0.1750    0.2942 C   0  0  0  0  0  0  0  0  0  0  0  0
   -1.8933   -0.1929    0.9300 H   0  0  0  0  0  0  0  0  0  0  0  0
   -2.4594    0.0132   -2.0787 H   0  0  0  0  0  0  0  0  0  0  0  0
    3.4890   -3.2677   -0.3280 H   0  0  0  0  0  0  0  0  0  0  0  0
    1.3297   -0.2544    0.4379 H   0  0  0  0  0  0  0  0  0  0  0  0
   -0.1267    3.9616    1.5884 H   0  0  0  0  0  0  0  0  0  0  0  0
   -0.6472    3.9056   -0.0815 H   0  0  0  0  0  0  0  0  0  0  0  0
   -0.4371    0.3689    2.1327 H   0  0  0  0  0  0  0  0  0  0  0  0
   -0.8051    1.9226    2.8364 H   0  0  0  0  0  0  0  0  0  0  0  0
   -0.7965   -4.0693   -1.9381 H   0  0  0  0  0  0  0  0  0  0  0  0
    2.1676    3.5883    0.9916 H   0  0  0  0  0  0  0  0  0  0  0  0
    1.5513    4.7209   -0.1890 H   0  0  0  0  0  0  0  0  0  0  0  0
    4.1576   -2.9522    1.8754 H   0  0  0  0  0  0  0  0  0  0  0  0
    2.4220   -3.1693    2.0119 H   0  0  0  0  0  0  0  0  0  0  0  0
    1.5813   -4.2021   -1.2661 H   0  0  0  0  0  0  0  0  0  0  0  0
    1.4413    2.4707    3.1561 H   0  0  0  0  0  0  0  0  0  0  0  0
    2.0278    1.4668    1.8329 H   0  0  0  0  0  0  0  0  0  0  0  0
    4.8748   -1.3571    0.0263 H   0  0  0  0  0  0  0  0  0  0  0  0
    1.9842    1.7211   -0.5738 H   0  0  0  0  0  0  0  0  0  0  0  0
    1.2009    2.7391   -1.7853 H   0  0  0  0  0  0  0  0  0  0  0  0
    3.1023   -0.8004   -2.2635 H   0  0  0  0  0  0  0  0  0  0  0  0
    4.3305   -2.0734   -2.2687 H   0  0  0  0  0  0  0  0  0  0  0  0
    2.5451    0.6583    4.2192 H   0  0  0  0  0  0  0  0  0  0  0  0
    0.8318    0.2172    4.3615 H   0  0  0  0  0  0  0  0  0  0  0  0
    5.2508   -0.0603   -3.2872 H   0  0  0  0  0  0  0  0  0  0  0  0
    6.1130   -0.4525   -1.8120 H   0  0  0  0  0  0  0  0  0  0  0  0
    3.1748    4.0052   -2.1863 H   0  0  0  0  0  0  0  0  0  0  0  0
    3.9905    3.4301   -0.7417 H   0  0  0  0  0  0  0  0  0  0  0  0
   -4.1810    1.6729   -1.5734 H   0  0  0  0  0  0  0  0  0  0  0  0
   -4.1072   -2.1306    0.4662 H   0  0  0  0  0  0  0  0  0  0  0  0
    4.7539    1.2877   -0.5840 H   0  0  0  0  0  0  0  0  0  0  0  0
    5.8548    1.9122   -1.8124 H   0  0  0  0  0  0  0  0  0  0  0  0
    1.1461   -1.5311    2.8577 H   0  0  0  0  0  0  0  0  0  0  0  0
    3.1032    1.3851   -2.6099 H   0  0  0  0  0  0  0  0  0  0  0  0
   -6.4730    2.0522   -0.7725 H   0  0  0  0  0  0  0  0  0  0  0  0
   -6.4003   -1.7479    1.2556 H   0  0  0  0  0  0  0  0  0  0  0  0
   -8.1686    1.2466    0.4080 H   0  0  0  0  0  0  0  0  0  0  0  0
  1 10  1  0  0  0  0
  1 13  1  0  0  0  0
  2 12  2  0  0  0  0
  3 32  2  0  0  0  0
  4 36  1  0  0  0  0
  4 72  1  0  0  0  0
  5 12  1  0  0  0  0
  5 18  1  0  0  0  0
  5 19  1  0  0  0  0
  6 14  1  0  0  0  0
  6 26  1  0  0  0  0
  6 53  1  0  0  0  0
  7 27  1  0  0  0  0
  7 32  1  0  0  0  0
  7 68  1  0  0  0  0
  8 29  1  0  0  0  0
  8 33  1  0  0  0  0
  8 69  1  0  0  0  0
  9 10  1  0  0  0  0
  9 11  1  0  0  0  0
  9 12  1  0  0  0  0
  9 37  1  0  0  0  0
 10 17  1  0  0  0  0
 10 38  1  0  0  0  0
 11 13  2  0  0  0  0
 11 16  1  0  0  0  0
 13 20  1  0  0  0  0
 14 15  1  0  0  0  0
 14 22  1  0  0  0  0
 14 39  1  0  0  0  0
 15 16  2  0  0  0  0
 15 23  1  0  0  0  0
 16 40  1  0  0  0  0
 17 30  2  0  0  0  0
 17 31  1  0  0  0  0
 18 21  1  0  0  0  0
 18 41  1  0  0  0  0
 18 42  1  0  0  0  0
 19 24  1  0  0  0  0
 19 43  1  0  0  0  0
 19 44  1  0  0  0  0
 20 23  2  0  0  0  0
 20 45  1  0  0  0  0
 21 25  1  0  0  0  0
 21 46  1  0  0  0  0
 21 47  1  0  0  0  0
 22 32  1  0  0  0  0
 22 48  1  0  0  0  0
 22 49  1  0  0  0  0
 23 50  1  0  0  0  0
 24 27  1  0  0  0  0
 24 51  1  0  0  0  0
 24 52  1  0  0  0  0
 25 29  1  0  0  0  0
 25 54  1  0  0  0  0
 25 55  1  0  0  0  0
 26 28  1  0  0  0  0
 26 56  1  0  0  0  0
 26 57  1  0  0  0  0
 27 58  1  0  0  0  0
 27 59  1  0  0  0  0
 28 33  1  0  0  0  0
 28 60  1  0  0  0  0
 28 61  1  0  0  0  0
 29 62  1  0  0  0  0
 29 63  1  0  0  0  0
 30 34  1  0  0  0  0
 30 64  1  0  0  0  0
 31 35  2  0  0  0  0
 31 65  1  0  0  0  0
 33 66  1  0  0  0  0
 33 67  1  0  0  0  0
 34 36  2  0  0  0  0
 34 70  1  0  0  0  0
 35 36  1  0  0  0  0
 35 71  1  0  0  0  0
M  END
> <PUBCHEM_COMPOUND_CID>
126326

> <PUBCHEM_CONFORMER_RMSD>
0.8

> <PUBCHEM_CONFORMER_DIVERSEORDER>
1
5
7
6
2
3
4

> <PUBCHEM_MMFF94_PARTIAL_CHARGES>
43
1 -0.36
10 0.42
11 -0.14
12 0.57
13 0.08
14 0.41
15 -0.14
16 -0.15
17 -0.14
18 0.3
19 0.3
2 -0.57
20 -0.15
22 0.06
23 -0.15
26 0.27
27 0.3
29 0.27
3 -0.57
30 -0.15
31 -0.15
32 0.57
33 0.27
34 -0.15
35 -0.15
36 0.08
4 -0.53
40 0.15
45 0.15
5 -0.66
50 0.15
53 0.36
6 -0.9
64 0.15
65 0.15
68 0.37
69 0.36
7 -0.73
70 0.15
71 0.15
72 0.45
8 -0.9
9 0.2

> <PUBCHEM_EFFECTIVE_ROTOR_COUNT>
4.2

> <PUBCHEM_PHARMACOPHORE_FEATURES>
12
1 1 acceptor
1 2 acceptor
1 3 acceptor
1 4 donor
1 6 cation
1 6 donor
1 7 donor
1 8 cation
1 8 donor
5 1 9 10 11 13 rings
6 11 13 15 16 20 23 rings
6 17 30 31 34 35 36 rings

> <PUBCHEM_HEAVY_ATOM_COUNT>
36

> <PUBCHEM_ATOM_DEF_STEREO_COUNT>
3

> <PUBCHEM_ATOM_UDEF_STEREO_COUNT>
0

> <PUBCHEM_BOND_DEF_STEREO_COUNT>
0

> <PUBCHEM_BOND_UDEF_STEREO_COUNT>
0

> <PUBCHEM_ISOTOPIC_ATOM_COUNT>
0

> <PUBCHEM_COMPONENT_COUNT>
1

> <PUBCHEM_CACTVS_TAUTO_COUNT>
4

> <PUBCHEM_CONFORMER_ID>
0001ED7600000001

> <PUBCHEM_MMFF94_ENERGY>
88.4881

> <PUBCHEM_FEATURE_SELFOVERLAP>
60.996

> <PUBCHEM_SHAPE_FINGERPRINT>
10675989 125 18265624353977663692
10816530 90 18189612749038883269
11070050 100 16226326018989244086
11112662 9 14635436094797801926
11513181 2 16629098053002635990
12156800 1 17694483142667193272
12422481 6 18266716066107457345
12633046 712 15940026230616031019
13899415 154 17846224328244037771
14790565 3 18341626914246879821
14931854 50 18194710192440489012
14955137 171 18201725033459650583
15001296 14 18339646736465011373
15003188 3 17418367000245188130
15840311 113 16988838355523576411
15927050 60 17982735469431098902
161222 10 17130400549591093622
17492 54 18263945327038888588
19026451 147 18041558036559239026
19315092 285 16009298787180540538
20764821 26 18124563553051761341
20775438 99 13262402163573822217
22121540 332 17608383658927594859
23559900 14 18413387636261459283
27425 322 17171806083003308708
3411729 13 18114747139393973797
4340502 62 16371011818813357738
437795 51 17822871865026514299
460360 51 18120063278377865807
469060 322 18197509415119747218
513532 50 16271920570942762672
5265222 85 17472714992412979668
57527358 35 16517085103880320487
6679774 75 18410003373109282443

> <PUBCHEM_SHAPE_MULTIPOLES>
697.46
12.23
4.05
2.81
21.23
1.16
-2.49
0.41
2.36
-3.33
1.09
-4.37
0.42
-1.45

> <PUBCHEM_SHAPE_SELFOVERLAP>
1482.114

> <PUBCHEM_SHAPE_VOLUME>
382.9

> <PUBCHEM_COORDINATE_TYPE>
2
5
10

$$$$
