126394
  -OEChem-03292013323D

 31 31  0     0  0  0  0  0  0999 V2000
    4.4626   -1.1408   -0.0877 S   0  0  0  0  0  0  0  0  0  0  0  0
    4.0704    0.4538   -0.1745 O   0  0  0  0  0  0  0  0  0  0  0  0
   -2.2451    0.0152    1.3342 O   0  0  0  0  0  0  0  0  0  0  0  0
    6.0951   -1.1419   -0.0911 O   0  0  0  0  0  0  0  0  0  0  0  0
    4.0188   -1.6674    1.1898 O   0  0  0  0  0  0  0  0  0  0  0  0
    4.0265   -1.7694   -1.3211 O   0  0  0  0  0  0  0  0  0  0  0  0
   -3.5353   -2.3571    0.0112 O   0  0  0  0  0  0  0  0  0  0  0  0
   -4.9642   -1.1856    1.3354 O   0  0  0  0  0  0  0  0  0  0  0  0
   -3.2318    0.7124   -0.6565 N   0  0  0  0  0  0  0  0  0  0  0  0
    0.0800    1.5619    0.1035 C   0  0  0  0  0  0  0  0  0  0  0  0
   -1.3534    1.9603    0.2036 C   0  0  0  0  0  0  0  0  0  0  0  0
    0.8595    1.4673    1.2563 C   0  0  0  0  0  0  0  0  0  0  0  0
    0.6412    1.2841   -1.1429 C   0  0  0  0  0  0  0  0  0  0  0  0
    2.7619    0.8170   -0.0837 C   0  0  0  0  0  0  0  0  0  0  0  0
    2.2004    1.0949    1.1626 C   0  0  0  0  0  0  0  0  0  0  0  0
    1.9822    0.9116   -1.2366 C   0  0  0  0  0  0  0  0  0  0  0  0
   -2.3088    0.7868    0.3800 C   0  0  0  0  0  0  0  0  0  0  0  0
   -4.1984   -0.2459   -0.7411 C   0  0  0  0  0  0  0  0  0  0  0  0
   -4.2949   -1.2786    0.3178 C   0  0  0  0  0  0  0  0  0  0  0  0
   -5.0669   -0.2784   -1.7591 C   0  0  0  0  0  0  0  0  0  0  0  0
   -1.6271    2.5646   -0.6701 H   0  0  0  0  0  0  0  0  0  0  0  0
   -1.5025    2.6259    1.0640 H   0  0  0  0  0  0  0  0  0  0  0  0
    0.4340    1.6797    2.2335 H   0  0  0  0  0  0  0  0  0  0  0  0
    0.0435    1.3527   -2.0480 H   0  0  0  0  0  0  0  0  0  0  0  0
    2.8023    1.0248    2.0646 H   0  0  0  0  0  0  0  0  0  0  0  0
    2.4132    0.6980   -2.2109 H   0  0  0  0  0  0  0  0  0  0  0  0
   -3.1972    1.4019   -1.4031 H   0  0  0  0  0  0  0  0  0  0  0  0
   -5.0341    0.4572   -2.5566 H   0  0  0  0  0  0  0  0  0  0  0  0
   -5.8350   -1.0429   -1.8219 H   0  0  0  0  0  0  0  0  0  0  0  0
    6.5151   -0.5672   -0.7734 H   0  0  0  0  0  0  0  0  0  0  0  0
   -3.5872   -3.0511    0.7026 H   0  0  0  0  0  0  0  0  0  0  0  0
  1  2  1  0  0  0  0
  1  4  1  0  0  0  0
  1  5  2  0  0  0  0
  1  6  2  0  0  0  0
  2 14  1  0  0  0  0
  3 17  2  0  0  0  0
  4 30  1  0  0  0  0
  7 19  1  0  0  0  0
  7 31  1  0  0  0  0
  8 19  2  0  0  0  0
  9 17  1  0  0  0  0
  9 18  1  0  0  0  0
  9 27  1  0  0  0  0
 10 11  1  0  0  0  0
 10 12  2  0  0  0  0
 10 13  1  0  0  0  0
 11 17  1  0  0  0  0
 11 21  1  0  0  0  0
 11 22  1  0  0  0  0
 12 15  1  0  0  0  0
 12 23  1  0  0  0  0
 13 16  2  0  0  0  0
 13 24  1  0  0  0  0
 14 15  2  0  0  0  0
 14 16  1  0  0  0  0
 15 25  1  0  0  0  0
 16 26  1  0  0  0  0
 18 19  1  0  0  0  0
 18 20  2  0  0  0  0
 20 28  1  0  0  0  0
 20 29  1  0  0  0  0
M  END
> <PUBCHEM_COMPOUND_CID>
126394

> <PUBCHEM_CONFORMER_RMSD>
0.8

> <PUBCHEM_CONFORMER_DIVERSEORDER>
2
37
15
53
56
13
60
7
28
6
62
83
73
51
36
64
8
65
19
49
66
16
75
63
85
29
9
78
76
72
30
46
21
3
11
48
40
44
33
24
52
80
39
4
22
79
35
5
70
61
38
34
18
10
59
55
20
26
84
42
57
58
25
32
68
17
27
41
14
69
54
12
50
31
82
47
74
43
45
77
71
81
1
23
67

> <PUBCHEM_MMFF94_PARTIAL_CHARGES>
29
1 1.67
10 -0.14
11 0.2
12 -0.15
13 -0.15
14 0.08
15 -0.15
16 -0.15
17 0.57
18 0.12
19 0.71
2 -0.27
20 -0.3
23 0.15
24 0.15
25 0.15
26 0.15
27 0.37
28 0.15
29 0.15
3 -0.57
30 0.5
31 0.5
4 -0.68
5 -0.65
6 -0.65
7 -0.65
8 -0.57
9 -0.54

> <PUBCHEM_EFFECTIVE_ROTOR_COUNT>
7

> <PUBCHEM_PHARMACOPHORE_FEATURES>
10
1 3 acceptor
1 4 acceptor
1 5 acceptor
1 6 acceptor
1 7 acceptor
1 8 acceptor
1 9 donor
3 7 8 19 anion
4 1 4 5 6 anion
6 10 12 13 14 15 16 rings

> <PUBCHEM_HEAVY_ATOM_COUNT>
20

> <PUBCHEM_ATOM_DEF_STEREO_COUNT>
0

> <PUBCHEM_ATOM_UDEF_STEREO_COUNT>
0

> <PUBCHEM_BOND_DEF_STEREO_COUNT>
0

> <PUBCHEM_BOND_UDEF_STEREO_COUNT>
0

> <PUBCHEM_ISOTOPIC_ATOM_COUNT>
0

> <PUBCHEM_COMPONENT_COUNT>
1

> <PUBCHEM_CACTVS_TAUTO_COUNT>
2

> <PUBCHEM_CONFORMER_ID>
0001EDBA00000002

> <PUBCHEM_MMFF94_ENERGY>
50.7153

> <PUBCHEM_FEATURE_SELFOVERLAP>
50.867

> <PUBCHEM_SHAPE_FINGERPRINT>
10498660 4 11314310563676359407
11796584 16 18410292471541237878
12403259 118 13901910033578824705
12523318 42 14261344804483819543
12596602 18 15123784102507194390
12633257 1 16702022014826592559
12644460 14 16916776453217180624
12892183 10 16271640080067262400
13103583 49 17703803538994115931
14178342 30 16701195074603211025
1420 369 18413395340673360431
14251751 18 18335985345543516462
14251764 30 17460334350424833035
14848178 5 18338231575074671658
15183329 4 17895183360541231069
15188451 53 15769478924895342165
15209294 21 12391509771972901388
15342816 4 18187650150873667982
17870717 6 17894910720306758887
193927 3 18341620291227681710
20028762 73 16630232710084032535
20281475 54 18340775943807817233
20403669 9 18342459227021122639
20645477 56 9151174263843500993
20645477 70 17968382346079785376
20871999 31 17530962436747547804
21637258 2 18338506453302966304
21864079 5 9006797370809968139
22393880 68 16950557817976593025
231179 274 8502657012834685716
23379529 103 17389119029121794251
23403322 49 18408603673637267345
23559900 14 18335975467055646616
2838139 119 8286193929971649602
3004659 81 18186796989257408388
339767 52 18335411349161069634
4259306 186 18411978057226343949
4463277 69 18410573968351481332
46194498 28 16951414397817101943
5104073 3 17989208148434530401
559249 180 18341047407452988365
59755656 520 18048872997236206045
7064713 232 15123513631368221037
76465 3 18131625686219752117
7808743 9 8790881882769550845
960060 61 16877660141426171702

> <PUBCHEM_SHAPE_MULTIPOLES>
369.37
12.27
2.1
1.41
0.68
0.49
0.09
8.9
1.23
0.44
-0.21
-0.61
0.03
0.46

> <PUBCHEM_SHAPE_SELFOVERLAP>
757.843

> <PUBCHEM_SHAPE_VOLUME>
213.1

> <PUBCHEM_COORDINATE_TYPE>
2
5
10

$$$$
