REMARK  Name = 126317
REMARK  4 active torsions:
REMARK  status: ('A' for Active; 'I' for Inactive)
REMARK    1  A    between atoms: N_3  and  O_25
REMARK    2  A    between atoms: N_4  and  O_27
REMARK    3  A    between atoms: C_17  and  N_21
REMARK    4  A    between atoms: C_18  and  N_24
REMARK                            x       y       z     vdW  Elec       q    Type
REMARK                         _______ _______ _______ _____ _____    ______ ____
ROOT
ATOM      1  O   UNL     1       1.298  -3.570   0.051  0.00  0.00    -0.264 OA
ATOM      2  O   UNL     1      -1.298   3.570  -0.051  0.00  0.00    -0.264 OA
ATOM      3  N   UNL     1      -0.690  -2.397  -0.012  0.00  0.00    -0.145 N 
ATOM      4  N   UNL     1       0.690   2.397   0.012  0.00  0.00    -0.145 N 
ATOM      5  C   UNL     1      -0.730   0.007   0.000  0.00  0.00    +0.026 A 
ATOM      6  C   UNL     1       0.730  -0.007   0.000  0.00  0.00    +0.026 A 
ATOM      7  C   UNL     1      -1.437  -1.205   0.001  0.00  0.00    +0.103 A 
ATOM      8  C   UNL     1       1.437   1.205  -0.001  0.00  0.00    +0.103 A 
ATOM      9  C   UNL     1       1.436  -1.221   0.003  0.00  0.00    +0.062 A 
ATOM     10  C   UNL     1      -1.436   1.220  -0.003  0.00  0.00    +0.062 A 
ATOM     11  C   UNL     1       0.685  -2.506   0.017  0.00  0.00    +0.292 A 
ATOM     12  C   UNL     1      -0.685   2.506  -0.017  0.00  0.00    +0.292 A 
ATOM     13  C   UNL     1      -2.836  -1.198   0.006  0.00  0.00    +0.045 C 
ATOM     14  C   UNL     1       2.836   1.198  -0.006  0.00  0.00    +0.045 C 
ATOM     15  C   UNL     1       2.834  -1.224   0.000  0.00  0.00    +0.029 C 
ATOM     16  C   UNL     1      -2.834   1.224   0.000  0.00  0.00    +0.029 C 
ATOM     17  C   UNL     1      -3.528   0.014   0.006  0.00  0.00    +0.145 C 
ATOM     18  C   UNL     1       3.528  -0.014  -0.006  0.00  0.00    +0.145 C 
ENDROOT
BRANCH  17  21
ATOM     19  O   UNL     1      -5.550   1.117   0.004  0.00  0.00    -0.126 OA
ATOM     20  O   UNL     1      -5.552  -1.083   0.013  0.00  0.00    -0.126 OA
ATOM     21  N   UNL     1      -4.949   0.016   0.008  0.00  0.00    +0.058 N 
ENDBRANCH  17  21
BRANCH  18  24
ATOM     22  O   UNL     1       5.550  -1.116  -0.004  0.00  0.00    -0.126 OA
ATOM     23  O   UNL     1       5.552   1.083  -0.014  0.00  0.00    -0.126 OA
ATOM     24  N   UNL     1       4.949  -0.016  -0.008  0.00  0.00    +0.058 N 
ENDBRANCH  18  24
BRANCH   3  25
ATOM     25  O   UNL     1      -1.418  -3.598  -0.060  0.00  0.00    -0.423 OA
ATOM     26  H   UNL     1      -2.355  -3.577  -0.081  0.00  0.00    +0.326 HD
ENDBRANCH   3  25
BRANCH   4  27
ATOM     27  O   UNL     1       1.418   3.598   0.061  0.00  0.00    -0.423 OA
ATOM     28  H   UNL     1       2.355   3.577   0.082  0.00  0.00    +0.326 HD
ENDBRANCH   4  27
TORSDOF 4
