REMARK  Name = 126343
REMARK  13 active torsions:
REMARK  status: ('A' for Active; 'I' for Inactive)
REMARK    1  A    between atoms: C_1  and  N_3
REMARK    2  A    between atoms: C_1  and  C_12
REMARK    3  A    between atoms: C_1  and  C_21
REMARK    4  A    between atoms: N_4  and  N_8
REMARK    5  A    between atoms: N_4  and  C_9
REMARK    6  A    between atoms: C_9  and  C_11
REMARK    7  A    between atoms: C_12  and  O_13
REMARK    8  A    between atoms: C_12  and  C_15
REMARK    9  A    between atoms: C_15  and  O_16
REMARK   10  A    between atoms: C_15  and  C_18
REMARK   11  A    between atoms: C_18  and  O_19
REMARK   12  A    between atoms: C_21  and  O_22
REMARK   13  A    between atoms: C_21  and  C_25
REMARK                            x       y       z     vdW  Elec       q    Type
REMARK                         _______ _______ _______ _____ _____    ______ ____
ROOT
ATOM      1  C   UNL     1       1.268   0.720   0.009  0.00  0.00    +0.137 C 
ENDROOT
BRANCH   1   3
ATOM      2  O   UNL     1      -1.051   0.256   1.539  0.00  0.00    -0.251 OA
ATOM      3  N   UNL     1      -0.004   0.258  -0.507  0.00  0.00    -0.284 N 
ATOM      4  N   UNL     1      -2.266  -0.394  -0.325  0.00  0.00    -0.163 N 
ATOM      5  C   UNL     1      -1.103   0.053   0.321  0.00  0.00    +0.320 C 
ATOM      6  H   UNL     1      -0.093   0.083  -1.472  0.00  0.00    +0.151 HD
BRANCH   4   8
ATOM      7  O   UNL     1      -3.351  -1.008  -2.241  0.00  0.00    -0.078 OA
ATOM      8  N   UNL     1      -2.266  -0.615  -1.800  0.00  0.00    +0.054 NA
ENDBRANCH   4   8
BRANCH   4   9
ATOM      9  C   UNL     1      -3.496  -0.648   0.416  0.00  0.00    +0.134 C 
BRANCH   9  11
ATOM     10 CL   UNL     1      -5.874   0.234   1.423  0.00  0.00    -0.112 Cl
ATOM     11  C   UNL     1      -4.386   0.580   0.508  0.00  0.00    +0.118 C 
ENDBRANCH   9  11
ENDBRANCH   4   9
ENDBRANCH   1   3
BRANCH   1  12
ATOM     12  C   UNL     1       2.377  -0.326  -0.234  0.00  0.00    +0.160 C 
BRANCH  12  13
ATOM     13  O   UNL     1       2.648  -0.389  -1.635  0.00  0.00    -0.380 OA
ATOM     14  H   UNL     1       2.859   0.498  -1.964  0.00  0.00    +0.211 HD
ENDBRANCH  12  13
BRANCH  12  15
ATOM     15  C   UNL     1       2.040  -1.737   0.294  0.00  0.00    +0.168 C 
BRANCH  15  16
ATOM     16  O   UNL     1       1.845  -1.624   1.707  0.00  0.00    -0.379 OA
ATOM     17  H   UNL     1       1.186  -0.935   1.888  0.00  0.00    +0.211 HD
ENDBRANCH  15  16
BRANCH  15  18
ATOM     18  C   UNL     1       3.082  -2.828   0.030  0.00  0.00    +0.169 C 
BRANCH  18  19
ATOM     19  O   UNL     1       2.685  -4.084   0.561  0.00  0.00    -0.379 OA
ATOM     20  H   UNL     1       3.370  -4.745   0.374  0.00  0.00    +0.211 HD
ENDBRANCH  18  19
ENDBRANCH  15  18
ENDBRANCH  12  15
ENDBRANCH   1  12
BRANCH   1  21
ATOM     21  C   UNL     1       1.605   2.115  -0.552  0.00  0.00    +0.196 C 
BRANCH  21  22
ATOM     22  O   UNL     1       0.511   2.986  -0.299  0.00  0.00    -0.375 OA
ATOM     23  H   UNL     1      -0.296   2.614  -0.686  0.00  0.00    +0.211 HD
ENDBRANCH  21  22
BRANCH  21  25
ATOM     24  O   UNL     1       2.878   3.741   0.725  0.00  0.00    -0.286 OA
ATOM     25  C   UNL     1       2.858   2.710   0.059  0.00  0.00    +0.238 C 
ENDBRANCH  21  25
ENDBRANCH   1  21
TORSDOF 13
