REMARK  Name = 126326
REMARK  2 active torsions:
REMARK  status: ('A' for Active; 'I' for Inactive)
REMARK    1  A    between atoms: C_9  and  C_35
REMARK    2  A    between atoms: C_40  and  O_41
REMARK                            x       y       z     vdW  Elec       q    Type
REMARK                         _______ _______ _______ _____ _____    ______ ____
ROOT
ATOM      1  O   UNL     1      -2.369  -1.905  -1.384  0.00  0.00    -0.474 OA
ATOM      2  O   UNL     1      -1.245   1.986  -1.338  0.00  0.00    -0.274 OA
ATOM      3  O   UNL     1       4.153  -0.466   2.523  0.00  0.00    -0.275 OA
ATOM      4  N   UNL     1      -0.354   2.029   0.809  0.00  0.00    -0.279 N 
ATOM      5  N   UNL     1       3.944  -1.239  -0.375  0.00  0.00    +0.388 N 
ATOM      6  N   UNL     1       1.917  -0.881   2.974  0.00  0.00    -0.304 N 
ATOM      7  N   UNL     1       3.844   2.034  -2.350  0.00  0.00    +0.384 N 
ATOM      8  C   UNL     1      -1.506  -0.029  -0.080  0.00  0.00    +0.146 C 
ATOM      9  C   UNL     1      -2.576  -0.489  -1.108  0.00  0.00    +0.201 C 
ATOM     10  C   UNL     1      -0.468  -1.047  -0.411  0.00  0.00    +0.024 C 
ATOM     11  C   UNL     1      -1.032   1.411  -0.265  0.00  0.00    +0.233 C 
ATOM     12  C   UNL     1      -1.045  -2.103  -1.092  0.00  0.00    +0.135 C 
ATOM     13  C   UNL     1       3.081  -2.337   0.090  0.00  0.00    -0.029 C 
ATOM     14  C   UNL     1       1.630  -2.232  -0.354  0.00  0.00    -0.042 C 
ATOM     15  C   UNL     1       0.870  -1.091  -0.067  0.00  0.00    -0.007 C 
ATOM     16  C   UNL     1       0.036   3.439   0.638  0.00  0.00    +0.093 C 
ATOM     17  C   UNL     1      -0.131   1.413   2.138  0.00  0.00    +0.095 C 
ATOM     18  C   UNL     1      -0.332  -3.242  -1.414  0.00  0.00    +0.036 C 
ATOM     19  C   UNL     1       1.475   3.680   0.148  0.00  0.00    +0.019 C 
ATOM     20  C   UNL     1       3.193  -2.486   1.634  0.00  0.00    +0.068 C 
ATOM     21  C   UNL     1       1.013  -3.305  -1.033  0.00  0.00    -0.003 C 
ATOM     22  C   UNL     1       1.311   1.502   2.659  0.00  0.00    +0.043 C 
ATOM     23  C   UNL     1       1.933   2.740  -0.969  0.00  0.00    -0.022 C 
ATOM     24  C   UNL     1       4.057  -1.108  -1.826  0.00  0.00    -0.083 C 
ATOM     25  C   UNL     1       1.649   0.382   3.652  0.00  0.00    +0.091 C 
ATOM     26  C   UNL     1       5.150  -0.089  -2.195  0.00  0.00    -0.047 C 
ATOM     27  C   UNL     1       3.301   3.129  -1.539  0.00  0.00    -0.082 C 
ATOM     28  C   UNL     1       3.155  -1.180   2.426  0.00  0.00    +0.221 C 
ATOM     29  C   UNL     1       4.933   1.338  -1.665  0.00  0.00    -0.084 C 
ATOM     30  H   UNL     1       4.880  -1.391   0.002  0.00  0.00    -0.084 HD
ATOM     31  H   UNL     1       3.508  -0.377  -0.046  0.00  0.00    -0.084 HD
ATOM     32  H   UNL     1       1.194  -1.544   2.902  0.00  0.00    +0.149 HD
ATOM     33  H   UNL     1       4.197   2.416  -3.228  0.00  0.00    -0.085 HD
ATOM     34  H   UNL     1       3.095   1.362  -2.518  0.00  0.00    -0.085 HD
ENDROOT
BRANCH   9  35
ATOM     35  C   UNL     1      -3.988  -0.255  -0.615  0.00  0.00    +0.018 C 
ATOM     36  C   UNL     1      -4.659   0.918  -0.955  0.00  0.00    +0.002 C 
ATOM     37  C   UNL     1      -4.616  -1.214   0.180  0.00  0.00    +0.002 C 
ATOM     38  C   UNL     1      -5.960   1.133  -0.501  0.00  0.00    +0.036 C 
ATOM     39  C   UNL     1      -5.917  -0.999   0.635  0.00  0.00    +0.036 C 
ATOM     40  C   UNL     1      -6.589   0.175   0.294  0.00  0.00    +0.134 C 
BRANCH  40  41
ATOM     41  O   UNL     1      -7.858   0.386   0.738  0.00  0.00    -0.506 OA
ATOM     42  H   UNL     1      -8.310   1.174   0.509  0.00  0.00    +0.292 HD
ENDBRANCH  40  41
ENDBRANCH   9  35
TORSDOF 2
