REMARK  Name = 126337
REMARK  14 active torsions:
REMARK  status: ('A' for Active; 'I' for Inactive)
REMARK    1  A    between atoms: O_1  and  C_2
REMARK    2  A    between atoms: O_1  and  C_17
REMARK    3  A    between atoms: C_2  and  C_3
REMARK    4  A    between atoms: C_3  and  O_4
REMARK    5  A    between atoms: O_4  and  C_5
REMARK    6  A    between atoms: C_6  and  O_11
REMARK    7  A    between atoms: O_11  and  P_12
REMARK    8  A    between atoms: P_12  and  O_15
REMARK    9  A    between atoms: C_17  and  C_18
REMARK   10  A    between atoms: C_18  and  O_19
REMARK   11  A    between atoms: O_19  and  C_20
REMARK   12  A    between atoms: C_21  and  O_26
REMARK   13  A    between atoms: O_26  and  P_27
REMARK   14  A    between atoms: P_27  and  O_30
REMARK                            x       y       z     vdW  Elec       q    Type
REMARK                         _______ _______ _______ _____ _____    ______ ____
ROOT
ATOM      1  O   UNL     1      -0.277   3.053  -0.207  0.00  0.00    -0.346 OA
ENDROOT
BRANCH   1   2
ATOM      2  C   UNL     1      -1.436   3.849   0.007  0.00  0.00    +0.189 C 
BRANCH   2   3
ATOM      3  C   UNL     1      -2.668   3.021  -0.303  0.00  0.00    +0.237 C 
BRANCH   3   4
ATOM      4  O   UNL     1      -2.684   1.874   0.544  0.00  0.00    -0.470 OA
BRANCH   4   5
ATOM      5  C   UNL     1      -3.294   0.755   0.061  0.00  0.00    +0.173 C 
ATOM      6  C   UNL     1      -2.864  -0.512   0.453  0.00  0.00    +0.180 C 
ATOM      7  C   UNL     1      -4.356   0.886  -0.835  0.00  0.00    +0.040 C 
ATOM      8  C   UNL     1      -3.496  -1.649  -0.049  0.00  0.00    +0.041 C 
ATOM      9  C   UNL     1      -4.987  -0.252  -1.337  0.00  0.00    +0.003 C 
ATOM     10  C   UNL     1      -4.558  -1.519  -0.945  0.00  0.00    +0.003 C 
BRANCH   6  11
ATOM     11  O   UNL     1      -1.829  -0.652   1.327  0.00  0.00    -0.419 OA
BRANCH  11  12
ATOM     12  P   UNL     1      -1.236  -2.058   1.861  0.00  0.00    +0.389 P 
ATOM     13  O   UNL     1      -0.797  -3.032   0.807  0.00  0.00    -0.244 OA
ATOM     14  C   UNL     1       0.079  -1.548   2.953  0.00  0.00    +0.143 C 
BRANCH  12  15
ATOM     15  O   UNL     1      -2.360  -2.606   2.887  0.00  0.00    -0.315 OA
ATOM     16  H   UNL     1      -3.132  -2.913   2.387  0.00  0.00    +0.221 HD
ENDBRANCH  12  15
ENDBRANCH  11  12
ENDBRANCH   6  11
ENDBRANCH   4   5
ENDBRANCH   3   4
ENDBRANCH   2   3
ENDBRANCH   1   2
BRANCH   1  17
ATOM     17  C   UNL     1       0.912   3.780   0.070  0.00  0.00    +0.189 C 
BRANCH  17  18
ATOM     18  C   UNL     1       2.110   2.883  -0.175  0.00  0.00    +0.237 C 
BRANCH  18  19
ATOM     19  O   UNL     1       2.035   1.761   0.697  0.00  0.00    -0.470 OA
BRANCH  19  20
ATOM     20  C   UNL     1       3.036   0.832   0.593  0.00  0.00    +0.173 C 
ATOM     21  C   UNL     1       2.908  -0.242  -0.282  0.00  0.00    +0.180 C 
ATOM     22  C   UNL     1       4.178   0.975   1.374  0.00  0.00    +0.040 C 
ATOM     23  C   UNL     1       3.933  -1.182  -0.378  0.00  0.00    +0.041 C 
ATOM     24  C   UNL     1       5.204   0.034   1.278  0.00  0.00    +0.003 C 
ATOM     25  C   UNL     1       5.081  -1.044   0.402  0.00  0.00    +0.003 C 
BRANCH  21  26
ATOM     26  O   UNL     1       1.792  -0.388  -1.050  0.00  0.00    -0.419 OA
BRANCH  26  27
ATOM     27  P   UNL     1       1.526  -1.587  -2.101  0.00  0.00    +0.389 P 
ATOM     28  O   UNL     1       1.626  -2.979  -1.552  0.00  0.00    -0.244 OA
ATOM     29  C   UNL     1      -0.084  -1.192  -2.757  0.00  0.00    +0.143 C 
BRANCH  27  30
ATOM     30  O   UNL     1       2.508  -1.258  -3.343  0.00  0.00    -0.315 OA
ATOM     31  H   UNL     1       3.426  -1.442  -3.087  0.00  0.00    +0.221 HD
ENDBRANCH  27  30
ENDBRANCH  26  27
ENDBRANCH  21  26
ENDBRANCH  19  20
ENDBRANCH  18  19
ENDBRANCH  17  18
ENDBRANCH   1  17
TORSDOF 14
