REMARK  Name = 126308
REMARK  7 active torsions:
REMARK  status: ('A' for Active; 'I' for Inactive)
REMARK    1  A    between atoms: C_2  and  O_7
REMARK    2  A    between atoms: C_3  and  O_9
REMARK    3  A    between atoms: C_4  and  N_17
REMARK    4  A    between atoms: C_5  and  O_11
REMARK    5  A    between atoms: C_6  and  C_14
REMARK    6  A    between atoms: C_14  and  O_15
REMARK    7  A    between atoms: N_17  and  C_19
REMARK                            x       y       z     vdW  Elec       q    Type
REMARK                         _______ _______ _______ _____ _____    ______ ____
ROOT
ATOM      1  O   UNL     1       2.329  -0.352   0.588  0.00  0.00    -0.324 OA
ATOM      2  C   UNL     1       3.328   1.715  -0.203  0.00  0.00    +0.186 C 
ATOM      3  C   UNL     1       4.474   0.922  -0.833  0.00  0.00    +0.171 C 
ATOM      4  C   UNL     1       2.060   0.863  -0.109  0.00  0.00    +0.219 C 
ATOM      5  C   UNL     1       4.639  -0.448  -0.175  0.00  0.00    +0.178 C 
ATOM      6  C   UNL     1       3.295  -1.161  -0.075  0.00  0.00    +0.244 C 
ENDROOT
BRANCH   2   7
ATOM      7  O   UNL     1       3.085   2.858  -1.022  0.00  0.00    -0.378 OA
ATOM      8  H   UNL     1       3.892   3.393  -1.078  0.00  0.00    +0.211 HD
ENDBRANCH   2   7
BRANCH   3   9
ATOM      9  O   UNL     1       5.694   1.649  -0.670  0.00  0.00    -0.379 OA
ATOM     10  H   UNL     1       5.606   2.523  -1.082  0.00  0.00    +0.211 HD
ENDBRANCH   3   9
BRANCH   5  11
ATOM     11  O   UNL     1       5.534  -1.217  -0.977  0.00  0.00    -0.379 OA
ATOM     12  H   UNL     1       6.387  -0.760  -1.039  0.00  0.00    +0.211 HD
ENDBRANCH   5  11
BRANCH   6  14
ATOM     13  O   UNL     1       2.785  -2.502   1.865  0.00  0.00    -0.247 OA
ATOM     14  C   UNL     1       3.386  -2.361   0.810  0.00  0.00    +0.344 C 
BRANCH  14  15
ATOM     15  O   UNL     1       4.232  -3.281   0.285  0.00  0.00    -0.478 OA
ATOM     16  H   UNL     1       4.662  -3.110  -0.530  0.00  0.00    +0.295 HD
ENDBRANCH  14  15
ENDBRANCH   6  14
BRANCH   4  17
ATOM     17  N   UNL     1       1.041   1.603   0.604  0.00  0.00    -0.309 N 
ATOM     18  H   UNL     1       1.318   2.359   1.172  0.00  0.00    +0.149 HD
BRANCH  17  19
ATOM     19  C   UNL     1      -0.334   1.288   0.521  0.00  0.00    +0.046 C 
ATOM     20  C   UNL     1      -2.106  -0.056  -0.332  0.00  0.00    -0.003 C 
ATOM     21  C   UNL     1      -3.046   0.709   0.393  0.00  0.00    -0.004 C 
ATOM     22  C   UNL     1      -2.803  -1.148  -1.116  0.00  0.00    -0.018 C 
ATOM     23  C   UNL     1      -0.751   0.222  -0.278  0.00  0.00    +0.014 C 
ATOM     24  C   UNL     1      -4.369   0.181   0.136  0.00  0.00    -0.014 C 
ATOM     25  C   UNL     1      -4.253  -0.913  -0.750  0.00  0.00    +0.066 C 
ATOM     26  C   UNL     1      -1.264   2.053   1.245  0.00  0.00    +0.014 C 
ATOM     27  C   UNL     1      -2.632   1.767   1.185  0.00  0.00    +0.001 C 
ATOM     28  C   UNL     1      -5.610   0.578   0.605  0.00  0.00    -0.004 C 
ATOM     29  C   UNL     1      -5.365  -1.620  -1.176  0.00  0.00    -0.018 C 
ATOM     30  C   UNL     1      -6.737  -0.131   0.180  0.00  0.00    -0.001 C 
ATOM     31  C   UNL     1      -6.615  -1.219  -0.702  0.00  0.00    -0.004 C 
ENDBRANCH  17  19
ENDBRANCH   4  17
TORSDOF 7
