126466
  -OEChem-03292013323D

 43 46  0     1  0  0  0  0  0999 V2000
    1.2987    2.4128    2.5185 F   0  0  0  0  0  0  0  0  0  0  0  0
    3.4367   -1.3556    0.4506 O   0  0  0  0  0  0  0  0  0  0  0  0
    5.0224   -2.0734   -2.0307 O   0  0  0  0  0  0  0  0  0  0  0  0
    5.2108   -0.6937    2.5158 O   0  0  0  0  0  0  0  0  0  0  0  0
    0.3762   -0.2638   -2.0906 O   0  0  0  0  0  0  0  0  0  0  0  0
   -0.9569    2.8354    1.1345 O   0  0  0  0  0  0  0  0  0  0  0  0
   -3.7212   -2.0710    1.5963 O   0  0  0  0  0  0  0  0  0  0  0  0
   -1.7157    2.2015   -2.0887 O   0  0  0  0  0  0  0  0  0  0  0  0
   -5.8510   -1.7880    0.5048 O   0  0  0  0  0  0  0  0  0  0  0  0
    1.7223    0.1321   -0.2435 N   0  0  0  0  0  0  0  0  0  0  0  0
   -0.3898    1.2218   -0.4638 N   0  0  0  0  0  0  0  0  0  0  0  0
    5.0347   -0.8890   -1.2373 C   0  0  1  0  0  0  0  0  0  0  0  0
    2.7450   -0.7863   -0.6730 C   0  0  1  0  0  0  0  0  0  0  0  0
    3.7906   -0.0808   -1.5228 C   0  0  0  0  0  0  0  0  0  0  0  0
    4.8575   -1.2794    0.2225 C   0  0  1  0  0  0  0  0  0  0  0  0
    5.4321   -0.2501    1.1870 C   0  0  0  0  0  0  0  0  0  0  0  0
    0.5561    0.3096   -1.0110 C   0  0  0  0  0  0  0  0  0  0  0  0
    1.9473    0.8304    0.9193 C   0  0  0  0  0  0  0  0  0  0  0  0
    1.0784    1.7189    1.3868 C   0  0  0  0  0  0  0  0  0  0  0  0
   -0.1840    1.9913    0.6856 C   0  0  0  0  0  0  0  0  0  0  0  0
   -1.5942    1.4350   -1.1349 C   0  0  0  0  0  0  0  0  0  0  0  0
   -2.7514    0.5931   -0.7224 C   0  0  0  0  0  0  0  0  0  0  0  0
   -2.5864   -0.3486    0.2904 C   0  0  0  0  0  0  0  0  0  0  0  0
   -3.6865   -1.1056    0.6376 C   0  0  0  0  0  0  0  0  0  0  0  0
   -3.9876    0.7628   -1.3616 C   0  0  0  0  0  0  0  0  0  0  0  0
   -4.9027   -0.9441    0.0144 C   0  0  0  0  0  0  0  0  0  0  0  0
   -5.0858   -0.0168   -0.9907 C   0  0  0  0  0  0  0  0  0  0  0  0
   -5.0956   -2.4985    1.5070 C   0  0  0  0  0  0  0  0  0  0  0  0
    5.9610   -0.3475   -1.4494 H   0  0  0  0  0  0  0  0  0  0  0  0
    2.2931   -1.6147   -1.2316 H   0  0  0  0  0  0  0  0  0  0  0  0
    3.9405    0.9558   -1.1977 H   0  0  0  0  0  0  0  0  0  0  0  0
    3.5054   -0.0674   -2.5795 H   0  0  0  0  0  0  0  0  0  0  0  0
    5.2679   -2.2706    0.4461 H   0  0  0  0  0  0  0  0  0  0  0  0
    4.9880    0.7420    1.0740 H   0  0  0  0  0  0  0  0  0  0  0  0
    6.5126   -0.1526    1.0423 H   0  0  0  0  0  0  0  0  0  0  0  0
    5.8134   -2.5885   -1.7965 H   0  0  0  0  0  0  0  0  0  0  0  0
    2.8589    0.6626    1.4701 H   0  0  0  0  0  0  0  0  0  0  0  0
    4.2536   -0.8210    2.6292 H   0  0  0  0  0  0  0  0  0  0  0  0
   -1.6502   -0.5157    0.8095 H   0  0  0  0  0  0  0  0  0  0  0  0
   -4.1176    1.4984   -2.1512 H   0  0  0  0  0  0  0  0  0  0  0  0
   -6.0456    0.1072   -1.4791 H   0  0  0  0  0  0  0  0  0  0  0  0
   -5.5745   -2.3461    2.4810 H   0  0  0  0  0  0  0  0  0  0  0  0
   -5.1155   -3.5681    1.2686 H   0  0  0  0  0  0  0  0  0  0  0  0
  1 19  1  0  0  0  0
  2 13  1  0  0  0  0
  2 15  1  0  0  0  0
  3 12  1  0  0  0  0
  3 36  1  0  0  0  0
  4 16  1  0  0  0  0
  4 38  1  0  0  0  0
  5 17  2  0  0  0  0
  6 20  2  0  0  0  0
  7 24  1  0  0  0  0
  7 28  1  0  0  0  0
  8 21  2  0  0  0  0
  9 26  1  0  0  0  0
  9 28  1  0  0  0  0
 10 13  1  0  0  0  0
 10 17  1  0  0  0  0
 10 18  1  0  0  0  0
 11 17  1  0  0  0  0
 11 20  1  0  0  0  0
 11 21  1  0  0  0  0
 12 14  1  0  0  0  0
 12 15  1  0  0  0  0
 12 29  1  0  0  0  0
 13 14  1  0  0  0  0
 13 30  1  0  0  0  0
 14 31  1  0  0  0  0
 14 32  1  0  0  0  0
 15 16  1  0  0  0  0
 15 33  1  0  0  0  0
 16 34  1  0  0  0  0
 16 35  1  0  0  0  0
 18 19  2  0  0  0  0
 18 37  1  0  0  0  0
 19 20  1  0  0  0  0
 21 22  1  0  0  0  0
 22 23  2  0  0  0  0
 22 25  1  0  0  0  0
 23 24  1  0  0  0  0
 23 39  1  0  0  0  0
 24 26  2  0  0  0  0
 25 27  2  0  0  0  0
 25 40  1  0  0  0  0
 26 27  1  0  0  0  0
 27 41  1  0  0  0  0
 28 42  1  0  0  0  0
 28 43  1  0  0  0  0
M  END
> <PUBCHEM_COMPOUND_CID>
126466

> <PUBCHEM_CONFORMER_RMSD>
0.8

> <PUBCHEM_CONFORMER_DIVERSEORDER>
1
38
82
19
55
63
5
46
79
43
35
91
40
84
85
100
80
87
88
52
13
92
61
96
20
99
41
8
53
17
94
69
70
42
59
10
56
3
6
74
65
78
18
97
62
30
98
33
47
68
26
44
7
77
49
93
51
29
45
67
21
83
15
39
60
31
90
81
57
28
50
24
73
54
14
89
36
86
76
25
48
71
27
22
32
2
37
75
72
58
12
16
66
34
64
23
11
9
95
4

> <PUBCHEM_MMFF94_PARTIAL_CHARGES>
33
1 -0.15
10 -0.47
11 -0.18
12 0.28
13 0.58
15 0.28
16 0.28
17 0.69
18 -0.04
19 0.16
2 -0.56
20 0.62
21 0.54
22 0.09
23 -0.15
24 0.08
25 -0.15
26 0.08
27 -0.15
28 0.56
3 -0.68
36 0.4
37 0.15
38 0.4
39 0.15
4 -0.68
40 0.15
41 0.15
5 -0.57
6 -0.57
7 -0.36
8 -0.57
9 -0.36

> <PUBCHEM_EFFECTIVE_ROTOR_COUNT>
5.6

> <PUBCHEM_PHARMACOPHORE_FEATURES>
14
1 2 acceptor
1 3 acceptor
1 3 donor
1 4 acceptor
1 4 donor
1 5 acceptor
1 6 acceptor
1 7 acceptor
1 8 acceptor
1 9 acceptor
5 2 12 13 14 15 rings
5 7 9 24 26 28 rings
6 10 11 17 18 19 20 rings
6 22 23 24 25 26 27 rings

> <PUBCHEM_HEAVY_ATOM_COUNT>
28

> <PUBCHEM_ATOM_DEF_STEREO_COUNT>
3

> <PUBCHEM_ATOM_UDEF_STEREO_COUNT>
0

> <PUBCHEM_BOND_DEF_STEREO_COUNT>
0

> <PUBCHEM_BOND_UDEF_STEREO_COUNT>
0

> <PUBCHEM_ISOTOPIC_ATOM_COUNT>
0

> <PUBCHEM_COMPONENT_COUNT>
1

> <PUBCHEM_CACTVS_TAUTO_COUNT>
1

> <PUBCHEM_CONFORMER_ID>
0001EE0200000001

> <PUBCHEM_MMFF94_ENERGY>
84.7347

> <PUBCHEM_FEATURE_SELFOVERLAP>
71.215

> <PUBCHEM_SHAPE_FINGERPRINT>
10693767 8 15357964664627484354
10764073 3 12604913897935226612
11796584 16 18187643578935784855
11991303 11 17696495991010781153
12236239 1 16008749078822204853
12422481 6 15912780374859793248
12596602 18 15841546388436248295
12633257 1 17560809878627718087
12788726 201 16806154459471452389
13103583 49 17774182161786633859
13140716 1 16984588892995069080
13383661 66 18120125902933129330
13402501 40 18335706057058860267
13544653 18 18272654523639205036
13782708 43 18339642356236796155
13965767 371 14547089094519116179
14251751 18 18113328717717216466
14251764 30 18131082514728210638
14840074 17 17131542942731683496
14950920 106 17416420946901750675
15183329 4 17168145628558503655
15250474 111 17313377886083212642
17349148 13 14273731824904309356
1813 80 17203619176642917508
18785283 64 18057311997860149440
20028762 73 17346310561838774943
20642791 268 15769486633982155064
20739085 24 16773803601745421280
21521239 73 15140678089882307568
21623969 137 18201432606268531050
21756936 100 11527656458513978014
22182313 1 17559374900074132560
22393880 68 15574981888840920727
23559900 14 17968656155156934781
2838139 119 9295011202399736403
3004659 81 17822016410573348110
329604 57 17821733857280219058
437795 51 18129386080683559032
439807 62 17023189366276022707
513202 73 17130164004588980318
5326457 24 17241315864239782514
6823239 73 18114737239420523209
7495541 125 18334856138812315620
7918774 8 18201168692917539934
8863177 126 18266745869012559819

> <PUBCHEM_SHAPE_MULTIPOLES>
512.04
13.21
2.45
2.12
1.43
0.16
0.4
-10.58
-0.09
-2.09
0.89
2
0.44
2.19

> <PUBCHEM_SHAPE_SELFOVERLAP>
1131.137

> <PUBCHEM_SHAPE_VOLUME>
275.2

> <PUBCHEM_COORDINATE_TYPE>
2
5
10

$$$$
