REMARK  Name = 126456021
REMARK  4 active torsions:
REMARK  status: ('A' for Active; 'I' for Inactive)
REMARK    1  A    between atoms: C_4  and  O_33
REMARK    2  A    between atoms: C_5  and  O_35
REMARK    3  A    between atoms: C_6  and  O_37
REMARK    4  A    between atoms: C_25  and  O_39
REMARK                            x       y       z     vdW  Elec       q    Type
REMARK                         _______ _______ _______ _____ _____    ______ ____
ROOT
ATOM      1  O   UNL     1      -4.207  -0.830   1.937  0.00  0.00    -0.289 OA
ATOM      2  O   UNL     1       5.340   2.887   0.631  0.00  0.00    -0.270 OA
ATOM      3  N   UNL     1       5.448   1.113  -0.865  0.00  0.00    -0.300 N 
ATOM      4  C   UNL     1      -6.229   0.354  -0.024  0.00  0.00    +0.176 C 
ATOM      5  C   UNL     1      -5.382   0.940  -1.175  0.00  0.00    +0.162 C 
ATOM      6  C   UNL     1      -5.956  -1.122   0.300  0.00  0.00    +0.202 C 
ATOM      7  C   UNL     1       6.868  -0.489   0.427  0.00  0.00    +0.042 C 
ATOM      8  C   UNL     1       6.809   0.679  -0.579  0.00  0.00    +0.094 C 
ATOM      9  C   UNL     1      -3.936   1.214  -0.833  0.00  0.00    +0.005 C 
ATOM     10  C   UNL     1      -4.607  -1.421   0.937  0.00  0.00    +0.202 C 
ATOM     11  C   UNL     1       6.519  -0.037   1.850  0.00  0.00    +0.006 C 
ATOM     12  C   UNL     1       6.066  -1.674  -0.075  0.00  0.00    -0.025 C 
ATOM     13  C   UNL     1      -3.360   2.422  -0.708  0.00  0.00    -0.002 C 
ATOM     14  C   UNL     1      -3.800  -2.497   0.294  0.00  0.00    +0.040 C 
ATOM     15  C   UNL     1       4.808  -1.978   0.282  0.00  0.00    -0.005 C 
ATOM     16  C   UNL     1      -1.964   2.592  -0.358  0.00  0.00    -0.005 C 
ATOM     17  C   UNL     1       4.819   2.152  -0.201  0.00  0.00    +0.249 C 
ATOM     18  C   UNL     1      -1.291   3.755  -0.231  0.00  0.00    -0.022 C 
ATOM     19  C   UNL     1      -2.478  -2.562   0.504  0.00  0.00    +0.003 C 
ATOM     20  C   UNL     1       4.064  -3.085  -0.278  0.00  0.00    -0.000 C 
ATOM     21  C   UNL     1       3.383   2.263  -0.599  0.00  0.00    +0.094 C 
ATOM     22  C   UNL     1       0.107   3.778   0.196  0.00  0.00    -0.001 C 
ATOM     23  C   UNL     1      -1.634  -3.556  -0.126  0.00  0.00    -0.000 C 
ATOM     24  C   UNL     1      -1.866   5.131  -0.437  0.00  0.00    +0.031 C 
ATOM     25  C   UNL     1       2.480   2.972   0.100  0.00  0.00    +0.138 C 
ATOM     26  C   UNL     1       2.751  -3.253  -0.052  0.00  0.00    -0.000 C 
ATOM     27  C   UNL     1       1.078   2.990  -0.298  0.00  0.00    +0.036 C 
ATOM     28  C   UNL     1       0.636  -4.489  -0.634  0.00  0.00    -0.022 C 
ATOM     29  C   UNL     1      -0.295  -3.548  -0.011  0.00  0.00    -0.004 C 
ATOM     30  C   UNL     1       1.978  -4.332  -0.637  0.00  0.00    -0.004 C 
ATOM     31  C   UNL     1       0.048  -5.696  -1.326  0.00  0.00    +0.031 C 
ATOM     32  H   UNL     1       4.948   0.641  -1.569  0.00  0.00    +0.150 HD
ENDROOT
BRANCH   4  33
ATOM     33  O   UNL     1      -6.087   1.142   1.160  0.00  0.00    -0.379 OA
ATOM     34  H   UNL     1      -6.260   2.073   0.952  0.00  0.00    +0.211 HD
ENDBRANCH   4  33
BRANCH   5  35
ATOM     35  O   UNL     1      -6.027   2.121  -1.662  0.00  0.00    -0.377 OA
ATOM     36  H   UNL     1      -6.952   1.920  -1.874  0.00  0.00    +0.211 HD
ENDBRANCH   5  35
BRANCH   6  37
ATOM     37  O   UNL     1      -6.920  -1.588   1.241  0.00  0.00    -0.375 OA
ATOM     38  H   UNL     1      -7.813  -1.427   0.896  0.00  0.00    +0.211 HD
ENDBRANCH   6  37
BRANCH  25  39
ATOM     39  O   UNL     1       2.836   3.652   1.249  0.00  0.00    -0.505 OA
ATOM     40  H   UNL     1       3.730   3.660   1.531  0.00  0.00    +0.292 HD
ENDBRANCH  25  39
TORSDOF 4
