REMARK  Name = 126413
REMARK  4 active torsions:
REMARK  status: ('A' for Active; 'I' for Inactive)
REMARK    1  A    between atoms: C_3  and  N_15
REMARK    2  A    between atoms: C_6  and  S_11
REMARK    3  A    between atoms: N_15  and  C_17
REMARK    4  A    between atoms: C_19  and  N_24
REMARK                            x       y       z     vdW  Elec       q    Type
REMARK                         _______ _______ _______ _____ _____    ______ ____
ROOT
ATOM      1  C   UNL     1      -1.582  -0.393   0.452  0.00  0.00    +0.001 C 
ATOM      2  C   UNL     1      -2.480  -1.036  -0.433  0.00  0.00    +0.001 C 
ATOM      3  C   UNL     1       0.161  -1.961  -0.198  0.00  0.00    +0.048 C 
ATOM      4  C   UNL     1      -0.264  -0.868   0.558  0.00  0.00    +0.015 C 
ATOM      5  C   UNL     1      -3.797  -0.561  -0.539  0.00  0.00    +0.019 C 
ATOM      6  C   UNL     1      -4.223   0.532   0.217  0.00  0.00    +0.112 C 
ATOM      7  C   UNL     1      -2.035  -2.135  -1.185  0.00  0.00    +0.001 C 
ATOM      8  C   UNL     1      -2.027   0.706   1.204  0.00  0.00    +0.001 C 
ATOM      9  C   UNL     1      -0.722  -2.593  -1.067  0.00  0.00    +0.015 C 
ATOM     10  C   UNL     1      -3.339   1.164   1.087  0.00  0.00    +0.019 C 
ENDROOT
BRANCH   6  11
ATOM     11  S   UNL     1      -5.865   1.108   0.071  0.00  0.00    +0.042 S 
ATOM     12  O   UNL     1      -5.825   2.224  -1.123  0.00  0.00    -0.065 OA
ATOM     13  O   UNL     1      -6.687   0.005  -0.406  0.00  0.00    -0.065 OA
ATOM     14  O   UNL     1      -6.187   1.789   1.315  0.00  0.00    -0.065 OA
ENDBRANCH   6  11
BRANCH   3  15
ATOM     15  N   UNL     1       1.488  -2.427  -0.079  0.00  0.00    -0.312 N 
ATOM     16  H   UNL     1       1.592  -3.404  -0.136  0.00  0.00    +0.152 HD
BRANCH  15  17
ATOM     17  C   UNL     1       2.651  -1.730   0.102  0.00  0.00    +0.050 C 
ATOM     18  C   UNL     1       2.763  -0.367  -0.270  0.00  0.00    +0.029 C 
ATOM     19  C   UNL     1       3.950   0.343  -0.086  0.00  0.00    +0.052 C 
ATOM     20  C   UNL     1       3.798  -2.339   0.667  0.00  0.00    +0.015 C 
ATOM     21  C   UNL     1       5.060  -0.289   0.474  0.00  0.00    +0.015 C 
ATOM     22  C   UNL     1       4.984  -1.630   0.850  0.00  0.00    +0.003 C 
BRANCH  19  24
ATOM     23  O   UNL     1       6.235   2.295   0.088  0.00  0.00    -0.275 OA
ATOM     24  N   UNL     1       4.026   1.684  -0.463  0.00  0.00    -0.284 N 
ATOM     25  C   UNL     1       5.121   2.551  -0.357  0.00  0.00    +0.227 C 
ATOM     26  C   UNL     1       4.796   3.928  -0.879  0.00  0.00    +0.095 C 
ATOM     27  H   UNL     1       3.208   2.069  -0.852  0.00  0.00    +0.155 HD
ENDBRANCH  19  24
ENDBRANCH  15  17
ENDBRANCH   3  15
TORSDOF 4
