126456462
  -OEChem-03292013293D

 51 53  0     1  0  0  0  0  0999 V2000
    0.1163    3.1723   -1.6849 O   0  0  0  0  0  0  0  0  0  0  0  0
    1.9539    1.4539    0.9477 O   0  0  0  0  0  0  0  0  0  0  0  0
    3.2584    3.9095    0.9172 O   0  0  0  0  0  0  0  0  0  0  0  0
    1.1154    5.5643    1.6189 O   0  0  0  0  0  0  0  0  0  0  0  0
    1.8604   -4.2792    1.3421 O   0  5  0  0  0  0  0  0  0  0  0  0
    4.7266   -1.6924   -1.0537 O   0  0  0  0  0  0  0  0  0  0  0  0
    0.2899   -0.3944   -0.8939 N   0  0  0  0  0  0  0  0  0  0  0  0
   -0.0952   -2.6750    0.7325 N   0  0  0  0  0  0  0  0  0  0  0  0
   -4.4920    0.6077   -0.4316 N   0  0  0  0  0  0  0  0  0  0  0  0
    2.5806   -1.0535   -0.9864 N   0  0  0  0  0  0  0  0  0  0  0  0
    3.4145   -3.0476    0.1549 N   0  0  0  0  0  0  0  0  0  0  0  0
    0.4519    2.0543   -0.8621 C   0  0  1  0  0  0  0  0  0  0  0  0
    0.4570    0.7918   -1.7321 C   0  0  0  0  0  0  0  0  0  0  0  0
    1.8117    2.3125   -0.1829 C   0  0  1  0  0  0  0  0  0  0  0  0
   -0.9977   -0.6821   -0.3946 C   0  0  0  0  0  0  0  0  0  0  0  0
    1.9862    3.7711    0.2810 C   0  0  1  0  0  0  0  0  0  0  0  0
    1.3583   -1.2258   -0.5850 C   0  0  0  0  0  0  0  0  0  0  0  0
   -1.1637   -1.8235    0.4134 C   0  0  0  0  0  0  0  0  0  0  0  0
   -2.1313    0.1093   -0.6583 C   0  0  0  0  0  0  0  0  0  0  0  0
   -3.3856   -0.2202   -0.1381 C   0  0  0  0  0  0  0  0  0  0  0  0
    0.9018    4.2006    1.2680 C   0  0  0  0  0  0  0  0  0  0  0  0
    1.0975   -2.4289    0.2844 C   0  0  0  0  0  0  0  0  0  0  0  0
   -3.5343   -1.3486    0.6571 C   0  0  0  0  0  0  0  0  0  0  0  0
   -2.4275   -2.1463    0.9311 C   0  0  0  0  0  0  0  0  0  0  0  0
   -4.8610   -1.7276    1.2283 C   0  0  0  0  0  0  0  0  0  0  0  0
    2.2486   -3.3438    0.6257 C   0  0  0  0  0  0  0  0  0  0  0  0
   -4.8274    1.7163    0.4380 C   0  0  0  0  0  0  0  0  0  0  0  0
   -5.3072    0.3521   -1.6010 C   0  0  0  0  0  0  0  0  0  0  0  0
    3.5939   -1.9267   -0.6358 C   0  0  0  0  0  0  0  0  0  0  0  0
   -0.3190    1.9959   -0.0881 H   0  0  0  0  0  0  0  0  0  0  0  0
   -0.3154    0.8364   -2.5109 H   0  0  0  0  0  0  0  0  0  0  0  0
    1.3902    0.7440   -2.3083 H   0  0  0  0  0  0  0  0  0  0  0  0
    2.6384    2.0926   -0.8704 H   0  0  0  0  0  0  0  0  0  0  0  0
    1.9984    4.4497   -0.5794 H   0  0  0  0  0  0  0  0  0  0  0  0
   -2.0718    0.9967   -1.2827 H   0  0  0  0  0  0  0  0  0  0  0  0
   -0.1020    4.1206    0.8437 H   0  0  0  0  0  0  0  0  0  0  0  0
    0.9539    3.6149    2.1915 H   0  0  0  0  0  0  0  0  0  0  0  0
   -2.5340   -3.0323    1.5542 H   0  0  0  0  0  0  0  0  0  0  0  0
    0.7856    3.2332   -2.3880 H   0  0  0  0  0  0  0  0  0  0  0  0
    2.3845    0.6383    0.6449 H   0  0  0  0  0  0  0  0  0  0  0  0
    3.3392    4.8337    1.2092 H   0  0  0  0  0  0  0  0  0  0  0  0
   -5.1871   -0.9876    1.9656 H   0  0  0  0  0  0  0  0  0  0  0  0
   -5.6174   -1.8163    0.4423 H   0  0  0  0  0  0  0  0  0  0  0  0
   -4.8198   -2.6971    1.7374 H   0  0  0  0  0  0  0  0  0  0  0  0
   -5.5103    2.4179   -0.0530 H   0  0  0  0  0  0  0  0  0  0  0  0
   -3.9305    2.2794    0.7191 H   0  0  0  0  0  0  0  0  0  0  0  0
   -6.3173    0.7577   -1.4796 H   0  0  0  0  0  0  0  0  0  0  0  0
   -5.4078   -0.7214   -1.7944 H   0  0  0  0  0  0  0  0  0  0  0  0
   -4.8556    0.8180   -2.4829 H   0  0  0  0  0  0  0  0  0  0  0  0
   -5.3119    1.3585    1.3516 H   0  0  0  0  0  0  0  0  0  0  0  0
    0.4188    5.8082    2.2521 H   0  0  0  0  0  0  0  0  0  0  0  0
  1 12  1  0  0  0  0
  1 39  1  0  0  0  0
  2 14  1  0  0  0  0
  2 40  1  0  0  0  0
  3 16  1  0  0  0  0
  3 41  1  0  0  0  0
  4 21  1  0  0  0  0
  4 51  1  0  0  0  0
  5 26  1  0  0  0  0
  6 29  2  0  0  0  0
  7 13  1  0  0  0  0
  7 15  1  0  0  0  0
  7 17  1  0  0  0  0
  8 18  1  0  0  0  0
  8 22  2  0  0  0  0
  9 20  1  0  0  0  0
  9 27  1  0  0  0  0
  9 28  1  0  0  0  0
 10 17  2  0  0  0  0
 10 29  1  0  0  0  0
 11 26  2  0  0  0  0
 11 29  1  0  0  0  0
 12 13  1  0  0  0  0
 12 14  1  0  0  0  0
 12 30  1  0  0  0  0
 13 31  1  0  0  0  0
 13 32  1  0  0  0  0
 14 16  1  0  0  0  0
 14 33  1  0  0  0  0
 15 18  2  0  0  0  0
 15 19  1  0  0  0  0
 16 21  1  0  0  0  0
 16 34  1  0  0  0  0
 17 22  1  0  0  0  0
 18 24  1  0  0  0  0
 19 20  2  0  0  0  0
 19 35  1  0  0  0  0
 20 23  1  0  0  0  0
 21 36  1  0  0  0  0
 21 37  1  0  0  0  0
 22 26  1  0  0  0  0
 23 24  2  0  0  0  0
 23 25  1  0  0  0  0
 24 38  1  0  0  0  0
 25 42  1  0  0  0  0
 25 43  1  0  0  0  0
 25 44  1  0  0  0  0
 27 45  1  0  0  0  0
 27 46  1  0  0  0  0
 27 50  1  0  0  0  0
 28 47  1  0  0  0  0
 28 48  1  0  0  0  0
 28 49  1  0  0  0  0
M  CHG  1   5  -1
M  END
> <PUBCHEM_COMPOUND_CID>
126456462

> <PUBCHEM_CONFORMER_RMSD>
0.8

> <PUBCHEM_CONFORMER_DIVERSEORDER>
1
21
17
48
51
18
49
2
19
22
29
41
27
46
45
11
40
31
5
39
38
8
33
6
35
44
52
14
15
54
30
32
4
28
50
3
12
53
26
37
24
55
20
43
7
9
42
25
10
16
13
36
34
23
47

> <PUBCHEM_MMFF94_PARTIAL_CHARGES>
35
1 -0.68
10 -0.66
11 -0.66
12 0.28
13 0.37
14 0.28
15 0.1
16 0.28
17 0.5
18 0.18
19 -0.15
2 -0.68
20 0.1
21 0.28
22 0.45
23 -0.14
24 -0.15
25 0.14
26 0.31
27 0.37
28 0.37
29 0.99
3 -0.68
35 0.15
38 0.15
39 0.4
4 -0.68
40 0.4
41 0.4
5 -0.86
51 0.4
6 -0.57
7 -0.52
8 -0.63
9 -0.84

> <PUBCHEM_EFFECTIVE_ROTOR_COUNT>
6

> <PUBCHEM_PHARMACOPHORE_FEATURES>
16
1 1 acceptor
1 1 donor
1 10 donor
1 11 donor
1 2 acceptor
1 2 donor
1 3 acceptor
1 3 donor
1 4 acceptor
1 4 donor
1 6 acceptor
1 8 acceptor
1 9 cation
6 10 11 17 22 26 29 rings
6 15 18 19 20 23 24 rings
6 7 8 15 17 18 22 rings

> <PUBCHEM_HEAVY_ATOM_COUNT>
29

> <PUBCHEM_ATOM_DEF_STEREO_COUNT>
3

> <PUBCHEM_ATOM_UDEF_STEREO_COUNT>
0

> <PUBCHEM_BOND_DEF_STEREO_COUNT>
0

> <PUBCHEM_BOND_UDEF_STEREO_COUNT>
0

> <PUBCHEM_ISOTOPIC_ATOM_COUNT>
0

> <PUBCHEM_COMPONENT_COUNT>
1

> <PUBCHEM_CACTVS_TAUTO_COUNT>
2

> <PUBCHEM_CONFORMER_ID>
0789928E00000001

> <PUBCHEM_MMFF94_ENERGY>
117.6068

> <PUBCHEM_FEATURE_SELFOVERLAP>
81.305

> <PUBCHEM_SHAPE_FINGERPRINT>
10006869 2 17980189786696488100
1100329 8 18051418366142466289
11582403 64 17413319318228647492
12173636 292 17403733844630205956
12293681 160 18191335761126606782
12788726 201 17905895777412818302
12954195 1 17833852473343618534
13134695 92 18340483366081872231
13140716 1 18335416923669449526
13583140 156 18411419553176159887
14347329 18 16300060196687621693
14790565 3 18042987504459105854
14866123 147 16535385160781333859
14955137 171 18196959715468085295
15230672 131 17903359548819813356
15775530 1 18046033035398817821
17138139 8 16752356274304606653
17980427 23 17917155975082847777
20510252 161 17829325783233033774
20600515 1 18119262665939674055
20642791 105 16959268977872823223
21731228 192 17763180645453714424
22182313 1 17895749729584188023
23559900 14 18409442588351465267
283562 15 17903919955091895434
345986 75 17610331654335131267
350125 39 18115325435809050883
352729 6 17108760185166541463
5104073 3 17895483518330852267
5171179 24 17764329610121407502
5265222 85 17542802244977304796
532947 4 18338792428761890076
57124632 79 18265612267769880393
6004065 56 18339624682113921175
79837 15 17616533303652866642
9981440 41 17976528731193918993

> <PUBCHEM_SHAPE_MULTIPOLES>
536.69
8.24
6.38
1.43
9.19
5.76
0.15
-1.42
0.42
-7.9
-3.54
0.16
0.69
1.74

> <PUBCHEM_SHAPE_SELFOVERLAP>
1147.112

> <PUBCHEM_SHAPE_VOLUME>
295.4

> <PUBCHEM_COORDINATE_TYPE>
2
5
10

$$$$
