REMARK  Name = 126437
REMARK  4 active torsions:
REMARK  status: ('A' for Active; 'I' for Inactive)
REMARK    1  A    between atoms: C_2  and  C_6
REMARK    2  A    between atoms: C_3  and  C_18
REMARK    3  A    between atoms: C_9  and  C_14
REMARK    4  A    between atoms: C_21  and  C_26
REMARK                            x       y       z     vdW  Elec       q    Type
REMARK                         _______ _______ _______ _____ _____    ______ ____
ROOT
ATOM      1  O   UNL     1       0.003  -0.549   0.002  0.00  0.00    -0.453 OA
ATOM      2  C   UNL     1       1.087  -1.364   0.003  0.00  0.00    +0.145 C 
ATOM      3  C   UNL     1      -1.087  -1.361   0.000  0.00  0.00    +0.145 C 
ATOM      4  C   UNL     1       0.711  -2.682   0.001  0.00  0.00    +0.041 C 
ATOM      5  C   UNL     1      -0.704  -2.683  -0.001  0.00  0.00    +0.041 C 
ENDROOT
BRANCH   2   6
ATOM      6  C   UNL     1       2.361  -0.687   0.003  0.00  0.00    +0.035 C 
ATOM      7  C   UNL     1       3.543  -1.427   0.000  0.00  0.00    +0.003 C 
ATOM      8  C   UNL     1       2.410   0.707   0.003  0.00  0.00    +0.003 C 
ATOM      9  C   UNL     1       4.824   0.622  -0.001  0.00  0.00    +0.031 C 
ATOM     10  C   UNL     1       4.775  -0.773  -0.001  0.00  0.00    +0.003 C 
ATOM     11  C   UNL     1       3.642   1.361   0.002  0.00  0.00    +0.003 C 
BRANCH   9  14
ATOM     12  N   UNL     1       7.307   0.593  -0.005  0.00  0.00    -0.343 N 
ATOM     13  N   UNL     1       6.153   2.624   0.002  0.00  0.00    -0.285 NA
ATOM     14  C   UNL     1       6.109   1.304  -0.003  0.00  0.00    +0.117 C 
ATOM     15  H   UNL     1       8.166   1.075  -0.007  0.00  0.00    +0.144 HD
ATOM     16  H   UNL     1       7.296  -0.392  -0.005  0.00  0.00    +0.144 HD
ATOM     17  H   UNL     1       7.021   3.088   0.001  0.00  0.00    +0.188 HD
ENDBRANCH   9  14
ENDBRANCH   2   6
BRANCH   3  18
ATOM     18  C   UNL     1      -2.355  -0.689  -0.001  0.00  0.00    +0.035 C 
ATOM     19  C   UNL     1      -3.543  -1.427  -0.003  0.00  0.00    +0.003 C 
ATOM     20  C   UNL     1      -2.412   0.708   0.001  0.00  0.00    +0.003 C 
ATOM     21  C   UNL     1      -4.826   0.621   0.000  0.00  0.00    +0.031 C 
ATOM     22  C   UNL     1      -4.776  -0.773  -0.002  0.00  0.00    +0.003 C 
ATOM     23  C   UNL     1      -3.644   1.361   0.001  0.00  0.00    +0.003 C 
BRANCH  21  26
ATOM     24  N   UNL     1      -7.309   0.590   0.000  0.00  0.00    -0.343 N 
ATOM     25  N   UNL     1      -6.156   2.622  -0.002  0.00  0.00    -0.285 NA
ATOM     26  C   UNL     1      -6.111   1.302   0.001  0.00  0.00    +0.117 C 
ATOM     27  H   UNL     1      -8.168   1.071   0.000  0.00  0.00    +0.144 HD
ATOM     28  H   UNL     1      -7.297  -0.395  -0.002  0.00  0.00    +0.144 HD
ATOM     29  H   UNL     1      -7.025   3.085  -0.001  0.00  0.00    +0.188 HD
ENDBRANCH  21  26
ENDBRANCH   3  18
TORSDOF 4
