REMARK  Name = 126448
REMARK  7 active torsions:
REMARK  status: ('A' for Active; 'I' for Inactive)
REMARK    1  A    between atoms: C_1  and  S_7
REMARK    2  A    between atoms: C_4  and  N_15
REMARK    3  A    between atoms: S_7  and  N_10
REMARK    4  A    between atoms: N_10  and  N_12
REMARK    5  A    between atoms: N_15  and  N_16
REMARK    6  A    between atoms: N_16  and  C_20
REMARK    7  A    between atoms: C_17  and  N_23
REMARK                            x       y       z     vdW  Elec       q    Type
REMARK                         _______ _______ _______ _____ _____    ______ ____
ROOT
ATOM      1  C   UNL     1      -3.771  -0.065  -0.341  0.00  0.00    +0.123 C 
ATOM      2  C   UNL     1      -3.077   1.115  -0.608  0.00  0.00    +0.021 C 
ATOM      3  C   UNL     1      -3.075  -1.263  -0.183  0.00  0.00    +0.021 C 
ATOM      4  C   UNL     1      -0.997  -0.102  -0.559  0.00  0.00    +0.089 C 
ATOM      5  C   UNL     1      -1.686   1.097  -0.718  0.00  0.00    +0.019 C 
ATOM      6  C   UNL     1      -1.684  -1.282  -0.293  0.00  0.00    +0.019 C 
ENDROOT
BRANCH   1   7
ATOM      7  S   UNL     1      -5.511  -0.042  -0.203  0.00  0.00    +0.072 S 
ATOM      8  O   UNL     1      -6.018  -1.377  -0.501  0.00  0.00    -0.152 OA
ATOM      9  O   UNL     1      -6.000   1.100  -0.966  0.00  0.00    -0.152 OA
BRANCH   7  10
ATOM     10  N   UNL     1      -5.694   0.258   1.483  0.00  0.00    -0.127 NA
ATOM     11  H   UNL     1      -5.230   1.131   1.737  0.00  0.00    +0.167 HD
BRANCH  10  12
ATOM     12  N   UNL     1      -7.050   0.352   1.725  0.00  0.00    -0.251 NA
ATOM     13  H   UNL     1      -7.503  -0.525   1.467  0.00  0.00    +0.138 HD
ATOM     14  H   UNL     1      -7.443   1.113   1.169  0.00  0.00    +0.138 HD
ENDBRANCH  10  12
ENDBRANCH   7  10
ENDBRANCH   1   7
BRANCH   4  15
ATOM     15  N   UNL     1       0.404  -0.120  -0.669  0.00  0.00    -0.128 NA
BRANCH  15  16
ATOM     16  N   UNL     1       0.924   0.081   0.454  0.00  0.00    -0.128 NA
BRANCH  16  20
ATOM     17  C   UNL     1       5.100   0.024   0.129  0.00  0.00    +0.048 C 
ATOM     18  C   UNL     1       4.404   1.223  -0.030  0.00  0.00    +0.016 C 
ATOM     19  C   UNL     1       4.404  -1.156   0.395  0.00  0.00    +0.016 C 
ATOM     20  C   UNL     1       2.318   0.063   0.345  0.00  0.00    +0.089 C 
ATOM     21  C   UNL     1       3.014   1.242   0.078  0.00  0.00    +0.019 C 
ATOM     22  C   UNL     1       3.014  -1.136   0.503  0.00  0.00    +0.019 C 
BRANCH  17  23
ATOM     23  N   UNL     1       6.506   0.004   0.020  0.00  0.00    -0.304 N 
ATOM     24  C   UNL     1       7.287   1.169   0.386  0.00  0.00    +0.112 C 
ATOM     25  C   UNL     1       7.189  -1.186  -0.447  0.00  0.00    +0.112 C 
ENDBRANCH  17  23
ENDBRANCH  16  20
ENDBRANCH  15  16
ENDBRANCH   4  15
TORSDOF 7
