126437
  -OEChem-03292013323D

 39 41  0     0  0  0  0  0  0999 V2000
    0.0025   -0.5491    0.0017 O   0  0  0  0  0  0  0  0  0  0  0  0
    7.3073    0.5925   -0.0051 N   0  0  0  0  0  0  0  0  0  0  0  0
   -7.3091    0.5899   -0.0004 N   0  0  0  0  0  0  0  0  0  0  0  0
    6.1526    2.6242    0.0020 N   0  0  0  0  0  0  0  0  0  0  0  0
   -6.1560    2.6224   -0.0015 N   0  0  0  0  0  0  0  0  0  0  0  0
    1.0867   -1.3637    0.0026 C   0  0  0  0  0  0  0  0  0  0  0  0
   -1.0868   -1.3612   -0.0001 C   0  0  0  0  0  0  0  0  0  0  0  0
    2.3606   -0.6874    0.0025 C   0  0  0  0  0  0  0  0  0  0  0  0
   -2.3554   -0.6892   -0.0010 C   0  0  0  0  0  0  0  0  0  0  0  0
    0.7111   -2.6821    0.0012 C   0  0  0  0  0  0  0  0  0  0  0  0
   -0.7042   -2.6825   -0.0005 C   0  0  0  0  0  0  0  0  0  0  0  0
    3.5431   -1.4269    0.0004 C   0  0  0  0  0  0  0  0  0  0  0  0
   -3.5433   -1.4265   -0.0026 C   0  0  0  0  0  0  0  0  0  0  0  0
    2.4098    0.7067    0.0029 C   0  0  0  0  0  0  0  0  0  0  0  0
   -2.4117    0.7081    0.0009 C   0  0  0  0  0  0  0  0  0  0  0  0
    4.8243    0.6215   -0.0005 C   0  0  0  0  0  0  0  0  0  0  0  0
   -4.8262    0.6209   -0.0002 C   0  0  0  0  0  0  0  0  0  0  0  0
    4.7750   -0.7726   -0.0009 C   0  0  0  0  0  0  0  0  0  0  0  0
   -4.7757   -0.7731   -0.0024 C   0  0  0  0  0  0  0  0  0  0  0  0
    3.6416    1.3611    0.0015 C   0  0  0  0  0  0  0  0  0  0  0  0
   -3.6440    1.3615    0.0013 C   0  0  0  0  0  0  0  0  0  0  0  0
    6.1086    1.3036   -0.0027 C   0  0  0  0  0  0  0  0  0  0  0  0
   -6.1110    1.3019    0.0008 C   0  0  0  0  0  0  0  0  0  0  0  0
    1.3578   -3.5479    0.0010 H   0  0  0  0  0  0  0  0  0  0  0  0
   -1.3506   -3.5488   -0.0019 H   0  0  0  0  0  0  0  0  0  0  0  0
    3.5368   -2.5138   -0.0002 H   0  0  0  0  0  0  0  0  0  0  0  0
   -3.5369   -2.5136   -0.0040 H   0  0  0  0  0  0  0  0  0  0  0  0
    1.5107    1.3178    0.0042 H   0  0  0  0  0  0  0  0  0  0  0  0
   -1.5131    1.3204    0.0024 H   0  0  0  0  0  0  0  0  0  0  0  0
    5.6630   -1.3950   -0.0022 H   0  0  0  0  0  0  0  0  0  0  0  0
   -5.6632   -1.3962   -0.0037 H   0  0  0  0  0  0  0  0  0  0  0  0
    3.6446    2.4478    0.0017 H   0  0  0  0  0  0  0  0  0  0  0  0
   -3.6478    2.4481    0.0032 H   0  0  0  0  0  0  0  0  0  0  0  0
    8.1937    1.0867   -0.0049 H   0  0  0  0  0  0  0  0  0  0  0  0
    7.3644   -0.4182   -0.0085 H   0  0  0  0  0  0  0  0  0  0  0  0
   -8.1959    1.0834   -0.0012 H   0  0  0  0  0  0  0  0  0  0  0  0
   -7.3654   -0.4208    0.0009 H   0  0  0  0  0  0  0  0  0  0  0  0
    7.1370    2.9137    0.0013 H   0  0  0  0  0  0  0  0  0  0  0  0
   -7.1406    2.9111   -0.0020 H   0  0  0  0  0  0  0  0  0  0  0  0
  1  6  1  0  0  0  0
  1  7  1  0  0  0  0
  2 22  1  0  0  0  0
  2 34  1  0  0  0  0
  2 35  1  0  0  0  0
  3 23  1  0  0  0  0
  3 36  1  0  0  0  0
  3 37  1  0  0  0  0
  4 22  2  0  0  0  0
  4 38  1  0  0  0  0
  5 23  2  0  0  0  0
  5 39  1  0  0  0  0
  6  8  1  0  0  0  0
  6 10  2  0  0  0  0
  7  9  1  0  0  0  0
  7 11  2  0  0  0  0
  8 12  2  0  0  0  0
  8 14  1  0  0  0  0
  9 13  2  0  0  0  0
  9 15  1  0  0  0  0
 10 11  1  0  0  0  0
 10 24  1  0  0  0  0
 11 25  1  0  0  0  0
 12 18  1  0  0  0  0
 12 26  1  0  0  0  0
 13 19  1  0  0  0  0
 13 27  1  0  0  0  0
 14 20  2  0  0  0  0
 14 28  1  0  0  0  0
 15 21  2  0  0  0  0
 15 29  1  0  0  0  0
 16 18  2  0  0  0  0
 16 20  1  0  0  0  0
 16 22  1  0  0  0  0
 17 19  2  0  0  0  0
 17 21  1  0  0  0  0
 17 23  1  0  0  0  0
 18 30  1  0  0  0  0
 19 31  1  0  0  0  0
 20 32  1  0  0  0  0
 21 33  1  0  0  0  0
M  END
> <PUBCHEM_COMPOUND_CID>
126437

> <PUBCHEM_CONFORMER_RMSD>
0.6

> <PUBCHEM_CONFORMER_DIVERSEORDER>
1
3
2

> <PUBCHEM_MMFF94_PARTIAL_CHARGES>
39
1 -0.28
10 -0.15
11 -0.15
12 -0.15
13 -0.15
14 -0.15
15 -0.15
16 0.09
17 0.09
18 -0.15
19 -0.15
2 -0.85
20 -0.15
21 -0.15
22 0.41
23 0.41
24 0.15
25 0.15
26 0.15
27 0.15
28 0.15
29 0.15
3 -0.85
30 0.15
31 0.15
32 0.15
33 0.15
34 0.4
35 0.4
36 0.4
37 0.4
38 0.4
39 0.4
4 -0.85
5 -0.85
6 0.09
7 0.09
8 0.05
9 0.05

> <PUBCHEM_EFFECTIVE_ROTOR_COUNT>
4

> <PUBCHEM_PHARMACOPHORE_FEATURES>
10
1 1 acceptor
1 2 donor
1 3 donor
1 4 donor
1 5 donor
3 2 4 22 cation
3 3 5 23 cation
5 1 6 7 10 11 rings
6 8 12 14 16 18 20 rings
6 9 13 15 17 19 21 rings

> <PUBCHEM_HEAVY_ATOM_COUNT>
23

> <PUBCHEM_ATOM_DEF_STEREO_COUNT>
0

> <PUBCHEM_ATOM_UDEF_STEREO_COUNT>
0

> <PUBCHEM_BOND_DEF_STEREO_COUNT>
0

> <PUBCHEM_BOND_UDEF_STEREO_COUNT>
0

> <PUBCHEM_ISOTOPIC_ATOM_COUNT>
0

> <PUBCHEM_COMPONENT_COUNT>
1

> <PUBCHEM_CACTVS_TAUTO_COUNT>
1

> <PUBCHEM_CONFORMER_ID>
0001EDE500000001

> <PUBCHEM_MMFF94_ENERGY>
66.6406

> <PUBCHEM_FEATURE_SELFOVERLAP>
50.832

> <PUBCHEM_SHAPE_FINGERPRINT>
10 15 18113903762541045417
10050765 1 18410856555499056831
10411042 1 17690279731073945699
10595046 47 18341890763078707879
12293681 160 17918276449934449403
12596602 18 17603864524508587328
12633257 1 15647060390478925706
12788726 201 17703514303032789424
12838862 33 18338780278199838816
13167372 99 18409728439620067872
13288520 33 9439403528189214835
13402501 40 18410573985152009813
13740256 8 9295288343738491159
13785724 45 17832981655749950554
14257110 125 18410573980872314597
14931854 50 17988928833800216064
14933364 13 18410577287981308263
15183329 4 18273221872388190946
15188451 53 15502949644053402091
15196674 1 18410856563934984226
15238133 3 18041287651225068636
15419008 145 18115293476973459848
15475509 35 15936961909127004130
15519825 34 16226905491798035289
15778101 99 18410576205808136515
17980427 23 18041000682721715415
18608769 82 18339646750125230587
19611394 137 17969236697269832267
20157964 124 18342177739423286518
20281389 69 18260265222438625501
20526848 3 18410577287981646060
20554085 129 17774706620523080842
21033648 144 18187638086084148463
21033648 29 18269827761360294336
21298829 104 18412267203458529849
21315764 268 18261106323243633108
21421861 104 17822556237177085810
21585482 111 18191025608295389437
22224240 67 18113054939664908243
23559900 14 18130219453939996208
270888 7 18410854364911709184
2838139 119 18341326777357621420
2916195 48 18411980299468330202
293599 30 18410574002737684102
335352 9 18411421688197087470
3411729 13 18334856074361913162
3472631 163 18342741836116768734
34797466 226 17988931037555756375
351380 3 9223230741031468361
3545911 37 18411419509593210893
4073 2 18113624520699980722
4325135 7 18342453760434888967
4340502 62 16515402958864724530
5104073 3 18113337500756934907
5283384 27 17968366876214130413
5385378 56 18261108535431508322
59682541 35 18188221961787811321
59682541 52 17417826011049941068
5969126 39 18125718139884775031
59755656 520 18113893892459013194
6327066 14 18411416228290990085
636775 72 18341327889950090168
77188 2 17400921895087668650
7808743 9 18410007775339178770
9981440 41 18261398870662195339

> <PUBCHEM_SHAPE_MULTIPOLES>
447.54
18.21
2.63
0.6
0.05
0.26
0
-14.19
-0.02
-0.01
0
0
0.02
0

> <PUBCHEM_SHAPE_SELFOVERLAP>
990.247

> <PUBCHEM_SHAPE_VOLUME>
240.7

> <PUBCHEM_COORDINATE_TYPE>
2
5
10

$$$$
