REMARK  Name = 126428
REMARK  14 active torsions:
REMARK  status: ('A' for Active; 'I' for Inactive)
REMARK    1  A    between atoms: C_1  and  C_2
REMARK    2  A    between atoms: C_1  and  C_15
REMARK    3  A    between atoms: C_2  and  C_3
REMARK    4  A    between atoms: C_3  and  O_4
REMARK    5  A    between atoms: O_4  and  P_5
REMARK    6  A    between atoms: P_5  and  O_8
REMARK    7  A    between atoms: O_8  and  C_9
REMARK    8  A    between atoms: C_9  and  C_10
REMARK    9  A    between atoms: C_10  and  N_11
REMARK   10  A    between atoms: C_15  and  C_16
REMARK   11  A    between atoms: C_16  and  C_18
REMARK   12  A    between atoms: C_18  and  O_19
REMARK   13  A    between atoms: O_19  and  C_20
REMARK   14  A    between atoms: C_25  and  N_28
REMARK                            x       y       z     vdW  Elec       q    Type
REMARK                         _______ _______ _______ _____ _____    ______ ____
ROOT
ATOM      1  C   UNL     1      -1.940  -2.585   0.339  0.00  0.00    +0.003 C 
ENDROOT
BRANCH   1   2
ATOM      2  C   UNL     1      -3.160  -2.805  -0.554  0.00  0.00    +0.033 C 
BRANCH   2   3
ATOM      3  C   UNL     1      -3.815  -1.487  -0.944  0.00  0.00    +0.154 C 
BRANCH   3   4
ATOM      4  O   UNL     1      -2.866  -0.690  -1.638  0.00  0.00    -0.272 OA
BRANCH   4   5
ATOM      5  P   UNL     1      -3.310   0.790  -2.176  0.00  0.00    +0.506 P 
ATOM      6  O   UNL     1      -2.134   1.437  -2.877  0.00  0.00    -0.116 OA
ATOM      7  O   UNL     1      -4.641   0.654  -2.884  0.00  0.00    -0.225 OA
BRANCH   5   8
ATOM      8  O   UNL     1      -3.538   1.556  -0.747  0.00  0.00    -0.274 OA
BRANCH   8   9
ATOM      9  C   UNL     1      -2.409   1.939   0.021  0.00  0.00    +0.132 C 
BRANCH   9  10
ATOM     10  C   UNL     1      -2.828   2.162   1.461  0.00  0.00    -0.040 C 
BRANCH  10  11
ATOM     11  N   UNL     1      -1.649   2.599   2.252  0.00  0.00    +0.387 N 
ATOM     12  C   UNL     1      -2.041   2.865   3.711  0.00  0.00    -0.096 C 
ATOM     13  C   UNL     1      -1.055   3.890   1.673  0.00  0.00    -0.096 C 
ATOM     14  C   UNL     1      -0.555   1.523   2.239  0.00  0.00    -0.096 C 
ENDBRANCH  10  11
ENDBRANCH   9  10
ENDBRANCH   8   9
ENDBRANCH   5   8
ENDBRANCH   4   5
ENDBRANCH   3   4
ENDBRANCH   2   3
ENDBRANCH   1   2
BRANCH   1  15
ATOM     15  C   UNL     1      -1.313  -3.917   0.760  0.00  0.00    +0.012 C 
BRANCH  15  16
ATOM     16  C   UNL     1      -0.071  -3.728   1.632  0.00  0.00    +0.110 C 
BRANCH  16  18
ATOM     17  O   UNL     1       1.912  -3.551   0.229  0.00  0.00    -0.250 OA
ATOM     18  C   UNL     1       1.053  -3.012   0.914  0.00  0.00    +0.321 C 
BRANCH  18  19
ATOM     19  O   UNL     1       0.952  -1.651   1.198  0.00  0.00    -0.424 OA
BRANCH  19  20
ATOM     20  C   UNL     1       1.950  -0.893   0.580  0.00  0.00    +0.149 C 
ATOM     21  C   UNL     1       1.736  -0.365  -0.693  0.00  0.00    +0.039 C 
ATOM     22  C   UNL     1       3.159  -0.664   1.237  0.00  0.00    +0.039 C 
ATOM     23  C   UNL     1       2.732   0.391  -1.310  0.00  0.00    +0.027 C 
ATOM     24  C   UNL     1       4.155   0.092   0.619  0.00  0.00    +0.027 C 
ATOM     25  C   UNL     1       3.942   0.620  -0.654  0.00  0.00    +0.143 C 
BRANCH  25  28
ATOM     26  O   UNL     1       4.743   1.856  -2.429  0.00  0.00    -0.126 OA
ATOM     27  O   UNL     1       6.036   1.585  -0.675  0.00  0.00    -0.126 OA
ATOM     28  N   UNL     1       4.955   1.391  -1.283  0.00  0.00    +0.058 N 
ENDBRANCH  25  28
ENDBRANCH  19  20
ENDBRANCH  18  19
ENDBRANCH  16  18
ENDBRANCH  15  16
ENDBRANCH   1  15
TORSDOF 14
