REMARK  Name = 126419
REMARK  9 active torsions:
REMARK  status: ('A' for Active; 'I' for Inactive)
REMARK    1  A    between atoms: C_7  and  O_25
REMARK    2  A    between atoms: C_8  and  C_17
REMARK    3  A    between atoms: C_11  and  O_29
REMARK    4  A    between atoms: C_12  and  O_27
REMARK    5  A    between atoms: C_22  and  O_23
REMARK    6  A    between atoms: O_29  and  C_31
REMARK    7  A    between atoms: C_31  and  C_32
REMARK    8  A    between atoms: C_32  and  C_33
REMARK    9  A    between atoms: C_33  and  C_34
REMARK                            x       y       z     vdW  Elec       q    Type
REMARK                         _______ _______ _______ _____ _____    ______ ____
ROOT
ATOM      1  O   UNL     1       0.308  -1.879  -0.331  0.00  0.00    -0.330 OA
ATOM      2  O   UNL     1       0.789  -0.017   1.077  0.00  0.00    -0.325 OA
ATOM      3  O   UNL     1      -1.280   0.264  -1.004  0.00  0.00    -0.351 OA
ATOM      4  N   UNL     1      -2.959  -2.323   1.187  0.00  0.00    +0.390 N 
ATOM      5  C   UNL     1      -1.886  -1.397   0.758  0.00  0.00    +0.001 C 
ATOM      6  C   UNL     1      -0.730  -2.379   0.501  0.00  0.00    +0.126 C 
ATOM      7  C   UNL     1      -1.424  -3.544  -0.197  0.00  0.00    +0.115 C 
ATOM      8  C   UNL     1      -2.336  -0.536  -0.458  0.00  0.00    +0.121 C 
ATOM      9  C   UNL     1       1.310  -1.164   0.397  0.00  0.00    +0.279 C 
ATOM     10  C   UNL     1       0.725   1.072   0.136  0.00  0.00    +0.178 C 
ATOM     11  C   UNL     1       2.326  -0.587  -0.575  0.00  0.00    +0.254 C 
ATOM     12  C   UNL     1       1.681   0.718  -1.015  0.00  0.00    +0.185 C 
ATOM     13  C   UNL     1      -2.850  -3.519   0.336  0.00  0.00    -0.049 C 
ATOM     14  C   UNL     1      -0.748   1.317  -0.202  0.00  0.00    +0.174 C 
ATOM     15  H   UNL     1      -3.871  -1.884   1.064  0.00  0.00    -0.084 HD
ATOM     16  H   UNL     1      -2.862  -2.564   2.174  0.00  0.00    -0.084 HD
ENDROOT
BRANCH   8  17
ATOM     17  C   UNL     1      -3.598   0.302  -0.296  0.00  0.00    +0.003 C 
ATOM     18  C   UNL     1      -3.927   0.820   0.952  0.00  0.00    +0.001 C 
ATOM     19  C   UNL     1      -4.412   0.544  -1.399  0.00  0.00    +0.001 C 
ATOM     20  C   UNL     1      -5.082   1.588   1.100  0.00  0.00    +0.037 C 
ATOM     21  C   UNL     1      -5.567   1.312  -1.250  0.00  0.00    +0.037 C 
ATOM     22  C   UNL     1      -5.902   1.834  -0.001  0.00  0.00    +0.139 C 
BRANCH  22  23
ATOM     23  O   UNL     1      -7.029   2.583   0.142  0.00  0.00    -0.471 OA
ATOM     24  C   UNL     1      -7.313   3.086   1.447  0.00  0.00    +0.252 C 
ENDBRANCH  22  23
ENDBRANCH   8  17
BRANCH   7  25
ATOM     25  O   UNL     1      -0.788  -4.769   0.135  0.00  0.00    -0.384 OA
ATOM     26  H   UNL     1       0.118  -4.767  -0.211  0.00  0.00    +0.210 HD
ENDBRANCH   7  25
BRANCH  12  27
ATOM     27  O   UNL     1       1.010   0.539  -2.252  0.00  0.00    -0.378 OA
ATOM     28  H   UNL     1       0.603   1.376  -2.523  0.00  0.00    +0.211 HD
ENDBRANCH  12  27
BRANCH  11  29
ATOM     29  O   UNL     1       3.522  -0.304   0.144  0.00  0.00    -0.444 OA
BRANCH  29  31
ATOM     30  O   UNL     1       4.465   0.596  -1.759  0.00  0.00    -0.250 OA
ATOM     31  C   UNL     1       4.521   0.294  -0.575  0.00  0.00    +0.317 C 
BRANCH  31  32
ATOM     32  C   UNL     1       5.708   0.536   0.332  0.00  0.00    +0.110 C 
BRANCH  32  33
ATOM     33  C   UNL     1       6.874   1.185  -0.416  0.00  0.00    +0.012 C 
BRANCH  33  34
ATOM     34  C   UNL     1       8.129   1.379   0.455  0.00  0.00    +0.001 C 
ATOM     35  C   UNL     1       8.628   0.066   1.058  0.00  0.00    +0.000 C 
ATOM     36  C   UNL     1       7.835   2.382   1.573  0.00  0.00    +0.000 C 
ENDBRANCH  33  34
ENDBRANCH  32  33
ENDBRANCH  31  32
ENDBRANCH  29  31
ENDBRANCH  11  29
TORSDOF 9
