REMARK  Name = 126417
REMARK  5 active torsions:
REMARK  status: ('A' for Active; 'I' for Inactive)
REMARK    1  A    between atoms: C_7  and  O_25
REMARK    2  A    between atoms: C_8  and  C_17
REMARK    3  A    between atoms: C_12  and  O_27
REMARK    4  A    between atoms: C_13  and  O_29
REMARK    5  A    between atoms: C_22  and  O_23
REMARK                            x       y       z     vdW  Elec       q    Type
REMARK                         _______ _______ _______ _____ _____    ______ ____
ROOT
ATOM      1  O   UNL     1       2.615  -0.675  -0.261  0.00  0.00    -0.331 OA
ATOM      2  O   UNL     1       2.290   0.990   1.413  0.00  0.00    -0.326 OA
ATOM      3  O   UNL     1       0.390   0.837  -0.834  0.00  0.00    -0.351 OA
ATOM      4  N   UNL     1      -0.339  -2.489   0.814  0.00  0.00    +0.390 N 
ATOM      5  C   UNL     1       0.339  -1.187   0.627  0.00  0.00    +0.001 C 
ATOM      6  C   UNL     1       1.789  -1.637   0.380  0.00  0.00    +0.126 C 
ATOM      7  C   UNL     1       1.617  -2.847  -0.531  0.00  0.00    +0.115 C 
ATOM      8  C   UNL     1      -0.326  -0.363  -0.515  0.00  0.00    +0.121 C 
ATOM      9  C   UNL     1       3.237   0.227   0.658  0.00  0.00    +0.266 C 
ATOM     10  C   UNL     1       1.884   2.117   0.615  0.00  0.00    +0.177 C 
ATOM     11  C   UNL     1       0.254  -3.418  -0.163  0.00  0.00    -0.049 C 
ATOM     12  C   UNL     1       4.022   1.274  -0.114  0.00  0.00    +0.196 C 
ATOM     13  C   UNL     1       2.968   2.314  -0.457  0.00  0.00    +0.172 C 
ATOM     14  C   UNL     1       0.447   1.870   0.147  0.00  0.00    +0.174 C 
ATOM     15  H   UNL     1      -1.340  -2.393   0.645  0.00  0.00    -0.084 HD
ATOM     16  H   UNL     1      -0.218  -2.833   1.767  0.00  0.00    -0.084 HD
ENDROOT
BRANCH   8  17
ATOM     17  C   UNL     1      -1.815  -0.068  -0.392  0.00  0.00    +0.003 C 
ATOM     18  C   UNL     1      -2.595   0.037  -1.540  0.00  0.00    +0.001 C 
ATOM     19  C   UNL     1      -2.385   0.095   0.866  0.00  0.00    +0.001 C 
ATOM     20  C   UNL     1      -3.958   0.308  -1.428  0.00  0.00    +0.037 C 
ATOM     21  C   UNL     1      -3.749   0.365   0.979  0.00  0.00    +0.037 C 
ATOM     22  C   UNL     1      -4.536   0.472  -0.169  0.00  0.00    +0.139 C 
BRANCH  22  23
ATOM     23  O   UNL     1      -5.866   0.736  -0.060  0.00  0.00    -0.471 OA
ATOM     24  C   UNL     1      -6.392   0.892   1.258  0.00  0.00    +0.252 C 
ENDBRANCH  22  23
ENDBRANCH   8  17
BRANCH   7  25
ATOM     25  O   UNL     1       2.640  -3.800  -0.286  0.00  0.00    -0.384 OA
ATOM     26  H   UNL     1       3.500  -3.421  -0.526  0.00  0.00    +0.210 HD
ENDBRANCH   7  25
BRANCH  12  27
ATOM     27  O   UNL     1       4.985   1.848   0.765  0.00  0.00    -0.378 OA
ATOM     28  H   UNL     1       5.658   1.186   0.984  0.00  0.00    +0.211 HD
ENDBRANCH  12  27
BRANCH  13  29
ATOM     29  O   UNL     1       2.484   2.104  -1.774  0.00  0.00    -0.379 OA
ATOM     30  H   UNL     1       1.813   2.772  -1.982  0.00  0.00    +0.211 HD
ENDBRANCH  13  29
TORSDOF 5
