REMARK  Name = 126458
REMARK  8 active torsions:
REMARK  status: ('A' for Active; 'I' for Inactive)
REMARK    1  A    between atoms: N_2  and  C_5
REMARK    2  A    between atoms: C_3  and  C_17
REMARK    3  A    between atoms: C_8  and  C_14
REMARK    4  A    between atoms: C_10  and  O_11
REMARK    5  A    between atoms: C_14  and  O_15
REMARK    6  A    between atoms: C_17  and  N_18
REMARK    7  A    between atoms: C_17  and  C_22
REMARK    8  A    between atoms: C_22  and  C_23
REMARK                            x       y       z     vdW  Elec       q    Type
REMARK                         _______ _______ _______ _____ _____    ______ ____
ROOT
ATOM      1  O   UNL     1      -1.645  -2.103  -0.054  0.00  0.00    -0.277 OA
ATOM      2  N   UNL     1      -0.603  -0.011  -0.273  0.00  0.00    -0.286 N 
ATOM      3  C   UNL     1      -1.683  -0.890  -0.245  0.00  0.00    +0.206 C 
ATOM      4  H   UNL     1      -0.818   0.937  -0.424  0.00  0.00    +0.155 HD
ENDROOT
BRANCH   2   5
ATOM      5  C   UNL     1       0.768  -0.323  -0.110  0.00  0.00    +0.051 C 
ATOM      6  C   UNL     1       1.706   0.695  -0.168  0.00  0.00    +0.024 C 
ATOM      7  C   UNL     1       1.142  -1.639   0.103  0.00  0.00    +0.018 C 
ATOM      8  C   UNL     1       3.057   0.387  -0.008  0.00  0.00    +0.110 C 
ATOM      9  C   UNL     1       2.493  -1.946   0.263  0.00  0.00    +0.038 C 
ATOM     10  C   UNL     1       3.450  -0.933   0.208  0.00  0.00    +0.140 C 
BRANCH  10  11
ATOM     11  O   UNL     1       4.766  -1.254   0.365  0.00  0.00    -0.505 OA
ATOM     12  H   UNL     1       5.419  -0.584   0.330  0.00  0.00    +0.292 HD
ENDBRANCH  10  11
BRANCH   8  14
ATOM     13  O   UNL     1       5.118   1.475   0.531  0.00  0.00    -0.245 OA
ATOM     14  C   UNL     1       4.040   1.459  -0.070  0.00  0.00    +0.341 C 
BRANCH  14  15
ATOM     15  O   UNL     1       3.647   2.477  -0.884  0.00  0.00    -0.477 OA
ATOM     16  H   UNL     1       2.822   2.431  -1.325  0.00  0.00    +0.295 HD
ENDBRANCH  14  15
ENDBRANCH   8  14
ENDBRANCH   2   5
BRANCH   3  17
ATOM     17  C   UNL     1      -3.005  -0.147  -0.464  0.00  0.00    +0.013 C 
BRANCH  17  18
ATOM     18  N   UNL     1      -3.925  -1.046  -1.159  0.00  0.00    +0.387 N 
ATOM     19  H   UNL     1      -4.813  -0.569  -1.315  0.00  0.00    -0.089 HD
ATOM     20  H   UNL     1      -4.081  -1.878  -0.591  0.00  0.00    -0.089 HD
ATOM     21  H   UNL     1      -3.522  -1.317  -2.056  0.00  0.00    -0.089 HD
ENDBRANCH  17  18
BRANCH  17  22
ATOM     22  C   UNL     1      -3.570   0.307   0.892  0.00  0.00    -0.013 C 
BRANCH  22  23
ATOM     23  C   UNL     1      -4.940   1.012   0.831  0.00  0.00    -0.002 C 
ATOM     24  C   UNL     1      -6.011   0.145   0.169  0.00  0.00    -0.000 C 
ATOM     25  C   UNL     1      -4.806   2.336   0.073  0.00  0.00    -0.000 C 
ENDBRANCH  22  23
ENDBRANCH  17  22
ENDBRANCH   3  17
TORSDOF 8
