126488
  -OEChem-03292013323D

 28 27  0     0  0  0  0  0  0999 V2000
    3.2644    0.3500    0.2550 P   0  0  0  0  0  0  0  0  0  0  0  0
   -2.6164    1.0059    0.1190 P   0  0  0  0  0  0  0  0  0  0  0  0
    1.4857    0.6968   -1.5813 O   0  0  0  0  0  0  0  0  0  0  0  0
   -3.5363   -1.3099   -0.5578 O   0  0  0  0  0  0  0  0  0  0  0  0
    2.7046    0.1908    1.7676 O   0  0  0  0  0  0  0  0  0  0  0  0
    3.3899    1.9598    0.1164 O   0  0  0  0  0  0  0  0  0  0  0  0
   -1.6317    1.3721   -1.1152 O   0  0  0  0  0  0  0  0  0  0  0  0
   -4.0458    1.5383   -0.4285 O   0  0  0  0  0  0  0  0  0  0  0  0
    4.5614   -0.3721    0.0209 O   0  0  0  0  0  0  0  0  0  0  0  0
   -2.2020    1.6382    1.4178 O   0  0  0  0  0  0  0  0  0  0  0  0
    0.0484   -1.7851   -0.5384 C   0  0  0  0  0  0  0  0  0  0  0  0
   -0.3540   -1.2575    0.8445 C   0  0  0  0  0  0  0  0  0  0  0  0
    1.5387   -1.6040   -0.8143 C   0  0  0  0  0  0  0  0  0  0  0  0
   -1.8299   -1.4994    1.1468 C   0  0  0  0  0  0  0  0  0  0  0  0
    1.9573   -0.1562   -0.8428 C   0  0  0  0  0  0  0  0  0  0  0  0
   -2.7344   -0.7681    0.1903 C   0  0  0  0  0  0  0  0  0  0  0  0
   -0.5266   -1.2733   -1.3185 H   0  0  0  0  0  0  0  0  0  0  0  0
   -0.1955   -2.8519   -0.6069 H   0  0  0  0  0  0  0  0  0  0  0  0
   -0.1286   -0.1883    0.9180 H   0  0  0  0  0  0  0  0  0  0  0  0
    0.2460   -1.7611    1.6120 H   0  0  0  0  0  0  0  0  0  0  0  0
    2.1277   -2.1279   -0.0540 H   0  0  0  0  0  0  0  0  0  0  0  0
    1.8007   -2.0416   -1.7836 H   0  0  0  0  0  0  0  0  0  0  0  0
   -2.0697   -1.1606    2.1602 H   0  0  0  0  0  0  0  0  0  0  0  0
   -2.0612   -2.5692    1.0970 H   0  0  0  0  0  0  0  0  0  0  0  0
    3.3161    0.3521    2.5174 H   0  0  0  0  0  0  0  0  0  0  0  0
    4.1164    2.4196    0.5886 H   0  0  0  0  0  0  0  0  0  0  0  0
   -1.3865    2.3103   -1.2621 H   0  0  0  0  0  0  0  0  0  0  0  0
   -4.2088    2.5050   -0.4617 H   0  0  0  0  0  0  0  0  0  0  0  0
  1  5  1  0  0  0  0
  1  6  1  0  0  0  0
  1  9  2  0  0  0  0
  1 15  1  0  0  0  0
  2  7  1  0  0  0  0
  2  8  1  0  0  0  0
  2 10  2  0  0  0  0
  2 16  1  0  0  0  0
  3 15  2  0  0  0  0
  4 16  2  0  0  0  0
  5 25  1  0  0  0  0
  6 26  1  0  0  0  0
  7 27  1  0  0  0  0
  8 28  1  0  0  0  0
 11 12  1  0  0  0  0
 11 13  1  0  0  0  0
 11 17  1  0  0  0  0
 11 18  1  0  0  0  0
 12 14  1  0  0  0  0
 12 19  1  0  0  0  0
 12 20  1  0  0  0  0
 13 15  1  0  0  0  0
 13 21  1  0  0  0  0
 13 22  1  0  0  0  0
 14 16  1  0  0  0  0
 14 23  1  0  0  0  0
 14 24  1  0  0  0  0
M  END
> <PUBCHEM_COMPOUND_CID>
126488

> <PUBCHEM_CONFORMER_RMSD>
0.8

> <PUBCHEM_CONFORMER_DIVERSEORDER>
1
9
63
34
84
6
69
52
101
54
82
24
59
30
71
99
20
85
44
27
35
92
75
29
49
12
2
89
74
81
88
40
23
100
97
76
64
47
87
95
51
3
26
13
4
67
86
78
83
66
7
42
41
5
60
36
25
15
94
46
28
31
79
45
32
37
53
80
19
14
62
48
55
96
39
61
16
17
91
98
77
65
21
93
18
50
11
8
38
43
22
73
70
58
68
10
57
72
90
33
56

> <PUBCHEM_MMFF94_PARTIAL_CHARGES>
18
1 1.35
10 -0.7
13 0.06
14 0.06
15 0.4
16 0.4
2 1.35
25 0.5
26 0.5
27 0.5
28 0.5
3 -0.57
4 -0.57
5 -0.77
6 -0.77
7 -0.77
8 -0.77
9 -0.7

> <PUBCHEM_EFFECTIVE_ROTOR_COUNT>
7

> <PUBCHEM_PHARMACOPHORE_FEATURES>
9
1 10 acceptor
1 5 acceptor
1 6 acceptor
1 7 acceptor
1 8 acceptor
1 9 acceptor
4 1 5 6 9 anion
4 11 12 13 14 hydrophobe
4 2 7 8 10 anion

> <PUBCHEM_HEAVY_ATOM_COUNT>
16

> <PUBCHEM_ATOM_DEF_STEREO_COUNT>
0

> <PUBCHEM_ATOM_UDEF_STEREO_COUNT>
0

> <PUBCHEM_BOND_DEF_STEREO_COUNT>
0

> <PUBCHEM_BOND_UDEF_STEREO_COUNT>
0

> <PUBCHEM_ISOTOPIC_ATOM_COUNT>
0

> <PUBCHEM_COMPONENT_COUNT>
1

> <PUBCHEM_CACTVS_TAUTO_COUNT>
1

> <PUBCHEM_CONFORMER_ID>
0001EE1800000001

> <PUBCHEM_MMFF94_ENERGY>
-56.1967

> <PUBCHEM_FEATURE_SELFOVERLAP>
45.754

> <PUBCHEM_SHAPE_FINGERPRINT>
11132069 177 18335144163561184349
11615756 256 18271537445827589280
11615756 56 18202005472932219192
12162725 195 18335144219084736950
14251764 3 17274522300793585266
15775835 57 18113336375490930697
17834069 15 17968372351896479482
18186145 218 17560537135029447638
192875 21 18114178700445669487
19766037 51 11095585828086042405
21947302 44 18271811159629441354
23402539 116 18335415829049537735
23557571 272 18271810150686919983
305870 269 18188208697737213418
351380 180 18412821404367617290
526903 126 18412546492380685377
548570 60 18273210885339666944
8050 44 18412546491969092073
83771 10 8358250449813780558

> <PUBCHEM_SHAPE_MULTIPOLES>
290.02
7.24
2.06
1.32
2.02
0.14
0.2
2.35
0.33
-0.85
-0.03
0.21
0.1
0.34

> <PUBCHEM_SHAPE_SELFOVERLAP>
530.367

> <PUBCHEM_SHAPE_VOLUME>
183.8

> <PUBCHEM_COORDINATE_TYPE>
2
5
10

$$$$
