REMARK  Name = 126466
REMARK  5 active torsions:
REMARK  status: ('A' for Active; 'I' for Inactive)
REMARK    1  A    between atoms: N_5  and  C1*_23
REMARK    2  A    between atoms: C_11  and  C_14
REMARK    3  A    between atoms: C3*_22  and  O3*_26
REMARK    4  A    between atoms: C4*_25  and  C5*_28
REMARK    5  A    between atoms: C5*_28  and  O5*_29
REMARK                            x       y       z     vdW  Elec       q    Type
REMARK                         _______ _______ _______ _____ _____    ______ ____
ROOT
ATOM      1  F   UNL     1       1.299   2.413   2.518  0.00  0.00    -0.198 F 
ATOM      2  O   UNL     1       0.376  -0.264  -2.091  0.00  0.00    -0.251 OA
ATOM      3  O   UNL     1      -0.957   2.835   1.135  0.00  0.00    -0.267 OA
ATOM      4  O   UNL     1      -1.716   2.201  -2.089  0.00  0.00    -0.269 OA
ATOM      5  N   UNL     1       1.722   0.132  -0.243  0.00  0.00    -0.216 N 
ATOM      6  N   UNL     1      -0.390   1.222  -0.464  0.00  0.00    -0.152 N 
ATOM      7  C   UNL     1       0.556   0.310  -1.011  0.00  0.00    +0.325 C 
ATOM      8  C   UNL     1       1.947   0.830   0.919  0.00  0.00    +0.105 C 
ATOM      9  C   UNL     1       1.078   1.719   1.387  0.00  0.00    +0.209 C 
ATOM     10  C   UNL     1      -0.184   1.991   0.686  0.00  0.00    +0.291 C 
ATOM     11  C   UNL     1      -1.594   1.435  -1.135  0.00  0.00    +0.262 C 
ENDROOT
BRANCH  11  14
ATOM     12  O   UNL     1      -3.721  -2.071   1.596  0.00  0.00    -0.435 OA
ATOM     13  O   UNL     1      -5.851  -1.788   0.505  0.00  0.00    -0.435 OA
ATOM     14  C   UNL     1      -2.751   0.593  -0.722  0.00  0.00    +0.058 C 
ATOM     15  C   UNL     1      -2.586  -0.349   0.290  0.00  0.00    +0.045 C 
ATOM     16  C   UNL     1      -3.687  -1.106   0.638  0.00  0.00    +0.177 C 
ATOM     17  C   UNL     1      -3.988   0.763  -1.362  0.00  0.00    +0.008 C 
ATOM     18  C   UNL     1      -4.903  -0.944   0.014  0.00  0.00    +0.176 C 
ATOM     19  C   UNL     1      -5.086  -0.017  -0.991  0.00  0.00    +0.040 C 
ATOM     20  C   UNL     1      -5.096  -2.498   1.507  0.00  0.00    +0.429 C 
ENDBRANCH  11  14
BRANCH   5  23
ATOM     21  O4* UNL     1       3.437  -1.356   0.451  0.00  0.00    -0.335 OA
ATOM     22  C3* UNL     1       5.035  -0.889  -1.237  0.00  0.00    +0.144 C 
ATOM     23  C1* UNL     1       2.745  -0.786  -0.673  0.00  0.00    +0.202 C 
ATOM     24  C2* UNL     1       3.791  -0.081  -1.523  0.00  0.00    +0.083 C 
ATOM     25  C4* UNL     1       4.857  -1.279   0.223  0.00  0.00    +0.173 C 
BRANCH  22  26
ATOM     26  O3* UNL     1       5.022  -2.073  -2.031  0.00  0.00    -0.382 OA
ATOM     27  H3* UNL     1       5.135  -1.838  -2.965  0.00  0.00    +0.210 HD
ENDBRANCH  22  26
BRANCH  25  28
ATOM     28  C5* UNL     1       5.432  -0.250   1.187  0.00  0.00    +0.169 C 
BRANCH  28  29
ATOM     29  O5* UNL     1       5.211  -0.694   2.516  0.00  0.00    -0.379 OA
ATOM     30  H5* UNL     1       5.574  -0.044   3.138  0.00  0.00    +0.211 HD
ENDBRANCH  28  29
ENDBRANCH  25  28
ENDBRANCH   5  23
TORSDOF 5
