REMARK  Name = 126469
REMARK  7 active torsions:
REMARK  status: ('A' for Active; 'I' for Inactive)
REMARK    1  A    between atoms: N_2  and  C_10
REMARK    2  A    between atoms: C_3  and  O_17
REMARK    3  A    between atoms: O_17  and  C_18
REMARK    4  A    between atoms: C_18  and  C_19
REMARK    5  A    between atoms: C_19  and  N_20
REMARK    6  A    between atoms: C_19  and  C_25
REMARK    7  A    between atoms: C_25  and  O_26
REMARK                            x       y       z     vdW  Elec       q    Type
REMARK                         _______ _______ _______ _____ _____    ______ ____
ROOT
ATOM      1  O   UNK     1       1.410  -1.571  -0.188  0.00  0.00    -0.226 OA
ATOM      2  N   UNK     1       0.901   0.714  -0.335  0.00  0.00    -0.250 N 
ATOM      3  C   UNK     1       1.740  -0.397  -0.307  0.00  0.00    +0.405 C 
ATOM      4  H   UNK     1       1.350   1.585  -0.438  0.00  0.00    +0.158 HD
ENDROOT
BRANCH   2  10
ATOM      5  O   UNK     1      -3.288  -1.577   0.158  0.00  0.00    -0.421 OA
ATOM      6  O   UNK     1      -5.272  -2.690   0.395  0.00  0.00    -0.244 OA
ATOM      7  C   UNK     1      -3.301   0.858  -0.038  0.00  0.00    +0.031 C 
ATOM      8  C   UNK     1      -2.607  -0.352   0.008  0.00  0.00    +0.150 C 
ATOM      9  C   UNK     1      -4.766   0.834   0.071  0.00  0.00    -0.012 C 
ATOM     10  C   UNK     1      -0.489   0.758  -0.237  0.00  0.00    +0.056 C 
ATOM     11  C   UNK     1      -1.216  -0.419  -0.089  0.00  0.00    +0.052 C 
ATOM     12  C   UNK     1      -2.550   2.032  -0.189  0.00  0.00    +0.004 C 
ATOM     13  C   UNK     1      -1.155   1.981  -0.287  0.00  0.00    +0.015 C 
ATOM     14  C   UNK     1      -5.387  -0.345   0.213  0.00  0.00    +0.078 C 
ATOM     15  C   UNK     1      -5.541   2.119   0.025  0.00  0.00    +0.031 C 
ATOM     16  C   UNK     1      -4.670  -1.630   0.264  0.00  0.00    +0.346 C 
ENDBRANCH   2  10
BRANCH   3  17
ATOM     17  O   UNK     1       3.041   0.013  -0.435  0.00  0.00    -0.436 OA
BRANCH  17  18
ATOM     18  C   UNK     1       4.031  -1.021  -0.423  0.00  0.00    +0.199 C 
BRANCH  18  19
ATOM     19  C   UNK     1       5.416  -0.399  -0.574  0.00  0.00    +0.080 C 
BRANCH  19  20
ATOM     20  N   UNK     1       6.434  -1.449  -0.568  0.00  0.00    +0.391 N 
ATOM     21  H   UNK     1       6.263  -2.093  -1.340  0.00  0.00    -0.088 HD
ATOM     22  H   UNK     1       6.392  -1.958   0.315  0.00  0.00    -0.088 HD
ATOM     23  H   UNK     1       7.357  -1.028  -0.675  0.00  0.00    -0.088 HD
ENDBRANCH  19  20
BRANCH  19  25
ATOM     24  O   UNK     1       6.211   0.210   1.660  0.00  0.00    -0.252 OA
ATOM     25  C   UNK     1       5.715   0.529   0.588  0.00  0.00    +0.297 C 
BRANCH  25  26
ATOM     26  O   UNK     1       5.344   1.801   0.288  0.00  0.00    -0.482 OA
ATOM     27  H   UNK     1       4.968   1.994  -0.548  0.00  0.00    +0.295 HD
ENDBRANCH  25  26
ENDBRANCH  19  25
ENDBRANCH  18  19
ENDBRANCH  17  18
ENDBRANCH   3  17
TORSDOF 7
