REMARK  Name = 126488
REMARK  11 active torsions:
REMARK  status: ('A' for Active; 'I' for Inactive)
REMARK    1  A    between atoms: C_1  and  C_2
REMARK    2  A    between atoms: C_1  and  C_12
REMARK    3  A    between atoms: C_2  and  C_3
REMARK    4  A    between atoms: C_3  and  C_5
REMARK    5  A    between atoms: C_5  and  P_6
REMARK    6  A    between atoms: P_6  and  O_8
REMARK    7  A    between atoms: P_6  and  O_10
REMARK    8  A    between atoms: C_12  and  C_14
REMARK    9  A    between atoms: C_14  and  P_15
REMARK   10  A    between atoms: P_15  and  O_17
REMARK   11  A    between atoms: P_15  and  O_19
REMARK                            x       y       z     vdW  Elec       q    Type
REMARK                         _______ _______ _______ _____ _____    ______ ____
ROOT
ATOM      1  C   UNL     1       0.048  -1.785  -0.538  0.00  0.00    +0.009 C 
ENDROOT
BRANCH   1   2
ATOM      2  C   UNL     1      -0.354  -1.258   0.845  0.00  0.00    +0.009 C 
BRANCH   2   3
ATOM      3  C   UNL     1      -1.830  -1.499   1.147  0.00  0.00    +0.077 C 
BRANCH   3   5
ATOM      4  O   UNL     1      -3.536  -1.310  -0.558  0.00  0.00    -0.283 OA
ATOM      5  C   UNL     1      -2.734  -0.768   0.190  0.00  0.00    +0.252 C 
BRANCH   5   6
ATOM      6  P   UNL     1      -2.616   1.006   0.119  0.00  0.00    +0.394 P 
ATOM      7  O   UNL     1      -2.202   1.638   1.418  0.00  0.00    -0.250 OA
BRANCH   6   8
ATOM      8  O   UNL     1      -1.632   1.372  -1.115  0.00  0.00    -0.319 OA
ATOM      9  H   UNL     1      -1.544   2.336  -1.184  0.00  0.00    +0.220 HD
ENDBRANCH   6   8
BRANCH   6  10
ATOM     10  O   UNL     1      -4.046   1.538  -0.428  0.00  0.00    -0.319 OA
ATOM     11  H   UNL     1      -4.030   2.507  -0.485  0.00  0.00    +0.220 HD
ENDBRANCH   6  10
ENDBRANCH   5   6
ENDBRANCH   3   5
ENDBRANCH   2   3
ENDBRANCH   1   2
BRANCH   1  12
ATOM     12  C   UNL     1       1.539  -1.604  -0.814  0.00  0.00    +0.077 C 
BRANCH  12  14
ATOM     13  O   UNL     1       1.486   0.697  -1.581  0.00  0.00    -0.283 OA
ATOM     14  C   UNL     1       1.957  -0.156  -0.843  0.00  0.00    +0.252 C 
BRANCH  14  15
ATOM     15  P   UNL     1       3.264   0.350   0.255  0.00  0.00    +0.394 P 
ATOM     16  O   UNL     1       4.561  -0.372   0.021  0.00  0.00    -0.250 OA
BRANCH  15  17
ATOM     17  O   UNL     1       2.705   0.191   1.768  0.00  0.00    -0.319 OA
ATOM     18  H   UNL     1       3.393   0.459   2.397  0.00  0.00    +0.220 HD
ENDBRANCH  15  17
BRANCH  15  19
ATOM     19  O   UNL     1       3.390   1.960   0.116  0.00  0.00    -0.319 OA
ATOM     20  H   UNL     1       4.095   2.281   0.701  0.00  0.00    +0.220 HD
ENDBRANCH  15  19
ENDBRANCH  14  15
ENDBRANCH  12  14
ENDBRANCH   1  12
TORSDOF 11
