REMARK  Name = 126456462
REMARK  10 active torsions:
REMARK  status: ('A' for Active; 'I' for Inactive)
REMARK    1  A    between atoms: N_3  and  C_21
REMARK    2  A    between atoms: C_11  and  N_18
REMARK    3  A    between atoms: C_21  and  C_22
REMARK    4  A    between atoms: C_22  and  O_23
REMARK    5  A    between atoms: C_22  and  C_25
REMARK    6  A    between atoms: C_25  and  O_26
REMARK    7  A    between atoms: C_25  and  C_28
REMARK    8  A    between atoms: C_28  and  O_29
REMARK    9  A    between atoms: C_28  and  C_31
REMARK   10  A    between atoms: C_31  and  O_32
REMARK                            x       y       z     vdW  Elec       q    Type
REMARK                         _______ _______ _______ _____ _____    ______ ____
ROOT
ATOM      1  O   UNL     1       1.860  -4.279   1.342  0.00  0.00    -0.206 OA
ATOM      2  O   UNL     1       4.727  -1.692  -1.054  0.00  0.00    -0.174 OA
ATOM      3  N   UNL     1       0.290  -0.394  -0.894  0.00  0.00    -0.255 N 
ATOM      4  N   UNL     1      -0.095  -2.675   0.733  0.00  0.00    -0.388 NA
ATOM      5  N   UNL     1       2.581  -1.054  -0.986  0.00  0.00    -0.289 NA
ATOM      6  N   UNL     1       3.414  -3.048   0.155  0.00  0.00    -0.230 NA
ATOM      7  C   UNL     1      -0.998  -0.682  -0.395  0.00  0.00    +0.081 C 
ATOM      8  C   UNL     1       1.358  -1.226  -0.585  0.00  0.00    +0.245 C 
ATOM      9  C   UNL     1      -1.164  -1.823   0.413  0.00  0.00    +0.128 C 
ATOM     10  C   UNL     1      -2.131   0.109  -0.658  0.00  0.00    +0.031 C 
ATOM     11  C   UNL     1      -3.386  -0.220  -0.138  0.00  0.00    +0.042 C 
ATOM     12  C   UNL     1       1.097  -2.429   0.284  0.00  0.00    +0.270 C 
ATOM     13  C   UNL     1      -3.534  -1.349   0.657  0.00  0.00    -0.023 C 
ATOM     14  C   UNL     1      -2.428  -2.146   0.931  0.00  0.00    +0.084 C 
ATOM     15  C   UNL     1      -4.861  -1.728   1.228  0.00  0.00    +0.028 C 
ATOM     16  C   UNL     1       2.249  -3.344   0.626  0.00  0.00    +0.251 C 
ATOM     17  C   UNL     1       3.594  -1.927  -0.636  0.00  0.00    +0.367 C 
ENDROOT
BRANCH  11  18
ATOM     18  N   UNL     1      -4.492   0.608  -0.432  0.00  0.00    -0.305 N 
ATOM     19  C   UNL     1      -4.827   1.716   0.438  0.00  0.00    +0.112 C 
ATOM     20  C   UNL     1      -5.307   0.352  -1.601  0.00  0.00    +0.112 C 
ENDBRANCH  11  18
BRANCH   3  21
ATOM     21  C   UNL     1       0.457   0.792  -1.732  0.00  0.00    +0.130 C 
BRANCH  21  22
ATOM     22  C   UNL     1       0.452   2.054  -0.862  0.00  0.00    +0.160 C 
BRANCH  22  23
ATOM     23  O   UNL     1       0.116   3.172  -1.685  0.00  0.00    -0.380 OA
ATOM     24  H   UNL     1      -0.739   3.013  -2.114  0.00  0.00    +0.211 HD
ENDBRANCH  22  23
BRANCH  22  25
ATOM     25  C   UNL     1       1.812   2.313  -0.183  0.00  0.00    +0.168 C 
BRANCH  25  26
ATOM     26  O   UNL     1       1.954   1.454   0.948  0.00  0.00    -0.379 OA
ATOM     27  H   UNL     1       1.846   0.531   0.669  0.00  0.00    +0.211 HD
ENDBRANCH  25  26
BRANCH  25  28
ATOM     28  C   UNL     1       1.986   3.771   0.281  0.00  0.00    +0.169 C 
BRANCH  28  29
ATOM     29  O   UNL     1       3.258   3.909   0.917  0.00  0.00    -0.379 OA
ATOM     30  H   UNL     1       3.958   3.640   0.302  0.00  0.00    +0.211 HD
ENDBRANCH  28  29
BRANCH  28  31
ATOM     31  C   UNL     1       0.902   4.201   1.268  0.00  0.00    +0.169 C 
BRANCH  31  32
ATOM     32  O   UNL     1       1.115   5.564   1.619  0.00  0.00    -0.379 OA
ATOM     33  H   UNL     1       0.432   5.848   2.246  0.00  0.00    +0.211 HD
ENDBRANCH  31  32
ENDBRANCH  28  31
ENDBRANCH  25  28
ENDBRANCH  22  25
ENDBRANCH  21  22
ENDBRANCH   3  21
TORSDOF 10
