REMARK  Name = 126573
REMARK  5 active torsions:
REMARK  status: ('A' for Active; 'I' for Inactive)
REMARK    1  A    between atoms: CA_3  and  C_20
REMARK    2  A    between atoms: C_7  and  P_13
REMARK    3  A    between atoms: P_13  and  O_15
REMARK    4  A    between atoms: P_13  and  O_17
REMARK    5  A    between atoms: C_20  and  O_21
REMARK                            x       y       z     vdW  Elec       q    Type
REMARK                         _______ _______ _______ _____ _____    ______ ____
ROOT
ATOM      1  N   UNL     1      -2.374  -1.309  -0.306  0.00  0.00    +0.395 N 
ATOM      2  C   UNL     1      -0.787   0.543   0.026  0.00  0.00    +0.016 C 
ATOM      3  CA  UNL     1      -2.142  -0.058   0.415  0.00  0.00    +0.044 C 
ATOM      4  C   UNL     1       0.327  -0.473   0.061  0.00  0.00    -0.023 C 
ATOM      5  C   UNL     1       0.033  -1.847   0.054  0.00  0.00    -0.047 C 
ATOM      6  C   UNL     1      -1.398  -2.325   0.104  0.00  0.00    -0.054 C 
ATOM      7  C   UNL     1       1.662  -0.049   0.042  0.00  0.00    +0.076 C 
ATOM      8  C   UNL     1       1.081  -2.777   0.066  0.00  0.00    -0.007 C 
ATOM      9  C   UNL     1       2.697  -0.984   0.043  0.00  0.00    +0.007 C 
ATOM     10  C   UNL     1       2.407  -2.346   0.057  0.00  0.00    -0.000 C 
ATOM     11  H1  UNL     1      -2.284  -1.141  -1.308  0.00  0.00    -0.083 HD
ATOM     12  H2  UNL     1      -3.312  -1.645  -0.090  0.00  0.00    -0.083 HD
ENDROOT
BRANCH   7  13
ATOM     13  P   UNL     1       2.094   1.669   0.004  0.00  0.00    +0.359 P 
ATOM     14  O   UNL     1       1.637   2.524   1.147  0.00  0.00    -0.253 OA
BRANCH  13  15
ATOM     15  O   UNL     1       3.700   1.691  -0.201  0.00  0.00    -0.321 OA
ATOM     16  H   UNL     1       4.010   2.610  -0.231  0.00  0.00    +0.220 HD
ENDBRANCH  13  15
BRANCH  13  17
ATOM     17  O   UNL     1       1.570   2.199  -1.434  0.00  0.00    -0.321 OA
ATOM     18  H   UNL     1       1.774   3.143  -1.525  0.00  0.00    +0.220 HD
ENDBRANCH  13  17
ENDBRANCH   7  13
BRANCH   3  20
ATOM     19  OXT UNL     1      -4.136   0.611  -0.771  0.00  0.00    -0.253 OA
ATOM     20  C   UNL     1      -3.245   0.873   0.023  0.00  0.00    +0.294 C 
BRANCH  20  21
ATOM     21  O   UNL     1      -3.124   2.058   0.669  0.00  0.00    -0.482 OA
ATOM     22  H   UNL     1      -2.416   2.196   1.267  0.00  0.00    +0.295 HD
ENDBRANCH  20  21
ENDBRANCH   3  20
TORSDOF 5
