REMARK  Name = 126504
REMARK  7 active torsions:
REMARK  status: ('A' for Active; 'I' for Inactive)
REMARK    1  A    between atoms: N_2  and  CA_17
REMARK    2  A    between atoms: C_3  and  C_5
REMARK    3  A    between atoms: C_8  and  N_13
REMARK    4  A    between atoms: C_9  and  N_16
REMARK    5  A    between atoms: CA_17  and  C_18
REMARK    6  A    between atoms: CA_17  and  C_25
REMARK    7  A    between atoms: C_25  and  O_26
REMARK                            x       y       z     vdW  Elec       q    Type
REMARK                         _______ _______ _______ _____ _____    ______ ____
ROOT
ATOM      1  O   UNL     1       0.446  -2.159   0.506  0.00  0.00    -0.270 OA
ATOM      2  N   UNL     1       1.129  -0.317  -0.726  0.00  0.00    -0.290 N 
ATOM      3  C   UNL     1       0.176  -1.069  -0.029  0.00  0.00    +0.247 C 
ATOM      4  H   UNL     1       0.846   0.538  -1.125  0.00  0.00    +0.150 HD
ENDROOT
BRANCH   3   5
ATOM      5  C   UNL     1      -1.175  -0.533   0.028  0.00  0.00    +0.057 C 
ATOM      6  C   UNL     1      -2.262  -1.395   0.173  0.00  0.00    +0.029 C 
ATOM      7  C   UNL     1      -1.384   0.843  -0.062  0.00  0.00    +0.029 C 
ATOM      8  C   UNL     1      -2.680   1.357  -0.008  0.00  0.00    +0.145 C 
ATOM      9  C   UNL     1      -3.558  -0.881   0.227  0.00  0.00    +0.145 C 
ATOM     10  C   UNL     1      -3.766   0.495   0.136  0.00  0.00    +0.048 C 
BRANCH   8  13
ATOM     11  O   UNL     1      -1.898   3.512  -0.227  0.00  0.00    -0.126 OA
ATOM     12  O   UNL     1      -4.067   3.194  -0.049  0.00  0.00    -0.126 OA
ATOM     13  N   UNL     1      -2.892   2.758  -0.099  0.00  0.00    +0.058 N 
ENDBRANCH   8  13
BRANCH   9  16
ATOM     14  O   UNL     1      -4.449  -2.993   0.451  0.00  0.00    -0.126 OA
ATOM     15  O   UNL     1      -5.819  -1.272   0.419  0.00  0.00    -0.126 OA
ATOM     16  N   UNL     1      -4.664  -1.760   0.373  0.00  0.00    +0.058 N 
ENDBRANCH   9  16
ENDBRANCH   3   5
BRANCH   2  17
ATOM     17  CA  UNL     1       2.505  -0.726  -0.891  0.00  0.00    +0.194 C 
BRANCH  17  18
ATOM     18  C   UNL     1       3.370  -0.224   0.240  0.00  0.00    +0.006 C 
ATOM     19  C   UNL     1       4.411  -1.014   0.701  0.00  0.00    -0.002 C 
ATOM     20  C   UNL     1       3.107   1.018   0.796  0.00  0.00    -0.002 C 
ATOM     21  C   UNL     1       5.210  -0.550   1.746  0.00  0.00    -0.000 C 
ATOM     22  C   UNL     1       3.907   1.482   1.841  0.00  0.00    -0.000 C 
ATOM     23  C   UNL     1       4.958   0.698   2.316  0.00  0.00    -0.000 C 
ENDBRANCH  17  18
BRANCH  17  25
ATOM     24  OXT UNL     1       4.147  -0.640  -2.675  0.00  0.00    -0.248 OA
ATOM     25  C   UNL     1       3.045  -0.317  -2.250  0.00  0.00    +0.336 C 
BRANCH  25  26
ATOM     26  O   UNL     1       2.202   0.495  -2.934  0.00  0.00    -0.479 OA
ATOM     27  H   UNL     1       1.367   0.716  -2.571  0.00  0.00    +0.295 HD
ENDBRANCH  25  26
ENDBRANCH  17  25
ENDBRANCH   2  17
TORSDOF 7
