1265900
  -OEChem-03292013313D

 39 41  0     1  0  0  0  0  0999 V2000
   -2.0757   -0.4226   -0.8698 O   0  0  0  0  0  0  0  0  0  0  0  0
   -1.6697    1.1222    1.7145 O   0  0  0  0  0  0  0  0  0  0  0  0
   -3.8577   -2.5921   -1.1233 O   0  0  0  0  0  0  0  0  0  0  0  0
   -0.0995    0.8936   -0.6518 N   0  0  0  0  0  0  0  0  0  0  0  0
   -4.4729    0.9658    1.5340 N   0  0  0  0  0  0  0  0  0  0  0  0
    2.0155    1.5530   -0.9465 N   0  0  0  0  0  0  0  0  0  0  0  0
    0.2843   -1.1966    0.5268 N   0  0  0  0  0  0  0  0  0  0  0  0
    4.3531   -0.1081    0.0640 N   0  0  0  0  0  0  0  0  0  0  0  0
    2.6673   -1.6169    0.8443 N   0  0  0  0  0  0  0  0  0  0  0  0
   -3.6389    0.8794    0.3470 C   0  0  1  0  0  0  0  0  0  0  0  0
   -2.2712    1.5315    0.4895 C   0  0  2  0  0  0  0  0  0  0  0  0
   -1.5556    0.9158   -0.7144 C   0  0  2  0  0  0  0  0  0  0  0  0
   -3.2529   -0.5479   -0.0455 C   0  0  1  0  0  0  0  0  0  0  0  0
   -4.3334   -1.2939   -0.8076 C   0  0  0  0  0  0  0  0  0  0  0  0
    0.6877   -0.0732   -0.0853 C   0  0  0  0  0  0  0  0  0  0  0  0
    0.7494    1.8483   -1.1556 C   0  0  0  0  0  0  0  0  0  0  0  0
    1.9915    0.3546   -0.2784 C   0  0  0  0  0  0  0  0  0  0  0  0
    3.0020   -0.4651    0.2142 C   0  0  0  0  0  0  0  0  0  0  0  0
    1.3488   -1.9068    0.9598 C   0  0  0  0  0  0  0  0  0  0  0  0
    4.7474    1.2884    0.0165 C   0  0  0  0  0  0  0  0  0  0  0  0
    5.3807   -1.1293   -0.0322 C   0  0  0  0  0  0  0  0  0  0  0  0
   -4.1679    1.3563   -0.4888 H   0  0  0  0  0  0  0  0  0  0  0  0
   -2.3030    2.6251    0.4624 H   0  0  0  0  0  0  0  0  0  0  0  0
   -1.8263    1.4541   -1.6317 H   0  0  0  0  0  0  0  0  0  0  0  0
   -2.9465   -1.1380    0.8282 H   0  0  0  0  0  0  0  0  0  0  0  0
   -4.5794   -0.7923   -1.7493 H   0  0  0  0  0  0  0  0  0  0  0  0
   -5.2452   -1.3956   -0.2122 H   0  0  0  0  0  0  0  0  0  0  0  0
   -4.5936    1.9441    1.7942 H   0  0  0  0  0  0  0  0  0  0  0  0
   -3.9985    0.5245    2.3210 H   0  0  0  0  0  0  0  0  0  0  0  0
   -0.8294    1.6033    1.8023 H   0  0  0  0  0  0  0  0  0  0  0  0
    0.3856    2.7327   -1.6606 H   0  0  0  0  0  0  0  0  0  0  0  0
   -3.0443   -2.4874   -1.6460 H   0  0  0  0  0  0  0  0  0  0  0  0
    1.1176   -2.8359    1.4696 H   0  0  0  0  0  0  0  0  0  0  0  0
    5.8023    1.4069    0.2891 H   0  0  0  0  0  0  0  0  0  0  0  0
    4.1745    1.8960    0.7260 H   0  0  0  0  0  0  0  0  0  0  0  0
    4.6250    1.6923   -0.9936 H   0  0  0  0  0  0  0  0  0  0  0  0
    6.3317   -0.7131   -0.3816 H   0  0  0  0  0  0  0  0  0  0  0  0
    5.0880   -1.9104   -0.7427 H   0  0  0  0  0  0  0  0  0  0  0  0
    5.5529   -1.5908    0.9457 H   0  0  0  0  0  0  0  0  0  0  0  0
  1 12  1  0  0  0  0
  1 13  1  0  0  0  0
  2 11  1  0  0  0  0
  2 30  1  0  0  0  0
  3 14  1  0  0  0  0
  3 32  1  0  0  0  0
  4 12  1  0  0  0  0
  4 15  1  0  0  0  0
  4 16  1  0  0  0  0
  5 10  1  0  0  0  0
  5 28  1  0  0  0  0
  5 29  1  0  0  0  0
  6 16  2  0  0  0  0
  6 17  1  0  0  0  0
  7 15  1  0  0  0  0
  7 19  2  0  0  0  0
  8 18  1  0  0  0  0
  8 20  1  0  0  0  0
  8 21  1  0  0  0  0
  9 18  2  0  0  0  0
  9 19  1  0  0  0  0
 10 11  1  0  0  0  0
 10 13  1  0  0  0  0
 10 22  1  0  0  0  0
 11 12  1  0  0  0  0
 11 23  1  0  0  0  0
 12 24  1  0  0  0  0
 13 14  1  0  0  0  0
 13 25  1  0  0  0  0
 14 26  1  0  0  0  0
 14 27  1  0  0  0  0
 15 17  2  0  0  0  0
 16 31  1  0  0  0  0
 17 18  1  0  0  0  0
 19 33  1  0  0  0  0
 20 34  1  0  0  0  0
 20 35  1  0  0  0  0
 20 36  1  0  0  0  0
 21 37  1  0  0  0  0
 21 38  1  0  0  0  0
 21 39  1  0  0  0  0
M  END
> <PUBCHEM_COMPOUND_CID>
1265900

> <PUBCHEM_CONFORMER_RMSD>
0.6

> <PUBCHEM_CONFORMER_DIVERSEORDER>
1
12
26
27
15
21
4
25
10
22
19
18
3
17
6
24
13
23
20
9
7
16
11
2
8
14
5

> <PUBCHEM_MMFF94_PARTIAL_CHARGES>
27
1 -0.56
10 0.27
11 0.28
12 0.54
13 0.28
14 0.28
15 0.11
16 0.04
17 0.23
18 0.41
19 0.47
2 -0.68
20 0.37
21 0.37
28 0.36
29 0.36
3 -0.68
30 0.4
31 0.15
32 0.4
33 0.15
4 0.05
5 -0.99
6 -0.57
7 -0.57
8 -0.84
9 -0.62

> <PUBCHEM_EFFECTIVE_ROTOR_COUNT>
4

> <PUBCHEM_PHARMACOPHORE_FEATURES>
13
1 1 acceptor
1 2 acceptor
1 2 donor
1 3 acceptor
1 3 donor
1 5 cation
1 5 donor
3 4 6 16 cation
3 7 9 19 cation
3 8 9 18 cation
5 1 10 11 12 13 rings
5 4 6 15 16 17 rings
6 7 9 15 17 18 19 rings

> <PUBCHEM_HEAVY_ATOM_COUNT>
21

> <PUBCHEM_ATOM_DEF_STEREO_COUNT>
4

> <PUBCHEM_ATOM_UDEF_STEREO_COUNT>
0

> <PUBCHEM_BOND_DEF_STEREO_COUNT>
0

> <PUBCHEM_BOND_UDEF_STEREO_COUNT>
0

> <PUBCHEM_ISOTOPIC_ATOM_COUNT>
0

> <PUBCHEM_COMPONENT_COUNT>
1

> <PUBCHEM_CACTVS_TAUTO_COUNT>
1

> <PUBCHEM_CONFORMER_ID>
001350EC00000001

> <PUBCHEM_MMFF94_ENERGY>
57.1786

> <PUBCHEM_FEATURE_SELFOVERLAP>
66.223

> <PUBCHEM_SHAPE_FINGERPRINT>
11578080 2 18124846123863083317
11806522 49 18336259136912911886
12236239 1 18413389839231613509
12251169 10 18337677425461624213
12553582 1 18040151790529358843
12596599 1 18271254815446419846
13032168 30 18410572920216132331
13140716 1 17896611759258166448
13583140 156 16271917186645735334
13760787 5 17749115495495935108
13862211 1 18041272197917159850
13965767 371 17407150688825686193
14341114 328 18273501165031262568
14386348 63 16515976895202037865
14576447 43 18262226811254429150
14787075 74 18269272525073554504
15196674 1 18334292067840495614
15209289 33 18408605863748900042
15375358 24 17022902332904306864
15375462 189 18334295327372708616
15848702 151 18128541462268681302
16945 1 17749398048535856012
17349148 13 17894347778800866888
17357779 13 17022894649191815365
17862501 102 18411979174118229380
1813 80 17968956179617128308
19433438 48 18409445869358008011
200 152 18335415798857419079
20645477 70 17458903850714352573
21267235 1 18335426785315658111
23402539 116 18341889697166994542
23557571 272 17274827969273535875
23559900 14 18271229634354109985
2748010 2 17680697130553904900
2871803 45 18113606894000846550
3286 77 18200588206770897792
34934 24 17897158023042194061
5104073 3 18341891905096689834
602551 16 16845285115677106895
7495541 125 16845003619605120554
77492 1 18412831291598682069
9981440 41 17257366874016012552

> <PUBCHEM_SHAPE_MULTIPOLES>
384.68
9.74
2.09
1.16
3.21
0.55
-0.2
2.05
-0.33
-0.39
0.25
-1
-0.1
-1.66

> <PUBCHEM_SHAPE_SELFOVERLAP>
825.29

> <PUBCHEM_SHAPE_VOLUME>
210.7

> <PUBCHEM_COORDINATE_TYPE>
2
5
10

$$$$
