REMARK  Name = 126530
REMARK  6 active torsions:
REMARK  status: ('A' for Active; 'I' for Inactive)
REMARK    1  A    between atoms: C_1  and  C_2
REMARK    2  A    between atoms: C_1  and  C_14
REMARK    3  A    between atoms: C_5  and  N_10
REMARK    4  A    between atoms: C_6  and  O_11
REMARK    5  A    between atoms: C_14  and  O_15
REMARK    6  A    between atoms: O_15  and  N_18
REMARK                            x       y       z     vdW  Elec       q    Type
REMARK                         _______ _______ _______ _____ _____    ______ ____
ROOT
ATOM      1  C   UNL     1       0.043   0.510   1.461  0.00  0.00    +0.138 C 
ENDROOT
BRANCH   1   2
ATOM      2  C   UNL     1      -1.306   0.666   0.809  0.00  0.00    -0.009 C 
ATOM      3  C   UNL     1      -2.104  -0.452   0.616  0.00  0.00    +0.023 C 
ATOM      4  C   UNL     1      -1.730   1.926   0.412  0.00  0.00    -0.001 C 
ATOM      5  C   UNL     1      -3.353  -0.308   0.012  0.00  0.00    +0.176 C 
ATOM      6  C   UNL     1      -3.791   0.953  -0.392  0.00  0.00    +0.156 C 
ATOM      7  C   UNL     1      -2.979   2.070  -0.192  0.00  0.00    +0.038 C 
BRANCH   5  10
ATOM      8  O   UNL     1      -3.739  -2.574   0.192  0.00  0.00    -0.126 OA
ATOM      9  O   UNL     1      -5.288  -1.320  -0.727  0.00  0.00    -0.126 OA
ATOM     10  N   UNL     1      -4.167  -1.457  -0.184  0.00  0.00    +0.061 N 
ENDBRANCH   5  10
BRANCH   6  11
ATOM     11  O   UNL     1      -5.007   1.120  -0.984  0.00  0.00    -0.504 OA
ATOM     12  H   UNL     1      -5.564   0.381  -1.126  0.00  0.00    +0.292 HD
ENDBRANCH   6  11
ENDBRANCH   1   2
BRANCH   1  14
ATOM     13  O   UNL     1       1.007   0.141  -0.742  0.00  0.00    -0.248 OA
ATOM     14  C   UNL     1       1.152   0.251   0.469  0.00  0.00    +0.345 C 
BRANCH  14  15
ATOM     15  O   UNL     1       2.358   0.153   1.128  0.00  0.00    -0.336 OA
BRANCH  15  18
ATOM     16  O   UNL     1       3.969   2.135  -0.144  0.00  0.00    -0.267 OA
ATOM     17  O   UNL     1       3.429  -2.404   0.447  0.00  0.00    -0.267 OA
ATOM     18  N   UNL     1       3.415  -0.085   0.270  0.00  0.00    -0.054 N 
ATOM     19  C   UNL     1       5.152   0.296  -1.181  0.00  0.00    +0.066 C 
ATOM     20  C   UNL     1       4.973  -1.211  -0.985  0.00  0.00    +0.066 C 
ATOM     21  C   UNL     1       4.118   0.932  -0.292  0.00  0.00    +0.287 C 
ATOM     22  C   UNL     1       3.847  -1.345   0.004  0.00  0.00    +0.287 C 
ENDBRANCH  15  18
ENDBRANCH  14  15
ENDBRANCH   1  14
TORSDOF 6
