126530
  -OEChem-03292013323D

 31 32  0     0  0  0  0  0  0999 V2000
    2.3584    0.1529    1.1283 O   0  0  0  0  0  0  0  0  0  0  0  0
    3.9685    2.1355   -0.1443 O   0  0  0  0  0  0  0  0  0  0  0  0
    3.4287   -2.4036    0.4472 O   0  0  0  0  0  0  0  0  0  0  0  0
    1.0066    0.1415   -0.7417 O   0  0  0  0  0  0  0  0  0  0  0  0
   -5.0069    1.1202   -0.9841 O   0  0  0  0  0  0  0  0  0  0  0  0
   -3.7386   -2.5742    0.1920 O   0  5  0  0  0  0  0  0  0  0  0  0
   -5.2882   -1.3201   -0.7271 O   0  0  0  0  0  0  0  0  0  0  0  0
    3.4149   -0.0848    0.2704 N   0  0  0  0  0  0  0  0  0  0  0  0
   -4.1665   -1.4573   -0.1840 N   0  3  0  0  0  0  0  0  0  0  0  0
    5.1522    0.2964   -1.1811 C   0  0  0  0  0  0  0  0  0  0  0  0
    4.9730   -1.2106   -0.9848 C   0  0  0  0  0  0  0  0  0  0  0  0
    4.1179    0.9325   -0.2924 C   0  0  0  0  0  0  0  0  0  0  0  0
    3.8470   -1.3451    0.0045 C   0  0  0  0  0  0  0  0  0  0  0  0
    0.0433    0.5103    1.4614 C   0  0  0  0  0  0  0  0  0  0  0  0
   -1.3062    0.6661    0.8094 C   0  0  0  0  0  0  0  0  0  0  0  0
    1.1518    0.2510    0.4686 C   0  0  0  0  0  0  0  0  0  0  0  0
   -2.1037   -0.4524    0.6163 C   0  0  0  0  0  0  0  0  0  0  0  0
   -1.7299    1.9258    0.4121 C   0  0  0  0  0  0  0  0  0  0  0  0
   -3.3527   -0.3079    0.0124 C   0  0  0  0  0  0  0  0  0  0  0  0
   -3.7905    0.9534   -0.3915 C   0  0  0  0  0  0  0  0  0  0  0  0
   -2.9791    2.0702   -0.1917 C   0  0  0  0  0  0  0  0  0  0  0  0
    6.1520    0.6200   -0.8771 H   0  0  0  0  0  0  0  0  0  0  0  0
    4.9754    0.5854   -2.2213 H   0  0  0  0  0  0  0  0  0  0  0  0
    4.7029   -1.7042   -1.9228 H   0  0  0  0  0  0  0  0  0  0  0  0
    5.8798   -1.6685   -0.5791 H   0  0  0  0  0  0  0  0  0  0  0  0
    0.0159   -0.3207    2.1764 H   0  0  0  0  0  0  0  0  0  0  0  0
    0.2866    1.4196    2.0243 H   0  0  0  0  0  0  0  0  0  0  0  0
   -1.7357   -1.4231    0.9389 H   0  0  0  0  0  0  0  0  0  0  0  0
   -1.1046    2.8015    0.5612 H   0  0  0  0  0  0  0  0  0  0  0  0
   -3.3135    3.0556   -0.5046 H   0  0  0  0  0  0  0  0  0  0  0  0
   -5.6053    0.3955   -0.7470 H   0  0  0  0  0  0  0  0  0  0  0  0
  1  8  1  0  0  0  0
  1 16  1  0  0  0  0
  2 12  2  0  0  0  0
  3 13  2  0  0  0  0
  4 16  2  0  0  0  0
  5 20  1  0  0  0  0
  5 31  1  0  0  0  0
  6  9  1  0  0  0  0
  7  9  2  0  0  0  0
  8 12  1  0  0  0  0
  8 13  1  0  0  0  0
  9 19  1  0  0  0  0
 10 11  1  0  0  0  0
 10 12  1  0  0  0  0
 10 22  1  0  0  0  0
 10 23  1  0  0  0  0
 11 13  1  0  0  0  0
 11 24  1  0  0  0  0
 11 25  1  0  0  0  0
 14 15  1  0  0  0  0
 14 16  1  0  0  0  0
 14 26  1  0  0  0  0
 14 27  1  0  0  0  0
 15 17  2  0  0  0  0
 15 18  1  0  0  0  0
 17 19  1  0  0  0  0
 17 28  1  0  0  0  0
 18 21  2  0  0  0  0
 18 29  1  0  0  0  0
 19 20  2  0  0  0  0
 20 21  1  0  0  0  0
 21 30  1  0  0  0  0
M  CHG  2   6  -1   9   1
M  END
> <PUBCHEM_COMPOUND_CID>
126530

> <PUBCHEM_CONFORMER_RMSD>
0.8

> <PUBCHEM_CONFORMER_DIVERSEORDER>
1
36
16
33
79
70
72
62
43
60
83
21
6
39
38
80
61
24
75
30
89
66
67
86
22
82
42
48
76
52
2
84
54
50
14
31
15
77
17
13
51
81
12
9
68
47
55
32
40
35
4
18
73
69
19
88
34
78
28
44
23
11
26
25
85
46
8
71
87
56
74
3
45
20
29
7
10
37
90
49
27
41
53
57
5
63
59
58
64
65

> <PUBCHEM_MMFF94_PARTIAL_CHARGES>
25
1 -0.19
10 0.06
11 0.06
12 0.57
13 0.57
14 0.2
15 -0.14
16 0.66
17 -0.15
18 -0.15
19 0.13
2 -0.57
20 0.08
21 -0.15
28 0.15
29 0.15
3 -0.57
30 0.15
31 0.45
4 -0.57
5 -0.53
6 -0.52
7 -0.52
8 -0.08
9 0.91

> <PUBCHEM_EFFECTIVE_ROTOR_COUNT>
5.6

> <PUBCHEM_PHARMACOPHORE_FEATURES>
9
1 2 acceptor
1 3 acceptor
1 4 acceptor
1 5 donor
1 6 acceptor
1 6 anion
1 7 acceptor
5 8 10 11 12 13 rings
6 15 17 18 19 20 21 rings

> <PUBCHEM_HEAVY_ATOM_COUNT>
21

> <PUBCHEM_ATOM_DEF_STEREO_COUNT>
0

> <PUBCHEM_ATOM_UDEF_STEREO_COUNT>
0

> <PUBCHEM_BOND_DEF_STEREO_COUNT>
0

> <PUBCHEM_BOND_UDEF_STEREO_COUNT>
0

> <PUBCHEM_ISOTOPIC_ATOM_COUNT>
0

> <PUBCHEM_COMPONENT_COUNT>
1

> <PUBCHEM_CACTVS_TAUTO_COUNT>
12

> <PUBCHEM_CONFORMER_ID>
0001EE4200000001

> <PUBCHEM_MMFF94_ENERGY>
53.8794

> <PUBCHEM_FEATURE_SELFOVERLAP>
45.755

> <PUBCHEM_SHAPE_FINGERPRINT>
11089746 13 17095240333089436164
11543360 7 18408042918227667632
11796584 16 18130508539472135070
12107183 9 17616532861381953192
12670546 177 18335138674334556004
12916754 54 18273220785250022232
13167823 11 18413389821788110734
14528608 73 18260555545586036484
15188451 53 12966832538727222133
15250474 111 18336538326820198562
17834072 33 18334577940779353804
17844677 252 18411706486428796176
17870717 6 18342182137543339015
1813 80 14764351548142649496
18222031 100 16128650847253068432
193927 3 16988570074095645836
200 152 17632858598756693144
20281475 54 18272934907805064009
20645477 70 18272939306431803990
20871999 31 18335136514356266409
21054139 6 18408322203341133042
22393880 68 18338520742469444646
23402539 116 18333729117681579845
23402655 69 18187087204825168136
23557571 272 18272377451368326693
23559900 14 18412819188154229208
2871803 45 18411418431715071610
3004659 81 18409445856621072042
4214541 1 18410576145583518924
465052 167 17418097662608497542
5104073 3 18273214183747814146
58051976 100 18411138004593940372
633830 44 16805613503712698552
67856867 119 18334286579262961136
7495541 125 17775565368730833408
960060 61 18113908126386216550
9709674 26 18335991908459253906

> <PUBCHEM_SHAPE_MULTIPOLES>
381.12
12.58
2.19
1.05
2.6
0.54
-0.07
2.83
4.68
-0.92
0.04
0.25
-0.08
-0.04

> <PUBCHEM_SHAPE_SELFOVERLAP>
818.259

> <PUBCHEM_SHAPE_VOLUME>
210.6

> <PUBCHEM_COORDINATE_TYPE>
2
5
10

$$$$
