REMARK  Name = 126501
REMARK  6 active torsions:
REMARK  status: ('A' for Active; 'I' for Inactive)
REMARK    1  A    between atoms: C2*_2  and  O2*_17
REMARK    2  A    between atoms: C3*_3  and  O3*_19
REMARK    3  A    between atoms: C1*_4  and  N_8
REMARK    4  A    between atoms: C4*_5  and  C5*_21
REMARK    5  A    between atoms: C_12  and  C_15
REMARK    6  A    between atoms: C5*_21  and  O5*_22
REMARK                            x       y       z     vdW  Elec       q    Type
REMARK                         _______ _______ _______ _____ _____    ______ ____
ROOT
ATOM      1  O4* UNL     1      -1.581  -0.194   1.040  0.00  0.00    -0.333 OA
ATOM      2  C2* UNL     1      -1.695   1.017  -0.989  0.00  0.00    +0.187 C 
ATOM      3  C3* UNL     1      -3.103   0.593  -0.626  0.00  0.00    +0.171 C 
ATOM      4  C1* UNL     1      -0.991   0.919   0.356  0.00  0.00    +0.229 C 
ATOM      5  C4* UNL     1      -2.891  -0.435   0.487  0.00  0.00    +0.175 C 
ENDROOT
BRANCH   4   8
ATOM      6  O   UNL     1       0.899   3.015   0.427  0.00  0.00    -0.252 OA
ATOM      7  O   UNL     1       4.444   0.124  -0.004  0.00  0.00    -0.270 OA
ATOM      8  N   UNL     1       0.427   0.734   0.265  0.00  0.00    -0.217 N 
ATOM      9  N   UNL     1       2.655   1.556   0.212  0.00  0.00    -0.236 N 
ATOM     10  C   UNL     1       0.956  -0.547   0.131  0.00  0.00    +0.076 C 
ATOM     11  C   UNL     1       1.292   1.852   0.310  0.00  0.00    +0.315 C 
ATOM     12  C   UNL     1       2.262  -0.831   0.038  0.00  0.00    +0.069 C 
ATOM     13  C   UNL     1       3.231   0.301   0.078  0.00  0.00    +0.254 C 
ATOM     14  H   UNL     1       3.273   2.322   0.241  0.00  0.00    +0.159 HD
BRANCH  12  15
ATOM     15  C   UNL     1       2.739  -2.183  -0.099  0.00  0.00    +0.006 C 
ATOM     16  C   UNL     1       1.974  -3.098  -0.720  0.00  0.00    +0.000 C 
ENDBRANCH  12  15
ENDBRANCH   4   8
BRANCH   2  17
ATOM     17  O2* UNL     1      -1.166   0.080  -1.919  0.00  0.00    -0.378 OA
ATOM     18  H2* UNL     1      -1.633   0.164  -2.765  0.00  0.00    +0.211 HD
ENDBRANCH   2  17
BRANCH   3  19
ATOM     19  O3* UNL     1      -3.804   1.708  -0.080  0.00  0.00    -0.379 OA
ATOM     20  H3* UNL     1      -3.947   2.371  -0.773  0.00  0.00    +0.211 HD
ENDBRANCH   3  19
BRANCH   5  21
ATOM     21  C5* UNL     1      -2.932  -1.875  -0.005  0.00  0.00    +0.169 C 
BRANCH  21  22
ATOM     22  O5* UNL     1      -2.715  -2.738   1.098  0.00  0.00    -0.379 OA
ATOM     23  H5* UNL     1      -2.739  -3.660   0.797  0.00  0.00    +0.211 HD
ENDBRANCH  21  22
ENDBRANCH   5  21
TORSDOF 6
