126599
  -OEChem-03292013323D

 42 43  0     1  0  0  0  0  0999 V2000
    0.7486   -1.2017    0.5401 S   0  0  0  0  0  0  0  0  0  0  0  0
   -0.2910    1.2492    0.3760 O   0  0  0  0  0  0  0  0  0  0  0  0
   -4.2297    0.1394    0.0596 O   0  0  0  0  0  0  0  0  0  0  0  0
   -3.4539    2.8271   -0.6085 O   0  0  0  0  0  0  0  0  0  0  0  0
    0.6458    3.8112    0.0674 O   0  0  0  0  0  0  0  0  0  0  0  0
   -2.7128   -3.0226    1.3466 O   0  0  0  0  0  0  0  0  0  0  0  0
   -2.1750   -1.8143   -0.5687 N   0  0  0  0  0  0  0  0  0  0  0  0
    5.2839   -0.6624   -1.2215 N   0  0  0  0  0  0  0  0  0  0  0  0
    5.8863   -1.1579   -0.2545 N   0  0  0  0  0  0  0  0  0  0  0  0
   -1.9184   -0.5391    0.0689 C   0  0  2  0  0  0  0  0  0  0  0  0
   -2.9353    0.4984   -0.4300 C   0  0  2  0  0  0  0  0  0  0  0  0
   -2.5968    1.9070    0.0622 C   0  0  1  0  0  0  0  0  0  0  0  0
   -0.4811   -0.0520   -0.1841 C   0  0  2  0  0  0  0  0  0  0  0  0
   -1.1303    2.2392   -0.2199 C   0  0  1  0  0  0  0  0  0  0  0  0
   -0.7210    3.5881    0.3629 C   0  0  0  0  0  0  0  0  0  0  0  0
    4.7378   -0.3505    0.0766 C   0  0  0  0  0  0  0  0  0  0  0  0
    3.4880   -1.0692    0.4875 C   0  0  0  0  0  0  0  0  0  0  0  0
    2.2398   -0.3118    0.0468 C   0  0  0  0  0  0  0  0  0  0  0  0
    4.9439    0.9936    0.6368 C   0  0  0  0  0  0  0  0  0  0  0  0
   -2.5508   -2.9462    0.1315 C   0  0  0  0  0  0  0  0  0  0  0  0
   -2.7779   -4.1258   -0.7757 C   0  0  0  0  0  0  0  0  0  0  0  0
   -2.0687   -0.6518    1.1515 H   0  0  0  0  0  0  0  0  0  0  0  0
   -2.9999    0.4832   -1.5251 H   0  0  0  0  0  0  0  0  0  0  0  0
   -2.8087    1.9834    1.1355 H   0  0  0  0  0  0  0  0  0  0  0  0
   -0.2827   -0.0114   -1.2628 H   0  0  0  0  0  0  0  0  0  0  0  0
   -0.9319    2.2622   -1.3001 H   0  0  0  0  0  0  0  0  0  0  0  0
   -2.0780   -1.8669   -1.5788 H   0  0  0  0  0  0  0  0  0  0  0  0
   -0.8351    3.6059    1.4519 H   0  0  0  0  0  0  0  0  0  0  0  0
   -1.3058    4.4066   -0.0665 H   0  0  0  0  0  0  0  0  0  0  0  0
    3.4949   -1.1894    1.5786 H   0  0  0  0  0  0  0  0  0  0  0  0
    3.4789   -2.0813    0.0607 H   0  0  0  0  0  0  0  0  0  0  0  0
    2.2225    0.6817    0.5045 H   0  0  0  0  0  0  0  0  0  0  0  0
    2.2438   -0.1848   -1.0411 H   0  0  0  0  0  0  0  0  0  0  0  0
   -4.1986    0.1498    1.0315 H   0  0  0  0  0  0  0  0  0  0  0  0
   -3.2435    2.7970   -1.5575 H   0  0  0  0  0  0  0  0  0  0  0  0
    4.3020    1.7309    0.1439 H   0  0  0  0  0  0  0  0  0  0  0  0
    4.7265    1.0140    1.7100 H   0  0  0  0  0  0  0  0  0  0  0  0
    5.9787    1.3323    0.5106 H   0  0  0  0  0  0  0  0  0  0  0  0
    1.1538    3.0762    0.4513 H   0  0  0  0  0  0  0  0  0  0  0  0
   -2.8928   -5.0339   -0.1775 H   0  0  0  0  0  0  0  0  0  0  0  0
   -3.6857   -3.9649   -1.3636 H   0  0  0  0  0  0  0  0  0  0  0  0
   -1.9253   -4.2553   -1.4486 H   0  0  0  0  0  0  0  0  0  0  0  0
  1 13  1  0  0  0  0
  1 18  1  0  0  0  0
  2 13  1  0  0  0  0
  2 14  1  0  0  0  0
  3 11  1  0  0  0  0
  3 34  1  0  0  0  0
  4 12  1  0  0  0  0
  4 35  1  0  0  0  0
  5 15  1  0  0  0  0
  5 39  1  0  0  0  0
  6 20  2  0  0  0  0
  7 10  1  0  0  0  0
  7 20  1  0  0  0  0
  7 27  1  0  0  0  0
  8  9  2  0  0  0  0
  8 16  1  0  0  0  0
  9 16  1  0  0  0  0
 10 11  1  0  0  0  0
 10 13  1  0  0  0  0
 10 22  1  0  0  0  0
 11 12  1  0  0  0  0
 11 23  1  0  0  0  0
 12 14  1  0  0  0  0
 12 24  1  0  0  0  0
 13 25  1  0  0  0  0
 14 15  1  0  0  0  0
 14 26  1  0  0  0  0
 15 28  1  0  0  0  0
 15 29  1  0  0  0  0
 16 17  1  0  0  0  0
 16 19  1  0  0  0  0
 17 18  1  0  0  0  0
 17 30  1  0  0  0  0
 17 31  1  0  0  0  0
 18 32  1  0  0  0  0
 18 33  1  0  0  0  0
 19 36  1  0  0  0  0
 19 37  1  0  0  0  0
 19 38  1  0  0  0  0
 20 21  1  0  0  0  0
 21 40  1  0  0  0  0
 21 41  1  0  0  0  0
 21 42  1  0  0  0  0
M  END
> <PUBCHEM_COMPOUND_CID>
126599

> <PUBCHEM_CONFORMER_RMSD>
0.8

> <PUBCHEM_CONFORMER_DIVERSEORDER>
1
94
65
40
153
2
81
132
129
49
99
151
110
166
108
69
116
36
112
95
142
159
55
155
119
58
13
135
41
4
42
87
88
101
93
74
56
14
47
9
121
64
157
158
22
98
30
115
139
105
117
77
100
78
161
53
156
152
154
111
26
96
38
126
59
20
63
29
144
45
106
124
127
54
146
120
92
163
10
7
76
70
21
138
27
90
136
3
82
35
128
68
11
16
149
162
141
17
122
8
147
19
12
91
148
24
104
73
143
80
44
51
84
37
5
89
52
60
107
67
34
18
61
131
6
113
33
79
85
46
48
150
167
86
71
109
145
66
160
118
50
43
140
165
133
39
103
137
23
28
97
134
25
102
31
15
32
75
72
83
62
123
164
130
57
114
125

> <PUBCHEM_MMFF94_PARTIAL_CHARGES>
25
1 -0.46
10 0.3
11 0.28
12 0.28
13 0.51
14 0.28
15 0.28
16 0.23
17 0.09
18 0.23
19 0.09
2 -0.56
20 0.57
21 0.06
27 0.37
3 -0.68
34 0.4
35 0.4
39 0.4
4 -0.68
5 -0.68
6 -0.57
7 -0.73
8 -0.21
9 -0.21

> <PUBCHEM_EFFECTIVE_ROTOR_COUNT>
8.4

> <PUBCHEM_PHARMACOPHORE_FEATURES>
10
1 2 acceptor
1 3 acceptor
1 3 donor
1 4 acceptor
1 4 donor
1 5 acceptor
1 5 donor
1 6 acceptor
1 7 donor
6 2 10 11 12 13 14 rings

> <PUBCHEM_HEAVY_ATOM_COUNT>
21

> <PUBCHEM_ATOM_DEF_STEREO_COUNT>
5

> <PUBCHEM_ATOM_UDEF_STEREO_COUNT>
0

> <PUBCHEM_BOND_DEF_STEREO_COUNT>
0

> <PUBCHEM_BOND_UDEF_STEREO_COUNT>
0

> <PUBCHEM_ISOTOPIC_ATOM_COUNT>
0

> <PUBCHEM_COMPONENT_COUNT>
1

> <PUBCHEM_CACTVS_TAUTO_COUNT>
2

> <PUBCHEM_CONFORMER_ID>
0001EE8700000001

> <PUBCHEM_MMFF94_ENERGY>
43.0245

> <PUBCHEM_FEATURE_SELFOVERLAP>
50.761

> <PUBCHEM_SHAPE_FINGERPRINT>
10411042 1 18194400228418545735
10498660 4 18337666396154653504
10616163 171 18410855452013747462
1100329 8 18410013273498632825
11680986 33 18196641016099179321
12173636 292 18050559651750178076
12390115 104 18055644923325716617
12553582 1 18337658780871487939
12788726 201 18334005082263184195
13140716 1 18194127532718160315
14251757 5 18410294670828191984
14790565 3 17980762636608646993
14844126 61 18408881862574412466
15042514 8 18410017641195633563
1813 80 18055088802085589286
19591789 44 16030987100551516138
20101258 96 18264778816375779331
20510252 161 18198059171134283385
21339142 51 18410007741163959205
2297311 6 18340216219253230254
23402539 116 18271235024200333237
23557571 272 18343306938012406900
23559900 14 18268698575392169057
23598288 3 18335435585418661823
3178227 256 18336275574755190665
5104073 3 18341608235861260914
5486654 2 18338234843465662741
9709674 26 18271528581337012710

> <PUBCHEM_SHAPE_MULTIPOLES>
391.73
9.94
4.76
0.85
17.15
0.6
0.02
-3.74
-1.15
-5.98
-0.09
0.11
-0.35
0.52

> <PUBCHEM_SHAPE_SELFOVERLAP>
771.538

> <PUBCHEM_SHAPE_VOLUME>
236.1

> <PUBCHEM_COORDINATE_TYPE>
2
5
10

$$$$
