1265899
  -OEChem-03292013313D

 33 34  0     1  0  0  0  0  0999 V2000
   -1.6246    0.4327   -1.1215 O   0  0  0  0  0  0  0  0  0  0  0  0
   -1.9799   -2.0763    1.4158 O   0  0  0  0  0  0  0  0  0  0  0  0
   -4.0207   -1.0175   -0.0513 O   0  0  0  0  0  0  0  0  0  0  0  0
   -1.9460    3.1941   -0.7487 O   0  0  0  0  0  0  0  0  0  0  0  0
    0.5913   -2.9674   -0.4835 O   0  0  0  0  0  0  0  0  0  0  0  0
    2.8187    1.9909    0.0354 O   0  0  0  0  0  0  0  0  0  0  0  0
    4.3316   -0.3210   -0.0234 O   0  0  0  0  0  0  0  0  0  0  0  0
    0.2894   -0.6558   -0.3366 N   0  0  0  0  0  0  0  0  0  0  0  0
    2.4504   -1.6416   -0.2552 N   0  0  0  0  0  0  0  0  0  0  0  0
   -1.8220   -0.7653    0.9135 C   0  0  2  0  0  0  0  0  0  0  0  0
   -3.1490   -0.1018    0.6112 C   0  0  1  0  0  0  0  0  0  0  0  0
   -1.1394   -0.7375   -0.4432 C   0  0  1  0  0  0  0  0  0  0  0  0
   -2.7477    0.9723   -0.3907 C   0  0  1  0  0  0  0  0  0  0  0  0
   -2.3054    2.2731    0.2661 C   0  0  0  0  0  0  0  0  0  0  0  0
    0.9053    0.5836   -0.2034 C   0  0  0  0  0  0  0  0  0  0  0  0
    1.0678   -1.8363   -0.3673 C   0  0  0  0  0  0  0  0  0  0  0  0
    2.2256    0.7561   -0.0971 C   0  0  0  0  0  0  0  0  0  0  0  0
    3.1126   -0.4309   -0.1198 C   0  0  0  0  0  0  0  0  0  0  0  0
    2.9421    2.3486    1.3995 C   0  0  0  0  0  0  0  0  0  0  0  0
   -1.2733   -0.1735    1.6561 H   0  0  0  0  0  0  0  0  0  0  0  0
   -3.6690    0.2716    1.4971 H   0  0  0  0  0  0  0  0  0  0  0  0
   -1.4072   -1.6149   -1.0441 H   0  0  0  0  0  0  0  0  0  0  0  0
   -3.5355    1.1734   -1.1256 H   0  0  0  0  0  0  0  0  0  0  0  0
   -1.4504    2.1408    0.9336 H   0  0  0  0  0  0  0  0  0  0  0  0
   -3.1299    2.7039    0.8436 H   0  0  0  0  0  0  0  0  0  0  0  0
   -1.0926   -2.4636    1.5048 H   0  0  0  0  0  0  0  0  0  0  0  0
   -3.6218   -1.2793   -0.8978 H   0  0  0  0  0  0  0  0  0  0  0  0
    0.2718    1.4581   -0.1882 H   0  0  0  0  0  0  0  0  0  0  0  0
    3.0282   -2.4774   -0.2746 H   0  0  0  0  0  0  0  0  0  0  0  0
   -1.6790    4.0180   -0.3067 H   0  0  0  0  0  0  0  0  0  0  0  0
    3.5612    1.6298    1.9476 H   0  0  0  0  0  0  0  0  0  0  0  0
    1.9595    2.4384    1.8762 H   0  0  0  0  0  0  0  0  0  0  0  0
    3.4325    3.3252    1.4526 H   0  0  0  0  0  0  0  0  0  0  0  0
  1 12  1  0  0  0  0
  1 13  1  0  0  0  0
  2 10  1  0  0  0  0
  2 26  1  0  0  0  0
  3 11  1  0  0  0  0
  3 27  1  0  0  0  0
  4 14  1  0  0  0  0
  4 30  1  0  0  0  0
  5 16  2  0  0  0  0
  6 17  1  0  0  0  0
  6 19  1  0  0  0  0
  7 18  2  0  0  0  0
  8 12  1  0  0  0  0
  8 15  1  0  0  0  0
  8 16  1  0  0  0  0
  9 16  1  0  0  0  0
  9 18  1  0  0  0  0
  9 29  1  0  0  0  0
 10 11  1  0  0  0  0
 10 12  1  0  0  0  0
 10 20  1  0  0  0  0
 11 13  1  0  0  0  0
 11 21  1  0  0  0  0
 12 22  1  0  0  0  0
 13 14  1  0  0  0  0
 13 23  1  0  0  0  0
 14 24  1  0  0  0  0
 14 25  1  0  0  0  0
 15 17  2  0  0  0  0
 15 28  1  0  0  0  0
 17 18  1  0  0  0  0
 19 31  1  0  0  0  0
 19 32  1  0  0  0  0
 19 33  1  0  0  0  0
M  END
> <PUBCHEM_COMPOUND_CID>
1265899

> <PUBCHEM_CONFORMER_RMSD>
0.6

> <PUBCHEM_CONFORMER_DIVERSEORDER>
1
19
28
4
17
23
26
6
15
7
24
13
12
5
20
27
11
10
22
9
21
25
16
14
3
8
18
2

> <PUBCHEM_MMFF94_PARTIAL_CHARGES>
24
1 -0.56
10 0.28
11 0.28
12 0.58
13 0.28
14 0.28
15 -0.04
16 0.69
17 0.09
18 0.62
19 0.28
2 -0.68
26 0.4
27 0.4
28 0.15
29 0.37
3 -0.68
30 0.4
4 -0.68
5 -0.57
6 -0.36
7 -0.57
8 -0.47
9 -0.49

> <PUBCHEM_EFFECTIVE_ROTOR_COUNT>
4

> <PUBCHEM_PHARMACOPHORE_FEATURES>
13
1 1 acceptor
1 2 acceptor
1 2 donor
1 3 acceptor
1 3 donor
1 4 acceptor
1 4 donor
1 5 acceptor
1 6 acceptor
1 7 acceptor
1 9 donor
5 1 10 11 12 13 rings
6 8 9 15 16 17 18 rings

> <PUBCHEM_HEAVY_ATOM_COUNT>
19

> <PUBCHEM_ATOM_DEF_STEREO_COUNT>
4

> <PUBCHEM_ATOM_UDEF_STEREO_COUNT>
0

> <PUBCHEM_BOND_DEF_STEREO_COUNT>
0

> <PUBCHEM_BOND_UDEF_STEREO_COUNT>
0

> <PUBCHEM_ISOTOPIC_ATOM_COUNT>
0

> <PUBCHEM_COMPONENT_COUNT>
1

> <PUBCHEM_CACTVS_TAUTO_COUNT>
3

> <PUBCHEM_CONFORMER_ID>
001350EB00000001

> <PUBCHEM_MMFF94_ENERGY>
56.6663

> <PUBCHEM_FEATURE_SELFOVERLAP>
65.998

> <PUBCHEM_SHAPE_FINGERPRINT>
10366900 7 18335710459009493802
10608611 8 18410292467304396757
10967382 1 18194965364219527389
1100329 8 14736196783465851344
12403259 226 18413106182005321594
12403260 363 18411689989569837738
13140716 1 18339366378037191082
13294875 104 17248623080841592449
14026960 21 18338802341599143640
14223421 5 18410581673301166571
14648413 74 18266741272806072661
15375462 6 18410858797402198885
15775835 57 17916869148059882572
16945 1 18341043013078939487
17802600 8 18413386536006286360
18186145 218 17917716829070993096
19049666 15 18191874422327669195
200 152 18201430377243918519
20510252 161 18335706001276435441
21501502 16 18263648363935445463
21524375 3 18201439233155415198
22854114 111 18271809059590776856
23402539 116 18335698352092785407
23419403 2 14459181713585941747
23557571 272 18113628910488658315
23559900 14 18334012812982120708
25 1 18121780517365261988
2748010 2 18338240473951126846
3286 77 18408039593970479222
350125 39 18411705391444159844
7364860 26 18198063577596740150
7832392 63 17910675367206349837
81228 2 17968674752159441721
8809292 202 18190749639207093672
9709674 26 18410581651847987831

> <PUBCHEM_SHAPE_MULTIPOLES>
339.96
6.35
2.99
0.98
1.46
0.85
0.24
1.21
0.71
0.06
0.09
-0.22
0.11
1.24

> <PUBCHEM_SHAPE_SELFOVERLAP>
714.636

> <PUBCHEM_SHAPE_VOLUME>
191.7

> <PUBCHEM_COORDINATE_TYPE>
2
5
10

$$$$
