REMARK  Name = 126569
REMARK  5 active torsions:
REMARK  status: ('A' for Active; 'I' for Inactive)
REMARK    1  A    between atoms: N_4  and  C_11
REMARK    2  A    between atoms: C_11  and  CA_12
REMARK    3  A    between atoms: CA_12  and  N_13
REMARK    4  A    between atoms: CA_12  and  C_18
REMARK    5  A    between atoms: C_18  and  O_19
REMARK                            x       y       z     vdW  Elec       q    Type
REMARK                         _______ _______ _______ _____ _____    ______ ____
ROOT
ATOM      1  F   UNL     1       3.171  -1.775   0.566  0.00  0.00    -0.198 F 
ATOM      2  O   UNL     1      -0.496   1.836  -1.094  0.00  0.00    -0.252 OA
ATOM      3  O   UNL     1       3.735   0.883   0.486  0.00  0.00    -0.267 OA
ATOM      4  N   UNL     1       0.064  -0.391  -0.664  0.00  0.00    -0.241 N 
ATOM      5  N   UNL     1       1.609   1.361  -0.307  0.00  0.00    -0.234 N 
ATOM      6  C   UNL     1       0.320   0.991  -0.719  0.00  0.00    +0.314 C 
ATOM      7  C   UNL     1       1.020  -1.289  -0.235  0.00  0.00    +0.103 C 
ATOM      8  C   UNL     1       2.236  -0.903   0.149  0.00  0.00    +0.208 C 
ATOM      9  C   UNL     1       2.619   0.516   0.134  0.00  0.00    +0.282 C 
ATOM     10  H   UNL     1       1.821   2.323  -0.333  0.00  0.00    +0.159 HD
ENDROOT
BRANCH   4  11
ATOM     11  C   UNL     1      -1.235  -0.920  -1.062  0.00  0.00    +0.089 C 
BRANCH  11  12
ATOM     12  CA  UNL     1      -2.207  -0.987   0.116  0.00  0.00    +0.056 C 
BRANCH  12  13
ATOM     13  N   UNL     1      -3.511  -1.467  -0.338  0.00  0.00    +0.390 N 
ATOM     14  H1  UNL     1      -3.402  -2.380  -0.779  0.00  0.00    -0.088 HD
ATOM     15  H2  UNL     1      -3.900  -0.808  -1.012  0.00  0.00    -0.088 HD
ATOM     16  H3  UNL     1      -4.140  -1.549   0.460  0.00  0.00    -0.088 HD
ENDBRANCH  12  13
BRANCH  12  18
ATOM     17  OXT UNL     1      -3.306   1.169   0.425  0.00  0.00    -0.253 OA
ATOM     18  C   UNL     1      -2.442   0.369   0.760  0.00  0.00    +0.295 C 
BRANCH  18  19
ATOM     19  O   UNL     1      -1.577   0.606   1.782  0.00  0.00    -0.482 OA
ATOM     20  H   UNL     1      -0.930  -0.033   2.006  0.00  0.00    +0.295 HD
ENDBRANCH  18  19
ENDBRANCH  12  18
ENDBRANCH  11  12
ENDBRANCH   4  11
TORSDOF 5
