REMARK  Name = 126556
REMARK  4 active torsions:
REMARK  status: ('A' for Active; 'I' for Inactive)
REMARK    1  A    between atoms: C_9  and  C_25
REMARK    2  A    between atoms: C_13  and  O_23
REMARK    3  A    between atoms: C_25  and  C_27
REMARK    4  A    between atoms: C_27  and  O_28
REMARK                            x       y       z     vdW  Elec       q    Type
REMARK                         _______ _______ _______ _____ _____    ______ ____
ROOT
ATOM      1  O   UNL     1       0.954  -2.086  -0.739  0.00  0.00    -0.351 OA
ATOM      2  O   UNL     1       0.803   0.924  -2.167  0.00  0.00    -0.351 OA
ATOM      3  O   UNL     1       2.437  -0.033   1.777  0.00  0.00    -0.351 OA
ATOM      4  O   UNL     1      -5.237   1.514   0.610  0.00  0.00    -0.441 OA
ATOM      5  O   UNL     1      -6.230  -0.554   0.807  0.00  0.00    -0.245 OA
ATOM      6  C   UNL     1       0.358  -0.828  -0.379  0.00  0.00    +0.147 C 
ATOM      7  C   UNL     1       1.149   0.430  -0.858  0.00  0.00    +0.169 C 
ATOM      8  C   UNL     1       1.041  -1.744   0.650  0.00  0.00    +0.172 C 
ATOM      9  C   UNL     1       3.179  -0.211   0.570  0.00  0.00    +0.149 C 
ATOM     10  C   UNL     1      -1.185  -0.779  -0.492  0.00  0.00    +0.032 C 
ATOM     11  C   UNL     1       2.400  -1.346   1.177  0.00  0.00    +0.172 C 
ATOM     12  C   UNL     1       0.385   1.735  -1.069  0.00  0.00    +0.145 C 
ATOM     13  C   UNL     1       2.657   0.493  -0.644  0.00  0.00    +0.167 C 
ATOM     14  C   UNL     1      -1.635   0.661  -0.006  0.00  0.00    +0.027 C 
ATOM     15  C   UNL     1      -1.105   1.789  -0.913  0.00  0.00    +0.036 C 
ATOM     16  C   UNL     1      -1.905  -1.827   0.420  0.00  0.00    +0.008 C 
ATOM     17  C   UNL     1      -1.596  -1.073  -1.960  0.00  0.00    +0.003 C 
ATOM     18  C   UNL     1      -3.119   0.740   0.218  0.00  0.00    +0.001 C 
ATOM     19  C   UNL     1      -3.442  -1.743   0.371  0.00  0.00    +0.032 C 
ATOM     20  C   UNL     1      -3.892  -0.332   0.378  0.00  0.00    +0.049 C 
ATOM     21  C   UNL     1      -3.904   1.981   0.360  0.00  0.00    +0.231 C 
ATOM     22  C   UNL     1      -5.251   0.147   0.621  0.00  0.00    +0.337 C 
ENDROOT
BRANCH  13  23
ATOM     23  O   UNL     1       3.302  -0.067  -1.795  0.00  0.00    -0.379 OA
ATOM     24  H   UNL     1       2.978   0.376  -2.595  0.00  0.00    +0.211 HD
ENDBRANCH  13  23
BRANCH   9  25
ATOM     25  C   UNL     1       4.650  -0.156   0.798  0.00  0.00    +0.059 C 
ATOM     26  C   UNL     1       5.420  -1.029  -0.216  0.00  0.00    +0.005 C 
BRANCH  25  27
ATOM     27  C   UNL     1       5.186   1.291   0.742  0.00  0.00    +0.140 C 
BRANCH  27  28
ATOM     28  O   UNL     1       4.581   2.103   1.740  0.00  0.00    -0.382 OA
ATOM     29  H   UNL     1       4.935   3.004   1.682  0.00  0.00    +0.210 HD
ENDBRANCH  27  28
ENDBRANCH  25  27
ENDBRANCH   9  25
TORSDOF 4
