REMARK  Name = 126598
REMARK  9 active torsions:
REMARK  status: ('A' for Active; 'I' for Inactive)
REMARK    1  A    between atoms: C_2  and  N_8
REMARK    2  A    between atoms: C_3  and  O_12
REMARK    3  A    between atoms: C_4  and  O_14
REMARK    4  A    between atoms: C_5  and  S_16
REMARK    5  A    between atoms: C_6  and  C_23
REMARK    6  A    between atoms: S_16  and  C_17
REMARK    7  A    between atoms: C_17  and  C_18
REMARK    8  A    between atoms: C_18  and  C_21
REMARK    9  A    between atoms: C_23  and  O_24
REMARK                            x       y       z     vdW  Elec       q    Type
REMARK                         _______ _______ _______ _____ _____    ______ ____
ROOT
ATOM      1  O   UNL     1       0.213  -1.296   0.141  0.00  0.00    -0.341 OA
ATOM      2  C   UNL     1       1.983   0.390  -0.042  0.00  0.00    +0.139 C 
ATOM      3  C   UNL     1       2.928  -0.702  -0.568  0.00  0.00    +0.161 C 
ATOM      4  C   UNL     1       2.489  -2.091  -0.100  0.00  0.00    +0.168 C 
ATOM      5  C   UNL     1       0.519   0.015  -0.341  0.00  0.00    +0.183 C 
ATOM      6  C   UNL     1       1.018  -2.320  -0.456  0.00  0.00    +0.175 C 
ENDROOT
BRANCH   2   8
ATOM      7  O   UNL     1       2.923   2.770   1.327  0.00  0.00    -0.275 OA
ATOM      8  N   UNL     1       2.336   1.663  -0.634  0.00  0.00    -0.301 N 
ATOM      9  C   UNL     1       2.776   2.743   0.108  0.00  0.00    +0.223 C 
ATOM     10  C   UNL     1       3.098   3.933  -0.757  0.00  0.00    +0.095 C 
ATOM     11  H   UNL     1       2.259   1.764  -1.610  0.00  0.00    +0.150 HD
ENDBRANCH   2   8
BRANCH   3  12
ATOM     12  O   UNL     1       4.255  -0.442  -0.116  0.00  0.00    -0.380 OA
ATOM     13  H   UNL     1       4.531   0.439  -0.413  0.00  0.00    +0.211 HD
ENDBRANCH   3  12
BRANCH   4  14
ATOM     14  O   UNL     1       2.647  -2.193   1.316  0.00  0.00    -0.379 OA
ATOM     15  H   UNL     1       3.577  -2.049   1.549  0.00  0.00    +0.211 HD
ENDBRANCH   4  14
BRANCH   5  16
ATOM     16  S   UNL     1      -0.627   1.224   0.418  0.00  0.00    -0.110 S 
BRANCH  16  17
ATOM     17  C   UNL     1      -2.175   0.475  -0.131  0.00  0.00    +0.063 C 
BRANCH  17  18
ATOM     18  C   UNL     1      -3.367   1.307   0.328  0.00  0.00    +0.047 C 
BRANCH  18  21
ATOM     19  N   UNL     1      -5.825   0.937   0.694  0.00  0.00    -0.115 NA
ATOM     20  N   UNL     1      -5.327  -0.199   0.777  0.00  0.00    -0.115 NA
ATOM     21  C   UNL     1      -4.662   0.706  -0.129  0.00  0.00    +0.154 C 
ATOM     22  C   UNL     1      -4.834   0.525  -1.578  0.00  0.00    +0.039 C 
ENDBRANCH  18  21
ENDBRANCH  17  18
ENDBRANCH  16  17
ENDBRANCH   5  16
BRANCH   6  23
ATOM     23  C   UNL     1       0.499  -3.660   0.052  0.00  0.00    +0.169 C 
BRANCH  23  24
ATOM     24  O   UNL     1      -0.865  -3.783  -0.309  0.00  0.00    -0.379 OA
ATOM     25  H   UNL     1      -1.208  -4.633   0.009  0.00  0.00    +0.211 HD
ENDBRANCH  23  24
ENDBRANCH   6  23
TORSDOF 9
