REMARK  Name = 1265899
REMARK  6 active torsions:
REMARK  status: ('A' for Active; 'I' for Inactive)
REMARK    1  A    between atoms: C2*_2  and  O2*_17
REMARK    2  A    between atoms: C3*_3  and  O3*_19
REMARK    3  A    between atoms: C1*_4  and  N_8
REMARK    4  A    between atoms: C4*_5  and  C5*_21
REMARK    5  A    between atoms: C_12  and  O_15
REMARK    6  A    between atoms: C5*_21  and  O5*_22
REMARK                            x       y       z     vdW  Elec       q    Type
REMARK                         _______ _______ _______ _____ _____    ______ ____
ROOT
ATOM      1  O4* UNL     1      -1.625   0.433  -1.121  0.00  0.00    -0.333 OA
ATOM      2  C2* UNL     1      -1.822  -0.765   0.913  0.00  0.00    +0.187 C 
ATOM      3  C3* UNL     1      -3.149  -0.102   0.611  0.00  0.00    +0.171 C 
ATOM      4  C1* UNL     1      -1.139  -0.738  -0.443  0.00  0.00    +0.229 C 
ATOM      5  C4* UNL     1      -2.748   0.972  -0.391  0.00  0.00    +0.175 C 
ENDROOT
BRANCH   4   8
ATOM      6  O   UNL     1       0.591  -2.967  -0.483  0.00  0.00    -0.252 OA
ATOM      7  O   UNL     1       4.332  -0.321  -0.023  0.00  0.00    -0.266 OA
ATOM      8  N   UNL     1       0.289  -0.656  -0.337  0.00  0.00    -0.214 N 
ATOM      9  N   UNL     1       2.450  -1.642  -0.255  0.00  0.00    -0.233 N 
ATOM     10  C   UNL     1       0.905   0.584  -0.203  0.00  0.00    +0.113 C 
ATOM     11  C   UNL     1       1.068  -1.836  -0.367  0.00  0.00    +0.316 C 
ATOM     12  C   UNL     1       2.226   0.756  -0.097  0.00  0.00    +0.207 C 
ATOM     13  C   UNL     1       3.113  -0.431  -0.120  0.00  0.00    +0.288 C 
ATOM     14  H   UNL     1       3.012  -2.450  -0.275  0.00  0.00    +0.160 HD
BRANCH  12  15
ATOM     15  O   UNL     1       2.819   1.991   0.035  0.00  0.00    -0.466 OA
ATOM     16  C   UNL     1       2.942   2.349   1.399  0.00  0.00    +0.253 C 
ENDBRANCH  12  15
ENDBRANCH   4   8
BRANCH   2  17
ATOM     17  O2* UNL     1      -1.980  -2.076   1.416  0.00  0.00    -0.378 OA
ATOM     18  H2* UNL     1      -2.419  -2.041   2.280  0.00  0.00    +0.211 HD
ENDBRANCH   2  17
BRANCH   3  19
ATOM     19  O3* UNL     1      -4.021  -1.018  -0.051  0.00  0.00    -0.379 OA
ATOM     20  H3* UNL     1      -4.291  -1.713   0.569  0.00  0.00    +0.211 HD
ENDBRANCH   3  19
BRANCH   5  21
ATOM     21  C5* UNL     1      -2.305   2.273   0.266  0.00  0.00    +0.169 C 
BRANCH  21  22
ATOM     22  O5* UNL     1      -1.946   3.194  -0.749  0.00  0.00    -0.379 OA
ATOM     23  H5* UNL     1      -1.662   4.028  -0.343  0.00  0.00    +0.211 HD
ENDBRANCH  21  22
ENDBRANCH   5  21
TORSDOF 6
