REMARK  Name = 126505
REMARK  6 active torsions:
REMARK  status: ('A' for Active; 'I' for Inactive)
REMARK    1  A    between atoms: N_2  and  C1*_14
REMARK    2  A    between atoms: C_7  and  C_23
REMARK    3  A    between atoms: C2*_12  and  O2*_16
REMARK    4  A    between atoms: C3*_13  and  O3*_18
REMARK    5  A    between atoms: C4*_15  and  C5*_20
REMARK    6  A    between atoms: C5*_20  and  O5*_21
REMARK                            x       y       z     vdW  Elec       q    Type
REMARK                         _______ _______ _______ _____ _____    ______ ____
ROOT
ATOM      1  O   UNL     1       0.725   3.009   0.505  0.00  0.00    -0.193 OA
ATOM      2  N   UNL     1       0.334   0.748   0.264  0.00  0.00    -0.177 N 
ATOM      3  N   UNL     1       2.553   1.695   0.230  0.00  0.00    -0.305 NA
ATOM      4  N   UNL     1       4.439   0.383  -0.049  0.00  0.00    -0.332 N 
ATOM      5  C   UNL     1       0.894  -0.509   0.078  0.00  0.00    +0.092 C 
ATOM      6  C   UNL     1       1.187   1.878   0.341  0.00  0.00    +0.276 C 
ATOM      7  C   UNL     1       2.208  -0.716  -0.033  0.00  0.00    +0.103 C 
ATOM      8  C   UNL     1       3.070   0.504   0.055  0.00  0.00    +0.200 C 
ATOM      9  H   UNL     1       5.010   1.183   0.008  0.00  0.00    +0.145 HD
ATOM     10  H   UNL     1       4.846  -0.504  -0.180  0.00  0.00    +0.145 HD
ENDROOT
BRANCH   2  14
ATOM     11  O4* UNL     1      -1.621  -0.305   1.014  0.00  0.00    -0.332 OA
ATOM     12  C2* UNL     1      -1.810   0.977  -0.964  0.00  0.00    +0.188 C 
ATOM     13  C3* UNL     1      -3.193   0.472  -0.610  0.00  0.00    +0.171 C 
ATOM     14  C1* UNL     1      -1.090   0.861   0.371  0.00  0.00    +0.236 C 
ATOM     15  C4* UNL     1      -2.922  -0.588   0.460  0.00  0.00    +0.175 C 
BRANCH  12  16
ATOM     16  O2* UNL     1      -1.243   0.103  -1.934  0.00  0.00    -0.378 OA
ATOM     17  H2* UNL     1      -1.721   0.199  -2.773  0.00  0.00    +0.211 HD
ENDBRANCH  12  16
BRANCH  13  18
ATOM     18  O3* UNL     1      -3.942   1.530  -0.015  0.00  0.00    -0.379 OA
ATOM     19  H3* UNL     1      -4.122   2.212  -0.681  0.00  0.00    +0.211 HD
ENDBRANCH  13  18
BRANCH  15  20
ATOM     20  C5* UNL     1      -2.898  -2.008  -0.088  0.00  0.00    +0.169 C 
BRANCH  20  21
ATOM     21  O5* UNL     1      -2.631  -2.902   0.979  0.00  0.00    -0.379 OA
ATOM     22  H5* UNL     1      -2.612  -3.811   0.642  0.00  0.00    +0.211 HD
ENDBRANCH  20  21
ENDBRANCH  15  20
ENDBRANCH   2  14
BRANCH   7  23
ATOM     23  C   UNL     1       2.744  -2.017  -0.222  0.00  0.00    -0.046 C 
ATOM     24  C   UNL     1       3.196  -3.116  -0.383  0.00  0.00    -0.009 C 
ENDBRANCH   7  23
TORSDOF 6
