126578
  -OEChem-03292013323D

 40 41  0     1  0  0  0  0  0999 V2000
    3.6516    2.3868    0.6354 O   0  0  0  0  0  0  0  0  0  0  0  0
   -1.3015    1.3926    1.2283 O   0  0  0  0  0  0  0  0  0  0  0  0
    2.6592    2.0675   -1.4142 O   0  0  0  0  0  0  0  0  0  0  0  0
   -4.3000   -2.5819    0.2869 O   0  5  0  0  0  0  0  0  0  0  0  0
   -2.2935   -1.7392    0.6061 O   0  0  0  0  0  0  0  0  0  0  0  0
    0.4071    0.9607   -0.2854 N   0  0  0  0  0  0  0  0  0  0  0  0
   -3.2640    0.6686   -0.5948 N   0  0  0  0  0  0  0  0  0  0  0  0
   -5.2320    0.0677    0.2014 N   0  0  0  0  0  0  0  0  0  0  0  0
   -3.5121   -1.5935    0.3034 N   0  3  0  0  0  0  0  0  0  0  0  0
    1.5084    1.3169    0.5737 C   0  0  1  0  0  0  0  0  0  0  0  0
    1.9794    0.1147    1.4055 C   0  0  0  0  0  0  0  0  0  0  0  0
    2.5469   -1.0298    0.5966 C   0  0  0  0  0  0  0  0  0  0  0  0
   -1.8594    0.5937   -0.9851 C   0  0  0  0  0  0  0  0  0  0  0  0
   -0.9200    1.0293    0.1190 C   0  0  0  0  0  0  0  0  0  0  0  0
    2.6545    1.9652   -0.1918 C   0  0  0  0  0  0  0  0  0  0  0  0
    1.6988   -2.0303    0.1520 C   0  0  0  0  0  0  0  0  0  0  0  0
    3.9027   -1.0539    0.3164 C   0  0  0  0  0  0  0  0  0  0  0  0
   -3.9955   -0.3202   -0.0190 C   0  0  0  0  0  0  0  0  0  0  0  0
   -4.0619    1.7547   -0.7587 C   0  0  0  0  0  0  0  0  0  0  0  0
    2.2222   -3.0860   -0.5945 C   0  0  0  0  0  0  0  0  0  0  0  0
    4.4260   -2.1097   -0.4301 C   0  0  0  0  0  0  0  0  0  0  0  0
    3.5857   -3.1257   -0.8856 C   0  0  0  0  0  0  0  0  0  0  0  0
   -5.2802    1.3601   -0.2579 C   0  0  0  0  0  0  0  0  0  0  0  0
    4.7779    2.9920   -0.0074 C   0  0  0  0  0  0  0  0  0  0  0  0
    1.1389    2.0866    1.2639 H   0  0  0  0  0  0  0  0  0  0  0  0
    2.7341    0.4372    2.1353 H   0  0  0  0  0  0  0  0  0  0  0  0
    1.1439   -0.2625    2.0114 H   0  0  0  0  0  0  0  0  0  0  0  0
    0.6200    0.6337   -1.2237 H   0  0  0  0  0  0  0  0  0  0  0  0
   -1.6292   -0.4156   -1.3369 H   0  0  0  0  0  0  0  0  0  0  0  0
   -1.7311    1.2708   -1.8388 H   0  0  0  0  0  0  0  0  0  0  0  0
    0.6364   -2.0104    0.3745 H   0  0  0  0  0  0  0  0  0  0  0  0
    4.5695   -0.2742    0.6715 H   0  0  0  0  0  0  0  0  0  0  0  0
   -3.7192    2.6817   -1.1970 H   0  0  0  0  0  0  0  0  0  0  0  0
    1.5679   -3.8773   -0.9487 H   0  0  0  0  0  0  0  0  0  0  0  0
    5.4880   -2.1417   -0.6554 H   0  0  0  0  0  0  0  0  0  0  0  0
    3.9932   -3.9479   -1.4664 H   0  0  0  0  0  0  0  0  0  0  0  0
   -6.1892    1.9411   -0.2039 H   0  0  0  0  0  0  0  0  0  0  0  0
    5.2553    2.2785   -0.6858 H   0  0  0  0  0  0  0  0  0  0  0  0
    5.4974    3.2766    0.7650 H   0  0  0  0  0  0  0  0  0  0  0  0
    4.4675    3.8917   -0.5473 H   0  0  0  0  0  0  0  0  0  0  0  0
  1 15  1  0  0  0  0
  1 24  1  0  0  0  0
  2 14  2  0  0  0  0
  3 15  2  0  0  0  0
  4  9  1  0  0  0  0
  5  9  2  0  0  0  0
  6 10  1  0  0  0  0
  6 14  1  0  0  0  0
  6 28  1  0  0  0  0
  7 13  1  0  0  0  0
  7 18  1  0  0  0  0
  7 19  1  0  0  0  0
  8 18  2  0  0  0  0
  8 23  1  0  0  0  0
  9 18  1  0  0  0  0
 10 11  1  0  0  0  0
 10 15  1  0  0  0  0
 10 25  1  0  0  0  0
 11 12  1  0  0  0  0
 11 26  1  0  0  0  0
 11 27  1  0  0  0  0
 12 16  2  0  0  0  0
 12 17  1  0  0  0  0
 13 14  1  0  0  0  0
 13 29  1  0  0  0  0
 13 30  1  0  0  0  0
 16 20  1  0  0  0  0
 16 31  1  0  0  0  0
 17 21  2  0  0  0  0
 17 32  1  0  0  0  0
 19 23  2  0  0  0  0
 19 33  1  0  0  0  0
 20 22  2  0  0  0  0
 20 34  1  0  0  0  0
 21 22  1  0  0  0  0
 21 35  1  0  0  0  0
 22 36  1  0  0  0  0
 23 37  1  0  0  0  0
 24 38  1  0  0  0  0
 24 39  1  0  0  0  0
 24 40  1  0  0  0  0
M  CHG  2   4  -1   9   1
M  END
> <PUBCHEM_COMPOUND_CID>
126578

> <PUBCHEM_CONFORMER_RMSD>
1

> <PUBCHEM_CONFORMER_DIVERSEORDER>
1
97
180
184
151
241
214
176
103
208
129
91
32
62
56
240
104
166
207
201
124
228
110
15
181
90
218
88
107
101
172
204
123
199
68
235
16
230
78
118
187
154
206
168
112
46
227
86
202
92
194
164
53
120
51
87
4
155
165
70
217
223
8
200
113
186
175
29
25
160
63
221
64
14
100
126
210
231
59
134
183
105
3
84
196
35
132
146
77
156
215
153
102
213
38
139
7
22
178
58
40
234
36
44
27
117
198
82
149
130
150
203
9
182
147
136
128
162
145
20
30
152
163
114
49
71
219
54
192
93
109
226
95
229
31
161
238
6
135
111
61
11
108
119
69
50
125
137
81
83
85
94
39
13
222
144
96
232
2
43
193
133
73
17
185
66
60
239
141
67
169
106
33
122
143
224
191
148
24
237
52
98
34
65
216
5
37
140
48
18
158
167
23
173
159
42
74
80
179
197
142
99
205
190
174
79
47
211
28
220
127
157
138
45
116
57
236
76
121
41
212
55
115
188
131
195
225
72
171
170
189
233
177
10
75
21
209
12
26
89
19

> <PUBCHEM_MMFF94_PARTIAL_CHARGES>
32
1 -0.43
10 0.36
11 0.14
12 -0.14
13 0.32
14 0.57
15 0.66
16 -0.15
17 -0.15
18 0.27
19 -0.3
2 -0.57
20 -0.15
21 -0.15
22 -0.15
23 0.08
24 0.28
28 0.37
3 -0.57
31 0.15
32 0.15
33 0.15
34 0.15
35 0.15
36 0.15
37 0.15
4 -0.52
5 -0.52
6 -0.73
7 0.05
8 -0.57
9 0.96

> <PUBCHEM_EFFECTIVE_ROTOR_COUNT>
9

> <PUBCHEM_PHARMACOPHORE_FEATURES>
8
1 2 acceptor
1 3 acceptor
1 4 acceptor
1 5 acceptor
1 6 donor
4 7 8 9 18 cation
5 7 8 18 19 23 rings
6 12 16 17 20 21 22 rings

> <PUBCHEM_HEAVY_ATOM_COUNT>
24

> <PUBCHEM_ATOM_DEF_STEREO_COUNT>
1

> <PUBCHEM_ATOM_UDEF_STEREO_COUNT>
0

> <PUBCHEM_BOND_DEF_STEREO_COUNT>
0

> <PUBCHEM_BOND_UDEF_STEREO_COUNT>
0

> <PUBCHEM_ISOTOPIC_ATOM_COUNT>
0

> <PUBCHEM_COMPONENT_COUNT>
1

> <PUBCHEM_CACTVS_TAUTO_COUNT>
2

> <PUBCHEM_CONFORMER_ID>
0001EE7200000001

> <PUBCHEM_MMFF94_ENERGY>
52.0887

> <PUBCHEM_FEATURE_SELFOVERLAP>
40.677

> <PUBCHEM_SHAPE_FINGERPRINT>
10616163 171 18191305094659075691
12422481 6 18264746897017333016
12596602 18 14188135943756102598
13402501 40 18267585710885636863
13533116 47 18201433671578773385
13583140 156 18059283383617030961
13911882 115 18189907589315093451
13955234 65 18342453747022615864
14251757 17 18264483984483346667
14386348 63 18340485547830754219
14790565 3 17978230792168701044
15196674 1 18409445920955884723
17349148 13 13613651048571033809
17492 54 18188793669005527630
17913733 40 18200029685171378504
1813 80 17914060794174229038
18681886 176 18119525690254618280
20388580 30 18270121193620863100
20645477 70 18409162199378871344
20691752 17 16805597088120917691
20693207 138 18261111824843135599
221490 88 18409735062291060634
2215653 11 18268419141136516215
23559900 14 18340480071636117082
239999 70 18335415738717490034
3004659 81 18335135363020311385
314173 41 18266458707177174862
3421961 26 18340764837085355392
3633792 109 18339069377640233965
4280585 95 18191302672651254018
46194498 28 18113903732007126988
5104073 3 18334857229781404257
59755656 215 18408606968178312236
6443956 14 18339079281475771428
6823239 73 18410009901654016906
7364860 26 18412260628000203952
9709674 26 18261675969182846691

> <PUBCHEM_SHAPE_MULTIPOLES>
444.64
11.4
3.77
1.01
9.81
0.7
0.01
0.13
-0.99
-4.74
-0.53
-0.3
-0.14
1.12

> <PUBCHEM_SHAPE_SELFOVERLAP>
936.14

> <PUBCHEM_SHAPE_VOLUME>
249

> <PUBCHEM_COORDINATE_TYPE>
2
5
10

$$$$
