REMARK  Name = 1265900
REMARK  5 active torsions:
REMARK  status: ('A' for Active; 'I' for Inactive)
REMARK    1  A    between atoms: C_2  and  N_18
REMARK    2  A    between atoms: C_3  and  O_22
REMARK    3  A    between atoms: C_4  and  N_6
REMARK    4  A    between atoms: C_5  and  C_24
REMARK    5  A    between atoms: C_24  and  O_25
REMARK                            x       y       z     vdW  Elec       q    Type
REMARK                         _______ _______ _______ _____ _____    ______ ____
ROOT
ATOM      1  O   UNL     1      -2.076  -0.423  -0.870  0.00  0.00    -0.338 OA
ATOM      2  C   UNL     1      -3.639   0.879   0.347  0.00  0.00    -0.004 C 
ATOM      3  C   UNL     1      -2.271   1.532   0.489  0.00  0.00    +0.140 C 
ATOM      4  C   UNL     1      -1.556   0.916  -0.714  0.00  0.00    +0.220 C 
ATOM      5  C   UNL     1      -3.253  -0.548  -0.045  0.00  0.00    +0.129 C 
ENDROOT
BRANCH   4   6
ATOM      6  N   UNL     1      -0.100   0.894  -0.652  0.00  0.00    -0.247 N 
ATOM      7  N   UNL     1       2.015   1.553  -0.947  0.00  0.00    -0.242 NA
ATOM      8  N   UNL     1       0.284  -1.197   0.527  0.00  0.00    -0.228 NA
ATOM      9  N   UNL     1       4.353  -0.108   0.064  0.00  0.00    -0.289 N 
ATOM     10  N   UNL     1       2.667  -1.617   0.844  0.00  0.00    -0.228 NA
ATOM     11  C   UNL     1       0.688  -0.073  -0.085  0.00  0.00    +0.152 C 
ATOM     12  C   UNL     1       0.749   1.848  -1.156  0.00  0.00    +0.223 C 
ATOM     13  C   UNL     1       1.992   0.355  -0.278  0.00  0.00    +0.140 C 
ATOM     14  C   UNL     1       3.002  -0.465   0.214  0.00  0.00    +0.149 C 
ATOM     15  C   UNL     1       1.349  -1.907   0.960  0.00  0.00    +0.253 C 
ATOM     16  C   UNL     1       4.747   1.288   0.017  0.00  0.00    +0.114 C 
ATOM     17  C   UNL     1       5.381  -1.129  -0.032  0.00  0.00    +0.114 C 
ENDBRANCH   4   6
BRANCH   2  18
ATOM     18  N   UNL     1      -4.473   0.966   1.534  0.00  0.00    +0.385 N 
ATOM     19  H   UNL     1      -4.686   1.944   1.729  0.00  0.00    -0.089 HD
ATOM     20  H   UNL     1      -3.977   0.561   2.328  0.00  0.00    -0.089 HD
ATOM     21  H   UNL     1      -5.341   0.453   1.378  0.00  0.00    -0.089 HD
ENDBRANCH   2  18
BRANCH   3  22
ATOM     22  O   UNL     1      -1.670   1.122   1.714  0.00  0.00    -0.382 OA
ATOM     23  H   UNL     1      -2.143   1.527   2.458  0.00  0.00    +0.210 HD
ENDBRANCH   3  22
BRANCH   5  24
ATOM     24  C   UNL     1      -4.333  -1.294  -0.808  0.00  0.00    +0.165 C 
BRANCH  24  25
ATOM     25  O   UNL     1      -3.858  -2.592  -1.123  0.00  0.00    -0.380 OA
ATOM     26  H   UNL     1      -4.542  -3.077  -1.611  0.00  0.00    +0.211 HD
ENDBRANCH  24  25
ENDBRANCH   5  24
TORSDOF 5
