REMARK  Name = 126578
REMARK  7 active torsions:
REMARK  status: ('A' for Active; 'I' for Inactive)
REMARK    1  A    between atoms: N_2  and  C_5
REMARK    2  A    between atoms: C_3  and  C_17
REMARK    3  A    between atoms: C_5  and  C_7
REMARK    4  A    between atoms: C_5  and  C_10
REMARK    5  A    between atoms: C_7  and  O_8
REMARK    6  A    between atoms: C_10  and  C_11
REMARK    7  A    between atoms: C_17  and  N_20
REMARK                            x       y       z     vdW  Elec       q    Type
REMARK                         _______ _______ _______ _____ _____    ______ ____
ROOT
ATOM      1  O   UNL     1      -1.302   1.393   1.228  0.00  0.00    -0.273 OA
ATOM      2  N   UNL     1       0.407   0.961  -0.285  0.00  0.00    -0.295 N 
ATOM      3  C   UNL     1      -0.920   1.029   0.119  0.00  0.00    +0.243 C 
ATOM      4  H   UNL     1       0.604   0.655  -1.200  0.00  0.00    +0.150 HD
ENDROOT
BRANCH   2   5
ATOM      5  C   UNL     1       1.508   1.317   0.574  0.00  0.00    +0.176 C 
BRANCH   5   7
ATOM      6  O   UNL     1       2.659   2.067  -1.414  0.00  0.00    -0.248 OA
ATOM      7  C   UNL     1       2.655   1.965  -0.192  0.00  0.00    +0.335 C 
BRANCH   7   8
ATOM      8  O   UNL     1       3.652   2.387   0.635  0.00  0.00    -0.443 OA
ATOM      9  C   UNL     1       4.778   2.992  -0.007  0.00  0.00    +0.256 C 
ENDBRANCH   7   8
ENDBRANCH   5   7
BRANCH   5  10
ATOM     10  C   UNL     1       1.979   0.115   1.405  0.00  0.00    +0.057 C 
BRANCH  10  11
ATOM     11  C   UNL     1       2.547  -1.030   0.597  0.00  0.00    -0.020 C 
ATOM     12  C   UNL     1       1.699  -2.030   0.152  0.00  0.00    -0.004 C 
ATOM     13  C   UNL     1       3.903  -1.054   0.316  0.00  0.00    -0.004 C 
ATOM     14  C   UNL     1       2.222  -3.086  -0.595  0.00  0.00    -0.000 C 
ATOM     15  C   UNL     1       4.426  -2.110  -0.430  0.00  0.00    -0.000 C 
ATOM     16  C   UNL     1       3.586  -3.126  -0.886  0.00  0.00    -0.000 C 
ENDBRANCH  10  11
ENDBRANCH   5  10
ENDBRANCH   2   5
BRANCH   3  17
ATOM     17  C   UNL     1      -1.859   0.594  -0.985  0.00  0.00    +0.183 C 
BRANCH  17  20
ATOM     18  O   UNL     1      -4.300  -2.582   0.287  0.00  0.00    -0.123 OA
ATOM     19  O   UNL     1      -2.293  -1.739   0.606  0.00  0.00    -0.123 OA
ATOM     20  N   UNL     1      -3.264   0.669  -0.595  0.00  0.00    -0.242 N 
ATOM     21  N   UNL     1      -5.232   0.068   0.201  0.00  0.00    -0.207 NA
ATOM     22  N   UNL     1      -3.512  -1.593   0.303  0.00  0.00    +0.091 N 
ATOM     23  C   UNL     1      -3.995  -0.320  -0.019  0.00  0.00    +0.284 C 
ATOM     24  C   UNL     1      -4.062   1.755  -0.759  0.00  0.00    +0.089 C 
ATOM     25  C   UNL     1      -5.280   1.360  -0.258  0.00  0.00    +0.118 C 
ENDBRANCH  17  20
ENDBRANCH   3  17
TORSDOF 7
