126556
  -OEChem-03292013323D

 51 57  0     1  0  0  0  0  0999 V2000
    0.9535   -2.0862   -0.7388 O   0  0  0  0  0  0  0  0  0  0  0  0
    0.8026    0.9244   -2.1665 O   0  0  0  0  0  0  0  0  0  0  0  0
    2.4365   -0.0332    1.7769 O   0  0  0  0  0  0  0  0  0  0  0  0
    3.3023   -0.0668   -1.7949 O   0  0  0  0  0  0  0  0  0  0  0  0
   -5.2374    1.5138    0.6103 O   0  0  0  0  0  0  0  0  0  0  0  0
    4.5814    2.1032    1.7397 O   0  0  0  0  0  0  0  0  0  0  0  0
   -6.2302   -0.5539    0.8073 O   0  0  0  0  0  0  0  0  0  0  0  0
    0.3582   -0.8279   -0.3786 C   0  0  2  0  0  0  0  0  0  0  0  0
    1.1487    0.4299   -0.8576 C   0  0  2  0  0  0  0  0  0  0  0  0
    1.0407   -1.7440    0.6497 C   0  0  2  0  0  0  0  0  0  0  0  0
    3.1790   -0.2112    0.5700 C   0  0  1  0  0  0  0  0  0  0  0  0
   -1.1855   -0.7786   -0.4921 C   0  0  2  0  0  0  0  0  0  0  0  0
    2.4001   -1.3458    1.1765 C   0  0  1  0  0  0  0  0  0  0  0  0
    0.3852    1.7347   -1.0686 C   0  0  2  0  0  0  0  0  0  0  0  0
    2.6570    0.4933   -0.6444 C   0  0  1  0  0  0  0  0  0  0  0  0
   -1.6346    0.6614   -0.0065 C   0  0  1  0  0  0  0  0  0  0  0  0
   -1.1050    1.7887   -0.9132 C   0  0  0  0  0  0  0  0  0  0  0  0
    4.6499   -0.1562    0.7981 C   0  0  2  0  0  0  0  0  0  0  0  0
   -1.9049   -1.8269    0.4198 C   0  0  0  0  0  0  0  0  0  0  0  0
   -1.5957   -1.0727   -1.9603 C   0  0  0  0  0  0  0  0  0  0  0  0
   -3.1194    0.7397    0.2179 C   0  0  0  0  0  0  0  0  0  0  0  0
   -3.4415   -1.7433    0.3709 C   0  0  0  0  0  0  0  0  0  0  0  0
   -3.8918   -0.3324    0.3779 C   0  0  0  0  0  0  0  0  0  0  0  0
    5.1860    1.2913    0.7417 C   0  0  0  0  0  0  0  0  0  0  0  0
    5.4199   -1.0291   -0.2157 C   0  0  0  0  0  0  0  0  0  0  0  0
   -3.9037    1.9807    0.3596 C   0  0  0  0  0  0  0  0  0  0  0  0
   -5.2511    0.1471    0.6208 C   0  0  0  0  0  0  0  0  0  0  0  0
    0.4489   -2.3431    1.3276 H   0  0  0  0  0  0  0  0  0  0  0  0
    2.9603   -2.1283    1.6772 H   0  0  0  0  0  0  0  0  0  0  0  0
    0.8770    2.6866   -0.9288 H   0  0  0  0  0  0  0  0  0  0  0  0
    2.9394    1.5498   -0.6051 H   0  0  0  0  0  0  0  0  0  0  0  0
   -1.1770    0.8237    0.9826 H   0  0  0  0  0  0  0  0  0  0  0  0
   -1.5903    1.7666   -1.8966 H   0  0  0  0  0  0  0  0  0  0  0  0
   -1.3581    2.7606   -0.4713 H   0  0  0  0  0  0  0  0  0  0  0  0
    4.8657   -0.5482    1.8021 H   0  0  0  0  0  0  0  0  0  0  0  0
   -1.6017   -1.6655    1.4633 H   0  0  0  0  0  0  0  0  0  0  0  0
   -1.5976   -2.8472    0.1585 H   0  0  0  0  0  0  0  0  0  0  0  0
   -1.0642   -0.4549   -2.6862 H   0  0  0  0  0  0  0  0  0  0  0  0
   -1.3710   -2.1142   -2.2192 H   0  0  0  0  0  0  0  0  0  0  0  0
   -2.6633   -0.9130   -2.1378 H   0  0  0  0  0  0  0  0  0  0  0  0
    3.0215    0.4529   -2.5674 H   0  0  0  0  0  0  0  0  0  0  0  0
   -3.8557   -2.2808    1.2315 H   0  0  0  0  0  0  0  0  0  0  0  0
   -3.8172   -2.2426   -0.5293 H   0  0  0  0  0  0  0  0  0  0  0  0
    6.2630    1.2875    0.9430 H   0  0  0  0  0  0  0  0  0  0  0  0
    5.0503    1.7658   -0.2349 H   0  0  0  0  0  0  0  0  0  0  0  0
    5.5314   -0.5471   -1.1909 H   0  0  0  0  0  0  0  0  0  0  0  0
    4.9355   -2.0009   -0.3555 H   0  0  0  0  0  0  0  0  0  0  0  0
    6.4345   -1.2130    0.1562 H   0  0  0  0  0  0  0  0  0  0  0  0
   -3.5742    2.5877    1.2075 H   0  0  0  0  0  0  0  0  0  0  0  0
   -3.9102    2.5817   -0.5539 H   0  0  0  0  0  0  0  0  0  0  0  0
    3.6346    2.1768    1.5337 H   0  0  0  0  0  0  0  0  0  0  0  0
  1  8  1  0  0  0  0
  1 10  1  0  0  0  0
  2  9  1  0  0  0  0
  2 14  1  0  0  0  0
  3 11  1  0  0  0  0
  3 13  1  0  0  0  0
  4 15  1  0  0  0  0
  4 41  1  0  0  0  0
  5 26  1  0  0  0  0
  5 27  1  0  0  0  0
  6 24  1  0  0  0  0
  6 51  1  0  0  0  0
  7 27  2  0  0  0  0
  8  9  1  0  0  0  0
  8 10  1  0  0  0  0
  8 12  1  0  0  0  0
  9 14  1  0  0  0  0
  9 15  1  0  0  0  0
 10 13  1  0  0  0  0
 10 28  1  0  0  0  0
 11 13  1  0  0  0  0
 11 15  1  0  0  0  0
 11 18  1  0  0  0  0
 12 16  1  0  0  0  0
 12 19  1  0  0  0  0
 12 20  1  0  0  0  0
 13 29  1  0  0  0  0
 14 17  1  0  0  0  0
 14 30  1  0  0  0  0
 15 31  1  0  0  0  0
 16 17  1  0  0  0  0
 16 21  1  0  0  0  0
 16 32  1  0  0  0  0
 17 33  1  0  0  0  0
 17 34  1  0  0  0  0
 18 24  1  0  0  0  0
 18 25  1  0  0  0  0
 18 35  1  0  0  0  0
 19 22  1  0  0  0  0
 19 36  1  0  0  0  0
 19 37  1  0  0  0  0
 20 38  1  0  0  0  0
 20 39  1  0  0  0  0
 20 40  1  0  0  0  0
 21 23  2  0  0  0  0
 21 26  1  0  0  0  0
 22 23  1  0  0  0  0
 22 42  1  0  0  0  0
 22 43  1  0  0  0  0
 23 27  1  0  0  0  0
 24 44  1  0  0  0  0
 24 45  1  0  0  0  0
 25 46  1  0  0  0  0
 25 47  1  0  0  0  0
 25 48  1  0  0  0  0
 26 49  1  0  0  0  0
 26 50  1  0  0  0  0
M  END
> <PUBCHEM_COMPOUND_CID>
126556

> <PUBCHEM_CONFORMER_RMSD>
0.8

> <PUBCHEM_CONFORMER_DIVERSEORDER>
2
1

> <PUBCHEM_MMFF94_PARTIAL_CHARGES>
29
1 -0.3
10 0.05
11 -0.04
12 0.09
13 0.05
14 -0.05
15 0.47
16 0.14
17 0.09
18 0.09
2 -0.3
21 -0.28
22 0.14
23 -0.12
24 0.28
26 0.42
27 0.71
28 0.1
29 0.1
3 -0.3
30 0.1
4 -0.68
41 0.4
5 -0.43
51 0.4
6 -0.68
7 -0.57
8 0.05
9 0.05

> <PUBCHEM_EFFECTIVE_ROTOR_COUNT>
3.8

> <PUBCHEM_PHARMACOPHORE_FEATURES>
13
1 1 acceptor
1 2 acceptor
1 25 hydrophobe
1 3 acceptor
1 4 acceptor
1 4 donor
1 6 acceptor
1 6 donor
1 7 acceptor
5 5 21 23 26 27 rings
6 12 16 19 21 22 23 rings
7 2 8 9 12 14 16 17 rings
8 1 3 8 9 10 11 13 15 rings

> <PUBCHEM_HEAVY_ATOM_COUNT>
27

> <PUBCHEM_ATOM_DEF_STEREO_COUNT>
10

> <PUBCHEM_ATOM_UDEF_STEREO_COUNT>
0

> <PUBCHEM_BOND_DEF_STEREO_COUNT>
0

> <PUBCHEM_BOND_UDEF_STEREO_COUNT>
0

> <PUBCHEM_ISOTOPIC_ATOM_COUNT>
0

> <PUBCHEM_COMPONENT_COUNT>
1

> <PUBCHEM_CACTVS_TAUTO_COUNT>
1

> <PUBCHEM_CONFORMER_ID>
0001EE5C00000002

> <PUBCHEM_MMFF94_ENERGY>
62.3313

> <PUBCHEM_FEATURE_SELFOVERLAP>
66.071

> <PUBCHEM_SHAPE_FINGERPRINT>
11045977 3 18343017800550588464
11796584 16 14562535063635609161
12236239 1 18040439879824335521
12403814 3 16877660158701012767
12422481 6 18114737131924852156
12553582 1 17676483956087556180
12596602 18 18411139138724101169
12633257 1 16805322236031075186
12892183 10 18335981978515672041
13140716 1 18189621716444774085
13224815 77 18113609089119264862
13544653 18 15791725265775702618
13965767 371 17758975726869739313
14341114 176 18341896290052771728
14341114 328 17676491661343268152
14790565 3 18115037406290247372
14840074 17 17603591845835992596
14955137 171 18334584546460322996
15142383 8 15864345806031280085
15163728 17 16486707857242788569
15183329 4 11239729595328408240
15209294 21 18411979169649182347
15238133 3 18187376397694631613
15788980 27 14707211028532551787
1601671 61 18408045091433451654
16945 1 18260822674744081646
17349148 13 16660363671266301376
17980427 23 18342454885373643685
1813 80 16588311548858563950
19784866 170 18336547131571168187
19862831 5 10519981582255248879
200 152 12251904784899478675
20261772 1 18260547809975214226
20511986 3 18262221271416023515
21033648 29 17560792196104741089
21267235 1 18113629966697146203
21421861 104 17242167951032614571
21756936 100 17844511400981826664
221357 26 9295286132220542203
22182313 1 17970062236616944271
23227448 37 17703218645678388681
23559900 14 18267321857895595398
23569914 2 16911102891329304664
23622692 88 18040999548887161407
25147074 1 18042974374549065399
2838139 119 16056593235898004857
34797466 226 17489594480326146725
350125 39 18264205821174451378
392239 28 18413105078325730544
4058900 60 13757816801576239253
465052 167 17240494614583712707
5104073 3 18265343815835456547
59755656 215 18339931398756004582
633830 44 18272077319348925462
6442390 28 18411696608568492034
7064713 232 18335702710951808345

> <PUBCHEM_SHAPE_MULTIPOLES>
514.56
11.39
2.07
1.51
1.97
0.13
0.38
1.72
-5
0.36
-0.11
-0.94
0.22
0.21

> <PUBCHEM_SHAPE_SELFOVERLAP>
1145.626

> <PUBCHEM_SHAPE_VOLUME>
272.7

> <PUBCHEM_COORDINATE_TYPE>
2
5
10

$$$$
