REMARK  Name = 126599
REMARK  9 active torsions:
REMARK  status: ('A' for Active; 'I' for Inactive)
REMARK    1  A    between atoms: C_2  and  N_8
REMARK    2  A    between atoms: C_3  and  O_12
REMARK    3  A    between atoms: C_4  and  O_14
REMARK    4  A    between atoms: C_5  and  S_16
REMARK    5  A    between atoms: C_6  and  C_23
REMARK    6  A    between atoms: S_16  and  C_17
REMARK    7  A    between atoms: C_17  and  C_18
REMARK    8  A    between atoms: C_18  and  C_21
REMARK    9  A    between atoms: C_23  and  O_24
REMARK                            x       y       z     vdW  Elec       q    Type
REMARK                         _______ _______ _______ _____ _____    ______ ____
ROOT
ATOM      1  O   UNL     1      -0.291   1.249   0.376  0.00  0.00    -0.341 OA
ATOM      2  C   UNL     1      -1.918  -0.539   0.069  0.00  0.00    +0.139 C 
ATOM      3  C   UNL     1      -2.935   0.498  -0.430  0.00  0.00    +0.161 C 
ATOM      4  C   UNL     1      -2.597   1.907   0.062  0.00  0.00    +0.168 C 
ATOM      5  C   UNL     1      -0.481  -0.052  -0.184  0.00  0.00    +0.183 C 
ATOM      6  C   UNL     1      -1.130   2.239  -0.220  0.00  0.00    +0.175 C 
ENDROOT
BRANCH   2   8
ATOM      7  O   UNL     1      -2.713  -3.023   1.347  0.00  0.00    -0.275 OA
ATOM      8  N   UNL     1      -2.175  -1.814  -0.569  0.00  0.00    -0.301 N 
ATOM      9  C   UNL     1      -2.551  -2.946   0.132  0.00  0.00    +0.223 C 
ATOM     10  C   UNL     1      -2.778  -4.126  -0.776  0.00  0.00    +0.095 C 
ATOM     11  H   UNL     1      -2.077  -1.878  -1.546  0.00  0.00    +0.150 HD
ENDBRANCH   2   8
BRANCH   3  12
ATOM     12  O   UNL     1      -4.230   0.139   0.060  0.00  0.00    -0.380 OA
ATOM     13  H   UNL     1      -4.455  -0.753  -0.247  0.00  0.00    +0.211 HD
ENDBRANCH   3  12
BRANCH   4  14
ATOM     14  O   UNL     1      -3.454   2.827  -0.609  0.00  0.00    -0.379 OA
ATOM     15  H   UNL     1      -4.379   2.604  -0.420  0.00  0.00    +0.211 HD
ENDBRANCH   4  14
BRANCH   5  16
ATOM     16  S   UNL     1       0.749  -1.202   0.540  0.00  0.00    -0.110 S 
BRANCH  16  17
ATOM     17  C   UNL     1       2.240  -0.312   0.047  0.00  0.00    +0.063 C 
BRANCH  17  18
ATOM     18  C   UNL     1       3.488  -1.069   0.487  0.00  0.00    +0.047 C 
BRANCH  18  21
ATOM     19  N   UNL     1       5.284  -0.662  -1.222  0.00  0.00    -0.115 NA
ATOM     20  N   UNL     1       5.886  -1.158  -0.255  0.00  0.00    -0.115 NA
ATOM     21  C   UNL     1       4.738  -0.350   0.077  0.00  0.00    +0.154 C 
ATOM     22  C   UNL     1       4.944   0.994   0.637  0.00  0.00    +0.039 C 
ENDBRANCH  18  21
ENDBRANCH  17  18
ENDBRANCH  16  17
ENDBRANCH   5  16
BRANCH   6  23
ATOM     23  C   UNL     1      -0.721   3.588   0.363  0.00  0.00    +0.169 C 
BRANCH  23  24
ATOM     24  O   UNL     1       0.646   3.811   0.067  0.00  0.00    -0.379 OA
ATOM     25  H   UNL     1       0.920   4.667   0.433  0.00  0.00    +0.211 HD
ENDBRANCH  23  24
ENDBRANCH   6  23
TORSDOF 9
