126501
  -OEChem-03292013323D

 33 34  0     1  0  0  0  0  0999 V2000
   -1.5811   -0.1937    1.0399 O   0  0  0  0  0  0  0  0  0  0  0  0
   -1.1660    0.0795   -1.9188 O   0  0  0  0  0  0  0  0  0  0  0  0
   -3.8041    1.7084   -0.0800 O   0  0  0  0  0  0  0  0  0  0  0  0
   -2.7150   -2.7378    1.0984 O   0  0  0  0  0  0  0  0  0  0  0  0
    0.8988    3.0148    0.4270 O   0  0  0  0  0  0  0  0  0  0  0  0
    4.4435    0.1243   -0.0040 O   0  0  0  0  0  0  0  0  0  0  0  0
    0.4268    0.7341    0.2646 N   0  0  0  0  0  0  0  0  0  0  0  0
    2.6551    1.5565    0.2117 N   0  0  0  0  0  0  0  0  0  0  0  0
   -1.6953    1.0169   -0.9885 C   0  0  1  0  0  0  0  0  0  0  0  0
   -3.1032    0.5933   -0.6261 C   0  0  1  0  0  0  0  0  0  0  0  0
   -0.9907    0.9191    0.3557 C   0  0  1  0  0  0  0  0  0  0  0  0
   -2.8914   -0.4348    0.4867 C   0  0  1  0  0  0  0  0  0  0  0  0
   -2.9319   -1.8749   -0.0047 C   0  0  0  0  0  0  0  0  0  0  0  0
    0.9561   -0.5475    0.1312 C   0  0  0  0  0  0  0  0  0  0  0  0
    1.2916    1.8522    0.3100 C   0  0  0  0  0  0  0  0  0  0  0  0
    2.2623   -0.8309    0.0376 C   0  0  0  0  0  0  0  0  0  0  0  0
    3.2306    0.3015    0.0778 C   0  0  0  0  0  0  0  0  0  0  0  0
    2.7394   -2.1831   -0.0989 C   0  0  0  0  0  0  0  0  0  0  0  0
    1.9745   -3.0980   -0.7196 C   0  0  0  0  0  0  0  0  0  0  0  0
   -1.6307    2.0204   -1.4208 H   0  0  0  0  0  0  0  0  0  0  0  0
   -3.6798    0.2026   -1.4705 H   0  0  0  0  0  0  0  0  0  0  0  0
   -1.2099    1.8109    0.9562 H   0  0  0  0  0  0  0  0  0  0  0  0
   -3.6061   -0.3077    1.3083 H   0  0  0  0  0  0  0  0  0  0  0  0
   -2.1445   -2.0739   -0.7376 H   0  0  0  0  0  0  0  0  0  0  0  0
   -3.9048   -2.1087   -0.4478 H   0  0  0  0  0  0  0  0  0  0  0  0
   -0.2697    0.3772   -2.1501 H   0  0  0  0  0  0  0  0  0  0  0  0
   -4.6910    1.3993    0.1721 H   0  0  0  0  0  0  0  0  0  0  0  0
    0.2157   -1.3388    0.1175 H   0  0  0  0  0  0  0  0  0  0  0  0
    3.2923    2.3476    0.2418 H   0  0  0  0  0  0  0  0  0  0  0  0
   -2.7480   -3.6490    0.7605 H   0  0  0  0  0  0  0  0  0  0  0  0
    3.7095   -2.4522    0.3030 H   0  0  0  0  0  0  0  0  0  0  0  0
    2.3424   -4.1158   -0.8125 H   0  0  0  0  0  0  0  0  0  0  0  0
    1.0107   -2.8949   -1.1719 H   0  0  0  0  0  0  0  0  0  0  0  0
  1 11  1  0  0  0  0
  1 12  1  0  0  0  0
  2  9  1  0  0  0  0
  2 26  1  0  0  0  0
  3 10  1  0  0  0  0
  3 27  1  0  0  0  0
  4 13  1  0  0  0  0
  4 30  1  0  0  0  0
  5 15  2  0  0  0  0
  6 17  2  0  0  0  0
  7 11  1  0  0  0  0
  7 14  1  0  0  0  0
  7 15  1  0  0  0  0
  8 15  1  0  0  0  0
  8 17  1  0  0  0  0
  8 29  1  0  0  0  0
  9 10  1  0  0  0  0
  9 11  1  0  0  0  0
  9 20  1  0  0  0  0
 10 12  1  0  0  0  0
 10 21  1  0  0  0  0
 11 22  1  0  0  0  0
 12 13  1  0  0  0  0
 12 23  1  0  0  0  0
 13 24  1  0  0  0  0
 13 25  1  0  0  0  0
 14 16  2  0  0  0  0
 14 28  1  0  0  0  0
 16 17  1  0  0  0  0
 16 18  1  0  0  0  0
 18 19  2  0  0  0  0
 18 31  1  0  0  0  0
 19 32  1  0  0  0  0
 19 33  1  0  0  0  0
M  END
> <PUBCHEM_COMPOUND_CID>
126501

> <PUBCHEM_CONFORMER_RMSD>
0.6

> <PUBCHEM_CONFORMER_DIVERSEORDER>
1
18
13
20
17
22
15
9
14
10
16
21
5
8
11
23
3
7
4
19
6
12
2

> <PUBCHEM_MMFF94_PARTIAL_CHARGES>
27
1 -0.56
10 0.28
11 0.58
12 0.28
13 0.28
14 -0.04
15 0.69
16 0.01
17 0.62
18 -0.15
19 -0.3
2 -0.68
26 0.4
27 0.4
28 0.15
29 0.37
3 -0.68
30 0.4
31 0.15
32 0.15
33 0.15
4 -0.68
5 -0.57
6 -0.57
7 -0.47
8 -0.49
9 0.28

> <PUBCHEM_EFFECTIVE_ROTOR_COUNT>
4

> <PUBCHEM_PHARMACOPHORE_FEATURES>
13
1 1 acceptor
1 19 hydrophobe
1 2 acceptor
1 2 donor
1 3 acceptor
1 3 donor
1 4 acceptor
1 4 donor
1 5 acceptor
1 6 acceptor
1 8 donor
5 1 9 10 11 12 rings
6 7 8 14 15 16 17 rings

> <PUBCHEM_HEAVY_ATOM_COUNT>
19

> <PUBCHEM_ATOM_DEF_STEREO_COUNT>
4

> <PUBCHEM_ATOM_UDEF_STEREO_COUNT>
0

> <PUBCHEM_BOND_DEF_STEREO_COUNT>
0

> <PUBCHEM_BOND_UDEF_STEREO_COUNT>
0

> <PUBCHEM_ISOTOPIC_ATOM_COUNT>
0

> <PUBCHEM_COMPONENT_COUNT>
1

> <PUBCHEM_CACTVS_TAUTO_COUNT>
3

> <PUBCHEM_CONFORMER_ID>
0001EE2500000001

> <PUBCHEM_MMFF94_ENERGY>
54.9404

> <PUBCHEM_FEATURE_SELFOVERLAP>
65.98

> <PUBCHEM_SHAPE_FINGERPRINT>
10616163 171 18410576227177627399
10967382 1 18339923706041679178
11322862 65 18187646852244280823
116883 192 17909829830153988372
12500047 106 18334289851648069813
12553582 1 17909000811277302562
14115302 16 18115882801370836949
14178342 30 18341608218016694736
14223421 5 18338520862406866363
14863182 85 17324378775023975275
15375358 24 18339072701158313690
16945 1 18412550907095427625
17834074 16 18408605881018478819
19107657 46 18411138039106834782
19930381 70 17907016175799279671
200 152 18131344245908423101
20201158 50 18408602539512674202
20645477 70 18270112388389527239
21501502 16 18261674878013135937
221490 88 18337115691010224178
23402539 116 16370999711585036148
23557571 272 17748824116060908773
23559900 14 18337668603989188466
2748010 2 18194392523199256816
2871803 45 18190734430897281787
3312278 4 18413110549992498912
34934 24 18341607075608134456
81228 2 17766560145050343816
8809292 202 18261112997348290122
9709674 26 18410294705193757263

> <PUBCHEM_SHAPE_MULTIPOLES>
345.83
6.44
3.01
0.98
0.42
1.13
0.26
0.98
-0.01
0.67
-0.24
-0.56
0.15
0.98

> <PUBCHEM_SHAPE_SELFOVERLAP>
729.323

> <PUBCHEM_SHAPE_VOLUME>
194.3

> <PUBCHEM_COORDINATE_TYPE>
2
5
10

$$$$
