126643
  -OEChem-03292013323D

 53 55  0     1  0  0  0  0  0999 V2000
   -0.4139   -3.3362    0.8462 F   0  0  0  0  0  0  0  0  0  0  0  0
    2.1293    0.3506   -0.7631 O   0  0  0  0  0  0  0  0  0  0  0  0
    3.7376    2.7526    0.2449 O   0  0  0  0  0  0  0  0  0  0  0  0
    3.8302   -1.8697   -0.9394 O   0  0  0  0  0  0  0  0  0  0  0  0
   -1.2507    2.0077    0.8673 O   0  0  0  0  0  0  0  0  0  0  0  0
    5.8221    2.1225   -0.5267 O   0  0  0  0  0  0  0  0  0  0  0  0
   -2.8267   -2.3451    1.4607 O   0  0  0  0  0  0  0  0  0  0  0  0
   -3.7505    0.7347    2.4747 O   0  0  0  0  0  0  0  0  0  0  0  0
    4.5192   -3.6125    0.4115 O   0  0  0  0  0  0  0  0  0  0  0  0
    0.1645    0.2070    0.4995 N   0  0  0  0  0  0  0  0  0  0  0  0
   -2.1230   -0.1446    1.0833 N   0  0  0  0  0  0  0  0  0  0  0  0
    3.5314    1.4545    0.7978 C   0  0  2  0  0  0  0  0  0  0  0  0
    3.4970    0.4166   -0.3154 C   0  0  1  0  0  0  0  0  0  0  0  0
    2.1436    1.3677    1.3896 C   0  0  0  0  0  0  0  0  0  0  0  0
    1.2893    1.0354    0.1770 C   0  0  1  0  0  0  0  0  0  0  0  0
    3.9026   -0.9733    0.1575 C   0  0  0  0  0  0  0  0  0  0  0  0
   -1.0802    0.7852    0.8106 C   0  0  0  0  0  0  0  0  0  0  0  0
    0.3638   -1.1534    0.5115 C   0  0  0  0  0  0  0  0  0  0  0  0
    4.9338    2.9537   -0.3950 C   0  0  0  0  0  0  0  0  0  0  0  0
   -0.6066   -2.0048    0.8222 C   0  0  0  0  0  0  0  0  0  0  0  0
   -1.9567   -1.5310    1.1573 C   0  0  0  0  0  0  0  0  0  0  0  0
   -3.4028    0.3337    1.3655 C   0  0  0  0  0  0  0  0  0  0  0  0
    4.1674   -3.1695   -0.6735 C   0  0  0  0  0  0  0  0  0  0  0  0
    5.0102    4.3543   -0.9228 C   0  0  0  0  0  0  0  0  0  0  0  0
   -4.3426    0.4568    0.2168 C   0  0  0  0  0  0  0  0  0  0  0  0
    4.0446   -3.9961   -1.9176 C   0  0  0  0  0  0  0  0  0  0  0  0
   -3.9222    0.0997   -1.0597 C   0  0  0  0  0  0  0  0  0  0  0  0
   -5.6333    0.9275    0.4315 C   0  0  0  0  0  0  0  0  0  0  0  0
   -4.8033    0.2147   -2.1348 C   0  0  0  0  0  0  0  0  0  0  0  0
   -6.5145    1.0426   -0.6438 C   0  0  0  0  0  0  0  0  0  0  0  0
   -6.0995    0.6862   -1.9269 C   0  0  0  0  0  0  0  0  0  0  0  0
   -4.3600   -0.1676   -3.5067 C   0  0  0  0  0  0  0  0  0  0  0  0
    4.3069    1.2726    1.5503 H   0  0  0  0  0  0  0  0  0  0  0  0
    4.0744    0.6724   -1.2071 H   0  0  0  0  0  0  0  0  0  0  0  0
    1.8102    2.2904    1.8750 H   0  0  0  0  0  0  0  0  0  0  0  0
    2.1069    0.5622    2.1329 H   0  0  0  0  0  0  0  0  0  0  0  0
    0.9474    1.9577   -0.3078 H   0  0  0  0  0  0  0  0  0  0  0  0
    3.2751   -1.3318    0.9788 H   0  0  0  0  0  0  0  0  0  0  0  0
    4.9395   -0.9387    0.5140 H   0  0  0  0  0  0  0  0  0  0  0  0
    1.3298   -1.5573    0.2621 H   0  0  0  0  0  0  0  0  0  0  0  0
    5.9681    4.4993   -1.4304 H   0  0  0  0  0  0  0  0  0  0  0  0
    4.2052    4.5223   -1.6424 H   0  0  0  0  0  0  0  0  0  0  0  0
    4.9425    5.0653   -0.0957 H   0  0  0  0  0  0  0  0  0  0  0  0
    4.3167   -5.0315   -1.6938 H   0  0  0  0  0  0  0  0  0  0  0  0
    3.0117   -3.9763   -2.2742 H   0  0  0  0  0  0  0  0  0  0  0  0
    4.7241   -3.6149   -2.6839 H   0  0  0  0  0  0  0  0  0  0  0  0
   -2.9196   -0.2670   -1.2586 H   0  0  0  0  0  0  0  0  0  0  0  0
   -5.9795    1.2097    1.4218 H   0  0  0  0  0  0  0  0  0  0  0  0
   -7.5238    1.4098   -0.4820 H   0  0  0  0  0  0  0  0  0  0  0  0
   -6.7957    0.7823   -2.7558 H   0  0  0  0  0  0  0  0  0  0  0  0
   -3.7881    0.6493   -3.9580 H   0  0  0  0  0  0  0  0  0  0  0  0
   -5.2132   -0.3931   -4.1555 H   0  0  0  0  0  0  0  0  0  0  0  0
   -3.7331   -1.0653   -3.4777 H   0  0  0  0  0  0  0  0  0  0  0  0
  1 20  1  0  0  0  0
  2 13  1  0  0  0  0
  2 15  1  0  0  0  0
  3 12  1  0  0  0  0
  3 19  1  0  0  0  0
  4 16  1  0  0  0  0
  4 23  1  0  0  0  0
  5 17  2  0  0  0  0
  6 19  2  0  0  0  0
  7 21  2  0  0  0  0
  8 22  2  0  0  0  0
  9 23  2  0  0  0  0
 10 15  1  0  0  0  0
 10 17  1  0  0  0  0
 10 18  1  0  0  0  0
 11 17  1  0  0  0  0
 11 21  1  0  0  0  0
 11 22  1  0  0  0  0
 12 13  1  0  0  0  0
 12 14  1  0  0  0  0
 12 33  1  0  0  0  0
 13 16  1  0  0  0  0
 13 34  1  0  0  0  0
 14 15  1  0  0  0  0
 14 35  1  0  0  0  0
 14 36  1  0  0  0  0
 15 37  1  0  0  0  0
 16 38  1  0  0  0  0
 16 39  1  0  0  0  0
 18 20  2  0  0  0  0
 18 40  1  0  0  0  0
 19 24  1  0  0  0  0
 20 21  1  0  0  0  0
 22 25  1  0  0  0  0
 23 26  1  0  0  0  0
 24 41  1  0  0  0  0
 24 42  1  0  0  0  0
 24 43  1  0  0  0  0
 25 27  1  0  0  0  0
 25 28  2  0  0  0  0
 26 44  1  0  0  0  0
 26 45  1  0  0  0  0
 26 46  1  0  0  0  0
 27 29  2  0  0  0  0
 27 47  1  0  0  0  0
 28 30  1  0  0  0  0
 28 48  1  0  0  0  0
 29 31  1  0  0  0  0
 29 32  1  0  0  0  0
 30 31  2  0  0  0  0
 30 49  1  0  0  0  0
 31 50  1  0  0  0  0
 32 51  1  0  0  0  0
 32 52  1  0  0  0  0
 32 53  1  0  0  0  0
M  END
> <PUBCHEM_COMPOUND_CID>
126643

> <PUBCHEM_CONFORMER_RMSD>
1

> <PUBCHEM_CONFORMER_DIVERSEORDER>
1
16
156
180
307
152
341
169
233
306
30
294
212
254
302
42
264
325
194
312
317
88
78
283
8
268
39
295
198
172
181
210
277
43
176
319
340
197
31
12
259
27
298
316
221
162
232
301
98
120
167
99
13
313
18
278
275
284
178
124
141
79
140
331
15
208
251
142
281
38
207
196
328
52
282
248
107
87
80
265
75
92
65
235
231
240
49
242
70
244
199
23
273
136
113
36
311
103
334
303
188
329
160
145
190
137
34
261
318
218
115
118
211
135
225
238
29
299
6
224
95
262
320
337
300
168
109
257
157
201
161
321
58
315
296
146
270
184
267
333
158
216
104
269
192
165
330
111
179
344
26
342
243
44
193
143
177
205
68
170
159
272
234
276
326
252
171
285
132
25
121
41
339
288
144
195
10
249
314
204
114
280
237
185
182
51
297
45
166
93
345
148
126
106
310
274
163
245
215
86
236
67
122
214
258
241
304
100
246
19
291
173
117
134
37
323
206
81
116
229
308
153
90
289
53
222
260
149
255
174
128
112
217
11
239
209
324
154
55
129
290
59
48
263
125
327
164
127
309
186
56
108
227
73
226
57
64
228
32
343
131
66
133
223
50
187
105
130
175
271
54
9
322
96
286
250
332
338
247
336
200
82
40
123
183
220
4
203
151
266
72
293
279
17
230
7
102
77
35
305
213
71
21
202
94
155
60
22
20
147
85
69
101
97
63
74
219
189
28
139
83
91
287
47
335
119
84
3
76
33
138
61
62
256
292
191
110
24
89
5
14
46
253
2
150

> <PUBCHEM_MMFF94_PARTIAL_CHARGES>
36
1 -0.15
10 -0.47
11 -0.18
12 0.28
13 0.28
15 0.58
16 0.28
17 0.69
18 -0.04
19 0.66
2 -0.56
20 0.16
21 0.62
22 0.54
23 0.66
24 0.06
25 0.09
26 0.06
27 -0.15
28 -0.15
29 -0.14
3 -0.43
30 -0.15
31 -0.15
32 0.14
4 -0.43
40 0.15
47 0.15
48 0.15
49 0.15
5 -0.57
50 0.15
6 -0.57
7 -0.57
8 -0.57
9 -0.57

> <PUBCHEM_EFFECTIVE_ROTOR_COUNT>
9

> <PUBCHEM_PHARMACOPHORE_FEATURES>
9
1 2 acceptor
1 5 acceptor
1 6 acceptor
1 7 acceptor
1 8 acceptor
1 9 acceptor
5 2 12 13 14 15 rings
6 10 11 17 18 20 21 rings
6 25 27 28 29 30 31 rings

> <PUBCHEM_HEAVY_ATOM_COUNT>
32

> <PUBCHEM_ATOM_DEF_STEREO_COUNT>
3

> <PUBCHEM_ATOM_UDEF_STEREO_COUNT>
0

> <PUBCHEM_BOND_DEF_STEREO_COUNT>
0

> <PUBCHEM_BOND_UDEF_STEREO_COUNT>
0

> <PUBCHEM_ISOTOPIC_ATOM_COUNT>
0

> <PUBCHEM_COMPONENT_COUNT>
1

> <PUBCHEM_CACTVS_TAUTO_COUNT>
1

> <PUBCHEM_CONFORMER_ID>
0001EEB300000001

> <PUBCHEM_MMFF94_ENERGY>
89.7527

> <PUBCHEM_FEATURE_SELFOVERLAP>
45.677

> <PUBCHEM_SHAPE_FINGERPRINT>
10366900 7 17917435383964512048
105312 117 18040709307961028461
10554248 39 18411138074020805804
10556698 54 17537127300008348997
10693767 8 18058434440481868631
11069576 57 18131070403436855062
11135609 149 17980178822004145662
11135926 11 18340219578361046656
11578080 2 18040997384202740550
12403259 415 18113905961648722939
12422481 6 11387182835928099049
12969540 114 18261098717062240885
13533116 47 18273214166557420752
13540713 4 18188506759993698715
1361 2 17987796294217163262
13782708 43 17895486868969663675
13911987 19 18335133246129429185
14415361 349 17489034752279473366
15183329 4 17203607091127082005
15238133 3 14851882539074084628
15250474 111 17561075891437209887
21033648 29 17458064850691788613
21521239 73 18271795805844298199
21585481 104 18267278986608350181
21859007 373 17386272208633161668
23559900 14 18411706500078069768
2838139 119 17387106764081888077
32027 91 18263084327609045450
3729539 64 17825386276458612179
376196 1 18045215192611539512
4015057 19 18413672400339191416
4403749 210 17907855455843881688
5326457 24 17202758190366430175
57527295 17 17703509977921470817
60123966 16 18261385637957126756

> <PUBCHEM_SHAPE_MULTIPOLES>
594.35
15.02
4.25
2.11
6.43
1.6
-1.23
-5.83
-7.31
-11.11
-1.07
3.35
0.43
0.69

> <PUBCHEM_SHAPE_SELFOVERLAP>
1272.308

> <PUBCHEM_SHAPE_VOLUME>
328.9

> <PUBCHEM_COORDINATE_TYPE>
2
5
10

$$$$
