126631
  -OEChem-03292013323D

 42 42  0     0  0  0  0  0  0999 V2000
    0.1379    0.4022    0.2077 O   0  0  0  0  0  0  0  0  0  0  0  0
   -0.0443   -1.6422   -0.8772 O   0  0  0  0  0  0  0  0  0  0  0  0
   -2.4065    1.9582   -1.5315 O   0  0  0  0  0  0  0  0  0  0  0  0
    6.3435    0.1863   -0.9238 O   0  5  0  0  0  0  0  0  0  0  0  0
    6.2742   -0.8364    1.0174 O   0  0  0  0  0  0  0  0  0  0  0  0
   -1.9437   -0.4508   -0.3167 N   0  0  0  0  0  0  0  0  0  0  0  0
   -2.4705    0.6397    0.3539 N   0  0  0  0  0  0  0  0  0  0  0  0
   -4.8304   -4.3187    0.6684 N   0  0  0  0  0  0  0  0  0  0  0  0
   -3.2022    2.8760    0.4498 N   0  0  0  0  0  0  0  0  0  0  0  0
    5.7053   -0.2541    0.0626 N   0  3  0  0  0  0  0  0  0  0  0  0
   -2.9490   -1.3568   -0.8322 C   0  0  0  0  0  0  0  0  0  0  0  0
   -3.4013   -2.3816    0.2041 C   0  0  0  0  0  0  0  0  0  0  0  0
   -4.4447   -3.3513   -0.3530 C   0  0  0  0  0  0  0  0  0  0  0  0
   -0.5738   -0.6529   -0.3736 C   0  0  0  0  0  0  0  0  0  0  0  0
   -2.6770    1.8314   -0.3334 C   0  0  0  0  0  0  0  0  0  0  0  0
    1.5259    0.2391    0.1720 C   0  0  0  0  0  0  0  0  0  0  0  0
   -3.5140    2.7004    1.8657 C   0  0  0  0  0  0  0  0  0  0  0  0
   -3.4676    4.1973   -0.1033 C   0  0  0  0  0  0  0  0  0  0  0  0
    2.2569    0.7203   -0.9142 C   0  0  0  0  0  0  0  0  0  0  0  0
    2.1798   -0.4057    1.2221 C   0  0  0  0  0  0  0  0  0  0  0  0
    4.2955   -0.0879    0.0997 C   0  0  0  0  0  0  0  0  0  0  0  0
    3.6416    0.5568   -0.9503 C   0  0  0  0  0  0  0  0  0  0  0  0
    3.5645   -0.5692    1.1858 C   0  0  0  0  0  0  0  0  0  0  0  0
   -2.5173   -1.8833   -1.6918 H   0  0  0  0  0  0  0  0  0  0  0  0
   -3.8031   -0.7776   -1.2036 H   0  0  0  0  0  0  0  0  0  0  0  0
   -3.8123   -1.8586    1.0776 H   0  0  0  0  0  0  0  0  0  0  0  0
   -2.5287   -2.9434    0.5630 H   0  0  0  0  0  0  0  0  0  0  0  0
   -5.3309   -2.8012   -0.6877 H   0  0  0  0  0  0  0  0  0  0  0  0
   -4.0366   -3.8867   -1.2168 H   0  0  0  0  0  0  0  0  0  0  0  0
   -2.6651    0.4969    1.3378 H   0  0  0  0  0  0  0  0  0  0  0  0
   -5.2374   -3.8319    1.4661 H   0  0  0  0  0  0  0  0  0  0  0  0
   -5.5622   -4.9249    0.3000 H   0  0  0  0  0  0  0  0  0  0  0  0
   -3.9365    3.6190    2.2833 H   0  0  0  0  0  0  0  0  0  0  0  0
   -4.2406    1.8903    1.9785 H   0  0  0  0  0  0  0  0  0  0  0  0
   -2.5966    2.4495    2.4064 H   0  0  0  0  0  0  0  0  0  0  0  0
   -2.8741    4.9347    0.4447 H   0  0  0  0  0  0  0  0  0  0  0  0
   -3.2038    4.2424   -1.1629 H   0  0  0  0  0  0  0  0  0  0  0  0
   -4.5326    4.4196    0.0096 H   0  0  0  0  0  0  0  0  0  0  0  0
    1.7524    1.2235   -1.7345 H   0  0  0  0  0  0  0  0  0  0  0  0
    1.6151   -0.7822    2.0706 H   0  0  0  0  0  0  0  0  0  0  0  0
    4.1783    0.9445   -1.8125 H   0  0  0  0  0  0  0  0  0  0  0  0
    4.0400   -1.0764    2.0214 H   0  0  0  0  0  0  0  0  0  0  0  0
  1 14  1  0  0  0  0
  1 16  1  0  0  0  0
  2 14  2  0  0  0  0
  3 15  2  0  0  0  0
  4 10  1  0  0  0  0
  5 10  2  0  0  0  0
  6  7  1  0  0  0  0
  6 11  1  0  0  0  0
  6 14  1  0  0  0  0
  7 15  1  0  0  0  0
  7 30  1  0  0  0  0
  8 13  1  0  0  0  0
  8 31  1  0  0  0  0
  8 32  1  0  0  0  0
  9 15  1  0  0  0  0
  9 17  1  0  0  0  0
  9 18  1  0  0  0  0
 10 21  1  0  0  0  0
 11 12  1  0  0  0  0
 11 24  1  0  0  0  0
 11 25  1  0  0  0  0
 12 13  1  0  0  0  0
 12 26  1  0  0  0  0
 12 27  1  0  0  0  0
 13 28  1  0  0  0  0
 13 29  1  0  0  0  0
 16 19  2  0  0  0  0
 16 20  1  0  0  0  0
 17 33  1  0  0  0  0
 17 34  1  0  0  0  0
 17 35  1  0  0  0  0
 18 36  1  0  0  0  0
 18 37  1  0  0  0  0
 18 38  1  0  0  0  0
 19 22  1  0  0  0  0
 19 39  1  0  0  0  0
 20 23  2  0  0  0  0
 20 40  1  0  0  0  0
 21 22  2  0  0  0  0
 21 23  1  0  0  0  0
 22 41  1  0  0  0  0
 23 42  1  0  0  0  0
M  CHG  2   4  -1  10   1
M  END
> <PUBCHEM_COMPOUND_CID>
126631

> <PUBCHEM_CONFORMER_RMSD>
1

> <PUBCHEM_CONFORMER_DIVERSEORDER>
1
75
26
55
33
59
73
54
14
57
71
70
98
11
51
66
8
99
79
47
18
74
95
28
49
78
32
7
37
30
46
101
91
34
50
35
3
6
96
15
56
67
44
24
61
77
58
48
100
40
82
76
62
22
89
5
36
21
68
63
13
39
64
72
52
20
80
9
27
90
19
4
41
10
94
87
69
93
29
2
83
25
16
17
53
102
97
85
88
84
38
45
43
81
12
31
103
23
60
86
65
92
42

> <PUBCHEM_MMFF94_PARTIAL_CHARGES>
29
1 -0.23
10 0.91
11 0.3
13 0.27
14 0.78
15 0.69
16 0.08
17 0.3
18 0.3
19 -0.15
2 -0.57
20 -0.15
21 0.13
22 -0.15
23 -0.15
3 -0.57
30 0.37
31 0.36
32 0.36
39 0.15
4 -0.52
40 0.15
41 0.15
42 0.15
5 -0.52
6 -0.36
7 -0.43
8 -0.99
9 -0.66

> <PUBCHEM_EFFECTIVE_ROTOR_COUNT>
10

> <PUBCHEM_PHARMACOPHORE_FEATURES>
9
1 2 acceptor
1 3 acceptor
1 4 acceptor
1 4 anion
1 5 acceptor
1 7 donor
1 8 cation
1 8 donor
6 16 19 20 21 22 23 rings

> <PUBCHEM_HEAVY_ATOM_COUNT>
23

> <PUBCHEM_ATOM_DEF_STEREO_COUNT>
0

> <PUBCHEM_ATOM_UDEF_STEREO_COUNT>
0

> <PUBCHEM_BOND_DEF_STEREO_COUNT>
0

> <PUBCHEM_BOND_UDEF_STEREO_COUNT>
0

> <PUBCHEM_ISOTOPIC_ATOM_COUNT>
0

> <PUBCHEM_COMPONENT_COUNT>
1

> <PUBCHEM_CACTVS_TAUTO_COUNT>
2

> <PUBCHEM_CONFORMER_ID>
0001EEA700000001

> <PUBCHEM_MMFF94_ENERGY>
53.9943

> <PUBCHEM_FEATURE_SELFOVERLAP>
45.753

> <PUBCHEM_SHAPE_FINGERPRINT>
10411042 1 18194964269646743927
10595046 47 18334296517927754772
10912923 1 18040149618140953536
11045515 52 17604138354981561861
11056379 131 18410858775980584199
11545043 162 18131627885870579986
12107183 9 17830726565747814098
12236239 1 18113616768473460244
12616971 3 17749393612235630692
12788726 201 18262510498392719763
13073987 5 18410567414843330338
13583140 156 17632003200586020542
14713325 29 18343024376229687003
17844677 252 18341613754809852528
21033648 29 17202747255558399570
21130935 74 18336535046773180538
21304303 172 18271812376234158579
21426921 1 18410854365228025477
22182313 1 17560534923100029438
23081809 10 17967534563397435234
23557571 272 18202565055452127172
283562 15 18335416906943813427
312423 11 18261962958723440180
4409770 3 18335975416570430991
465052 167 18122350339441300711
497634 4 18186515527281807286
5104073 3 18412252927403119106
57634706 229 17843421599763859201
59755656 520 18267296531090648405
7288768 16 17701274520812073857
77188 2 18050567641154076997

> <PUBCHEM_SHAPE_MULTIPOLES>
419.08
12.71
4.26
1.24
17.16
0.15
0.22
-3.99
1.2
-12.53
0.59
0.06
0.4
-0.84

> <PUBCHEM_SHAPE_SELFOVERLAP>
849.209

> <PUBCHEM_SHAPE_VOLUME>
244.8

> <PUBCHEM_COORDINATE_TYPE>
2
5
10

$$$$
