REMARK  Name = 126643
REMARK  7 active torsions:
REMARK  status: ('A' for Active; 'I' for Inactive)
REMARK    1  A    between atoms: N_5  and  C_23
REMARK    2  A    between atoms: C_11  and  C_12
REMARK    3  A    between atoms: C_20  and  O_24
REMARK    4  A    between atoms: C_21  and  C_28
REMARK    5  A    between atoms: O_24  and  C_26
REMARK    6  A    between atoms: C_28  and  O_29
REMARK    7  A    between atoms: O_29  and  C_31
REMARK                            x       y       z     vdW  Elec       q    Type
REMARK                         _______ _______ _______ _____ _____    ______ ____
ROOT
ATOM      1  F   UNL     1      -0.414  -3.336   0.846  0.00  0.00    -0.198 F 
ATOM      2  O   UNL     1      -1.251   2.008   0.867  0.00  0.00    -0.251 OA
ATOM      3  O   UNL     1      -2.827  -2.345   1.461  0.00  0.00    -0.267 OA
ATOM      4  O   UNL     1      -3.751   0.735   2.475  0.00  0.00    -0.269 OA
ATOM      5  N   UNL     1       0.165   0.207   0.499  0.00  0.00    -0.216 N 
ATOM      6  N   UNL     1      -2.123  -0.145   1.083  0.00  0.00    -0.152 N 
ATOM      7  C   UNL     1      -1.080   0.785   0.811  0.00  0.00    +0.325 C 
ATOM      8  C   UNL     1       0.364  -1.153   0.511  0.00  0.00    +0.105 C 
ATOM      9  C   UNL     1      -0.607  -2.005   0.822  0.00  0.00    +0.209 C 
ATOM     10  C   UNL     1      -1.957  -1.531   1.157  0.00  0.00    +0.291 C 
ATOM     11  C   UNL     1      -3.403   0.334   1.365  0.00  0.00    +0.262 C 
ENDROOT
BRANCH  11  12
ATOM     12  C   UNL     1      -4.343   0.457   0.217  0.00  0.00    +0.054 C 
ATOM     13  C   UNL     1      -3.922   0.100  -1.060  0.00  0.00    +0.000 C 
ATOM     14  C   UNL     1      -5.633   0.927   0.431  0.00  0.00    +0.005 C 
ATOM     15  C   UNL     1      -4.803   0.215  -2.135  0.00  0.00    -0.022 C 
ATOM     16  C   UNL     1      -6.514   1.043  -0.644  0.00  0.00    -0.000 C 
ATOM     17  C   UNL     1      -6.099   0.686  -1.927  0.00  0.00    -0.004 C 
ATOM     18  C   UNL     1      -4.360  -0.168  -3.507  0.00  0.00    +0.031 C 
ENDBRANCH  11  12
BRANCH   5  23
ATOM     19  O   UNL     1       2.129   0.351  -0.763  0.00  0.00    -0.332 OA
ATOM     20  C   UNL     1       3.531   1.454   0.798  0.00  0.00    +0.204 C 
ATOM     21  C   UNL     1       3.497   0.417  -0.315  0.00  0.00    +0.200 C 
ATOM     22  C   UNL     1       2.144   1.368   1.390  0.00  0.00    +0.098 C 
ATOM     23  C   UNL     1       1.289   1.035   0.177  0.00  0.00    +0.203 C 
BRANCH  20  24
ATOM     24  O   UNL     1       3.738   2.753   0.245  0.00  0.00    -0.449 OA
BRANCH  24  26
ATOM     25  O   UNL     1       5.822   2.123  -0.527  0.00  0.00    -0.250 OA
ATOM     26  C   UNL     1       4.934   2.954  -0.395  0.00  0.00    +0.318 C 
ATOM     27  C   UNL     1       5.010   4.354  -0.923  0.00  0.00    +0.121 C 
ENDBRANCH  24  26
ENDBRANCH  20  24
BRANCH  21  28
ATOM     28  C   UNL     1       3.903  -0.973   0.158  0.00  0.00    +0.241 C 
BRANCH  28  29
ATOM     29  O   UNL     1       3.830  -1.870  -0.939  0.00  0.00    -0.446 OA
BRANCH  29  31
ATOM     30  O   UNL     1       4.519  -3.612   0.411  0.00  0.00    -0.250 OA
ATOM     31  C   UNL     1       4.167  -3.170  -0.673  0.00  0.00    +0.318 C 
ATOM     32  C   UNL     1       4.045  -3.996  -1.918  0.00  0.00    +0.121 C 
ENDBRANCH  29  31
ENDBRANCH  28  29
ENDBRANCH  21  28
ENDBRANCH   5  23
TORSDOF 7
