REMARK  Name = 126687
REMARK  9 active torsions:
REMARK  status: ('A' for Active; 'I' for Inactive)
REMARK    1  A    between atoms: C_1  and  C_7
REMARK    2  A    between atoms: C_2  and  C_17
REMARK    3  A    between atoms: C_7  and  CA_8
REMARK    4  A    between atoms: CA_8  and  N_9
REMARK    5  A    between atoms: CA_8  and  C_14
REMARK    6  A    between atoms: C_14  and  O_15
REMARK    7  A    between atoms: C_17  and  P_18
REMARK    8  A    between atoms: P_18  and  O_20
REMARK    9  A    between atoms: P_18  and  O_22
REMARK                            x       y       z     vdW  Elec       q    Type
REMARK                         _______ _______ _______ _____ _____    ______ ____
ROOT
ATOM      1  C   UNL     1      -1.112   1.047   0.377  0.00  0.00    -0.024 C 
ATOM      2  C   UNL     1       1.644   0.825   0.542  0.00  0.00    -0.010 C 
ATOM      3  C   UNL     1      -0.557   0.192   1.314  0.00  0.00    -0.005 C 
ATOM      4  C   UNL     1      -0.320   1.794  -0.479  0.00  0.00    -0.005 C 
ATOM      5  C   UNL     1       0.831   0.080   1.397  0.00  0.00    -0.004 C 
ATOM      6  C   UNL     1       1.068   1.682  -0.396  0.00  0.00    -0.004 C 
ENDROOT
BRANCH   1   7
ATOM      7  C   UNL     1      -2.616   1.169   0.288  0.00  0.00    +0.015 C 
BRANCH   7   8
ATOM      8  CA  UNL     1      -3.239   0.164  -0.693  0.00  0.00    +0.040 C 
BRANCH   8   9
ATOM      9  N   UNL     1      -4.566   0.625  -1.097  0.00  0.00    +0.389 N 
ATOM     10  H1  UNL     1      -4.489   1.547  -1.527  0.00  0.00    -0.088 HD
ATOM     11  H2  UNL     1      -5.170   0.681  -0.277  0.00  0.00    -0.088 HD
ATOM     12  H3  UNL     1      -4.964  -0.032  -1.768  0.00  0.00    -0.088 HD
ENDBRANCH   8   9
BRANCH   8  14
ATOM     13  OXT UNL     1      -4.421  -1.559   0.559  0.00  0.00    -0.253 OA
ATOM     14  C   UNL     1      -3.428  -1.206  -0.064  0.00  0.00    +0.293 C 
BRANCH  14  15
ATOM     15  O   UNL     1      -2.375  -2.031  -0.297  0.00  0.00    -0.482 OA
ATOM     16  H   UNL     1      -1.634  -1.720  -0.779  0.00  0.00    +0.295 HD
ENDBRANCH  14  15
ENDBRANCH   8  14
ENDBRANCH   7   8
ENDBRANCH   1   7
BRANCH   2  17
ATOM     17  C   UNL     1       3.128   0.705   0.630  0.00  0.00    +0.142 C 
BRANCH  17  18
ATOM     18  P   UNL     1       3.822  -0.587  -0.432  0.00  0.00    +0.341 P 
ATOM     19  O   UNL     1       3.539  -0.382  -1.877  0.00  0.00    -0.258 OA
BRANCH  18  20
ATOM     20  O   UNL     1       3.231  -1.929   0.229  0.00  0.00    -0.323 OA
ATOM     21  H   UNL     1       3.544  -2.700  -0.269  0.00  0.00    +0.220 HD
ENDBRANCH  18  20
BRANCH  18  22
ATOM     22  O   UNL     1       5.372  -0.588  -0.001  0.00  0.00    -0.323 OA
ATOM     23  H   UNL     1       5.850  -1.256  -0.517  0.00  0.00    +0.220 HD
ENDBRANCH  18  22
ENDBRANCH  17  18
ENDBRANCH   2  17
TORSDOF 9
