126633
  -OEChem-03292013323D

 45 45  0     0  0  0  0  0  0999 V2000
    0.4690    0.5665    0.2075 O   0  0  0  0  0  0  0  0  0  0  0  0
    0.0040   -1.4260   -0.8896 O   0  0  0  0  0  0  0  0  0  0  0  0
   -1.8278    2.4741   -1.5262 O   0  0  0  0  0  0  0  0  0  0  0  0
    6.5854   -0.5123   -0.9162 O   0  5  0  0  0  0  0  0  0  0  0  0
    6.3687   -1.5260    1.0189 O   0  0  0  0  0  0  0  0  0  0  0  0
   -1.7105    0.0172   -0.3249 N   0  0  0  0  0  0  0  0  0  0  0  0
   -2.0806    1.1671    0.3513 N   0  0  0  0  0  0  0  0  0  0  0  0
   -6.2963   -4.2500    0.0706 N   0  0  0  0  0  0  0  0  0  0  0  0
   -2.4912    3.4835    0.4592 N   0  0  0  0  0  0  0  0  0  0  0  0
    5.8894   -0.8643    0.0667 N   0  3  0  0  0  0  0  0  0  0  0  0
   -3.4257   -1.6925    0.1830 C   0  0  0  0  0  0  0  0  0  0  0  0
   -2.8319   -0.7358   -0.8471 C   0  0  0  0  0  0  0  0  0  0  0  0
   -4.5999   -2.5025   -0.3804 C   0  0  0  0  0  0  0  0  0  0  0  0
   -5.1710   -3.5063    0.6235 C   0  0  0  0  0  0  0  0  0  0  0  0
   -0.3825   -0.3749   -0.3809 C   0  0  0  0  0  0  0  0  0  0  0  0
   -2.1160    2.3798   -0.3293 C   0  0  0  0  0  0  0  0  0  0  0  0
    1.8204    0.2103    0.1729 C   0  0  0  0  0  0  0  0  0  0  0  0
   -2.8278    3.3454    1.8736 C   0  0  0  0  0  0  0  0  0  0  0  0
   -2.5672    4.8319   -0.0865 C   0  0  0  0  0  0  0  0  0  0  0  0
    2.6142    0.5902   -0.9094 C   0  0  0  0  0  0  0  0  0  0  0  0
    2.3749   -0.5257    1.2201 C   0  0  0  0  0  0  0  0  0  0  0  0
    4.5168   -0.5019    0.1027 C   0  0  0  0  0  0  0  0  0  0  0  0
    3.9623    0.2340   -0.9445 C   0  0  0  0  0  0  0  0  0  0  0  0
    3.7231   -0.8819    1.1849 C   0  0  0  0  0  0  0  0  0  0  0  0
   -2.6456   -2.3788    0.5355 H   0  0  0  0  0  0  0  0  0  0  0  0
   -3.7628   -1.1283    1.0615 H   0  0  0  0  0  0  0  0  0  0  0  0
   -3.5956   -0.0403   -1.2161 H   0  0  0  0  0  0  0  0  0  0  0  0
   -2.4765   -1.3127   -1.7092 H   0  0  0  0  0  0  0  0  0  0  0  0
   -4.2675   -3.0380   -1.2789 H   0  0  0  0  0  0  0  0  0  0  0  0
   -5.3914   -1.8114   -0.6974 H   0  0  0  0  0  0  0  0  0  0  0  0
   -4.3894   -4.2114    0.9280 H   0  0  0  0  0  0  0  0  0  0  0  0
   -5.5051   -2.9784    1.5232 H   0  0  0  0  0  0  0  0  0  0  0  0
   -2.2958    1.0475    1.3339 H   0  0  0  0  0  0  0  0  0  0  0  0
   -5.9934   -4.7670   -0.7539 H   0  0  0  0  0  0  0  0  0  0  0  0
   -6.6069   -4.9463    0.7470 H   0  0  0  0  0  0  0  0  0  0  0  0
   -3.1178    4.3119    2.2960 H   0  0  0  0  0  0  0  0  0  0  0  0
   -3.6613    2.6449    1.9806 H   0  0  0  0  0  0  0  0  0  0  0  0
   -1.9561    2.9650    2.4142 H   0  0  0  0  0  0  0  0  0  0  0  0
   -1.8773    5.4757    0.4666 H   0  0  0  0  0  0  0  0  0  0  0  0
   -2.2972    4.8455   -1.1454 H   0  0  0  0  0  0  0  0  0  0  0  0
   -3.5906    5.2010    0.0261 H   0  0  0  0  0  0  0  0  0  0  0  0
    2.1872    1.1638   -1.7275 H   0  0  0  0  0  0  0  0  0  0  0  0
    1.7611   -0.8239    2.0656 H   0  0  0  0  0  0  0  0  0  0  0  0
    4.5501    0.5473   -1.8035 H   0  0  0  0  0  0  0  0  0  0  0  0
    4.1208   -1.4555    2.0182 H   0  0  0  0  0  0  0  0  0  0  0  0
  1 15  1  0  0  0  0
  1 17  1  0  0  0  0
  2 15  2  0  0  0  0
  3 16  2  0  0  0  0
  4 10  1  0  0  0  0
  5 10  2  0  0  0  0
  6  7  1  0  0  0  0
  6 12  1  0  0  0  0
  6 15  1  0  0  0  0
  7 16  1  0  0  0  0
  7 33  1  0  0  0  0
  8 14  1  0  0  0  0
  8 34  1  0  0  0  0
  8 35  1  0  0  0  0
  9 16  1  0  0  0  0
  9 18  1  0  0  0  0
  9 19  1  0  0  0  0
 10 22  1  0  0  0  0
 11 12  1  0  0  0  0
 11 13  1  0  0  0  0
 11 25  1  0  0  0  0
 11 26  1  0  0  0  0
 12 27  1  0  0  0  0
 12 28  1  0  0  0  0
 13 14  1  0  0  0  0
 13 29  1  0  0  0  0
 13 30  1  0  0  0  0
 14 31  1  0  0  0  0
 14 32  1  0  0  0  0
 17 20  2  0  0  0  0
 17 21  1  0  0  0  0
 18 36  1  0  0  0  0
 18 37  1  0  0  0  0
 18 38  1  0  0  0  0
 19 39  1  0  0  0  0
 19 40  1  0  0  0  0
 19 41  1  0  0  0  0
 20 23  1  0  0  0  0
 20 42  1  0  0  0  0
 21 24  2  0  0  0  0
 21 43  1  0  0  0  0
 22 23  2  0  0  0  0
 22 24  1  0  0  0  0
 23 44  1  0  0  0  0
 24 45  1  0  0  0  0
M  CHG  2   4  -1  10   1
M  END
> <PUBCHEM_COMPOUND_CID>
126633

> <PUBCHEM_CONFORMER_RMSD>
1

> <PUBCHEM_CONFORMER_DIVERSEORDER>
1
73
100
61
84
69
139
79
94
50
68
80
89
113
16
33
71
117
134
26
111
31
95
72
130
8
44
93
62
136
112
64
123
39
128
65
20
124
120
126
115
106
45
10
35
99
56
90
87
48
107
55
102
97
135
18
47
101
77
46
29
74
3
27
76
105
60
70
57
63
83
110
133
43
119
78
132
13
67
19
36
91
82
108
14
118
121
40
15
96
6
28
38
59
88
4
137
109
11
92
86
138
25
104
75
30
131
2
127
12
49
85
125
5
24
81
22
116
103
7
52
9
41
129
17
114
98
37
66
54
58
122
23
21
42
34
51
32
53

> <PUBCHEM_MMFF94_PARTIAL_CHARGES>
29
1 -0.23
10 0.91
12 0.3
14 0.27
15 0.78
16 0.69
17 0.08
18 0.3
19 0.3
2 -0.57
20 -0.15
21 -0.15
22 0.13
23 -0.15
24 -0.15
3 -0.57
33 0.37
34 0.36
35 0.36
4 -0.52
42 0.15
43 0.15
44 0.15
45 0.15
5 -0.52
6 -0.36
7 -0.43
8 -0.99
9 -0.66

> <PUBCHEM_EFFECTIVE_ROTOR_COUNT>
11

> <PUBCHEM_PHARMACOPHORE_FEATURES>
9
1 2 acceptor
1 3 acceptor
1 4 acceptor
1 4 anion
1 5 acceptor
1 7 donor
1 8 cation
1 8 donor
6 17 20 21 22 23 24 rings

> <PUBCHEM_HEAVY_ATOM_COUNT>
24

> <PUBCHEM_ATOM_DEF_STEREO_COUNT>
0

> <PUBCHEM_ATOM_UDEF_STEREO_COUNT>
0

> <PUBCHEM_BOND_DEF_STEREO_COUNT>
0

> <PUBCHEM_BOND_UDEF_STEREO_COUNT>
0

> <PUBCHEM_ISOTOPIC_ATOM_COUNT>
0

> <PUBCHEM_COMPONENT_COUNT>
1

> <PUBCHEM_CACTVS_TAUTO_COUNT>
2

> <PUBCHEM_CONFORMER_ID>
0001EEA900000001

> <PUBCHEM_MMFF94_ENERGY>
53.9249

> <PUBCHEM_FEATURE_SELFOVERLAP>
45.753

> <PUBCHEM_SHAPE_FINGERPRINT>
10411042 1 18338799047807821919
10595046 47 18334016108166237054
10912923 1 17968095284072913018
11056379 131 18410577262248791679
11545043 162 18059566959038224642
12107183 9 17686330967952554050
12788726 201 18334005103817103051
13073987 5 18411130326205420938
13631057 29 18334853939620410970
13955234 65 17401774515827095363
14347332 77 18408602569657047286
14713325 29 18271246019342763481
15042514 8 18412265056190484103
17844677 252 18413670215081909336
1813 80 18127987505960791287
18222031 100 18198620141545839031
21120745 212 18337403715870564117
21130935 74 18336816483116472914
21304303 172 18343306990179709899
21426921 1 18410854326399480365
21796203 349 17830488276852485315
22182313 1 17489035846751535750
23557571 272 18130505228258162548
283562 15 18334292076351789875
3004659 81 17749662012636086291
312423 11 18334303093074701412
4409770 3 18335413527447765925
465052 167 18267590297831659239
497634 4 18186236217132001206
5104073 3 18340195299084600066
57634706 229 17699585653076089192
59755656 520 18123181304202065189
77188 2 18194682790454239213
7970288 3 18265330784288670403

> <PUBCHEM_SHAPE_MULTIPOLES>
439.66
13.76
5.09
1.22
12.93
4.16
0.22
-14.9
1.04
-13.55
0.94
0.26
0.49
-0.83

> <PUBCHEM_SHAPE_SELFOVERLAP>
886.662

> <PUBCHEM_SHAPE_VOLUME>
257.9

> <PUBCHEM_COORDINATE_TYPE>
2
5
10

$$$$
