REMARK  Name = 126637809
REMARK  6 active torsions:
REMARK  status: ('A' for Active; 'I' for Inactive)
REMARK    1  A    between atoms: C_1  and  C_22
REMARK    2  A    between atoms: C_2  and  N_6
REMARK    3  A    between atoms: C_4  and  O_18
REMARK    4  A    between atoms: C_5  and  O_20
REMARK    5  A    between atoms: C_22  and  C_23
REMARK    6  A    between atoms: C_23  and  C_26
REMARK                            x       y       z     vdW  Elec       q    Type
REMARK                         _______ _______ _______ _____ _____    ______ ____
ROOT
ATOM      1  C   UNL     1      -0.741  -2.039   0.002  0.00  0.00    +0.031 C 
ATOM      2  C   UNL     1      -3.018  -1.182   0.172  0.00  0.00    +0.108 C 
ATOM      3  C   UNL     1      -1.546  -0.832   0.487  0.00  0.00    +0.025 C 
ATOM      4  C   UNL     1      -1.492  -2.433  -1.267  0.00  0.00    +0.139 C 
ATOM      5  C   UNL     1      -2.961  -2.345  -0.849  0.00  0.00    +0.155 C 
ENDROOT
BRANCH   2   6
ATOM      6  N   UNL     1      -3.812   0.016  -0.302  0.00  0.00    -0.274 N 
ATOM      7  N   UNL     1      -5.458   0.082   1.458  0.00  0.00    -0.233 NA
ATOM      8  N   UNL     1      -7.064   1.892   1.191  0.00  0.00    -0.234 NA
ATOM      9  C   UNL     1      -4.910   0.545   0.322  0.00  0.00    +0.120 C 
ATOM     10  C   UNL     1      -3.535   0.741  -1.433  0.00  0.00    +0.062 C 
ATOM     11  C   UNL     1      -5.346   1.632  -0.427  0.00  0.00    +0.131 C 
ATOM     12  C   UNL     1      -4.470   1.748  -1.536  0.00  0.00    +0.004 C 
ATOM     13  C   UNL     1      -6.466   2.311   0.051  0.00  0.00    +0.110 C 
ATOM     14  C   UNL     1      -6.530   0.818   1.816  0.00  0.00    +0.252 C 
ATOM     15  N   UNL     1      -6.981   3.423  -0.639  0.00  0.00    -0.346 N 
ATOM     16  H   UNL     1      -7.773   3.894  -0.292  0.00  0.00    +0.143 HD
ATOM     17  H   UNL     1      -6.549   3.730  -1.469  0.00  0.00    +0.143 HD
ENDBRANCH   2   6
BRANCH   4  18
ATOM     18  O   UNL     1      -1.127  -3.723  -1.716  0.00  0.00    -0.382 OA
ATOM     19  H   UNL     1      -0.190  -3.725  -1.968  0.00  0.00    +0.210 HD
ENDBRANCH   4  18
BRANCH   5  20
ATOM     20  O   UNL     1      -3.345  -3.553  -0.189  0.00  0.00    -0.380 OA
ATOM     21  H   UNL     1      -4.277  -3.495   0.075  0.00  0.00    +0.211 HD
ENDBRANCH   5  20
BRANCH   1  22
ATOM     22  C   UNL     1       0.726  -1.720  -0.240  0.00  0.00    +0.007 C 
BRANCH  22  23
ATOM     23  C   UNL     1       1.419  -1.269   1.046  0.00  0.00    +0.023 C 
BRANCH  23  26
ATOM     24 BR   UNL     1       9.131   1.559  -0.475  0.00  0.00    -0.045 Br
ATOM     25  N   UNL     1       4.986   1.864  -0.113  0.00  0.00    -0.391 NA
ATOM     26  C   UNL     1       2.881  -0.979   0.819  0.00  0.00    -0.037 C 
ATOM     27  C   UNL     1       3.288   0.307   0.454  0.00  0.00    +0.081 C 
ATOM     28  C   UNL     1       3.822  -1.988   0.973  0.00  0.00    -0.008 C 
ATOM     29  C   UNL     1       4.628   0.614   0.237  0.00  0.00    +0.115 C 
ATOM     30  C   UNL     1       5.170  -1.709   0.763  0.00  0.00    +0.002 C 
ATOM     31  C   UNL     1       5.579  -0.416   0.396  0.00  0.00    +0.026 C 
ATOM     32  C   UNL     1       6.928  -0.107   0.178  0.00  0.00    +0.013 C 
ATOM     33  C   UNL     1       6.299   2.120  -0.314  0.00  0.00    +0.183 C 
ATOM     34  C   UNL     1       7.301   1.180  -0.183  0.00  0.00    +0.078 C 
ATOM     35  N   UNL     1       6.646   3.443  -0.683  0.00  0.00    -0.333 N 
ATOM     36  H   UNL     1       5.944   4.127  -0.781  0.00  0.00    +0.145 HD
ATOM     37  H   UNL     1       7.588   3.680  -0.841  0.00  0.00    +0.145 HD
ENDBRANCH  23  26
ENDBRANCH  22  23
ENDBRANCH   1  22
TORSDOF 6
