REMARK  Name = 126661
REMARK  10 active torsions:
REMARK  status: ('A' for Active; 'I' for Inactive)
REMARK    1  A    between atoms: C_1  and  C_16
REMARK    2  A    between atoms: C_4  and  O_9
REMARK    3  A    between atoms: C_5  and  O_7
REMARK    4  A    between atoms: O_9  and  P_10
REMARK    5  A    between atoms: P_10  and  O_12
REMARK    6  A    between atoms: P_10  and  O_14
REMARK    7  A    between atoms: C_16  and  CA_17
REMARK    8  A    between atoms: CA_17  and  N_18
REMARK    9  A    between atoms: CA_17  and  C_23
REMARK   10  A    between atoms: C_23  and  O_24
REMARK                            x       y       z     vdW  Elec       q    Type
REMARK                         _______ _______ _______ _____ _____    ______ ____
ROOT
ATOM      1  C   UNL     1      -0.833   1.165   0.557  0.00  0.00    -0.021 C 
ATOM      2  C   UNL     1       0.223   0.274   0.461  0.00  0.00    +0.036 C 
ATOM      3  C   UNL     1      -0.682   2.501   0.224  0.00  0.00    -0.001 C 
ATOM      4  C   UNL     1       1.464   0.731   0.020  0.00  0.00    +0.182 C 
ATOM      5  C   UNL     1       1.632   2.074  -0.320  0.00  0.00    +0.168 C 
ATOM      6  C   UNL     1       0.559   2.959  -0.217  0.00  0.00    +0.039 C 
ENDROOT
BRANCH   5   7
ATOM      7  O   UNL     1       2.840   2.532  -0.753  0.00  0.00    -0.503 OA
ATOM      8  H   UNL     1       3.566   1.944  -0.825  0.00  0.00    +0.292 HD
ENDBRANCH   5   7
BRANCH   4   9
ATOM      9  O   UNL     1       2.505  -0.143  -0.077  0.00  0.00    -0.400 OA
BRANCH   9  10
ATOM     10  P   UNL     1       2.435  -1.719   0.285  0.00  0.00    +0.528 P 
ATOM     11  O   UNL     1       2.059  -2.035   1.703  0.00  0.00    -0.216 OA
BRANCH  10  12
ATOM     12  O   UNL     1       1.470  -2.343  -0.853  0.00  0.00    -0.293 OA
ATOM     13  H   UNL     1       1.794  -2.084  -1.730  0.00  0.00    +0.223 HD
ENDBRANCH  10  12
BRANCH  10  14
ATOM     14  O   UNL     1       3.900  -2.249  -0.152  0.00  0.00    -0.293 OA
ATOM     15  H   UNL     1       4.069  -2.008  -1.076  0.00  0.00    +0.223 HD
ENDBRANCH  10  14
ENDBRANCH   9  10
ENDBRANCH   4   9
BRANCH   1  16
ATOM     16  C   UNL     1      -2.178   0.669   1.035  0.00  0.00    +0.015 C 
BRANCH  16  17
ATOM     17  CA  UNL     1      -3.077   0.181  -0.111  0.00  0.00    +0.040 C 
BRANCH  17  18
ATOM     18  N   UNL     1      -4.472   0.176   0.323  0.00  0.00    +0.389 N 
ATOM     19  H1  UNL     1      -4.741   1.116   0.616  0.00  0.00    -0.088 HD
ATOM     20  H2  UNL     1      -4.582  -0.469   1.106  0.00  0.00    -0.088 HD
ATOM     21  H3  UNL     1      -5.068  -0.122  -0.450  0.00  0.00    -0.088 HD
ENDBRANCH  17  18
BRANCH  17  23
ATOM     22  OXT UNL     1      -3.236  -2.248  -0.034  0.00  0.00    -0.253 OA
ATOM     23  C   UNL     1      -2.747  -1.241  -0.530  0.00  0.00    +0.293 C 
BRANCH  23  24
ATOM     24  O   UNL     1      -1.860  -1.284  -1.558  0.00  0.00    -0.482 OA
ATOM     25  H   UNL     1      -1.510  -0.489  -1.908  0.00  0.00    +0.295 HD
ENDBRANCH  23  24
ENDBRANCH  17  23
ENDBRANCH  16  17
ENDBRANCH   1  16
TORSDOF 10
