REMARK  Name = 126631
REMARK  8 active torsions:
REMARK  status: ('A' for Active; 'I' for Inactive)
REMARK    1  A    between atoms: N_2  and  N_5
REMARK    2  A    between atoms: N_2  and  C_21
REMARK    3  A    between atoms: C_3  and  O_11
REMARK    4  A    between atoms: O_11  and  C_12
REMARK    5  A    between atoms: C_15  and  N_20
REMARK    6  A    between atoms: C_21  and  C_22
REMARK    7  A    between atoms: C_22  and  C_23
REMARK    8  A    between atoms: C_23  and  N_24
REMARK                            x       y       z     vdW  Elec       q    Type
REMARK                         _______ _______ _______ _____ _____    ______ ____
ROOT
ATOM      1  O   UNL     1      -0.044  -1.642  -0.877  0.00  0.00    -0.224 OA
ATOM      2  N   UNL     1      -1.944  -0.451  -0.317  0.00  0.00    -0.173 N 
ATOM      3  C   UNL     1      -0.574  -0.653  -0.374  0.00  0.00    +0.425 C 
ENDROOT
BRANCH   2   5
ATOM      4  O   UNL     1      -2.406   1.958  -1.532  0.00  0.00    -0.251 OA
ATOM      5  N   UNL     1      -2.470   0.640   0.354  0.00  0.00    -0.212 N 
ATOM      6  N   UNL     1      -3.202   2.876   0.450  0.00  0.00    -0.260 N 
ATOM      7  C   UNL     1      -2.677   1.831  -0.333  0.00  0.00    +0.320 C 
ATOM      8  C   UNL     1      -3.514   2.700   1.866  0.00  0.00    +0.117 C 
ATOM      9  C   UNL     1      -3.468   4.197  -0.103  0.00  0.00    +0.117 C 
ATOM     10  H   UNL     1      -2.697   0.572   1.310  0.00  0.00    +0.175 HD
ENDBRANCH   2   5
BRANCH   3  11
ATOM     11  O   UNL     1       0.138   0.402   0.208  0.00  0.00    -0.409 OA
BRANCH  11  12
ATOM     12  C   UNL     1       1.526   0.239   0.172  0.00  0.00    +0.150 C 
ATOM     13  C   UNL     1       2.257   0.720  -0.914  0.00  0.00    +0.039 C 
ATOM     14  C   UNL     1       2.180  -0.406   1.222  0.00  0.00    +0.039 C 
ATOM     15  C   UNL     1       4.295  -0.088   0.100  0.00  0.00    +0.143 C 
ATOM     16  C   UNL     1       3.642   0.557  -0.950  0.00  0.00    +0.027 C 
ATOM     17  C   UNL     1       3.564  -0.569   1.186  0.00  0.00    +0.027 C 
BRANCH  15  20
ATOM     18  O   UNL     1       6.343   0.186  -0.924  0.00  0.00    -0.126 OA
ATOM     19  O   UNL     1       6.274  -0.836   1.017  0.00  0.00    -0.126 OA
ATOM     20  N   UNL     1       5.705  -0.254   0.063  0.00  0.00    +0.058 N 
ENDBRANCH  15  20
ENDBRANCH  11  12
ENDBRANCH   3  11
BRANCH   2  21
ATOM     21  C   UNL     1      -2.949  -1.357  -0.832  0.00  0.00    +0.116 C 
BRANCH  21  22
ATOM     22  C   UNL     1      -3.401  -2.382   0.204  0.00  0.00    -0.000 C 
BRANCH  22  23
ATOM     23  C   UNL     1      -4.445  -3.351  -0.353  0.00  0.00    -0.084 C 
BRANCH  23  24
ATOM     24  N   UNL     1      -4.830  -4.319   0.668  0.00  0.00    +0.380 N 
ATOM     25  H   UNL     1      -5.526  -4.959   0.285  0.00  0.00    -0.089 HD
ATOM     26  H   UNL     1      -5.226  -3.827   1.470  0.00  0.00    -0.089 HD
ATOM     27  H   UNL     1      -4.009  -4.846   0.964  0.00  0.00    -0.089 HD
ENDBRANCH  23  24
ENDBRANCH  22  23
ENDBRANCH  21  22
ENDBRANCH   2  21
TORSDOF 8
