REMARK  Name = 126633
REMARK  9 active torsions:
REMARK  status: ('A' for Active; 'I' for Inactive)
REMARK    1  A    between atoms: N_2  and  N_5
REMARK    2  A    between atoms: N_2  and  C_21
REMARK    3  A    between atoms: C_3  and  O_11
REMARK    4  A    between atoms: O_11  and  C_12
REMARK    5  A    between atoms: C_15  and  N_20
REMARK    6  A    between atoms: C_21  and  C_22
REMARK    7  A    between atoms: C_22  and  C_23
REMARK    8  A    between atoms: C_23  and  C_24
REMARK    9  A    between atoms: C_24  and  N_25
REMARK                            x       y       z     vdW  Elec       q    Type
REMARK                         _______ _______ _______ _____ _____    ______ ____
ROOT
ATOM      1  O   UNL     1       0.004  -1.426  -0.890  0.00  0.00    -0.224 OA
ATOM      2  N   UNL     1      -1.710   0.017  -0.325  0.00  0.00    -0.173 N 
ATOM      3  C   UNL     1      -0.383  -0.375  -0.381  0.00  0.00    +0.425 C 
ENDROOT
BRANCH   2   5
ATOM      4  O   UNL     1      -1.828   2.474  -1.526  0.00  0.00    -0.251 OA
ATOM      5  N   UNL     1      -2.081   1.167   0.351  0.00  0.00    -0.212 N 
ATOM      6  N   UNL     1      -2.491   3.483   0.459  0.00  0.00    -0.260 N 
ATOM      7  C   UNL     1      -2.116   2.380  -0.329  0.00  0.00    +0.320 C 
ATOM      8  C   UNL     1      -2.828   3.345   1.874  0.00  0.00    +0.117 C 
ATOM      9  C   UNL     1      -2.567   4.832  -0.086  0.00  0.00    +0.117 C 
ATOM     10  H   UNL     1      -2.317   1.127   1.306  0.00  0.00    +0.175 HD
ENDBRANCH   2   5
BRANCH   3  11
ATOM     11  O   UNL     1       0.469   0.567   0.207  0.00  0.00    -0.409 OA
BRANCH  11  12
ATOM     12  C   UNL     1       1.820   0.210   0.173  0.00  0.00    +0.150 C 
ATOM     13  C   UNL     1       2.614   0.590  -0.909  0.00  0.00    +0.039 C 
ATOM     14  C   UNL     1       2.375  -0.526   1.220  0.00  0.00    +0.039 C 
ATOM     15  C   UNL     1       4.517  -0.502   0.103  0.00  0.00    +0.143 C 
ATOM     16  C   UNL     1       3.962   0.234  -0.945  0.00  0.00    +0.027 C 
ATOM     17  C   UNL     1       3.723  -0.882   1.185  0.00  0.00    +0.027 C 
BRANCH  15  20
ATOM     18  O   UNL     1       6.585  -0.512  -0.916  0.00  0.00    -0.126 OA
ATOM     19  O   UNL     1       6.369  -1.526   1.019  0.00  0.00    -0.126 OA
ATOM     20  N   UNL     1       5.889  -0.864   0.067  0.00  0.00    +0.058 N 
ENDBRANCH  15  20
ENDBRANCH  11  12
ENDBRANCH   3  11
BRANCH   2  21
ATOM     21  C   UNL     1      -2.832  -0.736  -0.847  0.00  0.00    +0.118 C 
BRANCH  21  22
ATOM     22  C   UNL     1      -3.426  -1.692   0.183  0.00  0.00    +0.021 C 
BRANCH  22  23
ATOM     23  C   UNL     1      -4.600  -2.502  -0.380  0.00  0.00    -0.022 C 
BRANCH  23  24
ATOM     24  C   UNL     1      -5.171  -3.506   0.624  0.00  0.00    -0.086 C 
BRANCH  24  25
ATOM     25  N   UNL     1      -6.296  -4.250   0.071  0.00  0.00    +0.380 N 
ATOM     26  H   UNL     1      -6.646  -4.906   0.769  0.00  0.00    -0.089 HD
ATOM     27  H   UNL     1      -5.991  -4.764  -0.756  0.00  0.00    -0.089 HD
ATOM     28  H   UNL     1      -7.039  -3.600  -0.188  0.00  0.00    -0.089 HD
ENDBRANCH  24  25
ENDBRANCH  23  24
ENDBRANCH  22  23
ENDBRANCH  21  22
ENDBRANCH   2  21
TORSDOF 9
