REMARK  Name = 126690
REMARK  8 active torsions:
REMARK  status: ('A' for Active; 'I' for Inactive)
REMARK    1  A    between atoms: C_1  and  N_18
REMARK    2  A    between atoms: C_2  and  N_14
REMARK    3  A    between atoms: C_4  and  C_9
REMARK    4  A    between atoms: C_5  and  N_17
REMARK    5  A    between atoms: N_18  and  C_19
REMARK    6  A    between atoms: N_18  and  C_22
REMARK    7  A    between atoms: C_19  and  C_21
REMARK    8  A    between atoms: C_22  and  C_24
REMARK                            x       y       z     vdW  Elec       q    Type
REMARK                         _______ _______ _______ _____ _____    ______ ____
ROOT
ATOM      1  C   UNL     1      -0.654   0.223  -0.007  0.00  0.00    +0.071 C 
ATOM      2  C   UNL     1      -0.052   1.481  -0.013  0.00  0.00    +0.158 C 
ATOM      3  C   UNL     1       0.134  -0.928   0.000  0.00  0.00    +0.022 C 
ATOM      4  C   UNL     1       1.524  -0.821  -0.001  0.00  0.00    +0.077 C 
ATOM      5  C   UNL     1       2.127   0.437  -0.008  0.00  0.00    +0.149 C 
ATOM      6  C   UNL     1       1.339   1.588  -0.014  0.00  0.00    +0.050 C 
ENDROOT
BRANCH   4   9
ATOM      7  O   UNL     1       2.650  -2.586   1.079  0.00  0.00    -0.270 OA
ATOM      8  N   UNL     1       2.665  -2.599  -1.214  0.00  0.00    -0.325 N 
ATOM      9  C   UNL     1       2.315  -2.046   0.012  0.00  0.00    +0.244 C 
ATOM     10  H   UNL     1       3.198  -3.426  -1.247  0.00  0.00    +0.145 HD
ATOM     11  H   UNL     1       2.379  -2.164  -2.050  0.00  0.00    +0.145 HD
ENDBRANCH   4   9
BRANCH   2  14
ATOM     12  O   UNL     1      -0.248   3.779  -0.022  0.00  0.00    -0.126 OA
ATOM     13  O   UNL     1      -2.083   2.573  -0.018  0.00  0.00    -0.126 OA
ATOM     14  N   UNL     1      -0.833   2.671  -0.018  0.00  0.00    +0.059 N 
ENDBRANCH   2  14
BRANCH   5  17
ATOM     15  O   UNL     1       4.041   1.723  -0.007  0.00  0.00    -0.126 OA
ATOM     16  O   UNL     1       4.250  -0.462   0.002  0.00  0.00    -0.126 OA
ATOM     17  N   UNL     1       3.543   0.573  -0.004  0.00  0.00    +0.058 N 
ENDBRANCH   5  17
BRANCH   1  18
ATOM     18  N   UNL     1      -2.061   0.088  -0.004  0.00  0.00    -0.304 N 
BRANCH  18  19
ATOM     19  C   UNL     1      -2.792   0.024  -1.253  0.00  0.00    +0.108 C 
BRANCH  19  21
ATOM     20 CL   UNL     1      -3.832  -1.505  -3.264  0.00  0.00    -0.112 Cl
ATOM     21  C   UNL     1      -2.926  -1.413  -1.733  0.00  0.00    +0.116 C 
ENDBRANCH  19  21
ENDBRANCH  18  19
BRANCH  18  22
ATOM     22  C   UNL     1      -2.788   0.025   1.247  0.00  0.00    +0.108 C 
BRANCH  22  24
ATOM     23 CL   UNL     1      -3.602  -1.455   3.394  0.00  0.00    -0.112 Cl
ATOM     24  C   UNL     1      -2.720  -1.369   1.848  0.00  0.00    +0.116 C 
ENDBRANCH  22  24
ENDBRANCH  18  22
ENDBRANCH   1  18
TORSDOF 8
