126639768
  -OEChem-03292013293D

 32 33  0     1  0  0  0  0  0999 V2000
   -1.6228   -0.4797    1.0323 O   0  0  0  0  0  0  0  0  0  0  0  0
   -1.3147    2.3635   -1.1313 O   0  0  0  0  0  0  0  0  0  0  0  0
   -3.5205    1.7378    0.3457 O   0  0  0  0  0  0  0  0  0  0  0  0
   -2.7617   -2.9475    0.3393 O   0  0  0  0  0  0  0  0  0  0  0  0
    1.4943    2.1717    0.6491 O   0  0  0  0  0  0  0  0  0  0  0  0
    4.1718   -1.4951   -0.4616 O   0  0  0  0  0  0  0  0  0  0  0  0
    0.4966    0.1125    0.2435 N   0  0  0  0  0  0  0  0  0  0  0  0
    2.8784    0.3781    0.1030 N   0  0  0  0  0  0  0  0  0  0  0  0
   -1.5335    1.0045   -0.8129 C   0  0  2  0  0  0  0  0  0  0  0  0
   -2.9849    0.7152   -0.4938 C   0  0  1  0  0  0  0  0  0  0  0  0
   -0.8389    0.5860    0.4715 C   0  0  1  0  0  0  0  0  0  0  0  0
   -2.8822   -0.5616    0.3294 C   0  0  1  0  0  0  0  0  0  0  0  0
   -2.8703   -1.8259   -0.5194 C   0  0  0  0  0  0  0  0  0  0  0  0
    1.6140    0.9784    0.3546 C   0  0  0  0  0  0  0  0  0  0  0  0
    0.6736   -1.2220   -0.0918 C   0  0  0  0  0  0  0  0  0  0  0  0
    1.8585   -1.7818   -0.3283 C   0  0  0  0  0  0  0  0  0  0  0  0
    3.0853   -0.9650   -0.2386 C   0  0  0  0  0  0  0  0  0  0  0  0
    4.0571    1.2309    0.2093 C   0  0  0  0  0  0  0  0  0  0  0  0
   -1.2136    0.3936   -1.6657 H   0  0  0  0  0  0  0  0  0  0  0  0
   -3.6197    0.6398   -1.3812 H   0  0  0  0  0  0  0  0  0  0  0  0
   -0.8145    1.4087    1.1963 H   0  0  0  0  0  0  0  0  0  0  0  0
   -3.6642   -0.6330    1.0938 H   0  0  0  0  0  0  0  0  0  0  0  0
   -2.0452   -1.8514   -1.2350 H   0  0  0  0  0  0  0  0  0  0  0  0
   -3.8089   -1.9127   -1.0769 H   0  0  0  0  0  0  0  0  0  0  0  0
   -0.3563    2.4876   -1.2375 H   0  0  0  0  0  0  0  0  0  0  0  0
   -4.4377    1.4912    0.5549 H   0  0  0  0  0  0  0  0  0  0  0  0
   -0.1977   -1.8536   -0.1646 H   0  0  0  0  0  0  0  0  0  0  0  0
    1.9524   -2.8299   -0.5866 H   0  0  0  0  0  0  0  0  0  0  0  0
   -2.7703   -3.7409   -0.2228 H   0  0  0  0  0  0  0  0  0  0  0  0
    3.9581    2.0537   -0.5060 H   0  0  0  0  0  0  0  0  0  0  0  0
    4.9863    0.6909    0.0132 H   0  0  0  0  0  0  0  0  0  0  0  0
    4.0914    1.6571    1.2170 H   0  0  0  0  0  0  0  0  0  0  0  0
  1 11  1  0  0  0  0
  1 12  1  0  0  0  0
  2  9  1  0  0  0  0
  2 25  1  0  0  0  0
  3 10  1  0  0  0  0
  3 26  1  0  0  0  0
  4 13  1  0  0  0  0
  4 29  1  0  0  0  0
  5 14  2  0  0  0  0
  6 17  2  0  0  0  0
  7 11  1  0  0  0  0
  7 14  1  0  0  0  0
  7 15  1  0  0  0  0
  8 14  1  0  0  0  0
  8 17  1  0  0  0  0
  8 18  1  0  0  0  0
  9 10  1  0  0  0  0
  9 11  1  0  0  0  0
  9 19  1  0  0  0  0
 10 12  1  0  0  0  0
 10 20  1  0  0  0  0
 11 21  1  0  0  0  0
 12 13  1  0  0  0  0
 12 22  1  0  0  0  0
 13 23  1  0  0  0  0
 13 24  1  0  0  0  0
 15 16  2  0  0  0  0
 15 27  1  0  0  0  0
 16 17  1  0  0  0  0
 16 28  1  0  0  0  0
 18 30  1  0  0  0  0
 18 31  1  0  0  0  0
 18 32  1  0  0  0  0
M  END
> <PUBCHEM_COMPOUND_CID>
126639768

> <PUBCHEM_CONFORMER_RMSD>
0.6

> <PUBCHEM_CONFORMER_DIVERSEORDER>
1
14
31
32
16
26
13
30
19
2
9
24
17
11
18
15
8
4
25
20
28
23
6
5
10
27
21
29
7
22
12
3

> <PUBCHEM_MMFF94_PARTIAL_CHARGES>
23
1 -0.56
10 0.28
11 0.58
12 0.28
13 0.28
14 0.69
15 -0.04
16 -0.14
17 0.62
18 0.3
2 -0.68
25 0.4
26 0.4
27 0.15
28 0.15
29 0.4
3 -0.68
4 -0.68
5 -0.57
6 -0.57
7 -0.47
8 -0.42
9 0.28

> <PUBCHEM_EFFECTIVE_ROTOR_COUNT>
3

> <PUBCHEM_PHARMACOPHORE_FEATURES>
11
1 1 acceptor
1 2 acceptor
1 2 donor
1 3 acceptor
1 3 donor
1 4 acceptor
1 4 donor
1 5 acceptor
1 6 acceptor
5 1 9 10 11 12 rings
6 7 8 14 15 16 17 rings

> <PUBCHEM_HEAVY_ATOM_COUNT>
18

> <PUBCHEM_ATOM_DEF_STEREO_COUNT>
2

> <PUBCHEM_ATOM_UDEF_STEREO_COUNT>
2

> <PUBCHEM_BOND_DEF_STEREO_COUNT>
0

> <PUBCHEM_BOND_UDEF_STEREO_COUNT>
0

> <PUBCHEM_ISOTOPIC_ATOM_COUNT>
0

> <PUBCHEM_COMPONENT_COUNT>
1

> <PUBCHEM_CACTVS_TAUTO_COUNT>
1

> <PUBCHEM_CONFORMER_ID>
078C5E9800000001

> <PUBCHEM_MMFF94_ENERGY>
46.5244

> <PUBCHEM_FEATURE_SELFOVERLAP>
55.841

> <PUBCHEM_SHAPE_FINGERPRINT>
10608611 8 18410007715352178132
10967382 1 18267584602530236571
11132069 177 18409726270466372104
11471102 20 18342452604318689012
12173636 292 18265612083445236445
12500047 106 18336261228598947279
12932764 1 17895188853276745242
12969540 114 17897144859542315621
13140716 1 18341324510015822410
13296908 3 18342738503217001706
14115302 16 18336559208892526405
14251745 187 18336819879105476058
14965852 173 18412826889035482089
15196674 1 18412826893478324310
15219456 202 18410575076120747104
15375462 6 18337669844696407006
16945 1 18263629680859258873
17834074 16 18411700997534087619
18175812 5 18411139112853784382
18186145 218 18262235521753560260
19141452 34 18341337781697089747
200 152 17774714286173962111
20201158 50 18339643321897088318
20645477 70 18059572443268337150
21501502 16 18409727365524744451
221490 88 18340211885789808690
23402539 116 17821998848499306900
23557571 272 18339653312017230484
23559900 14 18341046299557349170
2748010 2 18337946921605481423
2871803 45 18336819905171321847
4028521 119 17968648320751451957
46194498 28 17322357834567293223
5104073 3 18413107264469170730
58051976 378 18269270334497360484
69090 78 18337668612452204109
74978 22 18341613685404450137
81228 2 18114743849680789425
8809292 202 18409169874511984962
93112 12 18411698759840217775
9709674 26 18413672408955993071

> <PUBCHEM_SHAPE_MULTIPOLES>
325.25
6.83
2.55
0.84
2.93
0.49
0.05
0.8
0.22
-0.91
0.17
-0.27
-0.15
0.69

> <PUBCHEM_SHAPE_SELFOVERLAP>
683.15

> <PUBCHEM_SHAPE_VOLUME>
183

> <PUBCHEM_COORDINATE_TYPE>
2
5
10

$$$$
