REMARK  Name = 126639768
REMARK  5 active torsions:
REMARK  status: ('A' for Active; 'I' for Inactive)
REMARK    1  A    between atoms: C2*_2  and  O2*_15
REMARK    2  A    between atoms: C3*_3  and  O3*_17
REMARK    3  A    between atoms: C1*_4  and  N_8
REMARK    4  A    between atoms: C4*_5  and  C5*_19
REMARK    5  A    between atoms: C5*_19  and  O5*_20
REMARK                            x       y       z     vdW  Elec       q    Type
REMARK                         _______ _______ _______ _____ _____    ______ ____
ROOT
ATOM      1  O4* UNL     1      -1.623  -0.480   1.032  0.00  0.00    -0.333 OA
ATOM      2  C2* UNL     1      -1.534   1.004  -0.813  0.00  0.00    +0.187 C 
ATOM      3  C3* UNL     1      -2.985   0.715  -0.494  0.00  0.00    +0.171 C 
ATOM      4  C1* UNL     1      -0.839   0.586   0.471  0.00  0.00    +0.229 C 
ATOM      5  C4* UNL     1      -2.882  -0.562   0.329  0.00  0.00    +0.175 C 
ENDROOT
BRANCH   4   8
ATOM      6  O   UNL     1       1.494   2.172   0.649  0.00  0.00    -0.252 OA
ATOM      7  O   UNL     1       4.172  -1.495  -0.462  0.00  0.00    -0.269 OA
ATOM      8  N   UNL     1       0.497   0.113   0.243  0.00  0.00    -0.216 N 
ATOM      9  N   UNL     1       2.878   0.378   0.103  0.00  0.00    -0.208 N 
ATOM     10  C   UNL     1       1.614   0.978   0.355  0.00  0.00    +0.319 C 
ATOM     11  C   UNL     1       0.674  -1.222  -0.092  0.00  0.00    +0.076 C 
ATOM     12  C   UNL     1       1.859  -1.782  -0.328  0.00  0.00    +0.075 C 
ATOM     13  C   UNL     1       3.085  -0.965  -0.239  0.00  0.00    +0.257 C 
ATOM     14  C   UNL     1       4.057   1.231   0.209  0.00  0.00    +0.125 C 
ENDBRANCH   4   8
BRANCH   2  15
ATOM     15  O2* UNL     1      -1.315   2.364  -1.131  0.00  0.00    -0.378 OA
ATOM     16  H2* UNL     1      -1.777   2.581  -1.956  0.00  0.00    +0.211 HD
ENDBRANCH   2  15
BRANCH   3  17
ATOM     17  O3* UNL     1      -3.521   1.738   0.346  0.00  0.00    -0.379 OA
ATOM     18  H3* UNL     1      -3.596   2.563  -0.158  0.00  0.00    +0.211 HD
ENDBRANCH   3  17
BRANCH   5  19
ATOM     19  C5* UNL     1      -2.870  -1.826  -0.519  0.00  0.00    +0.169 C 
BRANCH  19  20
ATOM     20  O5* UNL     1      -2.762  -2.947   0.339  0.00  0.00    -0.379 OA
ATOM     21  H5* UNL     1      -2.753  -3.760  -0.190  0.00  0.00    +0.211 HD
ENDBRANCH  19  20
ENDBRANCH   5  19
TORSDOF 5
