126798
  -OEChem-03292013323D

 23 24  0     0  0  0  0  0  0999 V2000
    2.2315    1.9200   -0.1416 O   0  0  0  0  0  0  0  0  0  0  0  0
   -3.0055   -1.8312    0.0266 O   0  0  0  0  0  0  0  0  0  0  0  0
    0.2370    0.8862   -0.0637 N   0  0  0  0  0  0  0  0  0  0  0  0
    2.0778   -0.4371   -0.2605 N   0  0  0  0  0  0  0  0  0  0  0  0
   -1.8656    1.5893    0.1157 N   0  0  0  0  0  0  0  0  0  0  0  0
    0.0306   -1.4534   -0.1773 N   0  0  0  0  0  0  0  0  0  0  0  0
    1.2760   -1.5606   -0.2675 N   0  0  0  0  0  0  0  0  0  0  0  0
   -4.2434    0.0756    0.1923 N   0  0  0  0  0  0  0  0  0  0  0  0
   -0.5374   -0.2376   -0.0729 C   0  0  0  0  0  0  0  0  0  0  0  0
    1.6149    0.8664   -0.1577 C   0  0  0  0  0  0  0  0  0  0  0  0
    3.5123   -0.6345   -0.3689 C   0  0  0  0  0  0  0  0  0  0  0  0
   -1.8307    0.2207    0.0386 C   0  0  0  0  0  0  0  0  0  0  0  0
   -0.6059    1.9611    0.0516 C   0  0  0  0  0  0  0  0  0  0  0  0
    4.1246   -0.7830    1.0107 C   0  0  0  0  0  0  0  0  0  0  0  0
   -3.0161   -0.5819    0.0745 C   0  0  0  0  0  0  0  0  0  0  0  0
    3.7004   -1.5297   -0.9718 H   0  0  0  0  0  0  0  0  0  0  0  0
    3.9661    0.2189   -0.8849 H   0  0  0  0  0  0  0  0  0  0  0  0
   -0.2496    2.9818    0.0834 H   0  0  0  0  0  0  0  0  0  0  0  0
    3.9528    0.1105    1.6201 H   0  0  0  0  0  0  0  0  0  0  0  0
    3.6941   -1.6375    1.5437 H   0  0  0  0  0  0  0  0  0  0  0  0
    5.2049   -0.9394    0.9323 H   0  0  0  0  0  0  0  0  0  0  0  0
   -4.3098    1.0872    0.2445 H   0  0  0  0  0  0  0  0  0  0  0  0
   -5.1128   -0.4459    0.2299 H   0  0  0  0  0  0  0  0  0  0  0  0
  1 10  2  0  0  0  0
  2 15  2  0  0  0  0
  3  9  1  0  0  0  0
  3 10  1  0  0  0  0
  3 13  1  0  0  0  0
  4  7  1  0  0  0  0
  4 10  1  0  0  0  0
  4 11  1  0  0  0  0
  5 12  1  0  0  0  0
  5 13  2  0  0  0  0
  6  7  2  0  0  0  0
  6  9  1  0  0  0  0
  8 15  1  0  0  0  0
  8 22  1  0  0  0  0
  8 23  1  0  0  0  0
  9 12  2  0  0  0  0
 11 14  1  0  0  0  0
 11 16  1  0  0  0  0
 11 17  1  0  0  0  0
 12 15  1  0  0  0  0
 13 18  1  0  0  0  0
 14 19  1  0  0  0  0
 14 20  1  0  0  0  0
 14 21  1  0  0  0  0
M  END
> <PUBCHEM_COMPOUND_CID>
126798

> <PUBCHEM_CONFORMER_RMSD>
0.6

> <PUBCHEM_CONFORMER_DIVERSEORDER>
2
5
8
3
7
6
1
4

> <PUBCHEM_MMFF94_PARTIAL_CHARGES>
17
1 -0.57
10 0.64
11 0.3
12 0.14
13 0.04
15 0.72
18 0.15
2 -0.57
22 0.37
23 0.37
3 0.29
4 -0.3
5 -0.57
6 -0.13
7 -0.06
8 -0.8
9 -0.03

> <PUBCHEM_EFFECTIVE_ROTOR_COUNT>
2

> <PUBCHEM_PHARMACOPHORE_FEATURES>
5
1 1 acceptor
1 2 acceptor
1 8 donor
5 3 5 9 12 13 rings
6 3 4 6 7 9 10 rings

> <PUBCHEM_HEAVY_ATOM_COUNT>
15

> <PUBCHEM_ATOM_DEF_STEREO_COUNT>
0

> <PUBCHEM_ATOM_UDEF_STEREO_COUNT>
0

> <PUBCHEM_BOND_DEF_STEREO_COUNT>
0

> <PUBCHEM_BOND_UDEF_STEREO_COUNT>
0

> <PUBCHEM_ISOTOPIC_ATOM_COUNT>
0

> <PUBCHEM_COMPONENT_COUNT>
1

> <PUBCHEM_CACTVS_TAUTO_COUNT>
2

> <PUBCHEM_CONFORMER_ID>
0001EF4E00000002

> <PUBCHEM_MMFF94_ENERGY>
27.4217

> <PUBCHEM_FEATURE_SELFOVERLAP>
25.497

> <PUBCHEM_SHAPE_FINGERPRINT>
10130415 120 18409449202094406713
10967382 1 18411422795354157087
11132069 177 18272369771692293491
11471102 20 18410853291649861869
11543360 7 15647347384636512718
11769659 78 18335418001743190047
12032990 46 18411426123858911398
12251169 10 18342183228359550089
13140716 1 18339642364050985235
14178342 30 18124876759637173176
14325111 11 18339082704311342845
15196674 1 18339081596283600999
15375462 478 18413102853548046710
15536298 74 18271528688563183388
16945 1 18339367357284199837
18522853 276 18412542094054430424
193761 8 17834680396396591927
200 152 18130776850838034405
20201158 50 18409451366900588843
20510252 161 18201718401818960832
20645477 70 18411418440547573471
20871998 184 18130504137103971286
20871998 22 18271253703081571214
21267235 1 18411430513822039463
21501502 16 18409739468716594040
21501925 9 18411131442179350072
22959321 4 18336829796280005203
2334 1 18123471853959031047
23402539 116 18340194237336484647
23463225 33 18409167735712957220
23552423 10 18334019397235726237
23559900 14 18198342850062187142
2748010 2 18339081626015965405
43471831 8 18190739735197905234
5104073 3 18339366365758568059
53655031 270 18409449159134275131
7364860 26 18270401719436662168
8809292 202 18260272979350230267

> <PUBCHEM_SHAPE_MULTIPOLES>
267.07
6.41
1.89
0.67
0.5
0.43
0.07
-2.06
1.04
-0.19
-0.04
0.37
-0.06
-0.17

> <PUBCHEM_SHAPE_SELFOVERLAP>
575.979

> <PUBCHEM_SHAPE_VOLUME>
147.8

> <PUBCHEM_COORDINATE_TYPE>
2
5
10

$$$$
