REMARK  Name = 126747
REMARK  5 active torsions:
REMARK  status: ('A' for Active; 'I' for Inactive)
REMARK    1  A    between atoms: P_1  and  O_14
REMARK    2  A    between atoms: P_2  and  O_16
REMARK    3  A    between atoms: C_8  and  C_18
REMARK    4  A    between atoms: C_9  and  O_12
REMARK    5  A    between atoms: C_18  and  O_19
REMARK                            x       y       z     vdW  Elec       q    Type
REMARK                         _______ _______ _______ _____ _____    ______ ____
ROOT
ATOM      1  P   UNL     1       0.162   1.670  -0.309  0.00  0.00    +0.484 P 
ATOM      2  P   UNL     1       2.373  -0.214   0.065  0.00  0.00    +0.484 P 
ATOM      3  O   UNL     1      -0.683   0.729   0.699  0.00  0.00    -0.273 OA
ATOM      4  O   UNL     1       1.368  -1.190   0.875  0.00  0.00    -0.270 OA
ATOM      5  O   UNL     1       1.385   0.732  -0.795  0.00  0.00    -0.186 OA
ATOM      6  O   UNL     1      -0.615   2.332  -1.409  0.00  0.00    -0.227 OA
ATOM      7  O   UNL     1       3.342   0.526   0.940  0.00  0.00    -0.227 OA
ATOM      8  C   UNL     1      -1.488  -0.379   0.279  0.00  0.00    +0.157 C 
ATOM      9  C   UNL     1      -0.669  -1.421  -0.532  0.00  0.00    +0.168 C 
ATOM     10  C   UNL     1       0.495  -2.088   0.213  0.00  0.00    +0.185 C 
ATOM     11  C   UNL     1      -2.045  -0.994   1.573  0.00  0.00    +0.035 C 
ENDROOT
BRANCH   9  12
ATOM     12  O   UNL     1      -1.512  -2.481  -0.991  0.00  0.00    -0.379 OA
ATOM     13  H   UNL     1      -2.268  -2.107  -1.472  0.00  0.00    +0.211 HD
ENDBRANCH   9  12
BRANCH   1  14
ATOM     14  O   UNL     1       0.882   2.707   0.704  0.00  0.00    -0.302 OA
ATOM     15  H   UNL     1       1.363   2.212   1.385  0.00  0.00    +0.222 HD
ENDBRANCH   1  14
BRANCH   2  16
ATOM     16  O   UNL     1       3.061  -1.165  -1.046  0.00  0.00    -0.302 OA
ATOM     17  H   UNL     1       2.372  -1.605  -1.567  0.00  0.00    +0.222 HD
ENDBRANCH   2  16
BRANCH   8  18
ATOM     18  C   UNL     1      -2.679   0.153  -0.534  0.00  0.00    +0.167 C 
BRANCH  18  19
ATOM     19  O   UNL     1      -3.378   1.082   0.268  0.00  0.00    -0.379 OA
ATOM     20  H   UNL     1      -4.135   1.431  -0.227  0.00  0.00    +0.211 HD
ENDBRANCH  18  19
ENDBRANCH   8  18
TORSDOF 5
