REMARK  Name = 126798
REMARK  2 active torsions:
REMARK  status: ('A' for Active; 'I' for Inactive)
REMARK    1  A    between atoms: N_3  and  C_16
REMARK    2  A    between atoms: C_9  and  C_13
REMARK                            x       y       z     vdW  Elec       q    Type
REMARK                         _______ _______ _______ _____ _____    ______ ____
ROOT
ATOM      1  O   UNL     1       2.232   1.920  -0.142  0.00  0.00    -0.250 OA
ATOM      2  N   UNL     1       0.237   0.886  -0.064  0.00  0.00    -0.202 N 
ATOM      3  N   UNL     1       2.078  -0.437  -0.261  0.00  0.00    -0.156 N 
ATOM      4  N   UNL     1      -1.866   1.589   0.116  0.00  0.00    -0.240 NA
ATOM      5  N   UNL     1       0.031  -1.453  -0.177  0.00  0.00    -0.126 NA
ATOM      6  N   UNL     1       1.276  -1.561  -0.268  0.00  0.00    -0.040 NA
ATOM      7  C   UNL     1      -0.537  -0.238  -0.073  0.00  0.00    +0.183 C 
ATOM      8  C   UNL     1       1.615   0.866  -0.158  0.00  0.00    +0.332 C 
ATOM      9  C   UNL     1      -1.831   0.221   0.039  0.00  0.00    +0.164 C 
ATOM     10  C   UNL     1      -0.606   1.961   0.052  0.00  0.00    +0.229 C 
ENDROOT
BRANCH   9  13
ATOM     11  O   UNL     1      -3.006  -1.831   0.027  0.00  0.00    -0.269 OA
ATOM     12  N   UNL     1      -4.243   0.076   0.192  0.00  0.00    -0.324 N 
ATOM     13  C   UNL     1      -3.016  -0.582   0.074  0.00  0.00    +0.263 C 
ATOM     14  H   UNL     1      -5.079  -0.444   0.220  0.00  0.00    +0.145 HD
ATOM     15  H   UNL     1      -4.272   1.058   0.247  0.00  0.00    +0.145 HD
ENDBRANCH   9  13
BRANCH   3  16
ATOM     16  C   UNL     1       3.512  -0.634  -0.369  0.00  0.00    +0.120 C 
ATOM     17  C   UNL     1       4.125  -0.783   1.011  0.00  0.00    +0.025 C 
ENDBRANCH   3  16
TORSDOF 2
