126766
  -OEChem-03292013323D

 29 29  0     1  0  0  0  0  0999 V2000
    2.9031   -0.1349    1.0301 S   0  0  1  0  0  0  0  0  0  0  0  0
    0.6183    0.0262   -0.9249 S   0  0  0  0  0  0  0  0  0  0  0  0
    3.3542    0.8457    2.0738 O   0  0  0  0  0  0  0  0  0  0  0  0
   -2.3703   -2.2222   -1.1107 O   0  0  0  0  0  0  0  0  0  0  0  0
   -1.1518   -2.8919    0.6802 O   0  0  0  0  0  0  0  0  0  0  0  0
   -3.3927    1.7096    1.2755 O   0  0  0  0  0  0  0  0  0  0  0  0
   -2.5795    0.2618   -0.3566 N   0  0  0  0  0  0  0  0  0  0  0  0
    2.1110    0.8397   -0.3141 C   0  0  2  0  0  0  0  0  0  0  0  0
   -1.7430   -0.5478    0.4938 C   0  0  2  0  0  0  0  0  0  0  0  0
   -0.3389    0.0472    0.6271 C   0  0  0  0  0  0  0  0  0  0  0  0
    4.3639   -0.5259   -0.0029 C   0  0  0  0  0  0  0  0  0  0  0  0
    3.1196    0.9703   -1.4026 C   0  0  0  0  0  0  0  0  0  0  0  0
    4.2547    0.2843   -1.2430 C   0  0  0  0  0  0  0  0  0  0  0  0
   -1.7169   -2.0026    0.0552 C   0  0  0  0  0  0  0  0  0  0  0  0
   -3.3357    1.3257    0.1102 C   0  0  0  0  0  0  0  0  0  0  0  0
   -4.0959    2.0149   -0.9911 C   0  0  0  0  0  0  0  0  0  0  0  0
    1.8608    1.8279    0.0844 H   0  0  0  0  0  0  0  0  0  0  0  0
   -2.2116   -0.5488    1.4867 H   0  0  0  0  0  0  0  0  0  0  0  0
    0.1956   -0.5335    1.3843 H   0  0  0  0  0  0  0  0  0  0  0  0
   -0.4062    1.0831    0.9774 H   0  0  0  0  0  0  0  0  0  0  0  0
    4.3489   -1.5953   -0.2295 H   0  0  0  0  0  0  0  0  0  0  0  0
    5.2674   -0.2818    0.5617 H   0  0  0  0  0  0  0  0  0  0  0  0
    2.9475    1.5974   -2.2693 H   0  0  0  0  0  0  0  0  0  0  0  0
    5.0529    0.3094   -1.9738 H   0  0  0  0  0  0  0  0  0  0  0  0
   -2.5898    0.0514   -1.3508 H   0  0  0  0  0  0  0  0  0  0  0  0
   -4.8443    2.6847   -0.5586 H   0  0  0  0  0  0  0  0  0  0  0  0
   -3.4016    2.5967   -1.6032 H   0  0  0  0  0  0  0  0  0  0  0  0
   -4.6068    1.2791   -1.6187 H   0  0  0  0  0  0  0  0  0  0  0  0
   -2.3350   -3.1650   -1.3791 H   0  0  0  0  0  0  0  0  0  0  0  0
  1  3  2  0  0  0  0
  1  8  1  0  0  0  0
  1 11  1  0  0  0  0
  2  8  1  0  0  0  0
  2 10  1  0  0  0  0
  4 14  1  0  0  0  0
  4 29  1  0  0  0  0
  5 14  2  0  0  0  0
  6 15  2  0  0  0  0
  7  9  1  0  0  0  0
  7 15  1  0  0  0  0
  7 25  1  0  0  0  0
  8 12  1  0  0  0  0
  8 17  1  0  0  0  0
  9 10  1  0  0  0  0
  9 14  1  0  0  0  0
  9 18  1  0  0  0  0
 10 19  1  0  0  0  0
 10 20  1  0  0  0  0
 11 13  1  0  0  0  0
 11 21  1  0  0  0  0
 11 22  1  0  0  0  0
 12 13  2  0  0  0  0
 12 23  1  0  0  0  0
 13 24  1  0  0  0  0
 15 16  1  0  0  0  0
 16 26  1  0  0  0  0
 16 27  1  0  0  0  0
 16 28  1  0  0  0  0
M  END
> <PUBCHEM_COMPOUND_CID>
126766

> <PUBCHEM_CONFORMER_RMSD>
0.8

> <PUBCHEM_CONFORMER_DIVERSEORDER>
1
48
76
145
131
92
31
86
41
119
103
108
112
35
53
146
111
22
68
32
91
77
78
107
90
70
61
33
82
25
122
64
88
28
81
134
34
60
26
14
59
109
95
127
87
99
4
113
147
142
143
80
40
72
83
51
58
21
100
65
49
101
126
84
23
50
67
37
42
27
148
137
97
135
123
93
89
115
47
20
96
130
85
45
149
104
98
66
139
9
3
11
55
114
136
38
102
8
144
6
128
57
94
133
63
110
69
138
73
129
30
75
74
140
52
7
124
79
106
71
12
44
24
29
18
43
105
36
141
56
125
5
116
2
132
17
54
121
15
46
120
62
10
13
19
117
16
39
118

> <PUBCHEM_MMFF94_PARTIAL_CHARGES>
20
1 0.11
10 0.23
11 0.33
12 -0.29
13 -0.29
14 0.66
15 0.57
16 0.06
2 -0.46
23 0.15
24 0.15
25 0.37
29 0.5
3 -0.5
4 -0.65
5 -0.57
6 -0.57
7 -0.73
8 0.56
9 0.36

> <PUBCHEM_EFFECTIVE_ROTOR_COUNT>
6.4

> <PUBCHEM_PHARMACOPHORE_FEATURES>
7
1 3 acceptor
1 4 acceptor
1 5 acceptor
1 6 acceptor
1 7 donor
3 4 5 14 anion
5 1 8 11 12 13 rings

> <PUBCHEM_HEAVY_ATOM_COUNT>
16

> <PUBCHEM_ATOM_DEF_STEREO_COUNT>
0

> <PUBCHEM_ATOM_UDEF_STEREO_COUNT>
3

> <PUBCHEM_BOND_DEF_STEREO_COUNT>
0

> <PUBCHEM_BOND_UDEF_STEREO_COUNT>
0

> <PUBCHEM_ISOTOPIC_ATOM_COUNT>
0

> <PUBCHEM_COMPONENT_COUNT>
1

> <PUBCHEM_CACTVS_TAUTO_COUNT>
2

> <PUBCHEM_CONFORMER_ID>
0001EF2E00000001

> <PUBCHEM_MMFF94_ENERGY>
17.7881

> <PUBCHEM_FEATURE_SELFOVERLAP>
35.581

> <PUBCHEM_SHAPE_FINGERPRINT>
12346177 29 18343861142937776839
124424 183 17704358745242730644
12500047 106 18413107260306058374
13296908 3 17774725380427915554
13931106 250 17560228258224809583
14178342 30 18189882266583626562
15375358 24 17489584559099340664
16752209 62 18338792428730813055
18186145 218 18060417984779488377
20279233 1 17274826861245748742
20645476 183 18186524302021259811
20645477 56 18411709806559620913
20645477 70 16343988009557397148
20681677 155 18260272945369864554
20681677 76 17488733614208549456
20715346 28 17488745708894327528
212916 134 18339063909339315969
21524375 3 18338517435407728703
21618674 53 17822307819840763824
23402539 116 18343861122143422501
23402655 69 17967822660870987844
23419403 2 13324282780937604327
23557571 272 18128808823481697632
23559900 14 18202004318261223564
23598291 2 17749384892929845326
23598294 1 18261118525018503923
6049 1 17845098548268939920
74978 22 18337113466069607980
7615 1 17969213602697911324
81228 2 18195525029071535211
88987 49 18410852209117500152

> <PUBCHEM_SHAPE_MULTIPOLES>
308.51
8.72
2.23
1.46
2.18
1.43
-0.36
-3.82
0.5
-2.94
0.28
0.91
-0.3
-0.54

> <PUBCHEM_SHAPE_SELFOVERLAP>
586.249

> <PUBCHEM_SHAPE_VOLUME>
190.2

> <PUBCHEM_COORDINATE_TYPE>
2
5
10

$$$$
