REMARK  Name = 126768
REMARK  3 active torsions:
REMARK  status: ('A' for Active; 'I' for Inactive)
REMARK    1  A    between atoms: N_4  and  C_13
REMARK    2  A    between atoms: C_15  and  C_16
REMARK    3  A    between atoms: C_16  and  O_17
REMARK                            x       y       z     vdW  Elec       q    Type
REMARK                         _______ _______ _______ _____ _____    ______ ____
ROOT
ATOM      1  F   UNL     1       2.241   2.574  -0.218  0.00  0.00    -0.198 F 
ATOM      2  O   UNL     1       1.227  -2.713   0.297  0.00  0.00    -0.252 OA
ATOM      3  O   UNL     1       4.253   0.749  -0.099  0.00  0.00    -0.267 OA
ATOM      4  N   UNL     1       0.394  -0.537   0.115  0.00  0.00    -0.216 N 
ATOM      5  N   UNL     1       2.733  -0.990   0.099  0.00  0.00    -0.234 N 
ATOM      6  C   UNL     1       1.428  -1.503   0.179  0.00  0.00    +0.316 C 
ATOM      7  C   UNL     1       0.705   0.812  -0.018  0.00  0.00    +0.105 C 
ATOM      8  C   UNL     1       1.954   1.266  -0.090  0.00  0.00    +0.208 C 
ATOM      9  C   UNL     1       3.098   0.343  -0.034  0.00  0.00    +0.282 C 
ATOM     10  H   UNL     1       3.467  -1.645   0.141  0.00  0.00    +0.159 HD
ENDROOT
BRANCH   4  13
ATOM     11  S   UNL     1      -3.354  -1.069  -0.886  0.00  0.00    -0.105 S 
ATOM     12  O   UNL     1      -1.724   0.127   0.830  0.00  0.00    -0.325 OA
ATOM     13  C   UNL     1      -0.989  -0.919   0.184  0.00  0.00    +0.211 C 
ATOM     14  C   UNL     1      -1.583  -1.125  -1.201  0.00  0.00    +0.111 C 
ATOM     15  C   UNL     1      -3.122  -0.145   0.656  0.00  0.00    +0.194 C 
BRANCH  15  16
ATOM     16  C   UNL     1      -3.876   1.171   0.630  0.00  0.00    +0.178 C 
BRANCH  16  17
ATOM     17  O   UNL     1      -3.386   1.960  -0.443  0.00  0.00    -0.379 OA
ATOM     18  H   UNL     1      -3.863   2.804  -0.468  0.00  0.00    +0.211 HD
ENDBRANCH  16  17
ENDBRANCH  15  16
ENDBRANCH   4  13
TORSDOF 3
