REMARK  Name = 126778
REMARK  9 active torsions:
REMARK  status: ('A' for Active; 'I' for Inactive)
REMARK    1  A    between atoms: C_1  and  C_3
REMARK    2  A    between atoms: C_1  and  O_16
REMARK    3  A    between atoms: C_2  and  C_13
REMARK    4  A    between atoms: C_4  and  O_11
REMARK    5  A    between atoms: C_5  and  C_9
REMARK    6  A    between atoms: C_13  and  C_14
REMARK    7  A    between atoms: O_16  and  C_17
REMARK    8  A    between atoms: C_18  and  C_23
REMARK    9  A    between atoms: C_23  and  C_28
REMARK                            x       y       z     vdW  Elec       q    Type
REMARK                         _______ _______ _______ _____ _____    ______ ____
ROOT
ATOM      1  C   UNL     1      -0.846  -0.460   0.889  0.00  0.00    +0.232 C 
ENDROOT
BRANCH   1   3
ATOM      2  C   UNL     1      -2.892   0.668  -0.043  0.00  0.00    +0.011 C 
ATOM      3  C   UNL     1      -2.301  -0.448   0.550  0.00  0.00    +0.020 C 
ATOM      4  C   UNL     1      -4.253   0.656  -0.349  0.00  0.00    +0.132 C 
ATOM      5  C   UNL     1      -5.022  -0.472  -0.062  0.00  0.00    +0.068 C 
ATOM      6  C   UNL     1      -3.070  -1.576   0.836  0.00  0.00    -0.001 C 
ATOM      7  C   UNL     1      -4.431  -1.588   0.530  0.00  0.00    +0.006 C 
BRANCH   5   9
ATOM      8  O   UNL     1      -7.136   0.530  -0.368  0.00  0.00    -0.291 OA
ATOM      9  C   UNL     1      -6.445  -0.507  -0.373  0.00  0.00    +0.176 C 
ATOM     10  C   UNL     1      -7.123  -1.829  -0.713  0.00  0.00    +0.077 C 
ENDBRANCH   5   9
BRANCH   4  11
ATOM     11  O   UNL     1      -4.832   1.748  -0.927  0.00  0.00    -0.506 OA
ATOM     12  H   UNL     1      -4.314   2.505  -1.119  0.00  0.00    +0.292 HD
ENDBRANCH   4  11
BRANCH   2  13
ATOM     13  C   UNL     1      -2.071   1.879  -0.351  0.00  0.00    +0.029 C 
BRANCH  13  14
ATOM     14  C   UNL     1      -2.048   2.873   0.817  0.00  0.00    +0.005 C 
ATOM     15  C   UNL     1      -1.185   4.086   0.509  0.00  0.00    +0.000 C 
ENDBRANCH  13  14
ENDBRANCH   2  13
ENDBRANCH   1   3
BRANCH   1  16
ATOM     16  O   UNL     1      -0.110  -0.962  -0.218  0.00  0.00    -0.471 OA
BRANCH  16  17
ATOM     17  C   UNL     1       1.247  -1.073  -0.059  0.00  0.00    +0.139 C 
ATOM     18  C   UNL     1       3.999  -1.297   0.264  0.00  0.00    -0.007 C 
ATOM     19  C   UNL     1       2.025  -1.557  -1.104  0.00  0.00    +0.037 C 
ATOM     20  C   UNL     1       1.831  -0.699   1.146  0.00  0.00    +0.037 C 
ATOM     21  C   UNL     1       3.406  -1.670  -0.942  0.00  0.00    -0.000 C 
ATOM     22  C   UNL     1       3.212  -0.811   1.308  0.00  0.00    -0.000 C 
BRANCH  18  23
ATOM     23  C   UNL     1       5.476  -1.417   0.436  0.00  0.00    +0.129 C 
BRANCH  23  28
ATOM     24  N   UNL     1       6.272   0.878   0.834  0.00  0.00    -0.114 NA
ATOM     25  N   UNL     1       6.460   0.089  -1.281  0.00  0.00    -0.091 NA
ATOM     26  N   UNL     1       6.811   1.750  -0.029  0.00  0.00    -0.140 N 
ATOM     27  N   UNL     1       6.942   1.325  -1.293  0.00  0.00    -0.022 NA
ATOM     28  C   UNL     1       6.083  -0.116  -0.008  0.00  0.00    +0.055 C 
ATOM     29  H   UNL     1       7.095   2.651   0.250  0.00  0.00    +0.197 HD
ENDBRANCH  23  28
ENDBRANCH  18  23
ENDBRANCH  16  17
ENDBRANCH   1  16
TORSDOF 9
