REMARK  Name = 126702
REMARK  15 active torsions:
REMARK  status: ('A' for Active; 'I' for Inactive)
REMARK    1  A    between atoms: CA_1  and  N_3
REMARK    2  A    between atoms: CA_1  and  C_19
REMARK    3  A    between atoms: CA_1  and  CB_26
REMARK    4  A    between atoms: C_4  and  C_6
REMARK    5  A    between atoms: C_6  and  C_7
REMARK    6  A    between atoms: C_7  and  CA_8
REMARK    7  A    between atoms: CA_8  and  N_9
REMARK    8  A    between atoms: CA_8  and  C_14
REMARK    9  A    between atoms: C_14  and  O_15
REMARK   10  A    between atoms: N_18  and  CA_21
REMARK   11  A    between atoms: CA_21  and  C_23
REMARK   12  A    between atoms: C_23  and  O_24
REMARK   13  A    between atoms: CB_26  and  SG_27
REMARK   14  A    between atoms: SG_27  and  S_28
REMARK   15  A    between atoms: S_28  and  C_31
REMARK                            x       y       z     vdW  Elec       q    Type
REMARK                         _______ _______ _______ _____ _____    ______ ____
ROOT
ATOM      1  CA  UNL     1       1.624  -1.364  -0.781  0.00  0.00    +0.161 C 
ENDROOT
BRANCH   1   3
ATOM      2  O   UNL     1      -0.630  -2.845  -1.809  0.00  0.00    -0.275 OA
ATOM      3  N   UNL     1       0.666  -2.130  -0.018  0.00  0.00    -0.298 N 
ATOM      4  C   UNL     1      -0.391  -2.812  -0.605  0.00  0.00    +0.223 C 
ATOM      5  H   UNL     1       0.767  -2.170   0.960  0.00  0.00    +0.150 HD
BRANCH   4   6
ATOM      6  C   UNL     1      -1.243  -3.522   0.434  0.00  0.00    +0.083 C 
BRANCH   6   7
ATOM      7  C   UNL     1      -1.850  -2.553   1.451  0.00  0.00    -0.001 C 
BRANCH   7   8
ATOM      8  CA  UNL     1      -2.699  -1.457   0.796  0.00  0.00    +0.036 C 
BRANCH   8   9
ATOM      9  N   UNL     1      -3.243  -0.576   1.831  0.00  0.00    +0.389 N 
ATOM     10  H1  UNL     1      -2.477  -0.154   2.356  0.00  0.00    -0.088 HD
ATOM     11  H2  UNL     1      -3.831  -1.117   2.464  0.00  0.00    -0.088 HD
ATOM     12  H3  UNL     1      -3.800   0.159   1.394  0.00  0.00    -0.088 HD
ENDBRANCH   8   9
BRANCH   8  14
ATOM     13  OXT UNL     1      -4.736  -2.774   0.558  0.00  0.00    -0.253 OA
ATOM     14  C   UNL     1      -3.887  -2.047   0.058  0.00  0.00    +0.293 C 
BRANCH  14  15
ATOM     15  O   UNL     1      -3.901  -1.700  -1.256  0.00  0.00    -0.482 OA
ATOM     16  H   UNL     1      -3.232  -1.141  -1.600  0.00  0.00    +0.295 HD
ENDBRANCH  14  15
ENDBRANCH   8  14
ENDBRANCH   7   8
ENDBRANCH   6   7
ENDBRANCH   4   6
ENDBRANCH   1   3
BRANCH   1  19
ATOM     17  O   UNL     1       3.168  -2.049   0.960  0.00  0.00    -0.273 OA
ATOM     18  N   UNL     1       3.991  -0.861  -0.855  0.00  0.00    -0.294 N 
ATOM     19  C   ACE A   1       2.994  -1.483  -0.117  0.00  0.00    +0.242 C 
ATOM     20  H   UNL     1       3.750  -0.434  -1.709  0.00  0.00    +0.150 HD
BRANCH  18  21
ATOM     21  CA  UNL     1       5.368  -0.816  -0.421  0.00  0.00    +0.200 C 
BRANCH  21  23
ATOM     22  OXT UNL     1       6.790   0.624   0.881  0.00  0.00    -0.248 OA
ATOM     23  C   UNL     1       5.678   0.394   0.421  0.00  0.00    +0.334 C 
BRANCH  23  24
ATOM     24  O   UNL     1       4.611   1.201   0.623  0.00  0.00    -0.479 OA
ATOM     25  H   UNL     1       3.780   0.981   0.250  0.00  0.00    +0.295 HD
ENDBRANCH  23  24
ENDBRANCH  21  23
ENDBRANCH  18  21
ENDBRANCH   1  19
BRANCH   1  26
ATOM     26  CB  UNL     1       1.175   0.084  -0.994  0.00  0.00    +0.110 C 
BRANCH  26  27
ATOM     27  SG  UNL     1       1.013   1.037   0.551  0.00  0.00    +0.014 S 
BRANCH  27  28
ATOM     28  S   UNL     1       0.400   2.908  -0.150  0.00  0.00    +0.050 S 
ATOM     29  O   UNL     1       0.833   3.041  -1.528  0.00  0.00    -0.158 OA
ATOM     30  O   UNL     1       0.758   3.907   0.838  0.00  0.00    -0.158 OA
BRANCH  28  31
ATOM     31  C   UNL     1      -1.359   2.754  -0.147  0.00  0.00    +0.117 C 
ATOM     32  C   UNL     1      -2.088   3.107   0.988  0.00  0.00    +0.019 C 
ATOM     33  C   UNL     1      -2.019   2.279  -1.280  0.00  0.00    +0.019 C 
ATOM     34  C   UNL     1      -3.478   2.985   0.991  0.00  0.00    +0.001 C 
ATOM     35  C   UNL     1      -3.409   2.157  -1.278  0.00  0.00    +0.001 C 
ATOM     36  C   UNL     1      -4.138   2.510  -0.142  0.00  0.00    +0.000 C 
ENDBRANCH  28  31
ENDBRANCH  27  28
ENDBRANCH  26  27
ENDBRANCH   1  26
TORSDOF 15
