REMARK  Name = 126740
REMARK  11 active torsions:
REMARK  status: ('A' for Active; 'I' for Inactive)
REMARK    1  A    between atoms: O_1  and  C_3
REMARK    2  A    between atoms: O_1  and  C_13
REMARK    3  A    between atoms: C_3  and  C_4
REMARK    4  A    between atoms: C_5  and  N_10
REMARK    5  A    between atoms: C_13  and  C_14
REMARK    6  A    between atoms: C_14  and  O_15
REMARK    7  A    between atoms: C_14  and  C_22
REMARK    8  A    between atoms: O_15  and  P_16
REMARK    9  A    between atoms: P_16  and  O_18
REMARK   10  A    between atoms: P_16  and  O_20
REMARK   11  A    between atoms: C_22  and  O_23
REMARK                            x       y       z     vdW  Elec       q    Type
REMARK                         _______ _______ _______ _____ _____    ______ ____
ROOT
ATOM      1  O   UNL     1       0.114   0.621  -0.167  0.00  0.00    -0.443 OA
ENDROOT
BRANCH   1   3
ATOM      2  O   UNL     1      -1.125   0.873  -2.091  0.00  0.00    -0.245 OA
ATOM      3  C   UNL     1      -1.015   0.538  -0.922  0.00  0.00    +0.342 C 
BRANCH   3   4
ATOM      4  C   UNL     1      -2.136  -0.028  -0.129  0.00  0.00    +0.088 C 
ATOM      5  C   UNL     1      -3.439   0.336  -0.403  0.00  0.00    +0.048 C 
ATOM      6  C   UNL     1      -1.823  -0.920   0.880  0.00  0.00    +0.008 C 
ATOM      7  C   UNL     1      -4.471  -0.212   0.360  0.00  0.00    +0.014 C 
ATOM      8  C   UNL     1      -2.854  -1.468   1.643  0.00  0.00    +0.000 C 
ATOM      9  C   UNL     1      -4.178  -1.114   1.383  0.00  0.00    +0.001 C 
BRANCH   5  10
ATOM     10  N   UNL     1      -3.757   1.248  -1.434  0.00  0.00    -0.357 N 
ATOM     11  H   UNL     1      -3.040   1.643  -1.981  0.00  0.00    +0.142 HD
ATOM     12  H   UNL     1      -4.696   1.489  -1.606  0.00  0.00    +0.142 HD
ENDBRANCH   5  10
ENDBRANCH   3   4
ENDBRANCH   1   3
BRANCH   1  13
ATOM     13  C   UNL     1       1.262   1.152  -0.819  0.00  0.00    +0.241 C 
BRANCH  13  14
ATOM     14  C   UNL     1       2.439   1.183   0.149  0.00  0.00    +0.199 C 
BRANCH  14  15
ATOM     15  O   UNL     1       2.688  -0.146   0.611  0.00  0.00    -0.269 OA
BRANCH  15  16
ATOM     16  P   UNL     1       3.035  -1.279  -0.484  0.00  0.00    +0.473 P 
ATOM     17  O   UNL     1       1.971  -1.516  -1.516  0.00  0.00    -0.227 OA
BRANCH  16  18
ATOM     18  O   UNL     1       3.435  -2.569   0.405  0.00  0.00    -0.303 OA
ATOM     19  H   UNL     1       4.125  -2.322   1.041  0.00  0.00    +0.222 HD
ENDBRANCH  16  18
BRANCH  16  20
ATOM     20  O   UNL     1       4.455  -0.776  -1.071  0.00  0.00    -0.303 OA
ATOM     21  H   UNL     1       5.080  -0.649  -0.340  0.00  0.00    +0.222 HD
ENDBRANCH  16  20
ENDBRANCH  15  16
ENDBRANCH  14  15
BRANCH  14  22
ATOM     22  C   UNL     1       2.139   2.054   1.363  0.00  0.00    +0.171 C 
BRANCH  22  23
ATOM     23  O   UNL     1       3.259   2.022   2.242  0.00  0.00    -0.379 OA
ATOM     24  H   UNL     1       3.076   2.575   3.018  0.00  0.00    +0.211 HD
ENDBRANCH  22  23
ENDBRANCH  14  22
ENDBRANCH  13  14
ENDBRANCH   1  13
TORSDOF 11
