REMARK  Name = 126704
REMARK  4 active torsions:
REMARK  status: ('A' for Active; 'I' for Inactive)
REMARK    1  A    between atoms: N_1  and  C_10
REMARK    2  A    between atoms: C_11  and  O_15
REMARK    3  A    between atoms: C_13  and  O_17
REMARK    4  A    between atoms: C_14  and  O_19
REMARK                            x       y       z     vdW  Elec       q    Type
REMARK                         _______ _______ _______ _____ _____    ______ ____
ROOT
ATOM      1  N   UNL     1      -0.094  -0.946   0.356  0.00  0.00    -0.271 N 
ATOM      2  N   UNL     1      -2.105  -1.900   0.449  0.00  0.00    -0.242 NA
ATOM      3  N   UNL     1      -0.734   1.324  -0.224  0.00  0.00    -0.228 NA
ATOM      4  N   UNL     1      -3.157   1.534  -0.434  0.00  0.00    -0.229 NA
ATOM      5  C   UNL     1      -0.992   0.040   0.063  0.00  0.00    +0.151 C 
ATOM      6  C   UNL     1      -0.809  -2.092   0.579  0.00  0.00    +0.221 C 
ATOM      7  C   UNL     1      -2.234  -0.573   0.126  0.00  0.00    +0.140 C 
ATOM      8  C   UNL     1      -3.343   0.226  -0.136  0.00  0.00    +0.143 C 
ATOM      9  C   UNL     1      -1.883   1.995  -0.459  0.00  0.00    +0.253 C 
ATOM     10  N   UNL     1      -4.641  -0.312  -0.092  0.00  0.00    -0.342 N 
ATOM     11  H   UNL     1      -5.418   0.262  -0.279  0.00  0.00    +0.144 HD
ATOM     12  H   UNL     1      -4.772  -1.263   0.126  0.00  0.00    +0.144 HD
ENDROOT
BRANCH   1  13
ATOM     13  C   UNL     1       1.360  -0.814   0.421  0.00  0.00    +0.108 C 
ATOM     14  C   UNL     1       1.995  -0.360  -0.904  0.00  0.00    +0.158 C 
ATOM     15  C   UNL     1       1.861   0.192   1.485  0.00  0.00    +0.054 C 
ATOM     16  C   UNL     1       3.283   0.339  -0.471  0.00  0.00    +0.166 C 
ATOM     17  C   UNL     1       2.834   1.129   0.754  0.00  0.00    +0.141 C 
BRANCH  14  18
ATOM     18  O   UNL     1       2.247  -1.463  -1.756  0.00  0.00    -0.380 OA
ATOM     19  H   UNL     1       1.406  -1.877  -2.007  0.00  0.00    +0.211 HD
ENDBRANCH  14  18
BRANCH  16  20
ATOM     20  O   UNL     1       4.259  -0.623  -0.089  0.00  0.00    -0.380 OA
ATOM     21  H   UNL     1       4.542  -1.124  -0.871  0.00  0.00    +0.211 HD
ENDBRANCH  16  20
BRANCH  17  22
ATOM     22  O   UNL     1       2.152   2.304   0.332  0.00  0.00    -0.382 OA
ATOM     23  H   UNL     1       1.865   2.808   1.110  0.00  0.00    +0.210 HD
ENDBRANCH  17  22
ENDBRANCH   1  13
TORSDOF 4
