REMARK  Name = 126766
REMARK  6 active torsions:
REMARK  status: ('A' for Active; 'I' for Inactive)
REMARK    1  A    between atoms: C_1  and  N_3
REMARK    2  A    between atoms: C_1  and  C_8
REMARK    3  A    between atoms: C_1  and  C_11
REMARK    4  A    between atoms: C_8  and  O_9
REMARK    5  A    between atoms: C_11  and  S_12
REMARK    6  A    between atoms: S_12  and  C_15
REMARK                            x       y       z     vdW  Elec       q    Type
REMARK                         _______ _______ _______ _____ _____    ______ ____
ROOT
ATOM      1  C   UNK A   1      -1.743  -0.548   0.494  0.00  0.00    +0.182 C 
ENDROOT
BRANCH   1   3
ATOM      2  O   UNK A   0      -3.393   1.710   1.276  0.00  0.00    -0.275 OA
ATOM      3  N   UNK A   1      -2.579   0.262  -0.357  0.00  0.00    -0.296 N 
ATOM      4  C   UNK A   0      -3.336   1.326   0.110  0.00  0.00    +0.223 C 
ATOM      5  C   UNK A   0      -4.096   2.015  -0.991  0.00  0.00    +0.095 C 
ATOM      6  H   UNK A   1      -2.615   0.048  -1.317  0.00  0.00    +0.150 HD
ENDBRANCH   1   3
BRANCH   1   8
ATOM      7  O   UNK A   1      -1.152  -2.892   0.680  0.00  0.00    -0.248 OA
ATOM      8  C   UNK A   1      -1.717  -2.003   0.055  0.00  0.00    +0.333 C 
BRANCH   8   9
ATOM      9  O   UNK A   1      -2.370  -2.222  -1.111  0.00  0.00    -0.479 OA
ATOM     10  H   UNK A   1      -2.789  -1.511  -1.555  0.00  0.00    +0.295 HD
ENDBRANCH   8   9
ENDBRANCH   1   8
BRANCH   1  11
ATOM     11  C   UNK A   1      -0.339   0.047   0.627  0.00  0.00    +0.090 C 
BRANCH  11  12
ATOM     12  S   UNK A   1       0.618   0.026  -0.925  0.00  0.00    -0.121 S 
BRANCH  12  15
ATOM     13  S   UNK A   1       2.903  -0.135   1.030  0.00  0.00    +0.060 S 
ATOM     14  O   UNK A   1       3.354   0.846   2.074  0.00  0.00    -0.254 OA
ATOM     15  C   UNK A   1       2.111   0.840  -0.314  0.00  0.00    +0.148 C 
ATOM     16  C   UNK A   1       4.364  -0.526  -0.003  0.00  0.00    +0.119 C 
ATOM     17  C   UNK A   1       3.120   0.970  -1.403  0.00  0.00    -0.006 C 
ATOM     18  C   UNK A   1       4.255   0.284  -1.243  0.00  0.00    -0.015 C 
ENDBRANCH  12  15
ENDBRANCH  11  12
ENDBRANCH   1  11
TORSDOF 6
