REMARK  Name = 126802
REMARK  9 active torsions:
REMARK  status: ('A' for Active; 'I' for Inactive)
REMARK    1  A    between atoms: C_1  and  N_3
REMARK    2  A    between atoms: C_1  and  C_8
REMARK    3  A    between atoms: C_1  and  C_11
REMARK    4  A    between atoms: C_8  and  O_9
REMARK    5  A    between atoms: C_11  and  S_12
REMARK    6  A    between atoms: S_12  and  C_13
REMARK    7  A    between atoms: C_13  and  C_14
REMARK    8  A    between atoms: C_14  and  C_16
REMARK    9  A    between atoms: C_14  and  O_17
REMARK                            x       y       z     vdW  Elec       q    Type
REMARK                         _______ _______ _______ _____ _____    ______ ____
ROOT
ATOM      1  C   UNK A   1      -1.885  -0.487  -0.545  0.00  0.00    +0.182 C 
ENDROOT
BRANCH   1   3
ATOM      2  O   UNK A   0      -3.422   1.910  -1.107  0.00  0.00    -0.275 OA
ATOM      3  N   UNK A   1      -2.454   0.432   0.409  0.00  0.00    -0.296 N 
ATOM      4  C   UNK A   0      -3.176   1.557   0.043  0.00  0.00    +0.223 C 
ATOM      5  C   UNK A   0      -3.678   2.328   1.235  0.00  0.00    +0.095 C 
ATOM      6  H   UNK A   1      -2.322   0.251   1.368  0.00  0.00    +0.150 HD
ENDBRANCH   1   3
BRANCH   1   8
ATOM      7  O   UNK A   1      -1.596  -2.889  -0.721  0.00  0.00    -0.248 OA
ATOM      8  C   UNK A   1      -1.927  -1.922  -0.045  0.00  0.00    +0.333 C 
BRANCH   8   9
ATOM      9  O   UNK A   1      -2.385  -2.034   1.225  0.00  0.00    -0.479 OA
ATOM     10  H   UNK A   1      -2.627  -1.266   1.704  0.00  0.00    +0.295 HD
ENDBRANCH   8   9
ENDBRANCH   1   8
BRANCH   1  11
ATOM     11  C   UNK A   1      -0.480  -0.064  -0.981  0.00  0.00    +0.089 C 
BRANCH  11  12
ATOM     12  S   UNK A   1       0.764  -0.166   0.348  0.00  0.00    -0.135 S 
BRANCH  12  13
ATOM     13  C   UNK A   1       2.204   0.354  -0.610  0.00  0.00    +0.088 C 
BRANCH  13  14
ATOM     14  C   UNK A   1       3.474   0.343   0.244  0.00  0.00    +0.137 C 
BRANCH  14  16
ATOM     15 CL   UNK A   1       6.157   0.827   0.401  0.00  0.00    -0.111 Cl
ATOM     16  C   UNK A   1       4.672   0.800  -0.587  0.00  0.00    +0.125 C 
ENDBRANCH  14  16
BRANCH  14  17
ATOM     17  O   UNK A   1       3.729  -0.988   0.692  0.00  0.00    -0.382 OA
ATOM     18  H   UNK A   1       2.979  -1.300   1.223  0.00  0.00    +0.210 HD
ENDBRANCH  14  17
ENDBRANCH  13  14
ENDBRANCH  12  13
ENDBRANCH  11  12
ENDBRANCH   1  11
TORSDOF 9
