REMARK  Name = 126887
REMARK  15 active torsions:
REMARK  status: ('A' for Active; 'I' for Inactive)
REMARK    1  A    between atoms: C_1  and  O_2
REMARK    2  A    between atoms: C_1  and  C_4
REMARK    3  A    between atoms: C_1  and  C_20
REMARK    4  A    between atoms: C_4  and  C_5
REMARK    5  A    between atoms: C_5  and  O_6
REMARK    6  A    between atoms: C_5  and  C_8
REMARK    7  A    between atoms: C_8  and  C_9
REMARK    8  A    between atoms: C_9  and  C_10
REMARK    9  A    between atoms: C_13  and  O_16
REMARK   10  A    between atoms: C_15  and  O_18
REMARK   11  A    between atoms: C_20  and  C_21
REMARK   12  A    between atoms: C_21  and  C_22
REMARK   13  A    between atoms: C_25  and  O_28
REMARK   14  A    between atoms: C_26  and  O_30
REMARK   15  A    between atoms: C_27  and  O_32
REMARK                            x       y       z     vdW  Elec       q    Type
REMARK                         _______ _______ _______ _____ _____    ______ ____
ROOT
ATOM      1  C   UNL     1       0.835  -2.587  -0.470  0.00  0.00    +0.113 C 
ENDROOT
BRANCH   1   2
ATOM      2  O   UNL     1       0.518  -3.304  -1.661  0.00  0.00    -0.384 OA
ATOM      3  H   UNL     1      -0.281  -3.834  -1.516  0.00  0.00    +0.210 HD
ENDBRANCH   1   2
BRANCH   1   4
ATOM      4  C   UNL     1      -0.354  -1.694  -0.076  0.00  0.00    +0.058 C 
BRANCH   4   5
ATOM      5  C   UNL     1      -1.651  -2.489   0.136  0.00  0.00    +0.113 C 
BRANCH   5   6
ATOM      6  O   UNL     1      -1.438  -3.451   1.166  0.00  0.00    -0.384 OA
ATOM      7  H   UNL     1      -0.680  -4.010   0.934  0.00  0.00    +0.210 HD
ENDBRANCH   5   6
BRANCH   5   8
ATOM      8  C   UNL     1      -2.851  -1.599   0.495  0.00  0.00    +0.034 C 
BRANCH   8   9
ATOM      9  C   UNL     1      -3.221  -0.572  -0.582  0.00  0.00    +0.029 C 
BRANCH   9  10
ATOM     10  C   UNL     1      -4.394   0.277  -0.159  0.00  0.00    -0.019 C 
ATOM     11  C   UNL     1      -5.694  -0.128  -0.462  0.00  0.00    +0.036 C 
ATOM     12  C   UNL     1      -4.178   1.466   0.537  0.00  0.00    -0.001 C 
ATOM     13  C   UNL     1      -6.778   0.656  -0.070  0.00  0.00    +0.172 C 
ATOM     14  C   UNL     1      -5.263   2.251   0.929  0.00  0.00    +0.039 C 
ATOM     15  C   UNL     1      -6.563   1.846   0.626  0.00  0.00    +0.168 C 
BRANCH  13  16
ATOM     16  O   UNL     1      -8.043   0.250  -0.372  0.00  0.00    -0.468 OA
ATOM     17  C   UNL     1      -8.177  -0.978  -1.085  0.00  0.00    +0.253 C 
ENDBRANCH  13  16
BRANCH  15  18
ATOM     18  O   UNL     1      -7.613   2.621   1.014  0.00  0.00    -0.503 OA
ATOM     19  H   UNL     1      -8.490   2.357   0.815  0.00  0.00    +0.292 HD
ENDBRANCH  15  18
ENDBRANCH   9  10
ENDBRANCH   8   9
ENDBRANCH   5   8
ENDBRANCH   4   5
ENDBRANCH   1   4
BRANCH   1  20
ATOM     20  C   UNL     1       2.102  -1.746  -0.697  0.00  0.00    +0.034 C 
BRANCH  20  21
ATOM     21  C   UNL     1       2.566  -0.969   0.543  0.00  0.00    +0.029 C 
BRANCH  21  22
ATOM     22  C   UNL     1       3.816  -0.155   0.317  0.00  0.00    -0.016 C 
ATOM     23  C   UNL     1       3.719   1.164  -0.126  0.00  0.00    +0.036 C 
ATOM     24  C   UNL     1       5.068  -0.723   0.550  0.00  0.00    +0.036 C 
ATOM     25  C   UNL     1       6.224   0.029   0.341  0.00  0.00    +0.175 C 
ATOM     26  C   UNL     1       4.875   1.916  -0.335  0.00  0.00    +0.175 C 
ATOM     27  C   UNL     1       6.128   1.349  -0.102  0.00  0.00    +0.202 C 
BRANCH  25  28
ATOM     28  O   UNL     1       7.442  -0.536   0.572  0.00  0.00    -0.468 OA
ATOM     29  C   UNL     1       7.453  -1.890   1.023  0.00  0.00    +0.253 C 
ENDBRANCH  25  28
BRANCH  26  30
ATOM     30  O   UNL     1       4.766   3.203  -0.767  0.00  0.00    -0.468 OA
ATOM     31  C   UNL     1       3.449   3.706  -0.981  0.00  0.00    +0.253 C 
ENDBRANCH  26  30
BRANCH  27  32
ATOM     32  O   UNL     1       7.257   2.084  -0.306  0.00  0.00    -0.501 OA
ATOM     33  H   UNL     1       8.099   1.703  -0.149  0.00  0.00    +0.292 HD
ENDBRANCH  27  32
ENDBRANCH  21  22
ENDBRANCH  20  21
ENDBRANCH   1  20
TORSDOF 15
