REMARK  Name = 1268108
REMARK  5 active torsions:
REMARK  status: ('A' for Active; 'I' for Inactive)
REMARK    1  A    between atoms: C2*_2  and  O2*_16
REMARK    2  A    between atoms: C3*_3  and  O3*_18
REMARK    3  A    between atoms: C1*_4  and  N_9
REMARK    4  A    between atoms: C4*_5  and  C5*_20
REMARK    5  A    between atoms: C5*_20  and  O5*_21
REMARK                            x       y       z     vdW  Elec       q    Type
REMARK                         _______ _______ _______ _____ _____    ______ ____
ROOT
ATOM      1  O4* UNL     1      -1.461   0.500  -1.067  0.00  0.00    -0.333 OA
ATOM      2  C2* UNL     1      -1.655  -0.882   0.848  0.00  0.00    +0.187 C 
ATOM      3  C3* UNL     1      -3.012  -0.283   0.543  0.00  0.00    +0.171 C 
ATOM      4  C1* UNL     1      -0.923  -0.691  -0.469  0.00  0.00    +0.229 C 
ATOM      5  C4* UNL     1      -2.647   0.898  -0.345  0.00  0.00    +0.175 C 
ENDROOT
BRANCH   4   9
ATOM      6  I   UNL     1       2.922   2.942   0.544  0.00  0.00    -0.036 I 
ATOM      7  O   UNL     1       1.012  -2.778  -0.609  0.00  0.00    -0.252 OA
ATOM      8  O   UNL     1       4.477   0.115   0.238  0.00  0.00    -0.269 OA
ATOM      9  N   UNL     1       0.492  -0.524  -0.291  0.00  0.00    -0.216 N 
ATOM     10  N   UNL     1       2.727  -1.316  -0.186  0.00  0.00    -0.235 N 
ATOM     11  C   UNL     1       1.375  -1.623  -0.380  0.00  0.00    +0.315 C 
ATOM     12  C   UNL     1       0.984   0.750  -0.027  0.00  0.00    +0.082 C 
ATOM     13  C   UNL     1       2.278   1.037   0.158  0.00  0.00    +0.099 C 
ATOM     14  C   UNL     1       3.273  -0.067   0.080  0.00  0.00    +0.259 C 
ATOM     15  H   UNL     1       3.359  -2.068  -0.244  0.00  0.00    +0.159 HD
ENDBRANCH   4   9
BRANCH   2  16
ATOM     16  O2* UNL     1      -1.740  -2.239   1.230  0.00  0.00    -0.378 OA
ATOM     17  H2* UNL     1      -2.214  -2.308   2.074  0.00  0.00    +0.211 HD
ENDBRANCH   2  16
BRANCH   3  18
ATOM     18  O3* UNL     1      -3.791  -1.193  -0.233  0.00  0.00    -0.379 OA
ATOM     19  H3* UNL     1      -4.036  -1.957   0.313  0.00  0.00    +0.211 HD
ENDBRANCH   3  18
BRANCH   5  20
ATOM     20  C5* UNL     1      -2.323   2.163   0.439  0.00  0.00    +0.169 C 
BRANCH  20  21
ATOM     21  O5* UNL     1      -1.988   3.191  -0.477  0.00  0.00    -0.379 OA
ATOM     22  H5* UNL     1      -1.779   4.003   0.010  0.00  0.00    +0.211 HD
ENDBRANCH  20  21
ENDBRANCH   5  20
TORSDOF 5
