REMARK  Name = 126898
REMARK  7 active torsions:
REMARK  status: ('A' for Active; 'I' for Inactive)
REMARK    1  A    between atoms: C_2  and  O_7
REMARK    2  A    between atoms: C_3  and  O_9
REMARK    3  A    between atoms: C_4  and  O_11
REMARK    4  A    between atoms: C_5  and  C_25
REMARK    5  A    between atoms: C_6  and  O_13
REMARK    6  A    between atoms: O_13  and  C_16
REMARK    7  A    between atoms: C_25  and  O_26
REMARK                            x       y       z     vdW  Elec       q    Type
REMARK                         _______ _______ _______ _____ _____    ______ ____
ROOT
ATOM      1  O   UNL     1       2.010  -0.756   0.446  0.00  0.00    -0.316 OA
ATOM      2  C   UNL     1       3.350   1.487  -0.737  0.00  0.00    +0.173 C 
ATOM      3  C   UNL     1       4.114   0.335  -0.084  0.00  0.00    +0.169 C 
ATOM      4  C   UNL     1       1.938   1.603  -0.164  0.00  0.00    +0.210 C 
ATOM      5  C   UNL     1       3.287  -0.953  -0.173  0.00  0.00    +0.177 C 
ATOM      6  C   UNL     1       1.226   0.249  -0.196  0.00  0.00    +0.318 C 
ENDROOT
BRANCH   2   7
ATOM      7  O   UNL     1       4.042   2.715  -0.530  0.00  0.00    -0.379 OA
ATOM      8  H   UNL     1       4.939   2.645  -0.892  0.00  0.00    +0.211 HD
ENDBRANCH   2   7
BRANCH   3   9
ATOM      9  O   UNL     1       4.355   0.638   1.292  0.00  0.00    -0.379 OA
ATOM     10  H   UNL     1       4.878   1.453   1.356  0.00  0.00    +0.211 HD
ENDBRANCH   3   9
BRANCH   4  11
ATOM     11  O   UNL     1       1.187   2.529  -0.949  0.00  0.00    -0.377 OA
ATOM     12  H   UNL     1       1.626   3.393  -0.938  0.00  0.00    +0.211 HD
ENDBRANCH   4  11
BRANCH   6  13
ATOM     13  O   UNL     1      -0.021   0.393   0.482  0.00  0.00    -0.449 OA
BRANCH  13  16
ATOM     14 BR   UNL     1      -5.643   2.374   0.973  0.00  0.00    -0.049 Br
ATOM     15  N   UNL     1      -2.091  -2.151  -0.773  0.00  0.00    -0.309 N 
ATOM     16  C   UNL     1      -1.044  -0.412   0.061  0.00  0.00    +0.157 C 
ATOM     17  C   UNL     1      -2.420  -0.122   0.095  0.00  0.00    +0.049 C 
ATOM     18  C   UNL     1      -3.067  -1.239  -0.439  0.00  0.00    +0.051 C 
ATOM     19  C   UNL     1      -0.853  -1.650  -0.470  0.00  0.00    +0.099 C 
ATOM     20  C   UNL     1      -3.198   0.972   0.523  0.00  0.00    +0.011 C 
ATOM     21  C   UNL     1      -4.458  -1.316  -0.567  0.00  0.00    +0.015 C 
ATOM     22  C   UNL     1      -4.591   0.909   0.401  0.00  0.00    +0.035 C 
ATOM     23  C   UNL     1      -5.209  -0.218  -0.136  0.00  0.00    +0.008 C 
ATOM     24  H   UNL     1      -2.259  -3.034  -1.173  0.00  0.00    +0.152 HD
ENDBRANCH  13  16
ENDBRANCH   6  13
BRANCH   5  25
ATOM     25  C   UNL     1       3.960  -2.124   0.533  0.00  0.00    +0.169 C 
BRANCH  25  26
ATOM     26  O   UNL     1       3.128  -3.264   0.411  0.00  0.00    -0.379 OA
ATOM     27  H   UNL     1       3.544  -4.018   0.857  0.00  0.00    +0.211 HD
ENDBRANCH  25  26
ENDBRANCH   5  25
TORSDOF 7
