REMARK  Name = 126843298
REMARK  7 active torsions:
REMARK  status: ('A' for Active; 'I' for Inactive)
REMARK    1  A    between atoms: C_1  and  N_4
REMARK    2  A    between atoms: C_1  and  C_15
REMARK    3  A    between atoms: C_1  and  C_24
REMARK    4  A    between atoms: N_14  and  C_17
REMARK    5  A    between atoms: C_17  and  C_18
REMARK    6  A    between atoms: C_18  and  C_21
REMARK    7  A    between atoms: C_24  and  C_25
REMARK                            x       y       z     vdW  Elec       q    Type
REMARK                         _______ _______ _______ _____ _____    ______ ____
ROOT
ATOM      1  C   UNL     1      -0.322  -0.484  -0.216  0.00  0.00    +0.150 C 
ENDROOT
BRANCH   1   4
ATOM      2  O   UNL     1       1.474   1.066  -1.788  0.00  0.00    -0.252 OA
ATOM      3  O   UNL     1       3.331  -0.547   1.771  0.00  0.00    -0.252 OA
ATOM      4  N   UNL     1       1.068  -0.231   0.080  0.00  0.00    -0.282 N 
ATOM      5  N   UNL     1       3.205   0.674  -0.281  0.00  0.00    -0.197 N 
ATOM      6  N   UNL     1       5.179   0.557   0.860  0.00  0.00    -0.287 N 
ATOM      7  C   UNL     1       4.149   1.523  -0.992  0.00  0.00    +0.125 C 
ATOM      8  C   UNL     1       1.876   0.541  -0.747  0.00  0.00    +0.311 C 
ATOM      9  C   UNL     1       5.495   1.256  -0.353  0.00  0.00    +0.113 C 
ATOM     10  C   UNL     1       3.838   0.140   0.894  0.00  0.00    +0.311 C 
ATOM     11  H   UNL     1       1.458  -0.619   0.896  0.00  0.00    +0.151 HD
ATOM     12  H   UNL     1       5.826   0.390   1.584  0.00  0.00    +0.151 HD
ENDBRANCH   1   4
BRANCH   1  15
ATOM     13  O   UNL     1      -0.813   1.252   1.404  0.00  0.00    -0.273 OA
ATOM     14  N   UNL     1      -2.193   1.028  -0.450  0.00  0.00    -0.303 N 
ATOM     15  C   UNL     1      -1.123   0.678   0.362  0.00  0.00    +0.240 C 
ATOM     16  H   UNL     1      -2.354   0.500  -1.265  0.00  0.00    +0.149 HD
BRANCH  14  17
ATOM     17  C   UNL     1      -3.082   2.129  -0.158  0.00  0.00    +0.099 C 
BRANCH  17  18
ATOM     18  C   UNL     1      -4.274   1.699   0.686  0.00  0.00    +0.106 C 
BRANCH  18  21
ATOM     19  O   UNL     1      -4.923   0.191  -1.104  0.00  0.00    -0.275 OA
ATOM     20  N   UNL     1      -6.212   0.277   0.797  0.00  0.00    -0.329 N 
ATOM     21  C   UNL     1      -5.141   0.650   0.014  0.00  0.00    +0.221 C 
ATOM     22  H   UNL     1      -6.849  -0.399   0.471  0.00  0.00    +0.145 HD
ATOM     23  H   UNL     1      -6.340   0.686   1.684  0.00  0.00    +0.145 HD
ENDBRANCH  18  21
ENDBRANCH  17  18
ENDBRANCH  14  17
ENDBRANCH   1  15
BRANCH   1  24
ATOM     24  C   UNL     1      -0.810  -1.812   0.378  0.00  0.00    +0.029 C 
BRANCH  24  25
ATOM     25  C   UNL     1      -0.036  -3.057  -0.102  0.00  0.00    +0.002 C 
ATOM     26  C   UNL     1      -0.530  -4.342   0.565  0.00  0.00    +0.000 C 
ATOM     27  C   UNL     1      -0.157  -3.187  -1.622  0.00  0.00    +0.000 C 
ENDBRANCH  24  25
ENDBRANCH   1  24
TORSDOF 7
