REMARK  Name = 126857
REMARK  5 active torsions:
REMARK  status: ('A' for Active; 'I' for Inactive)
REMARK    1  A    between atoms: C_1  and  N_4
REMARK    2  A    between atoms: C_1  and  C_17
REMARK    3  A    between atoms: C_5  and  C_9
REMARK    4  A    between atoms: N_16  and  C_19
REMARK    5  A    between atoms: C_19  and  C_23
REMARK                            x       y       z     vdW  Elec       q    Type
REMARK                         _______ _______ _______ _____ _____    ______ ____
ROOT
ATOM      1  C   UNL     1      -0.457   1.367  -0.536  0.00  0.00    +0.149 C 
ATOM      2  C   UNL     1      -0.854   2.643  -1.260  0.00  0.00    +0.031 C 
ENDROOT
BRANCH   1   4
ATOM      3  O   UNL     1       1.475  -0.129   1.032  0.00  0.00    -0.273 OA
ATOM      4  N   UNL     1       0.848   0.909  -0.956  0.00  0.00    -0.297 N 
ATOM      5  C   UNL     1       1.703   0.198  -0.130  0.00  0.00    +0.241 C 
ATOM      6  H   UNL     1       1.144   1.112  -1.872  0.00  0.00    +0.150 HD
BRANCH   5   9
ATOM      7  O   UNL     1       4.292   2.022   0.483  0.00  0.00    -0.275 OA
ATOM      8  N   UNL     1       4.013  -0.259   0.202  0.00  0.00    -0.273 N 
ATOM      9  C   UNL     1       2.979  -0.175  -0.821  0.00  0.00    +0.152 C 
ATOM     10  C   UNL     1       2.912  -1.576  -1.418  0.00  0.00    +0.031 C 
ATOM     11  C   UNL     1       3.338  -2.476  -0.261  0.00  0.00    +0.024 C 
ATOM     12  C   UNL     1       4.391  -1.646   0.458  0.00  0.00    +0.094 C 
ATOM     13  C   UNL     1       4.639   0.864   0.722  0.00  0.00    +0.226 C 
ATOM     14  C   UNL     1       5.805   0.592   1.639  0.00  0.00    +0.095 C 
ENDBRANCH   5   9
ENDBRANCH   1   4
BRANCH   1  17
ATOM     15  O   UNL     1      -1.364  -0.512  -1.769  0.00  0.00    -0.273 OA
ATOM     16  N   UNL     1      -2.490   0.237   0.117  0.00  0.00    -0.297 N 
ATOM     17  C   UNL     1      -1.457   0.251  -0.810  0.00  0.00    +0.241 C 
ATOM     18  H   UNL     1      -2.474   0.892   0.851  0.00  0.00    +0.150 HD
BRANCH  16  19
ATOM     19  C   UNL     1      -3.586  -0.700   0.048  0.00  0.00    +0.149 C 
ATOM     20  C   UNL     1      -3.279  -1.970   0.826  0.00  0.00    +0.031 C 
BRANCH  19  23
ATOM     21  O   UNL     1      -4.791   0.808   1.512  0.00  0.00    -0.273 OA
ATOM     22  N   UNL     1      -5.988  -0.454  -0.024  0.00  0.00    -0.301 N 
ATOM     23  C   UNL     1      -4.829  -0.012   0.598  0.00  0.00    +0.240 C 
ATOM     24  C   UNL     1      -7.301   0.018   0.350  0.00  0.00    +0.111 C 
ATOM     25  H   UNL     1      -5.913  -1.115  -0.749  0.00  0.00    +0.150 HD
ENDBRANCH  19  23
ENDBRANCH  16  19
ENDBRANCH   1  17
TORSDOF 5
