REMARK  Name = 126843
REMARK  13 active torsions:
REMARK  status: ('A' for Active; 'I' for Inactive)
REMARK    1  A    between atoms: N_2  and  CA_5
REMARK    2  A    between atoms: C_3  and  C_18
REMARK    3  A    between atoms: CA_5  and  C_13
REMARK    4  A    between atoms: CA_9  and  C_15
REMARK    5  A    between atoms: C_15  and  O_16
REMARK    6  A    between atoms: C_18  and  O_19
REMARK    7  A    between atoms: C_18  and  C_21
REMARK    8  A    between atoms: C_21  and  N_22
REMARK    9  A    between atoms: C_21  and  C_26
REMARK   10  A    between atoms: C_26  and  C_27
REMARK   11  A    between atoms: C_27  and  C_28
REMARK   12  A    between atoms: C_28  and  C_29
REMARK   13  A    between atoms: C_29  and  N_30
REMARK                            x       y       z     vdW  Elec       q    Type
REMARK                         _______ _______ _______ _____ _____    ______ ____
ROOT
ATOM      1  O   UNL     1       1.624   2.921   1.313  0.00  0.00    -0.273 OA
ATOM      2  N   UNL     1       0.642   1.782  -0.456  0.00  0.00    -0.296 N 
ATOM      3  C   ACE A   0       1.714   2.289   0.262  0.00  0.00    +0.248 C 
ATOM      4  H   UNL     1       0.823   1.288  -1.288  0.00  0.00    +0.150 HD
ENDROOT
BRANCH   2   5
ATOM      5  CA  UNL     1      -0.729   1.947  -0.033  0.00  0.00    +0.149 C 
ATOM      6  CB  UNL     1      -1.368   3.176  -0.649  0.00  0.00    +0.031 C 
BRANCH   5  13
ATOM      7  O   UNL     1      -1.092   0.124  -1.521  0.00  0.00    -0.273 OA
ATOM      8  N   UNL     1      -2.444   0.242   0.354  0.00  0.00    -0.270 N 
ATOM      9  CA  UNL     1      -3.110  -1.039   0.160  0.00  0.00    +0.175 C 
ATOM     10  CB  UNL     1      -3.785  -1.331   1.495  0.00  0.00    +0.033 C 
ATOM     11  CG  UNL     1      -4.071   0.059   2.059  0.00  0.00    +0.024 C 
ATOM     12  CD  UNL     1      -2.873   0.877   1.597  0.00  0.00    +0.094 C 
ATOM     13  C   UNL     1      -1.427   0.686  -0.477  0.00  0.00    +0.244 C 
BRANCH   9  15
ATOM     14  OXT UNL     1      -4.686   0.191  -1.198  0.00  0.00    -0.248 OA
ATOM     15  C   UNL     1      -4.110  -0.856  -0.941  0.00  0.00    +0.332 C 
BRANCH  15  16
ATOM     16  O   UNL     1      -4.294  -2.015  -1.619  0.00  0.00    -0.479 OA
ATOM     17  H   UNL     1      -3.820  -2.784  -1.370  0.00  0.00    +0.295 HD
ENDBRANCH  15  16
ENDBRANCH   9  15
ENDBRANCH   5  13
ENDBRANCH   2   5
BRANCH   3  18
ATOM     18  C   UNL     1       3.056   2.003  -0.408  0.00  0.00    +0.166 C 
BRANCH  18  19
ATOM     19  O   UNL     1       3.925   3.099  -0.165  0.00  0.00    -0.377 OA
ATOM     20  H   UNL     1       4.783   2.931  -0.586  0.00  0.00    +0.211 HD
ENDBRANCH  18  19
BRANCH  18  21
ATOM     21  C   UNL     1       3.690   0.695   0.110  0.00  0.00    -0.029 C 
BRANCH  21  22
ATOM     22  N   UNL     1       5.003   0.514  -0.521  0.00  0.00    +0.384 N 
ATOM     23  H   UNL     1       5.427  -0.350  -0.182  0.00  0.00    -0.089 HD
ATOM     24  H   UNL     1       5.605   1.303  -0.286  0.00  0.00    -0.089 HD
ATOM     25  H   UNL     1       4.889   0.462  -1.534  0.00  0.00    -0.089 HD
ENDBRANCH  21  22
BRANCH  21  26
ATOM     26  C   UNL     1       2.809  -0.544  -0.160  0.00  0.00    -0.019 C 
BRANCH  26  27
ATOM     27  C   UNL     1       3.451  -1.852   0.324  0.00  0.00    -0.004 C 
BRANCH  27  28
ATOM     28  C   UNL     1       2.578  -3.059  -0.035  0.00  0.00    -0.024 C 
BRANCH  28  29
ATOM     29  C   UNL     1       3.182  -4.391   0.414  0.00  0.00    -0.086 C 
BRANCH  29  30
ATOM     30  N   UNL     1       2.314  -5.518   0.095  0.00  0.00    +0.380 N 
ATOM     31  H   UNL     1       2.752  -6.384   0.409  0.00  0.00    -0.089 HD
ATOM     32  H   UNL     1       2.166  -5.559  -0.914  0.00  0.00    -0.089 HD
ATOM     33  H   UNL     1       1.417  -5.401   0.565  0.00  0.00    -0.089 HD
ENDBRANCH  29  30
ENDBRANCH  28  29
ENDBRANCH  27  28
ENDBRANCH  26  27
ENDBRANCH  21  26
ENDBRANCH  18  21
ENDBRANCH   3  18
TORSDOF 13
