REMARK  Name = 12681850
REMARK  11 active torsions:
REMARK  status: ('A' for Active; 'I' for Inactive)
REMARK    1  A    between atoms: N_1  and  C_4
REMARK    2  A    between atoms: N_1  and  C_18
REMARK    3  A    between atoms: C_4  and  C_5
REMARK    4  A    between atoms: C_5  and  O_6
REMARK    5  A    between atoms: C_5  and  C_8
REMARK    6  A    between atoms: C_8  and  O_9
REMARK    7  A    between atoms: O_9  and  C_10
REMARK    8  A    between atoms: C_15  and  O_16
REMARK    9  A    between atoms: C_18  and  C_19
REMARK   10  A    between atoms: C_19  and  N_21
REMARK   11  A    between atoms: N_22  and  C_26
REMARK                            x       y       z     vdW  Elec       q    Type
REMARK                         _______ _______ _______ _____ _____    ______ ____
ROOT
ATOM      1  N   UNL     1      -2.981  -1.889  -0.359  0.00  0.00    +0.387 N 
ATOM      2  H   UNL     1      -2.282  -1.196  -0.626  0.00  0.00    -0.084 HD
ATOM      3  H   UNL     1      -3.425  -2.286  -1.187  0.00  0.00    -0.084 HD
ENDROOT
BRANCH   1   4
ATOM      4  C   UNL     1      -4.003  -1.246   0.455  0.00  0.00    -0.048 C 
BRANCH   4   5
ATOM      5  C   UNL     1      -4.665  -0.074  -0.275  0.00  0.00    +0.133 C 
BRANCH   5   6
ATOM      6  O   UNL     1      -5.623   0.518   0.608  0.00  0.00    -0.383 OA
ATOM      7  H   UNL     1      -6.259  -0.156   0.894  0.00  0.00    +0.210 HD
ENDBRANCH   5   6
BRANCH   5   8
ATOM      8  C   UNL     1      -3.675   1.003  -0.711  0.00  0.00    +0.232 C 
BRANCH   8   9
ATOM      9  O   UNL     1      -3.043   1.543   0.446  0.00  0.00    -0.473 OA
BRANCH   9  10
ATOM     10  C   UNL     1      -1.760   1.994   0.292  0.00  0.00    +0.139 C 
ATOM     11  C   UNL     1      -1.341   2.500  -0.939  0.00  0.00    +0.040 C 
ATOM     12  C   UNL     1      -0.871   1.946   1.366  0.00  0.00    +0.040 C 
ATOM     13  C   UNL     1      -0.033   2.960  -1.095  0.00  0.00    +0.040 C 
ATOM     14  C   UNL     1       0.437   2.406   1.209  0.00  0.00    +0.040 C 
ATOM     15  C   UNL     1       0.856   2.913  -0.021  0.00  0.00    +0.134 C 
BRANCH  15  16
ATOM     16  O   UNL     1       2.131   3.363  -0.173  0.00  0.00    -0.506 OA
ATOM     17  H   UNL     1       2.412   3.704  -0.999  0.00  0.00    +0.292 HD
ENDBRANCH  15  16
ENDBRANCH   9  10
ENDBRANCH   8   9
ENDBRANCH   5   8
ENDBRANCH   4   5
ENDBRANCH   1   4
BRANCH   1  18
ATOM     18  C   UNL     1      -2.328  -2.963   0.378  0.00  0.00    -0.060 C 
BRANCH  18  19
ATOM     19  C   UNL     1      -1.256  -3.618  -0.480  0.00  0.00    +0.068 C 
BRANCH  19  21
ATOM     20  O   UNL     1       1.153  -2.938   0.913  0.00  0.00    -0.252 OA
ATOM     21  N   UNL     1      -0.265  -2.662  -0.893  0.00  0.00    -0.291 N 
ATOM     22  N   UNL     1       1.667  -1.416  -0.799  0.00  0.00    -0.268 N 
ATOM     23  C   UNL     1       0.893  -2.384  -0.153  0.00  0.00    +0.304 C 
ATOM     24  H   UNL     1      -0.406  -2.179  -1.739  0.00  0.00    +0.151 HD
ATOM     25  H   UNL     1       1.311  -1.074  -1.651  0.00  0.00    +0.156 HD
BRANCH  22  26
ATOM     26  C   UNL     1       2.901  -0.867  -0.377  0.00  0.00    +0.052 C 
ATOM     27  C   UNL     1       3.537   0.099  -1.156  0.00  0.00    +0.015 C 
ATOM     28  C   UNL     1       3.482  -1.293   0.818  0.00  0.00    +0.015 C 
ATOM     29  C   UNL     1       4.754   0.640  -0.741  0.00  0.00    +0.001 C 
ATOM     30  C   UNL     1       4.698  -0.751   1.233  0.00  0.00    +0.001 C 
ATOM     31  C   UNL     1       5.334   0.215   0.454  0.00  0.00    +0.000 C 
ENDBRANCH  22  26
ENDBRANCH  19  21
ENDBRANCH  18  19
ENDBRANCH   1  18
TORSDOF 11
