126843426
  -OEChem-03292013293D

 58 60  0     1  0  0  0  0  0999 V2000
    0.3392   -0.8057   -1.2403 O   0  0  0  0  0  0  0  0  0  0  0  0
   -1.9189   -1.0118    1.7704 O   0  0  0  0  0  0  0  0  0  0  0  0
    0.5179    2.4430    1.9332 O   0  0  0  0  0  0  0  0  0  0  0  0
   -3.4848   -0.3511   -1.8748 O   0  0  0  0  0  0  0  0  0  0  0  0
   -2.6180    2.0193    1.4451 O   0  0  0  0  0  0  0  0  0  0  0  0
   -1.0982   -2.6184    0.3386 N   0  0  0  0  0  0  0  0  0  0  0  0
    1.3663   -0.1667    0.7411 N   0  0  0  0  0  0  0  0  0  0  0  0
   -4.1570   -0.8416    0.2937 N   0  0  0  0  0  0  0  0  0  0  0  0
   -0.2077    2.4432   -0.2714 N   0  0  0  0  0  0  0  0  0  0  0  0
   -3.4085    2.2467   -0.7281 N   0  0  0  0  0  0  0  0  0  0  0  0
    0.3093   -2.3451    0.6248 C   0  0  1  0  0  0  0  0  0  0  0  0
    1.0762   -3.5126   -0.0022 C   0  0  0  0  0  0  0  0  0  0  0  0
    0.0286   -4.6103   -0.1440 C   0  0  0  0  0  0  0  0  0  0  0  0
   -1.2482   -3.8412   -0.4386 C   0  0  0  0  0  0  0  0  0  0  0  0
    0.6608   -1.0374   -0.0757 C   0  0  0  0  0  0  0  0  0  0  0  0
   -2.1164   -1.8694    0.9052 C   0  0  0  0  0  0  0  0  0  0  0  0
    1.7685    1.1632    0.3075 C   0  0  2  0  0  0  0  0  0  0  0  0
   -3.5145   -2.1387    0.3784 C   0  0  0  0  0  0  0  0  0  0  0  0
    3.0985    1.5552    0.9350 C   0  0  0  0  0  0  0  0  0  0  0  0
    0.6554    2.1010    0.7599 C   0  0  0  0  0  0  0  0  0  0  0  0
    4.2642    0.9455    0.2022 C   0  0  0  0  0  0  0  0  0  0  0  0
   -4.5694    1.3780   -0.5840 C   0  0  2  0  0  0  0  0  0  0  0  0
   -4.0331   -0.0260   -0.8225 C   0  0  0  0  0  0  0  0  0  0  0  0
   -1.3396    3.3319   -0.1025 C   0  0  0  0  0  0  0  0  0  0  0  0
    4.7502   -0.3054    0.5824 C   0  0  0  0  0  0  0  0  0  0  0  0
    4.8579    1.6319   -0.8569 C   0  0  0  0  0  0  0  0  0  0  0  0
   -2.5239    2.4890    0.3125 C   0  0  0  0  0  0  0  0  0  0  0  0
   -5.6464    1.7194   -1.6007 C   0  0  0  0  0  0  0  0  0  0  0  0
    5.8301   -0.8700   -0.0966 C   0  0  0  0  0  0  0  0  0  0  0  0
    5.9377    1.0676   -1.5359 C   0  0  0  0  0  0  0  0  0  0  0  0
    6.4238   -0.1835   -1.1557 C   0  0  0  0  0  0  0  0  0  0  0  0
    0.4467   -2.2889    1.7095 H   0  0  0  0  0  0  0  0  0  0  0  0
    1.9195   -3.8273    0.6206 H   0  0  0  0  0  0  0  0  0  0  0  0
    1.4789   -3.2542   -0.9892 H   0  0  0  0  0  0  0  0  0  0  0  0
    0.2743   -5.3364   -0.9237 H   0  0  0  0  0  0  0  0  0  0  0  0
   -0.0691   -5.1481    0.8070 H   0  0  0  0  0  0  0  0  0  0  0  0
   -1.3119   -3.5601   -1.4952 H   0  0  0  0  0  0  0  0  0  0  0  0
   -2.1444   -4.3976   -0.1519 H   0  0  0  0  0  0  0  0  0  0  0  0
    1.5386   -0.4241    1.7086 H   0  0  0  0  0  0  0  0  0  0  0  0
    1.8389    1.1782   -0.7869 H   0  0  0  0  0  0  0  0  0  0  0  0
   -3.5121   -2.5983   -0.6118 H   0  0  0  0  0  0  0  0  0  0  0  0
   -4.0625   -2.7604    1.0904 H   0  0  0  0  0  0  0  0  0  0  0  0
    3.1409    1.2760    1.9966 H   0  0  0  0  0  0  0  0  0  0  0  0
    3.2140    2.6477    0.9214 H   0  0  0  0  0  0  0  0  0  0  0  0
   -4.6358   -0.4977    1.1207 H   0  0  0  0  0  0  0  0  0  0  0  0
   -4.9646    1.4858    0.4317 H   0  0  0  0  0  0  0  0  0  0  0  0
   -0.0505    2.0632   -1.2000 H   0  0  0  0  0  0  0  0  0  0  0  0
   -1.5138    3.8502   -1.0492 H   0  0  0  0  0  0  0  0  0  0  0  0
   -1.1319    4.0689    0.6791 H   0  0  0  0  0  0  0  0  0  0  0  0
    4.2971   -0.8506    1.4061 H   0  0  0  0  0  0  0  0  0  0  0  0
    4.4870    2.6061   -1.1642 H   0  0  0  0  0  0  0  0  0  0  0  0
   -3.2032    2.6177   -1.6514 H   0  0  0  0  0  0  0  0  0  0  0  0
   -5.2741    1.6376   -2.6283 H   0  0  0  0  0  0  0  0  0  0  0  0
   -6.0020    2.7454   -1.4589 H   0  0  0  0  0  0  0  0  0  0  0  0
   -6.5008    1.0414   -1.5027 H   0  0  0  0  0  0  0  0  0  0  0  0
    6.2084   -1.8441    0.1993 H   0  0  0  0  0  0  0  0  0  0  0  0
    6.3997    1.6017   -2.3610 H   0  0  0  0  0  0  0  0  0  0  0  0
    7.2645   -0.6230   -1.6846 H   0  0  0  0  0  0  0  0  0  0  0  0
  1 15  2  0  0  0  0
  2 16  2  0  0  0  0
  3 20  2  0  0  0  0
  4 23  2  0  0  0  0
  5 27  2  0  0  0  0
  6 11  1  0  0  0  0
  6 14  1  0  0  0  0
  6 16  1  0  0  0  0
  7 15  1  0  0  0  0
  7 17  1  0  0  0  0
  7 39  1  0  0  0  0
  8 18  1  0  0  0  0
  8 23  1  0  0  0  0
  8 45  1  0  0  0  0
  9 20  1  0  0  0  0
  9 24  1  0  0  0  0
  9 47  1  0  0  0  0
 10 22  1  0  0  0  0
 10 27  1  0  0  0  0
 10 52  1  0  0  0  0
 11 12  1  0  0  0  0
 11 15  1  0  0  0  0
 11 32  1  0  0  0  0
 12 13  1  0  0  0  0
 12 33  1  0  0  0  0
 12 34  1  0  0  0  0
 13 14  1  0  0  0  0
 13 35  1  0  0  0  0
 13 36  1  0  0  0  0
 14 37  1  0  0  0  0
 14 38  1  0  0  0  0
 16 18  1  0  0  0  0
 17 19  1  0  0  0  0
 17 20  1  0  0  0  0
 17 40  1  0  0  0  0
 18 41  1  0  0  0  0
 18 42  1  0  0  0  0
 19 21  1  0  0  0  0
 19 43  1  0  0  0  0
 19 44  1  0  0  0  0
 21 25  2  0  0  0  0
 21 26  1  0  0  0  0
 22 23  1  0  0  0  0
 22 28  1  0  0  0  0
 22 46  1  0  0  0  0
 24 27  1  0  0  0  0
 24 48  1  0  0  0  0
 24 49  1  0  0  0  0
 25 29  1  0  0  0  0
 25 50  1  0  0  0  0
 26 30  2  0  0  0  0
 26 51  1  0  0  0  0
 28 53  1  0  0  0  0
 28 54  1  0  0  0  0
 28 55  1  0  0  0  0
 29 31  2  0  0  0  0
 29 56  1  0  0  0  0
 30 31  1  0  0  0  0
 30 57  1  0  0  0  0
 31 58  1  0  0  0  0
M  END
> <PUBCHEM_COMPOUND_CID>
126843426

> <PUBCHEM_CONFORMER_RMSD>
0.8

> <PUBCHEM_CONFORMER_DIVERSEORDER>
1
25
14
32
30
3
24
19
27
7
22
20
17
5
29
9
16
18
21
4
13
31
8
28
15
12
23
11
26
10
6
2

> <PUBCHEM_MMFF94_PARTIAL_CHARGES>
37
1 -0.57
10 -0.73
11 0.36
14 0.3
15 0.57
16 0.57
17 0.36
18 0.36
19 0.14
2 -0.57
20 0.57
21 -0.14
22 0.36
23 0.57
24 0.36
25 -0.15
26 -0.15
27 0.57
29 -0.15
3 -0.57
30 -0.15
31 -0.15
39 0.37
4 -0.57
45 0.37
47 0.37
5 -0.57
50 0.15
51 0.15
52 0.37
56 0.15
57 0.15
58 0.15
6 -0.66
7 -0.73
8 -0.73
9 -0.73

> <PUBCHEM_EFFECTIVE_ROTOR_COUNT>
4.2

> <PUBCHEM_PHARMACOPHORE_FEATURES>
11
1 1 acceptor
1 10 donor
1 2 acceptor
1 3 acceptor
1 4 acceptor
1 5 acceptor
1 7 donor
1 8 donor
1 9 donor
5 6 11 12 13 14 rings
6 21 25 26 29 30 31 rings

> <PUBCHEM_HEAVY_ATOM_COUNT>
31

> <PUBCHEM_ATOM_DEF_STEREO_COUNT>
3

> <PUBCHEM_ATOM_UDEF_STEREO_COUNT>
0

> <PUBCHEM_BOND_DEF_STEREO_COUNT>
0

> <PUBCHEM_BOND_UDEF_STEREO_COUNT>
0

> <PUBCHEM_ISOTOPIC_ATOM_COUNT>
0

> <PUBCHEM_COMPONENT_COUNT>
1

> <PUBCHEM_CACTVS_TAUTO_COUNT>
32

> <PUBCHEM_CONFORMER_ID>
078F7A2200000001

> <PUBCHEM_MMFF94_ENERGY>
81.2631

> <PUBCHEM_FEATURE_SELFOVERLAP>
55.825

> <PUBCHEM_SHAPE_FINGERPRINT>
107951 10 17603586326723993715
11135926 11 18266171747780441613
11200772 71 18044110157835325140
11285246 1 17554299781421922655
11488393 25 17130441077414311990
11578080 2 17608639519252368589
12645989 146 18054793042063749407
12788726 201 18412547605051372466
13402501 40 18410570704334650121
13690498 29 17907312288224943734
13941206 138 18113056021743661106
14251757 5 18265059213774601814
14289585 56 17241325755813248588
14790565 3 18410012104988018324
14840074 17 17603871069881088493
14930077 153 17750816517694826484
14931854 50 18339906153191148005
15297060 5 18412551989548655016
16752209 62 18411416216118192834
17492 54 18261096458120381281
17627616 140 18121782729579712234
18608769 82 18261115188868086315
19591789 44 18411979135685050480
19958102 18 18339090298451670230
20764821 26 18125174744652915770
20775438 99 16617537959837639567
21033648 144 17985550198330153234
21033648 29 18339915030149849320
21279426 13 18411702076040449070
23559900 14 18340760546097412488
3027735 51 18272377425524410330
3298306 158 18341890784100162678
4058900 60 18042962061315969357
4409770 3 18337681904932997162
5085150 59 18341602678205675906
508706 21 18269854055155302974
5265222 85 18334861653323964229
59755656 215 18339638945246162837
6437827 68 18410295779420494702
70251023 43 17330274381920738610
7237137 82 18263374727727951748

> <PUBCHEM_SHAPE_MULTIPOLES>
583.71
12.06
4.87
1.38
11.88
4.07
0.05
-5.24
5.65
-3.05
-0.25
-0.29
-0.51
0.57

> <PUBCHEM_SHAPE_SELFOVERLAP>
1223.884

> <PUBCHEM_SHAPE_VOLUME>
326.6

> <PUBCHEM_COORDINATE_TYPE>
2
5
10

$$$$
