126837
  -OEChem-03292013323D

 26 27  0     1  0  0  0  0  0999 V2000
    1.5488   -2.2409   -0.6532 S   0  0  0  0  0  0  0  0  0  0  0  0
   -1.1879    0.5639   -1.0136 O   0  0  0  0  0  0  0  0  0  0  0  0
   -3.7332   -1.0067   -0.2520 O   0  0  0  0  0  0  0  0  0  0  0  0
   -1.7313   -2.3109    1.0672 O   0  0  0  0  0  0  0  0  0  0  0  0
   -1.6137    3.2485   -0.3326 O   0  0  0  0  0  0  0  0  0  0  0  0
    1.4521    0.2707   -0.0487 N   0  0  0  0  0  0  0  0  0  0  0  0
    4.5757    1.6411    0.6095 N   0  0  0  0  0  0  0  0  0  0  0  0
   -2.8401   -0.2037    0.5195 C   0  0  1  0  0  0  0  0  0  0  0  0
   -1.5397   -0.9404    0.7796 C   0  0  2  0  0  0  0  0  0  0  0  0
   -2.3818    0.9869   -0.3163 C   0  0  1  0  0  0  0  0  0  0  0  0
   -0.7909   -0.7347   -0.5285 C   0  0  2  0  0  0  0  0  0  0  0  0
   -2.0362    2.2054    0.5280 C   0  0  0  0  0  0  0  0  0  0  0  0
    0.7110   -0.7664   -0.3793 C   0  0  0  0  0  0  0  0  0  0  0  0
    2.7767   -0.1186   -0.0067 C   0  0  0  0  0  0  0  0  0  0  0  0
    3.0257   -1.4420   -0.3047 C   0  0  0  0  0  0  0  0  0  0  0  0
    3.7648    0.8478    0.3318 C   0  0  0  0  0  0  0  0  0  0  0  0
   -3.3680    0.0791    1.4351 H   0  0  0  0  0  0  0  0  0  0  0  0
   -1.0113   -0.4729    1.6198 H   0  0  0  0  0  0  0  0  0  0  0  0
   -3.1150    1.2594   -1.0838 H   0  0  0  0  0  0  0  0  0  0  0  0
   -1.1060   -1.4680   -1.2821 H   0  0  0  0  0  0  0  0  0  0  0  0
   -1.2138    1.9926    1.2185 H   0  0  0  0  0  0  0  0  0  0  0  0
   -2.9066    2.5483    1.0957 H   0  0  0  0  0  0  0  0  0  0  0  0
   -3.9094   -1.8142    0.2604 H   0  0  0  0  0  0  0  0  0  0  0  0
   -0.8528   -2.7208    1.1429 H   0  0  0  0  0  0  0  0  0  0  0  0
   -1.4017    4.0145    0.2276 H   0  0  0  0  0  0  0  0  0  0  0  0
    3.9705   -1.9668   -0.3352 H   0  0  0  0  0  0  0  0  0  0  0  0
  1 13  1  0  0  0  0
  1 15  1  0  0  0  0
  2 10  1  0  0  0  0
  2 11  1  0  0  0  0
  3  8  1  0  0  0  0
  3 23  1  0  0  0  0
  4  9  1  0  0  0  0
  4 24  1  0  0  0  0
  5 12  1  0  0  0  0
  5 25  1  0  0  0  0
  6 13  2  0  0  0  0
  6 14  1  0  0  0  0
  7 16  3  0  0  0  0
  8  9  1  0  0  0  0
  8 10  1  0  0  0  0
  8 17  1  0  0  0  0
  9 11  1  0  0  0  0
  9 18  1  0  0  0  0
 10 12  1  0  0  0  0
 10 19  1  0  0  0  0
 11 13  1  0  0  0  0
 11 20  1  0  0  0  0
 12 21  1  0  0  0  0
 12 22  1  0  0  0  0
 14 15  2  0  0  0  0
 14 16  1  0  0  0  0
 15 26  1  0  0  0  0
M  END
> <PUBCHEM_COMPOUND_CID>
126837

> <PUBCHEM_CONFORMER_RMSD>
0.6

> <PUBCHEM_CONFORMER_DIVERSEORDER>
1
12
14
3
9
11
8
7
10
13
4
5
6
2

> <PUBCHEM_MMFF94_PARTIAL_CHARGES>
20
1 -0.08
10 0.28
11 0.46
12 0.28
13 0.2
14 0.25
15 -0.11
16 0.54
2 -0.56
23 0.4
24 0.4
25 0.4
26 0.15
3 -0.68
4 -0.68
5 -0.68
6 -0.57
7 -0.56
8 0.28
9 0.28

> <PUBCHEM_EFFECTIVE_ROTOR_COUNT>
3

> <PUBCHEM_PHARMACOPHORE_FEATURES>
11
1 2 acceptor
1 3 acceptor
1 3 donor
1 4 acceptor
1 4 donor
1 5 acceptor
1 5 donor
1 6 acceptor
1 7 acceptor
5 1 6 13 14 15 rings
5 2 8 9 10 11 rings

> <PUBCHEM_HEAVY_ATOM_COUNT>
16

> <PUBCHEM_ATOM_DEF_STEREO_COUNT>
4

> <PUBCHEM_ATOM_UDEF_STEREO_COUNT>
0

> <PUBCHEM_BOND_DEF_STEREO_COUNT>
0

> <PUBCHEM_BOND_UDEF_STEREO_COUNT>
0

> <PUBCHEM_ISOTOPIC_ATOM_COUNT>
0

> <PUBCHEM_COMPONENT_COUNT>
1

> <PUBCHEM_CACTVS_TAUTO_COUNT>
1

> <PUBCHEM_CONFORMER_ID>
0001EF7500000001

> <PUBCHEM_MMFF94_ENERGY>
27.4732

> <PUBCHEM_FEATURE_SELFOVERLAP>
55.843

> <PUBCHEM_SHAPE_FINGERPRINT>
10366900 7 18340485676890172376
10608611 8 18340206276335270620
11132069 177 18260551172707974566
11615756 256 18341901736293063200
11715629 250 18272929414905823956
12251169 10 18040997388344330214
12916754 54 17988365879562143143
13294875 104 17397532113702017920
14026960 21 18266743678494400992
14648413 74 18125724478738759534
15219456 202 18411420583694003926
15279308 16 18411700984981501698
15295992 7 17978529545502749905
15375462 6 18342457036534930686
15775835 57 17846779641434208166
16945 1 18263382372373956623
18186145 218 17703517657723766270
19049666 15 18194128421259756914
20304884 271 18053101726838937837
20510252 161 18410293588575645897
20528008 55 18334575754467277535
21041028 32 15526302802585693323
21501502 16 18266181638604645510
21524375 3 17760654663918733389
22182937 141 18127980697879114113
23402539 116 18337945779466330495
23419403 2 17105915723016433607
23557571 272 18189637070800214270
23559900 14 18339074887639766602
27216 239 18339919432702317624
2748010 2 18191034399865609991
3524813 1 18059004111848020808
5104073 3 18410296873919822235
6049 1 18269014010865173806
74978 22 18052258388561782166
8050 44 18341326682926466896
81228 2 18114478776973230779
90316 7 17167854240939549820
9709674 26 18340492170781133566

> <PUBCHEM_SHAPE_MULTIPOLES>
299.68
6.62
2.71
0.88
4.32
1.15
0.04
2.1
0.88
-0.49
0.09
-0.2
-0.15
0.92

> <PUBCHEM_SHAPE_SELFOVERLAP>
616.748

> <PUBCHEM_SHAPE_VOLUME>
173.8

> <PUBCHEM_COORDINATE_TYPE>
2
5
10

$$$$
