REMARK  Name = 126890
REMARK  12 active torsions:
REMARK  status: ('A' for Active; 'I' for Inactive)
REMARK    1  A    between atoms: C_2  and  C_3
REMARK    2  A    between atoms: C_2  and  C_14
REMARK    3  A    between atoms: C_3  and  C_4
REMARK    4  A    between atoms: C_4  and  S_5
REMARK    5  A    between atoms: C_4  and  C_9
REMARK    6  A    between atoms: C_9  and  C_10
REMARK    7  A    between atoms: C_10  and  C_11
REMARK    8  A    between atoms: C_11  and  C_12
REMARK    9  A    between atoms: C_14  and  C_15
REMARK   10  A    between atoms: C_15  and  C_16
REMARK   11  A    between atoms: C_19  and  O_22
REMARK   12  A    between atoms: C_21  and  O_24
REMARK                            x       y       z     vdW  Elec       q    Type
REMARK                         _______ _______ _______ _____ _____    ______ ____
ROOT
ATOM      1  O   UNL     1      -1.003   1.343   1.702  0.00  0.00    -0.296 OA
ATOM      2  C   UNL     1      -0.939   1.635   0.509  0.00  0.00    +0.153 C 
ENDROOT
BRANCH   2   3
ATOM      3  C   UNL     1      -1.444   0.716  -0.596  0.00  0.00    +0.089 C 
BRANCH   3   4
ATOM      4  C   UNL     1      -2.601  -0.192  -0.167  0.00  0.00    +0.143 C 
BRANCH   4   5
ATOM      5  S   UNL     1      -4.114   0.753  -0.064  0.00  0.00    +0.021 S 
ATOM      6  O   UNL     1      -4.987  -0.371   0.727  0.00  0.00    -0.069 OA
ATOM      7  O   UNL     1      -4.638   0.908  -1.402  0.00  0.00    -0.069 OA
ATOM      8  O   UNL     1      -3.878   1.877   0.812  0.00  0.00    -0.069 OA
ENDBRANCH   4   5
BRANCH   4   9
ATOM      9  C   UNL     1      -2.827  -1.368  -1.133  0.00  0.00    +0.025 C 
BRANCH   9  10
ATOM     10  C   UNL     1      -1.630  -2.300  -1.355  0.00  0.00    +0.002 C 
BRANCH  10  11
ATOM     11  C   UNL     1      -1.174  -3.024  -0.087  0.00  0.00    +0.000 C 
BRANCH  11  12
ATOM     12  C   UNL     1       0.023  -3.933  -0.368  0.00  0.00    +0.000 C 
ATOM     13  C   UNL     1       0.458  -4.683   0.880  0.00  0.00    +0.000 C 
ENDBRANCH  11  12
ENDBRANCH  10  11
ENDBRANCH   9  10
ENDBRANCH   4   9
ENDBRANCH   3   4
ENDBRANCH   2   3
BRANCH   2  14
ATOM     14  C   UNL     1      -0.300   2.938   0.060  0.00  0.00    +0.069 C 
BRANCH  14  15
ATOM     15  C   UNL     1       1.119   3.092   0.606  0.00  0.00    +0.034 C 
BRANCH  15  16
ATOM     16  C   UNL     1       2.062   2.027   0.105  0.00  0.00    -0.019 C 
ATOM     17  C   UNL     1       2.212   0.837   0.817  0.00  0.00    +0.036 C 
ATOM     18  C   UNL     1       2.785   2.231  -1.070  0.00  0.00    -0.001 C 
ATOM     19  C   UNL     1       3.084  -0.149   0.354  0.00  0.00    +0.172 C 
ATOM     20  C   UNL     1       3.657   1.246  -1.533  0.00  0.00    +0.039 C 
ATOM     21  C   UNL     1       3.807   0.056  -0.821  0.00  0.00    +0.168 C 
BRANCH  19  22
ATOM     22  O   UNL     1       3.221  -1.306   1.059  0.00  0.00    -0.468 OA
ATOM     23  C   UNL     1       2.447  -1.437   2.249  0.00  0.00    +0.253 C 
ENDBRANCH  19  22
BRANCH  21  24
ATOM     24  O   UNL     1       4.662  -0.898  -1.284  0.00  0.00    -0.503 OA
ATOM     25  H   UNL     1       4.768  -1.701  -0.812  0.00  0.00    +0.292 HD
ENDBRANCH  21  24
ENDBRANCH  15  16
ENDBRANCH  14  15
ENDBRANCH   2  14
TORSDOF 12
