126860
  -OEChem-03292013323D

 43 42  0     0  0  0  0  0  0999 V2000
    3.1843    1.3132   -1.6496 O   0  0  0  0  0  0  0  0  0  0  0  0
   -2.5981   -3.5411    0.3983 O   0  0  0  0  0  0  0  0  0  0  0  0
   -1.0165   -2.9198    1.9077 O   0  0  0  0  0  0  0  0  0  0  0  0
    3.1417   -0.3271   -0.0018 N   0  0  0  0  0  0  0  0  0  0  0  0
   -2.0960    1.3391   -0.1748 N   0  0  0  0  0  0  0  0  0  0  0  0
   -4.1862    2.3618   -0.7706 N   0  0  0  0  0  0  0  0  0  0  0  0
   -3.3903    0.5735   -1.9384 N   0  0  0  0  0  0  0  0  0  0  0  0
    1.8856    1.8824    1.5256 C   0  0  0  0  0  0  0  0  0  0  0  0
    0.5932    2.1413    0.7449 C   0  0  0  0  0  0  0  0  0  0  0  0
    3.1309    2.0018    0.6486 C   0  0  0  0  0  0  0  0  0  0  0  0
   -0.6337    2.0399    1.6568 C   0  0  0  0  0  0  0  0  0  0  0  0
    1.7551   -1.9428   -1.2653 C   0  0  0  0  0  0  0  0  0  0  0  0
    3.1556   -1.4771   -0.8763 C   0  0  0  0  0  0  0  0  0  0  0  0
    0.8948   -2.3116   -0.0506 C   0  0  0  0  0  0  0  0  0  0  0  0
    3.1573    0.9766   -0.4677 C   0  0  0  0  0  0  0  0  0  0  0  0
   -1.9372    2.3064    0.9122 C   0  0  0  0  0  0  0  0  0  0  0  0
   -0.5018   -2.7814   -0.4484 C   0  0  0  0  0  0  0  0  0  0  0  0
   -1.3715   -3.0793    0.7471 C   0  0  0  0  0  0  0  0  0  0  0  0
   -3.1672    1.4441   -0.8978 C   0  0  0  0  0  0  0  0  0  0  0  0
    1.9660    2.6147    2.3386 H   0  0  0  0  0  0  0  0  0  0  0  0
    1.8347    0.8964    2.0010 H   0  0  0  0  0  0  0  0  0  0  0  0
    0.5066    1.4163   -0.0719 H   0  0  0  0  0  0  0  0  0  0  0  0
    0.6316    3.1389    0.2908 H   0  0  0  0  0  0  0  0  0  0  0  0
    3.1894    3.0027    0.2056 H   0  0  0  0  0  0  0  0  0  0  0  0
    4.0300    1.8630    1.2602 H   0  0  0  0  0  0  0  0  0  0  0  0
   -0.5413    2.7563    2.4818 H   0  0  0  0  0  0  0  0  0  0  0  0
   -0.6696    1.0375    2.1016 H   0  0  0  0  0  0  0  0  0  0  0  0
    1.2524   -1.1492   -1.8320 H   0  0  0  0  0  0  0  0  0  0  0  0
    1.8401   -2.8098   -1.9310 H   0  0  0  0  0  0  0  0  0  0  0  0
    3.7257   -1.2317   -1.7790 H   0  0  0  0  0  0  0  0  0  0  0  0
    3.6883   -2.2762   -0.3496 H   0  0  0  0  0  0  0  0  0  0  0  0
    1.3957   -3.0975    0.5286 H   0  0  0  0  0  0  0  0  0  0  0  0
    0.8020   -1.4442    0.6147 H   0  0  0  0  0  0  0  0  0  0  0  0
    3.1522   -0.5012    0.9984 H   0  0  0  0  0  0  0  0  0  0  0  0
   -2.7674    2.2207    1.6236 H   0  0  0  0  0  0  0  0  0  0  0  0
   -1.9208    3.3294    0.5167 H   0  0  0  0  0  0  0  0  0  0  0  0
   -0.9996   -2.0043   -1.0392 H   0  0  0  0  0  0  0  0  0  0  0  0
   -0.4259   -3.6925   -1.0519 H   0  0  0  0  0  0  0  0  0  0  0  0
   -3.1555   -3.7289    1.1835 H   0  0  0  0  0  0  0  0  0  0  0  0
   -4.1830    3.0779   -0.0531 H   0  0  0  0  0  0  0  0  0  0  0  0
   -4.9828    2.3483   -1.3985 H   0  0  0  0  0  0  0  0  0  0  0  0
   -2.7267   -0.1618   -2.1572 H   0  0  0  0  0  0  0  0  0  0  0  0
   -4.2217    0.6383   -2.5154 H   0  0  0  0  0  0  0  0  0  0  0  0
  1 15  2  0  0  0  0
  2 18  1  0  0  0  0
  2 39  1  0  0  0  0
  3 18  2  0  0  0  0
  4 13  1  0  0  0  0
  4 15  1  0  0  0  0
  4 34  1  0  0  0  0
  5 16  1  0  0  0  0
  5 19  2  0  0  0  0
  6 19  1  0  0  0  0
  6 40  1  0  0  0  0
  6 41  1  0  0  0  0
  7 19  1  0  0  0  0
  7 42  1  0  0  0  0
  7 43  1  0  0  0  0
  8  9  1  0  0  0  0
  8 10  1  0  0  0  0
  8 20  1  0  0  0  0
  8 21  1  0  0  0  0
  9 11  1  0  0  0  0
  9 22  1  0  0  0  0
  9 23  1  0  0  0  0
 10 15  1  0  0  0  0
 10 24  1  0  0  0  0
 10 25  1  0  0  0  0
 11 16  1  0  0  0  0
 11 26  1  0  0  0  0
 11 27  1  0  0  0  0
 12 13  1  0  0  0  0
 12 14  1  0  0  0  0
 12 28  1  0  0  0  0
 12 29  1  0  0  0  0
 13 30  1  0  0  0  0
 13 31  1  0  0  0  0
 14 17  1  0  0  0  0
 14 32  1  0  0  0  0
 14 33  1  0  0  0  0
 16 35  1  0  0  0  0
 16 36  1  0  0  0  0
 17 18  1  0  0  0  0
 17 37  1  0  0  0  0
 17 38  1  0  0  0  0
M  END
> <PUBCHEM_COMPOUND_CID>
126860

> <PUBCHEM_CONFORMER_RMSD>
1.2

> <PUBCHEM_CONFORMER_DIVERSEORDER>
1
3
28
57
100
44
35
52
22
39
19
20
92
61
8
33
86
98
36
79
58
37
41
17
5
47
38
75
12
30
74
4
80
9
24
42
27
96
31
50
65
62
63
87
45
83
34
59
95
77
64
53
55
85
89
25
40
18
78
2
76
88
93
73
21
32
6
82
67
90
71
102
14
91
16
81
56
10
48
103
13
26
43
97
15
69
23
46
60
11
66
49
94
29
51
101
70
7
84
72
99
54
68

> <PUBCHEM_MMFF94_PARTIAL_CHARGES>
20
1 -0.57
10 0.06
13 0.3
15 0.57
16 0.25
17 0.06
18 0.66
19 0.55
2 -0.65
3 -0.57
34 0.37
39 0.5
4 -0.73
40 0.4
41 0.4
42 0.4
43 0.4
5 -0.7
6 -0.85
7 -0.85

> <PUBCHEM_EFFECTIVE_ROTOR_COUNT>
12

> <PUBCHEM_PHARMACOPHORE_FEATURES>
9
1 1 acceptor
1 2 acceptor
1 3 acceptor
1 4 donor
1 6 donor
1 7 donor
3 2 3 18 anion
4 5 6 7 19 cation
4 8 9 10 11 hydrophobe

> <PUBCHEM_HEAVY_ATOM_COUNT>
19

> <PUBCHEM_ATOM_DEF_STEREO_COUNT>
0

> <PUBCHEM_ATOM_UDEF_STEREO_COUNT>
0

> <PUBCHEM_BOND_DEF_STEREO_COUNT>
0

> <PUBCHEM_BOND_UDEF_STEREO_COUNT>
0

> <PUBCHEM_ISOTOPIC_ATOM_COUNT>
0

> <PUBCHEM_COMPONENT_COUNT>
1

> <PUBCHEM_CACTVS_TAUTO_COUNT>
4

> <PUBCHEM_CONFORMER_ID>
0001EF8C00000001

> <PUBCHEM_MMFF94_ENERGY>
19.2174

> <PUBCHEM_FEATURE_SELFOVERLAP>
45.783

> <PUBCHEM_SHAPE_FINGERPRINT>
10688039 33 17901107743391660459
108634 29 18341045319592493518
11014199 57 16538485784146343439
13032168 30 17556582041780999624
13402501 40 18124592243834315467
14251711 518 16973658243590462930
14363568 33 16459688836363808817
15324115 91 17539640861241409543
19026451 147 17838313213206784263
21452121 99 18336554888656358772
238 59 18119256055963717737

> <PUBCHEM_SHAPE_MULTIPOLES>
353.48
6.37
4.98
1.68
1.65
3.88
0.02
-3.31
-3.12
2.12
1.8
0.47
-0.12
1.6

> <PUBCHEM_SHAPE_SELFOVERLAP>
669.503

> <PUBCHEM_SHAPE_VOLUME>
215.2

> <PUBCHEM_COORDINATE_TYPE>
2
5
10

$$$$
