REMARK  Name = 126839
REMARK  13 active torsions:
REMARK  status: ('A' for Active; 'I' for Inactive)
REMARK    1  A    between atoms: N_1  and  C_2
REMARK    2  A    between atoms: N_1  and  C_14
REMARK    3  A    between atoms: N_1  and  C_20
REMARK    4  A    between atoms: C_5  and  C_11
REMARK    5  A    between atoms: C_7  and  O_8
REMARK    6  A    between atoms: C_11  and  O_12
REMARK    7  A    between atoms: C_14  and  C_15
REMARK    8  A    between atoms: C_15  and  C_16
REMARK    9  A    between atoms: C_16  and  C_17
REMARK   10  A    between atoms: C_17  and  C_18
REMARK   11  A    between atoms: C_20  and  C_21
REMARK   12  A    between atoms: C_22  and  O_27
REMARK   13  A    between atoms: C_24  and  O_29
REMARK                            x       y       z     vdW  Elec       q    Type
REMARK                         _______ _______ _______ _____ _____    ______ ____
ROOT
ATOM      1  N   UNL     1       0.321  -0.572   0.131  0.00  0.00    -0.304 N 
ENDROOT
BRANCH   1   2
ATOM      2  C   UNL     1      -0.054   0.695  -0.340  0.00  0.00    +0.048 C 
ATOM      3  C   UNL     1      -0.054   1.797   0.521  0.00  0.00    +0.024 C 
ATOM      4  C   UNL     1      -0.430   0.867  -1.676  0.00  0.00    +0.018 C 
ATOM      5  C   UNL     1      -0.427   3.057   0.052  0.00  0.00    +0.110 C 
ATOM      6  C   UNL     1      -0.803   2.126  -2.146  0.00  0.00    +0.038 C 
ATOM      7  C   UNL     1      -0.801   3.221  -1.281  0.00  0.00    +0.140 C 
BRANCH   7   8
ATOM      8  O   UNL     1      -1.169   4.444  -1.759  0.00  0.00    -0.505 OA
ATOM      9  H   UNL     1      -1.172   5.188  -1.190  0.00  0.00    +0.292 HD
ENDBRANCH   7   8
BRANCH   5  11
ATOM     10  O   UNL     1      -0.205   5.361   0.656  0.00  0.00    -0.245 OA
ATOM     11  C   UNL     1      -0.418   4.187   0.971  0.00  0.00    +0.341 C 
BRANCH  11  12
ATOM     12  O   UNL     1      -0.678   3.815   2.253  0.00  0.00    -0.477 OA
ATOM     13  H   UNL     1      -0.835   2.914   2.457  0.00  0.00    +0.295 HD
ENDBRANCH  11  12
ENDBRANCH   5  11
ENDBRANCH   1   2
BRANCH   1  14
ATOM     14  C   UNL     1       1.431  -1.291  -0.444  0.00  0.00    +0.091 C 
BRANCH  14  15
ATOM     15  C   UNL     1       2.740  -0.902   0.239  0.00  0.00    +0.021 C 
BRANCH  15  16
ATOM     16  C   UNL     1       3.957  -1.607  -0.371  0.00  0.00    +0.002 C 
BRANCH  16  17
ATOM     17  C   UNL     1       5.255  -1.143   0.296  0.00  0.00    +0.000 C 
BRANCH  17  18
ATOM     18  C   UNL     1       6.507  -1.793  -0.296  0.00  0.00    +0.000 C 
ATOM     19  C   UNL     1       7.803  -1.282   0.315  0.00  0.00    +0.000 C 
ENDBRANCH  17  18
ENDBRANCH  16  17
ENDBRANCH  15  16
ENDBRANCH  14  15
ENDBRANCH   1  14
BRANCH   1  20
ATOM     20  C   UNL     1      -0.430  -1.197   1.222  0.00  0.00    +0.121 C 
BRANCH  20  21
ATOM     21  C   UNL     1      -1.676  -1.853   0.695  0.00  0.00    +0.034 C 
ATOM     22  C   UNL     1      -2.866  -1.140   0.616  0.00  0.00    +0.131 C 
ATOM     23  C   UNL     1      -1.616  -3.181   0.290  0.00  0.00    +0.037 C 
ATOM     24  C   UNL     1      -2.764  -3.805  -0.200  0.00  0.00    +0.134 C 
ATOM     25  C   UNL     1      -4.013  -1.764   0.126  0.00  0.00    +0.039 C 
ATOM     26  C   UNL     1      -3.962  -3.096  -0.282  0.00  0.00    +0.040 C 
BRANCH  22  27
ATOM     27  O   UNL     1      -2.934   0.162   1.012  0.00  0.00    -0.506 OA
ATOM     28  H   UNL     1      -2.170   0.592   1.343  0.00  0.00    +0.292 HD
ENDBRANCH  22  27
BRANCH  24  29
ATOM     29  O   UNL     1      -2.713  -5.105  -0.600  0.00  0.00    -0.506 OA
ATOM     30  H   UNL     1      -1.908  -5.582  -0.545  0.00  0.00    +0.292 HD
ENDBRANCH  24  29
ENDBRANCH  20  21
ENDBRANCH   1  20
TORSDOF 13
