REMARK  Name = 126831
REMARK  8 active torsions:
REMARK  status: ('A' for Active; 'I' for Inactive)
REMARK    1  A    between atoms: N_3  and  C1*_12
REMARK    2  A    between atoms: N_4  and  C_21
REMARK    3  A    between atoms: C2*_10  and  O2*_14
REMARK    4  A    between atoms: C3*_11  and  O3*_16
REMARK    5  A    between atoms: C4*_13  and  C5*_18
REMARK    6  A    between atoms: C5*_18  and  O5*_19
REMARK    7  A    between atoms: C_21  and  C_23
REMARK    8  A    between atoms: C_23  and  C_24
REMARK                            x       y       z     vdW  Elec       q    Type
REMARK                         _______ _______ _______ _____ _____    ______ ____
ROOT
ATOM      1  O   UNL     1       0.227   1.293  -1.390  0.00  0.00    -0.252 OA
ATOM      2  O   UNL     1      -1.510  -2.783   0.099  0.00  0.00    -0.269 OA
ATOM      3  N   UNL     1       1.655  -0.281  -0.452  0.00  0.00    -0.216 N 
ATOM      4  N   UNL     1      -0.694  -0.722  -0.668  0.00  0.00    -0.202 N 
ATOM      5  C   UNL     1       0.384   0.182  -0.876  0.00  0.00    +0.319 C 
ATOM      6  C   UNL     1       1.791  -1.536   0.123  0.00  0.00    +0.076 C 
ATOM      7  C   UNL     1       0.780  -2.380   0.318  0.00  0.00    +0.075 C 
ATOM      8  C   UNL     1      -0.586  -1.994  -0.089  0.00  0.00    +0.258 C 
ENDROOT
BRANCH   3  12
ATOM      9  O4* UNL     1       3.961  -0.328  -0.831  0.00  0.00    -0.333 OA
ATOM     10  C2* UNL     1       3.143   1.335   0.646  0.00  0.00    +0.187 C 
ATOM     11  C3* UNL     1       4.652   1.448   0.577  0.00  0.00    +0.171 C 
ATOM     12  C1* UNL     1       2.830   0.529  -0.603  0.00  0.00    +0.229 C 
ATOM     13  C4* UNL     1       5.048   0.085   0.026  0.00  0.00    +0.175 C 
BRANCH  10  14
ATOM     14  O2* UNL     1       2.511   2.599   0.649  0.00  0.00    -0.378 OA
ATOM     15  H2* UNL     1       2.741   3.073   1.464  0.00  0.00    +0.211 HD
ENDBRANCH  10  14
BRANCH  11  16
ATOM     16  O3* UNL     1       5.031   2.436  -0.380  0.00  0.00    -0.379 OA
ATOM     17  H3* UNL     1       4.788   3.316  -0.050  0.00  0.00    +0.211 HD
ENDBRANCH  11  16
BRANCH  13  18
ATOM     18  C5* UNL     1       5.228  -0.973   1.107  0.00  0.00    +0.169 C 
BRANCH  18  19
ATOM     19  O5* UNL     1       5.583  -2.197   0.488  0.00  0.00    -0.379 OA
ATOM     20  H5* UNL     1       5.701  -2.880   1.167  0.00  0.00    +0.211 HD
ENDBRANCH  18  19
ENDBRANCH  13  18
ENDBRANCH   3  12
BRANCH   4  21
ATOM     21  C   UNL     1      -2.021  -0.290  -1.092  0.00  0.00    +0.172 C 
BRANCH  21  23
ATOM     22  O   UNL     1      -2.063   1.063   0.900  0.00  0.00    -0.290 OA
ATOM     23  C   UNL     1      -2.694   0.425   0.061  0.00  0.00    +0.194 C 
BRANCH  23  24
ATOM     24  C   UNL     1      -4.180   0.385   0.150  0.00  0.00    +0.036 C 
ATOM     25  C   UNL     1      -4.911   0.293  -1.014  0.00  0.00    +0.003 C 
ATOM     26  C   UNL     1      -4.771   0.441   1.393  0.00  0.00    +0.003 C 
ATOM     27  C   UNL     1      -6.303   0.256  -0.931  0.00  0.00    +0.000 C 
ATOM     28  C   UNL     1      -6.163   0.403   1.476  0.00  0.00    +0.000 C 
ATOM     29  C   UNL     1      -6.929   0.310   0.314  0.00  0.00    +0.000 C 
ENDBRANCH  23  24
ENDBRANCH  21  23
ENDBRANCH   4  21
TORSDOF 8
