126839
  -OEChem-03292013323D

 51 52  0     1  0  0  0  0  0999 V2000
   -2.9341    0.1624    1.0119 O   0  0  0  0  0  0  0  0  0  0  0  0
   -1.1685    4.4437   -1.7592 O   0  0  0  0  0  0  0  0  0  0  0  0
   -2.7134   -5.1053   -0.5999 O   0  0  0  0  0  0  0  0  0  0  0  0
   -0.6780    3.8146    2.2531 O   0  0  0  0  0  0  0  0  0  0  0  0
   -0.2053    5.3611    0.6556 O   0  0  0  0  0  0  0  0  0  0  0  0
    0.3208   -0.5717    0.1314 N   0  0  3  0  0  0  0  0  0  0  0  0
    2.7400   -0.9025    0.2390 C   0  0  0  0  0  0  0  0  0  0  0  0
    1.4314   -1.2911   -0.4440 C   0  0  0  0  0  0  0  0  0  0  0  0
    3.9572   -1.6072   -0.3706 C   0  0  0  0  0  0  0  0  0  0  0  0
    5.2547   -1.1426    0.2957 C   0  0  0  0  0  0  0  0  0  0  0  0
   -0.4301   -1.1972    1.2216 C   0  0  0  0  0  0  0  0  0  0  0  0
   -0.0537    0.6948   -0.3401 C   0  0  0  0  0  0  0  0  0  0  0  0
    6.5073   -1.7926   -0.2958 C   0  0  0  0  0  0  0  0  0  0  0  0
   -1.6763   -1.8532    0.6949 C   0  0  0  0  0  0  0  0  0  0  0  0
   -0.0542    1.7970    0.5214 C   0  0  0  0  0  0  0  0  0  0  0  0
   -0.4301    0.8668   -1.6764 C   0  0  0  0  0  0  0  0  0  0  0  0
    7.8033   -1.2819    0.3147 C   0  0  0  0  0  0  0  0  0  0  0  0
   -2.8661   -1.1396    0.6164 C   0  0  0  0  0  0  0  0  0  0  0  0
   -1.6164   -3.1814    0.2904 C   0  0  0  0  0  0  0  0  0  0  0  0
   -0.4270    3.0566    0.0521 C   0  0  0  0  0  0  0  0  0  0  0  0
   -0.8027    2.1263   -2.1457 C   0  0  0  0  0  0  0  0  0  0  0  0
   -0.8011    3.2212   -1.2814 C   0  0  0  0  0  0  0  0  0  0  0  0
   -2.7637   -3.8053   -0.1999 C   0  0  0  0  0  0  0  0  0  0  0  0
   -4.0133   -1.7635    0.1262 C   0  0  0  0  0  0  0  0  0  0  0  0
   -3.9621   -3.0964   -0.2820 C   0  0  0  0  0  0  0  0  0  0  0  0
   -0.4185    4.1869    0.9705 C   0  0  0  0  0  0  0  0  0  0  0  0
    2.6812   -1.1364    1.3095 H   0  0  0  0  0  0  0  0  0  0  0  0
    2.8813    0.1835    0.1664 H   0  0  0  0  0  0  0  0  0  0  0  0
    1.2832   -2.3731   -0.3436 H   0  0  0  0  0  0  0  0  0  0  0  0
    1.5091   -1.1041   -1.5219 H   0  0  0  0  0  0  0  0  0  0  0  0
    3.8507   -2.6925   -0.2567 H   0  0  0  0  0  0  0  0  0  0  0  0
    4.0031   -1.3960   -1.4457 H   0  0  0  0  0  0  0  0  0  0  0  0
    5.2104   -1.3602    1.3701 H   0  0  0  0  0  0  0  0  0  0  0  0
    5.3393   -0.0530    0.1970 H   0  0  0  0  0  0  0  0  0  0  0  0
    0.1922   -1.9484    1.7269 H   0  0  0  0  0  0  0  0  0  0  0  0
   -0.6737   -0.4764    2.0121 H   0  0  0  0  0  0  0  0  0  0  0  0
    6.4517   -2.8788   -0.1573 H   0  0  0  0  0  0  0  0  0  0  0  0
    6.5339   -1.6115   -1.3770 H   0  0  0  0  0  0  0  0  0  0  0  0
    0.2635    1.6611    1.5529 H   0  0  0  0  0  0  0  0  0  0  0  0
   -0.4482    0.0233   -2.3620 H   0  0  0  0  0  0  0  0  0  0  0  0
    7.9108   -0.2041    0.1573 H   0  0  0  0  0  0  0  0  0  0  0  0
    7.8298   -1.4762    1.3916 H   0  0  0  0  0  0  0  0  0  0  0  0
    8.6626   -1.7812   -0.1436 H   0  0  0  0  0  0  0  0  0  0  0  0
   -0.6874   -3.7418    0.3532 H   0  0  0  0  0  0  0  0  0  0  0  0
   -1.0945    2.2394   -3.1865 H   0  0  0  0  0  0  0  0  0  0  0  0
   -4.9536   -1.2231    0.0568 H   0  0  0  0  0  0  0  0  0  0  0  0
   -4.8628   -3.5708   -0.6624 H   0  0  0  0  0  0  0  0  0  0  0  0
   -3.8401    0.4889    0.8762 H   0  0  0  0  0  0  0  0  0  0  0  0
   -1.3932    4.3620   -2.7020 H   0  0  0  0  0  0  0  0  0  0  0  0
   -3.5952   -5.3737   -0.9104 H   0  0  0  0  0  0  0  0  0  0  0  0
   -0.6705    4.5817    2.8646 H   0  0  0  0  0  0  0  0  0  0  0  0
  1 18  1  0  0  0  0
  1 48  1  0  0  0  0
  2 22  1  0  0  0  0
  2 49  1  0  0  0  0
  3 23  1  0  0  0  0
  3 50  1  0  0  0  0
  4 26  1  0  0  0  0
  4 51  1  0  0  0  0
  5 26  2  0  0  0  0
  6  8  1  0  0  0  0
  6 11  1  0  0  0  0
  6 12  1  0  0  0  0
  7  8  1  0  0  0  0
  7  9  1  0  0  0  0
  7 27  1  0  0  0  0
  7 28  1  0  0  0  0
  8 29  1  0  0  0  0
  8 30  1  0  0  0  0
  9 10  1  0  0  0  0
  9 31  1  0  0  0  0
  9 32  1  0  0  0  0
 10 13  1  0  0  0  0
 10 33  1  0  0  0  0
 10 34  1  0  0  0  0
 11 14  1  0  0  0  0
 11 35  1  0  0  0  0
 11 36  1  0  0  0  0
 12 15  2  0  0  0  0
 12 16  1  0  0  0  0
 13 17  1  0  0  0  0
 13 37  1  0  0  0  0
 13 38  1  0  0  0  0
 14 18  2  0  0  0  0
 14 19  1  0  0  0  0
 15 20  1  0  0  0  0
 15 39  1  0  0  0  0
 16 21  2  0  0  0  0
 16 40  1  0  0  0  0
 17 41  1  0  0  0  0
 17 42  1  0  0  0  0
 17 43  1  0  0  0  0
 18 24  1  0  0  0  0
 19 23  2  0  0  0  0
 19 44  1  0  0  0  0
 20 22  2  0  0  0  0
 20 26  1  0  0  0  0
 21 22  1  0  0  0  0
 21 45  1  0  0  0  0
 23 25  1  0  0  0  0
 24 25  2  0  0  0  0
 24 46  1  0  0  0  0
 25 47  1  0  0  0  0
M  END
> <PUBCHEM_COMPOUND_CID>
126839

> <PUBCHEM_CONFORMER_RMSD>
1

> <PUBCHEM_CONFORMER_DIVERSEORDER>
2
182
253
55
214
124
255
187
137
204
79
230
52
193
177
223
188
47
127
148
131
72
135
242
171
119
43
213
157
76
60
244
102
145
234
175
92
81
132
219
159
197
68
144
162
224
161
205
151
185
220
82
90
33
173
10
34
186
146
74
39
202
105
154
238
21
194
160
22
167
113
156
100
247
138
28
126
85
111
233
66
216
128
168
215
71
18
212
226
115
26
117
73
101
211
218
121
180
172
42
209
91
5
40
139
178
189
207
108
106
104
46
94
183
248
246
109
221
153
179
89
50
217
143
53
31
1
122
165
29
155
69
41
237
250
56
12
208
99
236
24
134
118
222
4
48
252
96
176
17
232
181
6
129
38
251
147
136
229
75
13
88
93
110
133
32
150
70
190
78
195
59
120
192
166
25
114
235
9
140
225
123
98
58
174
228
231
44
191
203
54
245
67
7
80
57
83
130
125
65
97
112
23
200
11
20
45
16
254
184
95
87
86
239
27
84
15
152
116
149
199
107
61
8
63
103
49
201
243
249
210
64
19
37
158
170
164
30
14
141
3
227
142
62
35
206
169
77
36
198
51
241
196
240
163

> <PUBCHEM_MMFF94_PARTIAL_CHARGES>
31
1 -0.53
11 0.51
12 0.1
14 -0.14
15 -0.15
16 -0.15
18 0.08
19 -0.15
2 -0.53
20 0.09
21 -0.15
22 0.08
23 0.08
24 -0.15
25 -0.15
26 0.63
3 -0.53
39 0.15
4 -0.65
40 0.15
44 0.15
45 0.15
46 0.15
47 0.15
48 0.45
49 0.45
5 -0.57
50 0.45
51 0.5
6 -0.84
8 0.37

> <PUBCHEM_EFFECTIVE_ROTOR_COUNT>
9

> <PUBCHEM_PHARMACOPHORE_FEATURES>
11
1 1 donor
1 17 hydrophobe
1 2 donor
1 3 donor
1 4 acceptor
1 5 acceptor
1 6 cation
3 4 5 26 anion
4 7 9 10 13 hydrophobe
6 12 15 16 20 21 22 rings
6 14 18 19 23 24 25 rings

> <PUBCHEM_HEAVY_ATOM_COUNT>
26

> <PUBCHEM_ATOM_DEF_STEREO_COUNT>
0

> <PUBCHEM_ATOM_UDEF_STEREO_COUNT>
0

> <PUBCHEM_BOND_DEF_STEREO_COUNT>
0

> <PUBCHEM_BOND_UDEF_STEREO_COUNT>
0

> <PUBCHEM_ISOTOPIC_ATOM_COUNT>
0

> <PUBCHEM_COMPONENT_COUNT>
1

> <PUBCHEM_CACTVS_TAUTO_COUNT>
25

> <PUBCHEM_CONFORMER_ID>
0001EF7700000002

> <PUBCHEM_MMFF94_ENERGY>
75.1029

> <PUBCHEM_FEATURE_SELFOVERLAP>
55.877

> <PUBCHEM_SHAPE_FINGERPRINT>
10319688 45 18411414051365894478
11056379 131 18339652123008180350
11069576 57 17190641898372027615
11101153 10 18187939425938360660
12160290 23 17973191463905300598
12788726 201 18188199914945902834
13540713 5 17625835129824284643
14068700 675 18186798119646697686
14713325 29 18270399357214783138
15230672 131 17472720031174866190
17980427 23 17916877940438523991
20238998 120 18412261774302563995
20600515 1 18130244721095474115
20771845 65 18127695044173453123
21304303 172 18272093790427037147
22956985 138 17833546074238489682
23559900 14 18054779856925418763
23929065 36 18265314172029376898
255183 313 18123488097646541001
283562 15 18261393300200310418
4409770 3 18262510382296181487
57527585 103 18128230356101794680
59755656 520 17907305351831011690
81228 2 18116454564803137514

> <PUBCHEM_SHAPE_MULTIPOLES>
500.74
9.79
7.36
1.45
29.88
6.41
-0.23
-13.35
0.48
-7.9
0.04
-0.69
1.74
0.11

> <PUBCHEM_SHAPE_SELFOVERLAP>
1047.538

> <PUBCHEM_SHAPE_VOLUME>
283.6

> <PUBCHEM_COORDINATE_TYPE>
2
5
10

$$$$
