REMARK  Name = 126821
REMARK  3 active torsions:
REMARK  status: ('A' for Active; 'I' for Inactive)
REMARK    1  A    between atoms: C_3  and  N_13
REMARK    2  A    between atoms: C_4  and  O_22
REMARK    3  A    between atoms: C_11  and  N_21
REMARK                            x       y       z     vdW  Elec       q    Type
REMARK                         _______ _______ _______ _____ _____    ______ ____
ROOT
ATOM      1  S   UNL     1       1.228  -1.294   0.607  0.00  0.00    -0.063 S 
ATOM      2  O   UNL     1       1.109   2.447  -0.402  0.00  0.00    -0.480 OA
ATOM      3  C   UNL     1      -0.957   0.497   0.514  0.00  0.00    +0.137 C 
ATOM      4  C   UNL     1      -1.304   1.820  -0.193  0.00  0.00    +0.170 C 
ATOM      5  C   UNL     1      -0.199   2.892   0.036  0.00  0.00    +0.160 C 
ATOM      6  C   UNL     1       0.495   0.217   0.296  0.00  0.00    +0.063 C 
ATOM      7  C   UNL     1       1.417   1.154  -0.118  0.00  0.00    +0.144 C 
ATOM      8  C   UNL     1      -0.491   4.154  -0.794  0.00  0.00    +0.046 C 
ATOM      9  C   UNL     1      -0.108   3.311   1.515  0.00  0.00    +0.046 C 
ATOM     10  C   UNL     1       2.725   0.615  -0.246  0.00  0.00    +0.068 C 
ATOM     11  C   UNL     1       2.764  -0.714   0.119  0.00  0.00    +0.175 C 
ENDROOT
BRANCH   3  13
ATOM     12  O   UNL     1      -3.479  -0.319   1.635  0.00  0.00    -0.275 OA
ATOM     13  N   UNL     1      -1.790  -0.598   0.048  0.00  0.00    -0.274 N 
ATOM     14  C   UNL     1      -1.400  -1.288  -1.175  0.00  0.00    +0.094 C 
ATOM     15  C   UNL     1      -1.541  -2.797  -1.023  0.00  0.00    +0.022 C 
ATOM     16  C   UNL     1      -3.006  -0.902   0.662  0.00  0.00    +0.226 C 
ATOM     17  C   UNL     1      -2.829  -3.206  -0.306  0.00  0.00    +0.011 C 
ATOM     18  C   UNL     1      -3.755  -2.030  -0.020  0.00  0.00    +0.085 C 
ENDBRANCH   3  13
BRANCH  11  21
ATOM     19  O   UNL     1       4.998  -1.160  -0.208  0.00  0.00    -0.126 OA
ATOM     20  O   UNL     1       3.698  -2.780   0.509  0.00  0.00    -0.126 OA
ATOM     21  N   UNL     1       3.863  -1.585   0.141  0.00  0.00    +0.064 N 
ENDBRANCH  11  21
BRANCH   4  22
ATOM     22  O   UNL     1      -1.439   1.564  -1.597  0.00  0.00    -0.379 OA
ATOM     23  H   UNL     1      -2.128   0.896  -1.739  0.00  0.00    +0.211 HD
ENDBRANCH   4  22
TORSDOF 3
