REMARK  Name = 126866
REMARK  3 active torsions:
REMARK  status: ('A' for Active; 'I' for Inactive)
REMARK    1  A    between atoms: C_3  and  C_9
REMARK    2  A    between atoms: N_8  and  N_12
REMARK    3  A    between atoms: N_13  and  N_16
REMARK                            x       y       z     vdW  Elec       q    Type
REMARK                         _______ _______ _______ _____ _____    ______ ____
ROOT
ATOM      1  N   UNL     1      -0.033   2.104   0.180  0.00  0.00    -0.238 NA
ATOM      2  N   UNL     1       1.979   1.542  -0.572  0.00  0.00    -0.239 NA
ATOM      3  C   UNL     1       0.092   0.773   0.343  0.00  0.00    +0.194 C 
ATOM      4  C   UNL     1       1.318   0.429  -0.116  0.00  0.00    +0.150 C 
ATOM      5  C   UNL     1       1.137   2.534  -0.380  0.00  0.00    +0.203 C 
ATOM      6  C   UNL     1      -1.161   2.941   0.518  0.00  0.00    +0.092 C 
ATOM      7  N   UNL     1       1.867  -0.805  -0.146  0.00  0.00    -0.160 N 
ATOM      8  C   UNL     1       3.243  -1.006  -0.691  0.00  0.00    +0.144 C 
ENDROOT
BRANCH   3  11
ATOM      9  O   UNL     1      -0.985  -0.283   2.133  0.00  0.00    -0.272 OA
ATOM     10  N   UNL     1      -1.881  -0.653   0.034  0.00  0.00    -0.176 N 
ATOM     11  C   UNL     1      -0.943  -0.086   0.916  0.00  0.00    +0.264 C 
ATOM     12  C   UNL     1      -2.958  -1.509   0.514  0.00  0.00    +0.139 C 
BRANCH  10  14
ATOM     13  O   UNL     1      -2.716  -0.859  -2.084  0.00  0.00    -0.079 OA
ATOM     14  N   UNL     1      -1.842  -0.297  -1.415  0.00  0.00    +0.053 NA
ENDBRANCH  10  14
ENDBRANCH   3  11
BRANCH   7  16
ATOM     15  O   UNL     1       1.716  -2.965   0.354  0.00  0.00    -0.126 OA
ATOM     16  N   UNL     1       1.166  -1.859   0.411  0.00  0.00    +0.051 NA
ENDBRANCH   7  16
TORSDOF 3
