126821
  -OEChem-03292013323D

 40 42  0     1  0  0  0  0  0999 V2000
    1.2282   -1.2935    0.6074 S   0  0  0  0  0  0  0  0  0  0  0  0
    1.1094    2.4473   -0.4015 O   0  0  0  0  0  0  0  0  0  0  0  0
   -1.4394    1.5636   -1.5969 O   0  0  0  0  0  0  0  0  0  0  0  0
   -3.4794   -0.3191    1.6351 O   0  0  0  0  0  0  0  0  0  0  0  0
    4.9983   -1.1596   -0.2081 O   0  5  0  0  0  0  0  0  0  0  0  0
    3.6983   -2.7804    0.5092 O   0  0  0  0  0  0  0  0  0  0  0  0
   -1.7902   -0.5983    0.0483 N   0  0  0  0  0  0  0  0  0  0  0  0
    3.8627   -1.5849    0.1408 N   0  3  0  0  0  0  0  0  0  0  0  0
   -0.9568    0.4969    0.5138 C   0  0  2  0  0  0  0  0  0  0  0  0
   -1.3043    1.8198   -0.1930 C   0  0  1  0  0  0  0  0  0  0  0  0
   -0.1986    2.8921    0.0357 C   0  0  0  0  0  0  0  0  0  0  0  0
    0.4951    0.2174    0.2964 C   0  0  0  0  0  0  0  0  0  0  0  0
   -1.3999   -1.2875   -1.1753 C   0  0  0  0  0  0  0  0  0  0  0  0
   -1.5408   -2.7967   -1.0232 C   0  0  0  0  0  0  0  0  0  0  0  0
    1.4172    1.1543   -0.1178 C   0  0  0  0  0  0  0  0  0  0  0  0
   -3.0056   -0.9021    0.6617 C   0  0  0  0  0  0  0  0  0  0  0  0
   -0.4908    4.1545   -0.7945 C   0  0  0  0  0  0  0  0  0  0  0  0
   -0.1077    3.3114    1.5148 C   0  0  0  0  0  0  0  0  0  0  0  0
   -2.8294   -3.2057   -0.3058 C   0  0  0  0  0  0  0  0  0  0  0  0
   -3.7553   -2.0304   -0.0197 C   0  0  0  0  0  0  0  0  0  0  0  0
    2.7246    0.6146   -0.2459 C   0  0  0  0  0  0  0  0  0  0  0  0
    2.7642   -0.7135    0.1186 C   0  0  0  0  0  0  0  0  0  0  0  0
   -1.1261    0.6224    1.5909 H   0  0  0  0  0  0  0  0  0  0  0  0
   -2.2735    2.1951    0.1589 H   0  0  0  0  0  0  0  0  0  0  0  0
   -0.4235   -1.0170   -1.5807 H   0  0  0  0  0  0  0  0  0  0  0  0
   -2.1171   -0.9723   -1.9454 H   0  0  0  0  0  0  0  0  0  0  0  0
   -0.6916   -3.2143   -0.4727 H   0  0  0  0  0  0  0  0  0  0  0  0
   -1.5091   -3.2605   -2.0166 H   0  0  0  0  0  0  0  0  0  0  0  0
    0.2732    4.9218   -0.6220 H   0  0  0  0  0  0  0  0  0  0  0  0
   -0.4634    3.9381   -1.8683 H   0  0  0  0  0  0  0  0  0  0  0  0
   -1.4697    4.5792   -0.5491 H   0  0  0  0  0  0  0  0  0  0  0  0
   -1.0660    3.6959    1.8793 H   0  0  0  0  0  0  0  0  0  0  0  0
    0.1989    2.4837    2.1620 H   0  0  0  0  0  0  0  0  0  0  0  0
    0.6513    4.0911    1.6493 H   0  0  0  0  0  0  0  0  0  0  0  0
   -2.5600   -3.6837    0.6451 H   0  0  0  0  0  0  0  0  0  0  0  0
   -3.3599   -3.9651   -0.8914 H   0  0  0  0  0  0  0  0  0  0  0  0
   -4.5735   -2.3562    0.6318 H   0  0  0  0  0  0  0  0  0  0  0  0
   -4.2009   -1.6455   -0.9439 H   0  0  0  0  0  0  0  0  0  0  0  0
   -2.3249    1.1865   -1.7342 H   0  0  0  0  0  0  0  0  0  0  0  0
    3.5881    1.1787   -0.5767 H   0  0  0  0  0  0  0  0  0  0  0  0
  1 12  1  0  0  0  0
  1 22  1  0  0  0  0
  2 11  1  0  0  0  0
  2 15  1  0  0  0  0
  3 10  1  0  0  0  0
  3 39  1  0  0  0  0
  4 16  2  0  0  0  0
  5  8  1  0  0  0  0
  6  8  2  0  0  0  0
  7  9  1  0  0  0  0
  7 13  1  0  0  0  0
  7 16  1  0  0  0  0
  8 22  1  0  0  0  0
  9 10  1  0  0  0  0
  9 12  1  0  0  0  0
  9 23  1  0  0  0  0
 10 11  1  0  0  0  0
 10 24  1  0  0  0  0
 11 17  1  0  0  0  0
 11 18  1  0  0  0  0
 12 15  2  0  0  0  0
 13 14  1  0  0  0  0
 13 25  1  0  0  0  0
 13 26  1  0  0  0  0
 14 19  1  0  0  0  0
 14 27  1  0  0  0  0
 14 28  1  0  0  0  0
 15 21  1  0  0  0  0
 16 20  1  0  0  0  0
 17 29  1  0  0  0  0
 17 30  1  0  0  0  0
 17 31  1  0  0  0  0
 18 32  1  0  0  0  0
 18 33  1  0  0  0  0
 18 34  1  0  0  0  0
 19 20  1  0  0  0  0
 19 35  1  0  0  0  0
 19 36  1  0  0  0  0
 20 37  1  0  0  0  0
 20 38  1  0  0  0  0
 21 22  2  0  0  0  0
 21 40  1  0  0  0  0
M  CHG  2   5  -1   8   1
M  END
> <PUBCHEM_COMPOUND_CID>
126821

> <PUBCHEM_CONFORMER_RMSD>
0.6

> <PUBCHEM_CONFORMER_DIVERSEORDER>
1
2
3
4

> <PUBCHEM_MMFF94_PARTIAL_CHARGES>
20
1 -0.08
10 0.28
11 0.28
12 -0.14
13 0.3
15 0.06
16 0.57
2 -0.34
20 0.06
21 -0.15
22 0.12
3 -0.68
39 0.4
4 -0.57
40 0.15
5 -0.52
6 -0.52
7 -0.66
8 0.96
9 0.48

> <PUBCHEM_EFFECTIVE_ROTOR_COUNT>
3.8

> <PUBCHEM_PHARMACOPHORE_FEATURES>
11
1 2 acceptor
1 3 acceptor
1 3 donor
1 4 acceptor
1 5 acceptor
1 5 anion
1 6 acceptor
3 11 17 18 hydrophobe
5 1 12 15 21 22 rings
6 2 9 10 11 12 15 rings
6 7 13 14 16 19 20 rings

> <PUBCHEM_HEAVY_ATOM_COUNT>
22

> <PUBCHEM_ATOM_DEF_STEREO_COUNT>
2

> <PUBCHEM_ATOM_UDEF_STEREO_COUNT>
0

> <PUBCHEM_BOND_DEF_STEREO_COUNT>
0

> <PUBCHEM_BOND_UDEF_STEREO_COUNT>
0

> <PUBCHEM_ISOTOPIC_ATOM_COUNT>
0

> <PUBCHEM_COMPONENT_COUNT>
1

> <PUBCHEM_CACTVS_TAUTO_COUNT>
1

> <PUBCHEM_CONFORMER_ID>
0001EF6500000001

> <PUBCHEM_MMFF94_ENERGY>
62.6727

> <PUBCHEM_FEATURE_SELFOVERLAP>
55.976

> <PUBCHEM_SHAPE_FINGERPRINT>
10967382 1 18121780792443596322
11069576 57 17194017373209656711
11578080 2 17987777718398790153
12507560 14 18343869926667999859
12553582 1 18410290337227854458
12643181 29 17403179197799108246
12788726 201 18189330182543951906
13004483 165 18337662036372263298
13009979 54 17916037921875923187
13140716 1 18341611494971200688
13533116 47 17908143523421454339
138480 1 15312376309636734772
14081887 123 18268688568703750426
14178342 30 17766831006914816331
14787075 74 18189896594910744464
14790565 3 17979075976891494893
14844126 61 18191852436765030890
14863182 85 16965764321703167807
15042514 8 18338799987899309563
15442244 35 18269843180245452643
15490181 8 17329702120493056089
16945 1 18121781904861510805
17492 89 17979355588390456315
1813 80 18340785817483911438
19591789 44 17331406371916366643
20291156 8 18410855490472949450
20600515 1 17988095429903501457
20645477 70 17759224581648906047
20775438 99 17332188499016148295
21452121 199 18263346135940407456
21634736 98 17981048827168583615
221490 88 17902797692763818491
22445834 79 17981613976619786599
2255824 54 17760366990845252596
22907989 373 18191031114279062516
23419403 2 16962320466590979404
23557571 272 18271528611564911206
23559900 14 17907569577997723419
23566358 27 17832715934232577087
23598288 3 18044651993006851874
23598291 2 18127424559795908855
23728640 28 17905594515516500450
257057 1 18411411847577445544
2748010 2 18338216241761895604
3091708 16 9280204156638695120
352729 6 17835238944087786016
4409770 3 18192142707644391461
458136 41 17399245634081250761
474 4 17399795394385596569
6992083 37 18271261477178124947
7097593 13 18198632231509258627
7364860 26 17838335533708482249
81228 2 18267565936655278384
84936 182 17407968051377408073
90316 7 18411983533404793187
9709674 26 17909825440977227286

> <PUBCHEM_SHAPE_MULTIPOLES>
417.29
6.05
4.68
1.13
0.65
2.9
0.06
-7.08
0.52
1.71
-0.39
-0.57
0.45
-0.56

> <PUBCHEM_SHAPE_SELFOVERLAP>
881.547

> <PUBCHEM_SHAPE_VOLUME>
235.8

> <PUBCHEM_COORDINATE_TYPE>
2
5
10

$$$$
