REMARK  Name = 126837
REMARK  6 active torsions:
REMARK  status: ('A' for Active; 'I' for Inactive)
REMARK    1  A    between atoms: C_2  and  O_13
REMARK    2  A    between atoms: C_3  and  O_15
REMARK    3  A    between atoms: C_4  and  C_17
REMARK    4  A    between atoms: C_5  and  C_8
REMARK    5  A    between atoms: C_9  and  C_12
REMARK    6  A    between atoms: C_17  and  O_18
REMARK                            x       y       z     vdW  Elec       q    Type
REMARK                         _______ _______ _______ _____ _____    ______ ____
ROOT
ATOM      1  O   UNL     1      -1.188   0.564  -1.014  0.00  0.00    -0.343 OA
ATOM      2  C   UNL     1      -2.840  -0.204   0.519  0.00  0.00    +0.170 C 
ATOM      3  C   UNL     1      -1.540  -0.940   0.780  0.00  0.00    +0.174 C 
ATOM      4  C   UNL     1      -2.382   0.987  -0.316  0.00  0.00    +0.174 C 
ATOM      5  C   UNL     1      -0.791  -0.735  -0.528  0.00  0.00    +0.202 C 
ENDROOT
BRANCH   5   8
ATOM      6  S   UNL     1       1.549  -2.241  -0.653  0.00  0.00    -0.076 S 
ATOM      7  N   UNL     1       1.452   0.271  -0.049  0.00  0.00    -0.391 NA
ATOM      8  C   UNL     1       0.711  -0.766  -0.379  0.00  0.00    +0.165 C 
ATOM      9  C   UNL     1       2.777  -0.119  -0.007  0.00  0.00    +0.188 C 
ATOM     10  C   UNL     1       3.026  -1.442  -0.305  0.00  0.00    +0.134 C 
BRANCH   9  12
ATOM     11  N   UNL     1       4.576   1.641   0.610  0.00  0.00    -0.188 NA
ATOM     12  C   UNL     1       3.765   0.848   0.332  0.00  0.00    +0.129 C 
ENDBRANCH   9  12
ENDBRANCH   5   8
BRANCH   2  13
ATOM     13  O   UNL     1      -3.733  -1.007  -0.252  0.00  0.00    -0.379 OA
ATOM     14  H   UNL     1      -4.026  -1.765   0.278  0.00  0.00    +0.211 HD
ENDBRANCH   2  13
BRANCH   3  15
ATOM     15  O   UNL     1      -1.731  -2.311   1.067  0.00  0.00    -0.379 OA
ATOM     16  H   UNL     1      -2.210  -2.401   1.906  0.00  0.00    +0.211 HD
ENDBRANCH   3  15
BRANCH   4  17
ATOM     17  C   UNL     1      -2.036   2.205   0.528  0.00  0.00    +0.169 C 
BRANCH  17  18
ATOM     18  O   UNL     1      -1.614   3.248  -0.333  0.00  0.00    -0.379 OA
ATOM     19  H   UNL     1      -1.390   4.032   0.194  0.00  0.00    +0.211 HD
ENDBRANCH  17  18
ENDBRANCH   4  17
TORSDOF 6
