REMARK  Name = 126896
REMARK  1 active torsions:
REMARK  status: ('A' for Active; 'I' for Inactive)
REMARK    1  A    between atoms: C_5  and  C_15
REMARK                            x       y       z     vdW  Elec       q    Type
REMARK                         _______ _______ _______ _____ _____    ______ ____
ROOT
ATOM      1 BR   UNL     1       3.286  -2.578   0.201  0.00  0.00    -0.010 Br
ATOM      2  N   UNL     1       1.002  -1.015   0.398  0.00  0.00    -0.383 NA
ATOM      3  N   UNL     1       2.248   1.411  -0.260  0.00  0.00    -0.367 NA
ATOM      4  N   UNL     1       4.314   0.283  -0.486  0.00  0.00    -0.330 N 
ATOM      5  C   UNL     1       0.342   0.147   0.336  0.00  0.00    +0.229 C 
ATOM      6  C   UNL     1       0.931   1.337   0.017  0.00  0.00    +0.213 C 
ATOM      7  C   UNL     1       2.931   0.250  -0.202  0.00  0.00    +0.215 C 
ATOM      8  C   UNL     1       2.319  -0.941   0.121  0.00  0.00    +0.209 C 
ATOM      9  H   UNL     1       4.749   1.135  -0.717  0.00  0.00    +0.145 HD
ATOM     10  H   UNL     1       4.843  -0.547  -0.453  0.00  0.00    +0.145 HD
ATOM     11  N   UNL     1       0.160   2.521  -0.027  0.00  0.00    -0.331 N 
ATOM     12  H   UNL     1       0.587   3.378  -0.257  0.00  0.00    +0.145 HD
ATOM     13  H   UNL     1      -0.803   2.488   0.172  0.00  0.00    +0.145 HD
ENDROOT
BRANCH   5  18
ATOM     14  O   UNL     1      -1.435   0.181   1.819  0.00  0.00    -0.267 OA
ATOM     15  N   UNL     1      -1.996  -0.206  -0.428  0.00  0.00    -0.223 N 
ATOM     16  N   UNL     1      -3.897  -0.209   1.075  0.00  0.00    -0.371 N 
ATOM     17  N   UNL     1      -4.197  -0.550  -1.204  0.00  0.00    -0.270 NA
ATOM     18  C   UNL     1      -1.100   0.044   0.643  0.00  0.00    +0.289 C 
ATOM     19  C   UNL     1      -1.509  -0.355  -1.799  0.00  0.00    +0.123 C 
ATOM     20  C   UNL     1      -3.397  -0.320  -0.202  0.00  0.00    +0.189 C 
ATOM     21  H   UNL     1      -3.288  -0.035   1.828  0.00  0.00    +0.159 HD
ATOM     22  H   UNL     1      -4.864  -0.305   1.234  0.00  0.00    +0.159 HD
ATOM     23  H   UNL     1      -3.834  -0.628  -2.116  0.00  0.00    +0.190 HD
ENDBRANCH   5  18
TORSDOF 1
