REMARK  Name = 126843426
REMARK  2 active torsions:
REMARK  status: ('A' for Active; 'I' for Inactive)
REMARK    1  A    between atoms: CA_17  and  CB_29
REMARK    2  A    between atoms: CB_29  and  CG_30
REMARK                            x       y       z     vdW  Elec       q    Type
REMARK                         _______ _______ _______ _____ _____    ______ ____
ROOT
ATOM      1  O   PRO A   1       0.339  -0.806  -1.240  0.00  0.00    -0.273 OA
ATOM      2  O   GLY A   5      -1.919  -1.012   1.770  0.00  0.00    -0.273 OA
ATOM      3  O   PHE A   2       0.518   2.443   1.933  0.00  0.00    -0.273 OA
ATOM      4  O   ALA A   4      -3.485  -0.351  -1.875  0.00  0.00    -0.273 OA
ATOM      5  O   GLY A   3      -2.618   2.019   1.445  0.00  0.00    -0.273 OA
ATOM      6  N   PRO A   1      -1.098  -2.618   0.339  0.00  0.00    -0.272 N 
ATOM      7  N   PHE A   2       1.366  -0.167   0.741  0.00  0.00    -0.297 N 
ATOM      8  N   GLY A   5      -4.157  -0.842   0.294  0.00  0.00    -0.295 N 
ATOM      9  N   GLY A   3      -0.208   2.443  -0.271  0.00  0.00    -0.295 N 
ATOM     10  N   ALA A   4      -3.409   2.247  -0.728  0.00  0.00    -0.297 N 
ATOM     11  CA  PRO A   1       0.309  -2.345   0.625  0.00  0.00    +0.152 C 
ATOM     12  CB  PRO A   1       1.076  -3.513  -0.002  0.00  0.00    +0.031 C 
ATOM     13  CG  PRO A   1       0.029  -4.610  -0.144  0.00  0.00    +0.024 C 
ATOM     14  CD  PRO A   1      -1.248  -3.841  -0.439  0.00  0.00    +0.094 C 
ATOM     15  C   PRO A   1       0.661  -1.037  -0.076  0.00  0.00    +0.241 C 
ATOM     16  C   GLY A   5      -2.116  -1.869   0.905  0.00  0.00    +0.246 C 
ATOM     17  CA  PHE A   2       1.768   1.163   0.307  0.00  0.00    +0.153 C 
ATOM     18  CA  GLY A   5      -3.514  -2.139   0.378  0.00  0.00    +0.176 C 
ATOM     19  C   PHE A   2       0.655   2.101   0.760  0.00  0.00    +0.241 C 
ATOM     20  CA  ALA A   4      -4.569   1.378  -0.584  0.00  0.00    +0.149 C 
ATOM     21  C   ALA A   4      -4.033  -0.026  -0.823  0.00  0.00    +0.241 C 
ATOM     22  CA  GLY A   3      -1.340   3.332  -0.102  0.00  0.00    +0.176 C 
ATOM     23  C   GLY A   3      -2.524   2.489   0.313  0.00  0.00    +0.243 C 
ATOM     24  CB  ALA A   4      -5.646   1.719  -1.601  0.00  0.00    +0.031 C 
ATOM     25  H   PHE A   2       1.605  -0.460   1.650  0.00  0.00    +0.150 HD
ATOM     26  H   GLY A   5      -4.699  -0.529   1.053  0.00  0.00    +0.150 HD
ATOM     27  H   GLY A   3      -0.042   2.062  -1.164  0.00  0.00    +0.150 HD
ATOM     28  H   ALA A   4      -3.246   2.678  -1.598  0.00  0.00    +0.150 HD
ENDROOT
BRANCH  17  29
ATOM     29  CB  PHE A   2       3.099   1.555   0.935  0.00  0.00    +0.055 C 
BRANCH  29  30
ATOM     30  CG  PHE A   2       4.264   0.946   0.202  0.00  0.00    -0.020 C 
ATOM     31  CD1 PHE A   2       4.750  -0.305   0.582  0.00  0.00    -0.004 C 
ATOM     32  CD2 PHE A   2       4.858   1.632  -0.857  0.00  0.00    -0.004 C 
ATOM     33  CE1 PHE A   2       5.830  -0.870  -0.097  0.00  0.00    -0.000 C 
ATOM     34  CE2 PHE A   2       5.938   1.068  -1.536  0.00  0.00    -0.000 C 
ATOM     35  CZ  PHE A   2       6.424  -0.183  -1.156  0.00  0.00    -0.000 C 
ENDBRANCH  29  30
ENDBRANCH  17  29
TORSDOF 2
