REMARK  Name = 126893
REMARK  6 active torsions:
REMARK  status: ('A' for Active; 'I' for Inactive)
REMARK    1  A    between atoms: N_2  and  C_12
REMARK    2  A    between atoms: C_3  and  C_5
REMARK    3  A    between atoms: C_5  and  N_8
REMARK    4  A    between atoms: C_12  and  C_13
REMARK    5  A    between atoms: C_18  and  O_19
REMARK    6  A    between atoms: O_19  and  N_22
REMARK                            x       y       z     vdW  Elec       q    Type
REMARK                         _______ _______ _______ _____ _____    ______ ____
ROOT
ATOM      1  O   UNL     1       3.090   1.119  -1.385  0.00  0.00    -0.277 OA
ATOM      2  N   UNL     1       2.331   0.535   0.720  0.00  0.00    -0.306 N 
ATOM      3  C   UNL     1       3.220   0.462  -0.353  0.00  0.00    +0.203 C 
ATOM      4  H   UNL     1       2.506  -0.024   1.511  0.00  0.00    +0.149 HD
ENDROOT
BRANCH   3   5
ATOM      5  C   UNL     1       4.390  -0.516  -0.134  0.00  0.00    +0.022 C 
ATOM      6  C   UNL     1       3.880  -1.941   0.098  0.00  0.00    -0.013 C 
ATOM      7  C   UNL     1       5.278  -0.056   1.027  0.00  0.00    -0.013 C 
BRANCH   5   8
ATOM      8  N   UNL     1       5.204  -0.517  -1.356  0.00  0.00    +0.388 N 
ATOM      9  H   UNL     1       4.633  -0.821  -2.145  0.00  0.00    -0.088 HD
ATOM     10  H   UNL     1       5.991  -1.156  -1.240  0.00  0.00    -0.088 HD
ATOM     11  H   UNL     1       5.554   0.424  -1.533  0.00  0.00    -0.088 HD
ENDBRANCH   5   8
ENDBRANCH   3   5
BRANCH   2  12
ATOM     12  C   UNL     1       1.177   1.383   0.729  0.00  0.00    +0.089 C 
BRANCH  12  13
ATOM     13  C   UNL     1      -0.041   0.656   0.161  0.00  0.00    +0.020 C 
ATOM     14  C   UNL     1      -0.359  -0.596   0.989  0.00  0.00    +0.005 C 
ATOM     15  C   UNL     1      -1.252   1.596   0.100  0.00  0.00    +0.005 C 
ATOM     16  C   UNL     1      -1.606  -1.309   0.473  0.00  0.00    +0.047 C 
ATOM     17  C   UNL     1      -2.496   0.877  -0.414  0.00  0.00    +0.047 C 
ATOM     18  C   UNL     1      -2.808  -0.370   0.410  0.00  0.00    +0.201 C 
BRANCH  18  19
ATOM     19  O   UNL     1      -3.901  -1.069  -0.174  0.00  0.00    -0.340 OA
BRANCH  19  22
ATOM     20  O   UNL     1      -5.173   0.566   0.604  0.00  0.00    -0.090 OA
ATOM     21  O   UNL     1      -5.852  -0.535  -1.213  0.00  0.00    -0.090 OA
ATOM     22  N   UNL     1      -5.082  -0.285  -0.282  0.00  0.00    +0.218 N 
ENDBRANCH  19  22
ENDBRANCH  18  19
ENDBRANCH  12  13
ENDBRANCH   2  12
TORSDOF 6
