126851
  -OEChem-03292013323D

 38 39  0     0  0  0  0  0  0999 V2000
    2.1661    1.9144   -2.0216 O   0  0  0  0  0  0  0  0  0  0  0  0
    4.7206   -1.7466   -0.8883 O   0  0  0  0  0  0  0  0  0  0  0  0
    0.0289    1.0789    2.2214 O   0  0  0  0  0  0  0  0  0  0  0  0
   -2.0412    1.9543    0.8633 O   0  0  0  0  0  0  0  0  0  0  0  0
   -4.2091    1.7410   -1.7131 O   0  0  0  0  0  0  0  0  0  0  0  0
    3.4318    0.0854   -1.4242 N   0  0  0  0  0  0  0  0  0  0  0  0
    2.5762    0.3073    1.2217 C   0  0  0  0  0  0  0  0  0  0  0  0
    1.3448   -0.5930    1.0898 C   0  0  0  0  0  0  0  0  0  0  0  0
    2.4895    1.5347    0.3204 C   0  0  0  0  0  0  0  0  0  0  0  0
    3.8714   -0.4451    0.9334 C   0  0  0  0  0  0  0  0  0  0  0  0
    2.6536    1.2021   -1.1441 C   0  0  0  0  0  0  0  0  0  0  0  0
    4.0409   -0.7856   -0.5288 C   0  0  0  0  0  0  0  0  0  0  0  0
    0.0635    0.1477    1.4203 C   0  0  0  0  0  0  0  0  0  0  0  0
   -1.1962   -0.2788    0.7426 C   0  0  0  0  0  0  0  0  0  0  0  0
   -2.1851    0.6475    0.4984 C   0  0  0  0  0  0  0  0  0  0  0  0
   -1.3150   -1.6037    0.3842 C   0  0  0  0  0  0  0  0  0  0  0  0
   -3.3539    0.2278   -0.1369 C   0  0  0  0  0  0  0  0  0  0  0  0
   -2.4836   -2.0232   -0.2510 C   0  0  0  0  0  0  0  0  0  0  0  0
   -3.5032   -1.1074   -0.5117 C   0  0  0  0  0  0  0  0  0  0  0  0
   -4.4563    1.1931   -0.4245 C   0  0  0  0  0  0  0  0  0  0  0  0
   -2.6437   -3.4509   -0.6513 C   0  0  0  0  0  0  0  0  0  0  0  0
    2.6231    0.6601    2.2610 H   0  0  0  0  0  0  0  0  0  0  0  0
    1.4275   -1.4390    1.7824 H   0  0  0  0  0  0  0  0  0  0  0  0
    1.2862   -0.9912    0.0714 H   0  0  0  0  0  0  0  0  0  0  0  0
    3.2971    2.2329    0.5759 H   0  0  0  0  0  0  0  0  0  0  0  0
    1.5503    2.0808    0.4472 H   0  0  0  0  0  0  0  0  0  0  0  0
    3.9094   -1.3733    1.5147 H   0  0  0  0  0  0  0  0  0  0  0  0
    4.7342    0.1655    1.2257 H   0  0  0  0  0  0  0  0  0  0  0  0
    3.5595   -0.1303   -2.4091 H   0  0  0  0  0  0  0  0  0  0  0  0
   -0.5406   -2.3343    0.5966 H   0  0  0  0  0  0  0  0  0  0  0  0
   -4.4122   -1.4352   -1.0107 H   0  0  0  0  0  0  0  0  0  0  0  0
   -5.4243    0.6806   -0.4550 H   0  0  0  0  0  0  0  0  0  0  0  0
   -4.5563    1.9921    0.3163 H   0  0  0  0  0  0  0  0  0  0  0  0
   -3.6999   -3.7394   -0.6816 H   0  0  0  0  0  0  0  0  0  0  0  0
   -2.2086   -3.6140   -1.6423 H   0  0  0  0  0  0  0  0  0  0  0  0
   -2.1506   -4.1178    0.0643 H   0  0  0  0  0  0  0  0  0  0  0  0
   -2.6280    2.5233    0.3415 H   0  0  0  0  0  0  0  0  0  0  0  0
   -3.3638    2.2207   -1.6816 H   0  0  0  0  0  0  0  0  0  0  0  0
  1 11  2  0  0  0  0
  2 12  2  0  0  0  0
  3 13  2  0  0  0  0
  4 15  1  0  0  0  0
  4 37  1  0  0  0  0
  5 20  1  0  0  0  0
  5 38  1  0  0  0  0
  6 11  1  0  0  0  0
  6 12  1  0  0  0  0
  6 29  1  0  0  0  0
  7  8  1  0  0  0  0
  7  9  1  0  0  0  0
  7 10  1  0  0  0  0
  7 22  1  0  0  0  0
  8 13  1  0  0  0  0
  8 23  1  0  0  0  0
  8 24  1  0  0  0  0
  9 11  1  0  0  0  0
  9 25  1  0  0  0  0
  9 26  1  0  0  0  0
 10 12  1  0  0  0  0
 10 27  1  0  0  0  0
 10 28  1  0  0  0  0
 13 14  1  0  0  0  0
 14 15  1  0  0  0  0
 14 16  2  0  0  0  0
 15 17  2  0  0  0  0
 16 18  1  0  0  0  0
 16 30  1  0  0  0  0
 17 19  1  0  0  0  0
 17 20  1  0  0  0  0
 18 19  2  0  0  0  0
 18 21  1  0  0  0  0
 19 31  1  0  0  0  0
 20 32  1  0  0  0  0
 20 33  1  0  0  0  0
 21 34  1  0  0  0  0
 21 35  1  0  0  0  0
 21 36  1  0  0  0  0
M  END
> <PUBCHEM_COMPOUND_CID>
126851

> <PUBCHEM_CONFORMER_RMSD>
0.8

> <PUBCHEM_CONFORMER_DIVERSEORDER>
1
55
71
30
74
15
17
79
41
21
82
37
13
68
23
49
16
77
18
64
24
51
25
42
80
63
9
50
76
5
20
65
7
81
3
27
66
61
40
14
75
31
67
39
45
6
78
12
22
26
36
4
10
52
53
62
32
47
58
57
2
44
69
48
70
35
11
29
72
38
43
73
56
59
46
19
28
33
34
60
54
8

> <PUBCHEM_MMFF94_PARTIAL_CHARGES>
25
1 -0.57
10 0.06
11 0.57
12 0.57
13 0.42
14 0.09
15 0.08
16 -0.15
17 -0.14
18 -0.14
19 -0.15
2 -0.57
20 0.42
21 0.14
29 0.37
3 -0.57
30 0.15
31 0.15
37 0.45
38 0.4
4 -0.53
5 -0.68
6 -0.49
8 0.06
9 0.06

> <PUBCHEM_EFFECTIVE_ROTOR_COUNT>
4.8

> <PUBCHEM_PHARMACOPHORE_FEATURES>
9
1 1 acceptor
1 2 acceptor
1 3 acceptor
1 4 donor
1 5 acceptor
1 5 donor
1 6 donor
6 14 15 16 17 18 19 rings
6 6 7 9 10 11 12 rings

> <PUBCHEM_HEAVY_ATOM_COUNT>
21

> <PUBCHEM_ATOM_DEF_STEREO_COUNT>
0

> <PUBCHEM_ATOM_UDEF_STEREO_COUNT>
0

> <PUBCHEM_BOND_DEF_STEREO_COUNT>
0

> <PUBCHEM_BOND_UDEF_STEREO_COUNT>
0

> <PUBCHEM_ISOTOPIC_ATOM_COUNT>
0

> <PUBCHEM_COMPONENT_COUNT>
1

> <PUBCHEM_CACTVS_TAUTO_COUNT>
18

> <PUBCHEM_CONFORMER_ID>
0001EF8300000001

> <PUBCHEM_MMFF94_ENERGY>
55.3686

> <PUBCHEM_FEATURE_SELFOVERLAP>
45.673

> <PUBCHEM_SHAPE_FINGERPRINT>
12173636 292 17385725850212251347
12363563 72 16774083964061533520
12555020 224 18200872859907480151
12714826 92 18198347445297561243
13224815 77 16343714256636355306
14115302 16 18341894086539129584
14251764 30 17975711785444545787
14848160 33 16845575365429913834
15163728 17 17827915119032266725
16752209 62 18128813058408986001
18186145 218 16008741446359319098
19862831 5 18411983546352803962
200 152 15985097505387179891
20645476 183 18260259729639905115
20645477 70 16486969652272991288
21069387 34 17275102778418714136
21864079 5 17313384564683400821
22079108 93 16153432753312486737
22393880 68 18268723856170787660
23503958 25 11602812484898811886
23557571 272 18268699683398610840
23559900 14 18131062749773459056
25 1 16298389046002611296
3082319 5 18261395606322785386
312425 83 18260839215037659324
33382 64 14404036168067663365
474 4 16878220973544173001
4921388 177 18341897424119355267
5161694 15 18343298171493519127
59027123 10 18114186371120077372
633830 44 17022904574919277500
7399639 24 17051310668534731465
7808743 9 12036032225796039894
7832392 63 17967527986679177908
81228 2 16701199494177118624
9709674 26 18059567039883110370
9981440 41 17175751187043821680

> <PUBCHEM_SHAPE_MULTIPOLES>
397.84
8.94
2.51
1.64
1.79
1.41
0.1
0.57
3.5
-2.09
0.79
0.87
-0.71
0

> <PUBCHEM_SHAPE_SELFOVERLAP>
845.946

> <PUBCHEM_SHAPE_VOLUME>
219.8

> <PUBCHEM_COORDINATE_TYPE>
2
5
10

$$$$
