REMARK  Name = 126851
REMARK  6 active torsions:
REMARK  status: ('A' for Active; 'I' for Inactive)
REMARK    1  A    between atoms: C_2  and  C_3
REMARK    2  A    between atoms: C_2  and  C_15
REMARK    3  A    between atoms: C_4  and  O_10
REMARK    4  A    between atoms: C_6  and  C_12
REMARK    5  A    between atoms: C_12  and  O_13
REMARK    6  A    between atoms: C_15  and  C_19
REMARK                            x       y       z     vdW  Elec       q    Type
REMARK                         _______ _______ _______ _____ _____    ______ ____
ROOT
ATOM      1  O   UNL     1       0.029   1.079   2.221  0.00  0.00    -0.291 OA
ATOM      2  C   UNL     1       0.064   0.148   1.420  0.00  0.00    +0.176 C 
ENDROOT
BRANCH   2   3
ATOM      3  C   UNL     1      -1.196  -0.279   0.743  0.00  0.00    +0.068 C 
ATOM      4  C   UNL     1      -2.185   0.647   0.498  0.00  0.00    +0.135 C 
ATOM      5  C   UNL     1      -1.315  -1.604   0.384  0.00  0.00    +0.002 C 
ATOM      6  C   UNL     1      -3.354   0.228  -0.137  0.00  0.00    +0.040 C 
ATOM      7  C   UNL     1      -2.484  -2.023  -0.251  0.00  0.00    -0.022 C 
ATOM      8  C   UNL     1      -3.503  -1.107  -0.512  0.00  0.00    -0.003 C 
ATOM      9  C   UNL     1      -2.644  -3.451  -0.651  0.00  0.00    +0.031 C 
BRANCH   4  10
ATOM     10  O   UNL     1      -2.041   1.954   0.863  0.00  0.00    -0.506 OA
ATOM     11  H   UNL     1      -1.257   2.238   1.290  0.00  0.00    +0.292 HD
ENDBRANCH   4  10
BRANCH   6  12
ATOM     12  C   UNL     1      -4.456   1.193  -0.424  0.00  0.00    +0.167 C 
BRANCH  12  13
ATOM     13  O   UNL     1      -4.209   1.741  -1.713  0.00  0.00    -0.377 OA
ATOM     14  H   UNL     1      -4.909   2.375  -1.934  0.00  0.00    +0.211 HD
ENDBRANCH  12  13
ENDBRANCH   6  12
ENDBRANCH   2   3
BRANCH   2  15
ATOM     15  C   UNL     1       1.345  -0.593   1.090  0.00  0.00    +0.070 C 
BRANCH  15  19
ATOM     16  O   UNL     1       2.166   1.914  -2.022  0.00  0.00    -0.275 OA
ATOM     17  O   UNL     1       4.721  -1.747  -0.888  0.00  0.00    -0.275 OA
ATOM     18  N   UNL     1       3.432   0.085  -1.424  0.00  0.00    -0.255 N 
ATOM     19  C   UNL     1       2.576   0.307   1.222  0.00  0.00    +0.026 C 
ATOM     20  C   UNL     1       2.490   1.535   0.320  0.00  0.00    +0.086 C 
ATOM     21  C   UNL     1       3.871  -0.445   0.933  0.00  0.00    +0.086 C 
ATOM     22  C   UNL     1       2.654   1.202  -1.144  0.00  0.00    +0.228 C 
ATOM     23  C   UNL     1       4.041  -0.786  -0.529  0.00  0.00    +0.228 C 
ATOM     24  H   UNL     1       3.569  -0.114  -2.378  0.00  0.00    +0.158 HD
ENDBRANCH  15  19
ENDBRANCH   2  15
TORSDOF 6
