REMARK  Name = 126871
REMARK  6 active torsions:
REMARK  status: ('A' for Active; 'I' for Inactive)
REMARK    1  A    between atoms: C_6  and  C_24
REMARK    2  A    between atoms: C_10  and  O_20
REMARK    3  A    between atoms: C_19  and  O_22
REMARK    4  A    between atoms: C_24  and  C_26
REMARK    5  A    between atoms: C_26  and  C_27
REMARK    6  A    between atoms: C_27  and  S_28
REMARK                            x       y       z     vdW  Elec       q    Type
REMARK                         _______ _______ _______ _____ _____    ______ ____
ROOT
ATOM      1  C   UNL     1      -0.257  -1.009   0.014  0.00  0.00    +0.002 C 
ATOM      2  C   UNL     1       0.652   0.042   0.687  0.00  0.00    +0.000 C 
ATOM      3  C   UNL     1      -1.685  -1.023   0.580  0.00  0.00    +0.027 C 
ATOM      4  C   UNL     1      -2.322   0.392   0.362  0.00  0.00    +0.002 C 
ATOM      5  C   UNL     1      -3.795   0.460   0.920  0.00  0.00    +0.000 C 
ATOM      6  C   UNL     1       1.976  -0.264  -0.055  0.00  0.00    +0.000 C 
ATOM      7  C   UNL     1      -4.652  -0.668   0.255  0.00  0.00    +0.005 C 
ATOM      8  C   UNL     1       0.056   1.425   0.393  0.00  0.00    +0.000 C 
ATOM      9  C   UNL     1      -1.400   1.531   0.879  0.00  0.00    +0.000 C 
ATOM     10  C   UNL     1      -2.546  -2.144  -0.031  0.00  0.00    +0.110 C 
ATOM     11  C   UNL     1       0.571  -2.290   0.076  0.00  0.00    +0.000 C 
ATOM     12  C   UNL     1       2.023  -1.809  -0.098  0.00  0.00    +0.000 C 
ATOM     13  C   UNL     1      -4.011  -2.062   0.409  0.00  0.00    +0.029 C 
ATOM     14  C   UNL     1      -4.476   1.833   0.645  0.00  0.00    +0.002 C 
ATOM     15  C   UNL     1       0.814  -0.143   2.216  0.00  0.00    +0.000 C 
ATOM     16  C   UNL     1      -4.993  -0.372  -1.221  0.00  0.00    +0.029 C 
ATOM     17  C   UNL     1      -3.820   0.279   2.461  0.00  0.00    +0.000 C 
ATOM     18  C   UNL     1      -4.772   2.098  -0.825  0.00  0.00    +0.029 C 
ATOM     19  C   UNL     1      -5.644   0.995  -1.407  0.00  0.00    +0.111 C 
ENDROOT
BRANCH  10  20
ATOM     20  O   UNL     1      -2.458  -2.118  -1.453  0.00  0.00    -0.384 OA
ATOM     21  H   UNL     1      -1.527  -2.170  -1.720  0.00  0.00    +0.210 HD
ENDBRANCH  10  20
BRANCH  19  22
ATOM     22  O   UNL     1      -5.834   1.251  -2.794  0.00  0.00    -0.384 OA
ATOM     23  H   UNL     1      -6.390   0.554  -3.179  0.00  0.00    +0.210 HD
ENDBRANCH  19  22
BRANCH   6  24
ATOM     24  C   UNL     1       3.241   0.351   0.526  0.00  0.00    +0.002 C 
ATOM     25  C   UNL     1       3.098   1.876   0.596  0.00  0.00    +0.000 C 
BRANCH  24  26
ATOM     26  C   UNL     1       4.503  -0.012  -0.283  0.00  0.00    +0.026 C 
BRANCH  26  27
ATOM     27  C   UNL     1       5.768   0.649   0.248  0.00  0.00    +0.158 C 
BRANCH  27  28
ATOM     28  S   UNL     1       7.183   0.169  -0.692  0.00  0.00    +0.023 S 
ATOM     29  O   UNL     1       8.253   1.185   0.003  0.00  0.00    -0.069 OA
ATOM     30  O   UNL     1       6.988   0.570  -2.073  0.00  0.00    -0.069 OA
ATOM     31  O   UNL     1       7.537  -1.194  -0.339  0.00  0.00    -0.069 OA
ENDBRANCH  27  28
ENDBRANCH  26  27
ENDBRANCH  24  26
ENDBRANCH   6  24
TORSDOF 6
