126857
  -OEChem-03292013323D

 46 46  0     1  0  0  0  0  0999 V2000
    1.4752   -0.1291    1.0318 O   0  0  0  0  0  0  0  0  0  0  0  0
    4.2916    2.0219    0.4833 O   0  0  0  0  0  0  0  0  0  0  0  0
   -1.3638   -0.5125   -1.7689 O   0  0  0  0  0  0  0  0  0  0  0  0
   -4.7914    0.8085    1.5122 O   0  0  0  0  0  0  0  0  0  0  0  0
    4.0134   -0.2585    0.2021 N   0  0  0  0  0  0  0  0  0  0  0  0
    0.8483    0.9087   -0.9555 N   0  0  0  0  0  0  0  0  0  0  0  0
   -2.4895    0.2369    0.1168 N   0  0  0  0  0  0  0  0  0  0  0  0
   -5.9881   -0.4535   -0.0241 N   0  0  0  0  0  0  0  0  0  0  0  0
    2.9795   -0.1752   -0.8213 C   0  0  1  0  0  0  0  0  0  0  0  0
    2.9115   -1.5761   -1.4180 C   0  0  0  0  0  0  0  0  0  0  0  0
    3.3379   -2.4760   -0.2607 C   0  0  0  0  0  0  0  0  0  0  0  0
    4.3912   -1.6461    0.4577 C   0  0  0  0  0  0  0  0  0  0  0  0
    1.7026    0.1979   -0.1300 C   0  0  0  0  0  0  0  0  0  0  0  0
    4.6390    0.8641    0.7217 C   0  0  0  0  0  0  0  0  0  0  0  0
   -0.4566    1.3666   -0.5362 C   0  0  2  0  0  0  0  0  0  0  0  0
    5.8049    0.5921    1.6385 C   0  0  0  0  0  0  0  0  0  0  0  0
   -1.4569    0.2514   -0.8104 C   0  0  0  0  0  0  0  0  0  0  0  0
   -0.8540    2.6435   -1.2603 C   0  0  0  0  0  0  0  0  0  0  0  0
   -3.5862   -0.7004    0.0477 C   0  0  1  0  0  0  0  0  0  0  0  0
   -3.2789   -1.9700    0.8263 C   0  0  0  0  0  0  0  0  0  0  0  0
   -4.8285   -0.0120    0.5976 C   0  0  0  0  0  0  0  0  0  0  0  0
   -7.3011    0.0179    0.3498 C   0  0  0  0  0  0  0  0  0  0  0  0
    3.2531    0.5826   -1.5636 H   0  0  0  0  0  0  0  0  0  0  0  0
    1.9242   -1.8431   -1.8071 H   0  0  0  0  0  0  0  0  0  0  0  0
    3.6390   -1.6677   -2.2338 H   0  0  0  0  0  0  0  0  0  0  0  0
    3.7220   -3.4442   -0.5939 H   0  0  0  0  0  0  0  0  0  0  0  0
    2.4852   -2.6610    0.4032 H   0  0  0  0  0  0  0  0  0  0  0  0
    5.3852   -1.8108    0.0280 H   0  0  0  0  0  0  0  0  0  0  0  0
    4.4280   -1.8474    1.5318 H   0  0  0  0  0  0  0  0  0  0  0  0
    1.1097    1.0525   -1.9269 H   0  0  0  0  0  0  0  0  0  0  0  0
   -0.4154    1.5600    0.5425 H   0  0  0  0  0  0  0  0  0  0  0  0
    6.5666    0.0032    1.1212 H   0  0  0  0  0  0  0  0  0  0  0  0
    5.4638    0.0628    2.5320 H   0  0  0  0  0  0  0  0  0  0  0  0
    6.2546    1.5404    1.9474 H   0  0  0  0  0  0  0  0  0  0  0  0
   -0.9104    2.4852   -2.3434 H   0  0  0  0  0  0  0  0  0  0  0  0
   -1.8362    2.9942   -0.9263 H   0  0  0  0  0  0  0  0  0  0  0  0
   -0.1240    3.4391   -1.0773 H   0  0  0  0  0  0  0  0  0  0  0  0
   -3.7495   -0.9570   -1.0059 H   0  0  0  0  0  0  0  0  0  0  0  0
   -2.4766    0.9035    0.8837 H   0  0  0  0  0  0  0  0  0  0  0  0
   -2.3839   -2.4647    0.4345 H   0  0  0  0  0  0  0  0  0  0  0  0
   -4.1135   -2.6768    0.7700 H   0  0  0  0  0  0  0  0  0  0  0  0
   -3.1011   -1.7516    1.8855 H   0  0  0  0  0  0  0  0  0  0  0  0
   -5.9310   -1.1720   -0.7395 H   0  0  0  0  0  0  0  0  0  0  0  0
   -7.2471    1.0326    0.7522 H   0  0  0  0  0  0  0  0  0  0  0  0
   -7.9407   -0.0003   -0.5356 H   0  0  0  0  0  0  0  0  0  0  0  0
   -7.7047   -0.6569    1.1089 H   0  0  0  0  0  0  0  0  0  0  0  0
  1 13  2  0  0  0  0
  2 14  2  0  0  0  0
  3 17  2  0  0  0  0
  4 21  2  0  0  0  0
  5  9  1  0  0  0  0
  5 12  1  0  0  0  0
  5 14  1  0  0  0  0
  6 13  1  0  0  0  0
  6 15  1  0  0  0  0
  6 30  1  0  0  0  0
  7 17  1  0  0  0  0
  7 19  1  0  0  0  0
  7 39  1  0  0  0  0
  8 21  1  0  0  0  0
  8 22  1  0  0  0  0
  8 43  1  0  0  0  0
  9 10  1  0  0  0  0
  9 13  1  0  0  0  0
  9 23  1  0  0  0  0
 10 11  1  0  0  0  0
 10 24  1  0  0  0  0
 10 25  1  0  0  0  0
 11 12  1  0  0  0  0
 11 26  1  0  0  0  0
 11 27  1  0  0  0  0
 12 28  1  0  0  0  0
 12 29  1  0  0  0  0
 14 16  1  0  0  0  0
 15 17  1  0  0  0  0
 15 18  1  0  0  0  0
 15 31  1  0  0  0  0
 16 32  1  0  0  0  0
 16 33  1  0  0  0  0
 16 34  1  0  0  0  0
 18 35  1  0  0  0  0
 18 36  1  0  0  0  0
 18 37  1  0  0  0  0
 19 20  1  0  0  0  0
 19 21  1  0  0  0  0
 19 38  1  0  0  0  0
 20 40  1  0  0  0  0
 20 41  1  0  0  0  0
 20 42  1  0  0  0  0
 22 44  1  0  0  0  0
 22 45  1  0  0  0  0
 22 46  1  0  0  0  0
M  END
> <PUBCHEM_COMPOUND_CID>
126857

> <PUBCHEM_CONFORMER_RMSD>
1.2

> <PUBCHEM_CONFORMER_DIVERSEORDER>
1
169
36
230
135
104
191
143
68
248
208
35
256
276
212
159
178
220
30
215
265
16
236
254
168
152
252
5
107
267
287
33
96
86
285
225
12
255
9
279
124
77
46
25
272
34
151
259
4
59
262
223
264
156
67
177
286
216
140
54
221
42
232
184
10
73
6
194
146
62
290
21
136
182
23
38
98
95
31
63
268
148
292
193
245
28
19
2
27
87
228
195
22
102
79
189
74
147
66
29
183
170
266
52
105
164
150
115
280
284
234
55
204
250
155
142
131
187
167
116
37
49
288
141
163
26
89
7
211
70
240
247
190
244
117
65
15
206
171
24
213
123
243
20
157
153
160
218
118
92
226
283
139
51
202
126
173
289
93
227
43
32
237
90
174
40
241
198
13
69
233
50
281
82
246
186
129
125
130
47
114
60
239
154
251
110
56
99
149
273
242
53
85
45
80
111
229
84
138
176
291
179
78
144
101
199
44
132
214
8
181
133
61
200
109
282
103
217
88
18
72
97
192
201
270
235
263
180
106
127
145
3
75
122
249
196
231
238
119
64
253
261
57
41
71
161
278
210
120
185
76
219
48
274
81
91
197
207
17
113
209
260
14
94
83
134
175
166
258
128
203
222
165
205
100
108
112
39
162
271
269
188
275
257
11
121
172
277
58
224
158
137

> <PUBCHEM_MMFF94_PARTIAL_CHARGES>
21
1 -0.57
12 0.3
13 0.57
14 0.57
15 0.36
16 0.06
17 0.57
19 0.36
2 -0.57
21 0.57
22 0.3
3 -0.57
30 0.37
39 0.37
4 -0.57
43 0.37
5 -0.66
6 -0.73
7 -0.73
8 -0.73
9 0.36

> <PUBCHEM_EFFECTIVE_ROTOR_COUNT>
10

> <PUBCHEM_PHARMACOPHORE_FEATURES>
8
1 1 acceptor
1 2 acceptor
1 3 acceptor
1 4 acceptor
1 6 donor
1 7 donor
1 8 donor
5 5 9 10 11 12 rings

> <PUBCHEM_HEAVY_ATOM_COUNT>
22

> <PUBCHEM_ATOM_DEF_STEREO_COUNT>
0

> <PUBCHEM_ATOM_UDEF_STEREO_COUNT>
3

> <PUBCHEM_BOND_DEF_STEREO_COUNT>
0

> <PUBCHEM_BOND_UDEF_STEREO_COUNT>
0

> <PUBCHEM_ISOTOPIC_ATOM_COUNT>
0

> <PUBCHEM_COMPONENT_COUNT>
1

> <PUBCHEM_CACTVS_TAUTO_COUNT>
8

> <PUBCHEM_CONFORMER_ID>
0001EF8900000001

> <PUBCHEM_MMFF94_ENERGY>
44.1934

> <PUBCHEM_FEATURE_SELFOVERLAP>
40.598

> <PUBCHEM_SHAPE_FINGERPRINT>
10591671 39 13398627294762890605
12107183 9 17483131344735429299
12166972 35 8286200565147781535
12516196 113 18334295383845580245
12596602 18 17418375809223300635
12616971 3 15936410082600931531
12892183 10 18060146426908332355
13533116 47 18272656701341007427
13583140 156 17274259581976199955
13668630 136 13695583330641575424
13685833 64 17968100837360203251
14178342 30 17605546657462220316
14251752 14 14923933540864584343
14251764 18 18131350834878923983
14252887 29 18334297560945496020
146900 427 18201431536938050376
15183329 4 14923945631260761223
15238133 3 15913324668076875610
15527383 91 18410572924537628857
15885798 251 18259991452912832053
17349148 13 15430314703205140440
1813 80 17385732391331255853
19141452 34 18409168844305467887
192875 21 14201394967744678126
19784866 240 15213294193257384456
200 152 14490467582387513684
20567600 234 17489870453602751533
21315763 191 14273739560219154121
22224240 67 18271798077733817562
23253445 4 18272368689334089684
23557571 272 17894624829892950868
239999 70 18273222993390752710
29717793 49 13190337942216284250
3004659 81 17312831476053947542
314173 85 18187652392477623781
4325135 7 17748831834597148684
4340502 62 18060418036466678278
5104073 3 18267292141697141872
621550 34 18411975858778179324
8988823 20 18273494576361337581

> <PUBCHEM_SHAPE_MULTIPOLES>
409.35
14.97
2.1
1.36
15.11
0.07
0.06
-1.74
-6.54
-1.51
0.4
-0.62
0.12
1.11

> <PUBCHEM_SHAPE_SELFOVERLAP>
818.266

> <PUBCHEM_SHAPE_VOLUME>
242.2

> <PUBCHEM_COORDINATE_TYPE>
2
5
10

$$$$
