REMARK  Name = 126860
REMARK  13 active torsions:
REMARK  status: ('A' for Active; 'I' for Inactive)
REMARK    1  A    between atoms: C_1  and  C_4
REMARK    2  A    between atoms: C_1  and  C_14
REMARK    3  A    between atoms: N_3  and  C_6
REMARK    4  A    between atoms: C_6  and  C_7
REMARK    5  A    between atoms: C_7  and  C_8
REMARK    6  A    between atoms: C_8  and  C_9
REMARK    7  A    between atoms: C_9  and  C_11
REMARK    8  A    between atoms: C_11  and  O_12
REMARK    9  A    between atoms: C_14  and  C_15
REMARK   10  A    between atoms: C_15  and  C_16
REMARK   11  A    between atoms: C_16  and  C_17
REMARK   12  A    between atoms: C_17  and  N_18
REMARK   13  A    between atoms: N_18  and  C_21
REMARK                            x       y       z     vdW  Elec       q    Type
REMARK                         _______ _______ _______ _____ _____    ______ ____
ROOT
ATOM      1  C   UNL     1       3.131   2.002   0.649  0.00  0.00    +0.085 C 
ENDROOT
BRANCH   1   4
ATOM      2  O   UNL     1       3.184   1.313  -1.650  0.00  0.00    -0.275 OA
ATOM      3  N   UNL     1       3.142  -0.327  -0.002  0.00  0.00    -0.304 N 
ATOM      4  C   UNL     1       3.157   0.977  -0.468  0.00  0.00    +0.222 C 
ATOM      5  H   UNL     1       3.120  -0.478   0.971  0.00  0.00    +0.149 HD
BRANCH   3   6
ATOM      6  C   UNL     1       3.156  -1.477  -0.876  0.00  0.00    +0.089 C 
BRANCH   6   7
ATOM      7  C   UNL     1       1.755  -1.943  -1.265  0.00  0.00    +0.022 C 
BRANCH   7   8
ATOM      8  C   UNL     1       0.895  -2.312  -0.051  0.00  0.00    +0.013 C 
BRANCH   8   9
ATOM      9  C   UNL     1      -0.502  -2.781  -0.448  0.00  0.00    +0.109 C 
BRANCH   9  11
ATOM     10  O   UNL     1      -1.016  -2.920   1.908  0.00  0.00    -0.250 OA
ATOM     11  C   UNL     1      -1.371  -3.079   0.747  0.00  0.00    +0.314 C 
BRANCH  11  12
ATOM     12  O   UNL     1      -2.598  -3.541   0.398  0.00  0.00    -0.480 OA
ATOM     13  H   UNL     1      -2.820  -3.645  -0.506  0.00  0.00    +0.295 HD
ENDBRANCH  11  12
ENDBRANCH   9  11
ENDBRANCH   8   9
ENDBRANCH   7   8
ENDBRANCH   6   7
ENDBRANCH   3   6
ENDBRANCH   1   4
BRANCH   1  14
ATOM     14  C   UNL     1       1.886   1.882   1.526  0.00  0.00    +0.010 C 
BRANCH  14  15
ATOM     15  C   UNL     1       0.593   2.141   0.745  0.00  0.00    +0.003 C 
BRANCH  15  16
ATOM     16  C   UNL     1      -0.634   2.040   1.657  0.00  0.00    +0.026 C 
BRANCH  16  17
ATOM     17  C   UNL     1      -1.937   2.306   0.912  0.00  0.00    +0.129 C 
BRANCH  17  18
ATOM     18  N   UNL     1      -2.096   1.339  -0.175  0.00  0.00    -0.240 NA
BRANCH  18  21
ATOM     19  N   UNL     1      -4.186   2.362  -0.771  0.00  0.00    -0.370 N 
ATOM     20  N   UNL     1      -3.390   0.574  -1.938  0.00  0.00    -0.370 N 
ATOM     21  C   UNL     1      -3.167   1.444  -0.898  0.00  0.00    +0.189 C 
ATOM     22  H   UNL     1      -4.149   3.044  -0.062  0.00  0.00    +0.159 HD
ATOM     23  H   UNL     1      -4.952   2.336  -1.389  0.00  0.00    +0.159 HD
ATOM     24  H   UNL     1      -2.735  -0.134  -2.137  0.00  0.00    +0.159 HD
ATOM     25  H   UNL     1      -4.205   0.658  -2.485  0.00  0.00    +0.159 HD
ENDBRANCH  18  21
ENDBRANCH  17  18
ENDBRANCH  16  17
ENDBRANCH  15  16
ENDBRANCH  14  15
ENDBRANCH   1  14
TORSDOF 13
