REMARK  Name = 126870
REMARK  3 active torsions:
REMARK  status: ('A' for Active; 'I' for Inactive)
REMARK    1  A    between atoms: N_2  and  C_16
REMARK    2  A    between atoms: C_18  and  C_19
REMARK    3  A    between atoms: C_19  and  O_20
REMARK                            x       y       z     vdW  Elec       q    Type
REMARK                         _______ _______ _______ _____ _____    ______ ____
ROOT
ATOM      1 CL   UNL     1       4.245   2.146  -0.232  0.00  0.00    -0.045 Cl
ATOM      2  N   UNL     1      -0.199   0.227   0.193  0.00  0.00    -0.236 N 
ATOM      3  N   UNL     1       1.055   2.070   0.011  0.00  0.00    -0.241 NA
ATOM      4  N   UNL     1       1.548  -1.462   0.141  0.00  0.00    -0.311 NA
ATOM      5  N   UNL     1       3.759  -0.452  -0.073  0.00  0.00    -0.315 NA
ATOM      6  N   UNL     1       3.483  -2.775   0.059  0.00  0.00    -0.283 N 
ATOM      7  C   UNL     1       1.101  -0.197   0.115  0.00  0.00    +0.221 C 
ATOM      8  C   UNL     1      -0.170   1.599   0.125  0.00  0.00    +0.224 C 
ATOM      9  C   UNL     1       1.859   0.958   0.004  0.00  0.00    +0.164 C 
ATOM     10  C   UNL     1       3.238   0.798  -0.092  0.00  0.00    +0.223 C 
ATOM     11  C   UNL     1       2.895  -1.489   0.041  0.00  0.00    +0.198 C 
ATOM     12  H   UNL     1       2.914  -3.575   0.139  0.00  0.00    +0.156 HD
ATOM     13  H   UNL     1       4.460  -2.870  -0.010  0.00  0.00    +0.156 HD
ENDROOT
BRANCH   2  16
ATOM     14  O   UNL     1      -2.384   0.089   1.079  0.00  0.00    -0.309 OA
ATOM     15  O   UNL     1      -3.078   0.007  -1.162  0.00  0.00    -0.324 OA
ATOM     16  C   UNL     1      -1.394  -0.610   0.321  0.00  0.00    +0.228 C 
ATOM     17  C   UNL     1      -2.055  -0.972  -0.992  0.00  0.00    +0.196 C 
ATOM     18  C   UNL     1      -3.443   0.396   0.165  0.00  0.00    +0.267 C 
BRANCH  18  19
ATOM     19  C   UNL     1      -4.704  -0.336   0.594  0.00  0.00    +0.199 C 
BRANCH  19  20
ATOM     20  O   UNL     1      -5.757   0.003  -0.295  0.00  0.00    -0.377 OA
ATOM     21  H   UNL     1      -6.567  -0.460  -0.028  0.00  0.00    +0.211 HD
ENDBRANCH  19  20
ENDBRANCH  18  19
ENDBRANCH   2  16
TORSDOF 3
