126887
  -OEChem-03292013323D

 59 60  0     1  0  0  0  0  0999 V2000
    0.5184   -3.3037   -1.6610 O   0  0  0  0  0  0  0  0  0  0  0  0
   -1.4378   -3.4507    1.1658 O   0  0  0  0  0  0  0  0  0  0  0  0
    7.4419   -0.5365    0.5724 O   0  0  0  0  0  0  0  0  0  0  0  0
    4.7664    3.2033   -0.7666 O   0  0  0  0  0  0  0  0  0  0  0  0
   -8.0429    0.2504   -0.3720 O   0  0  0  0  0  0  0  0  0  0  0  0
    7.2574    2.0837   -0.3060 O   0  0  0  0  0  0  0  0  0  0  0  0
   -7.6134    2.6213    1.0142 O   0  0  0  0  0  0  0  0  0  0  0  0
   -0.3543   -1.6936   -0.0758 C   0  0  0  0  0  0  0  0  0  0  0  0
    0.8351   -2.5865   -0.4705 C   0  0  2  0  0  0  0  0  0  0  0  0
   -1.6514   -2.4885    0.1359 C   0  0  2  0  0  0  0  0  0  0  0  0
    2.1016   -1.7458   -0.6970 C   0  0  0  0  0  0  0  0  0  0  0  0
   -2.8512   -1.5989    0.4955 C   0  0  0  0  0  0  0  0  0  0  0  0
    2.5660   -0.9686    0.5431 C   0  0  0  0  0  0  0  0  0  0  0  0
   -3.2208   -0.5724   -0.5824 C   0  0  0  0  0  0  0  0  0  0  0  0
    3.8155   -0.1555    0.3173 C   0  0  0  0  0  0  0  0  0  0  0  0
   -4.3937    0.2765   -0.1586 C   0  0  0  0  0  0  0  0  0  0  0  0
    3.7186    1.1637   -0.1256 C   0  0  0  0  0  0  0  0  0  0  0  0
    5.0683   -0.7228    0.5505 C   0  0  0  0  0  0  0  0  0  0  0  0
   -5.6936   -0.1282   -0.4622 C   0  0  0  0  0  0  0  0  0  0  0  0
   -4.1783    1.4662    0.5370 C   0  0  0  0  0  0  0  0  0  0  0  0
    6.2243    0.0293    0.3411 C   0  0  0  0  0  0  0  0  0  0  0  0
    4.8747    1.9157   -0.3350 C   0  0  0  0  0  0  0  0  0  0  0  0
   -6.7781    0.6565   -0.0699 C   0  0  0  0  0  0  0  0  0  0  0  0
    6.1275    1.3485   -0.1015 C   0  0  0  0  0  0  0  0  0  0  0  0
   -5.2627    2.2510    0.9290 C   0  0  0  0  0  0  0  0  0  0  0  0
   -6.5627    1.8461    0.6256 C   0  0  0  0  0  0  0  0  0  0  0  0
    7.4526   -1.8896    1.0232 C   0  0  0  0  0  0  0  0  0  0  0  0
    3.4492    3.7064   -0.9811 C   0  0  0  0  0  0  0  0  0  0  0  0
   -8.1765   -0.9775   -1.0852 C   0  0  0  0  0  0  0  0  0  0  0  0
   -0.1308   -1.1632    0.8552 H   0  0  0  0  0  0  0  0  0  0  0  0
   -0.5022   -0.9517   -0.8673 H   0  0  0  0  0  0  0  0  0  0  0  0
    1.0261   -3.3236    0.3178 H   0  0  0  0  0  0  0  0  0  0  0  0
   -1.8924   -3.0436   -0.7783 H   0  0  0  0  0  0  0  0  0  0  0  0
    2.9086   -2.4085   -1.0376 H   0  0  0  0  0  0  0  0  0  0  0  0
    1.9337   -1.0534   -1.5330 H   0  0  0  0  0  0  0  0  0  0  0  0
   -3.7166   -2.2426    0.7040 H   0  0  0  0  0  0  0  0  0  0  0  0
   -2.6438   -1.0893    1.4464 H   0  0  0  0  0  0  0  0  0  0  0  0
    2.7318   -1.6673    1.3734 H   0  0  0  0  0  0  0  0  0  0  0  0
    1.7841   -0.2836    0.8889 H   0  0  0  0  0  0  0  0  0  0  0  0
   -3.4520   -1.0838   -1.5251 H   0  0  0  0  0  0  0  0  0  0  0  0
   -2.3778    0.0929   -0.7988 H   0  0  0  0  0  0  0  0  0  0  0  0
    1.2825   -3.8648   -1.8772 H   0  0  0  0  0  0  0  0  0  0  0  0
   -2.2583   -3.9631    1.2641 H   0  0  0  0  0  0  0  0  0  0  0  0
    2.7184    1.5491   -0.2930 H   0  0  0  0  0  0  0  0  0  0  0  0
    5.0804   -1.7528    0.8909 H   0  0  0  0  0  0  0  0  0  0  0  0
   -5.7987   -1.0630   -1.0026 H   0  0  0  0  0  0  0  0  0  0  0  0
   -3.1704    1.7910    0.7812 H   0  0  0  0  0  0  0  0  0  0  0  0
   -5.0806    3.1752    1.4708 H   0  0  0  0  0  0  0  0  0  0  0  0
    8.0275    1.5282   -0.0936 H   0  0  0  0  0  0  0  0  0  0  0  0
   -7.2740    3.4034    1.4822 H   0  0  0  0  0  0  0  0  0  0  0  0
    6.9691   -1.9936    2.0007 H   0  0  0  0  0  0  0  0  0  0  0  0
    7.0311   -2.5684    0.2739 H   0  0  0  0  0  0  0  0  0  0  0  0
    8.5011   -2.1761    1.1563 H   0  0  0  0  0  0  0  0  0  0  0  0
    3.5518    4.7423   -1.3212 H   0  0  0  0  0  0  0  0  0  0  0  0
    2.8707    3.7340   -0.0513 H   0  0  0  0  0  0  0  0  0  0  0  0
    2.9331    3.1606   -1.7785 H   0  0  0  0  0  0  0  0  0  0  0  0
   -9.2475   -1.1449   -1.2401 H   0  0  0  0  0  0  0  0  0  0  0  0
   -7.8041   -1.8262   -0.5014 H   0  0  0  0  0  0  0  0  0  0  0  0
   -7.7177   -0.9199   -2.0782 H   0  0  0  0  0  0  0  0  0  0  0  0
  1  9  1  0  0  0  0
  1 42  1  0  0  0  0
  2 10  1  0  0  0  0
  2 43  1  0  0  0  0
  3 21  1  0  0  0  0
  3 27  1  0  0  0  0
  4 22  1  0  0  0  0
  4 28  1  0  0  0  0
  5 23  1  0  0  0  0
  5 29  1  0  0  0  0
  6 24  1  0  0  0  0
  6 49  1  0  0  0  0
  7 26  1  0  0  0  0
  7 50  1  0  0  0  0
  8  9  1  0  0  0  0
  8 10  1  0  0  0  0
  8 30  1  0  0  0  0
  8 31  1  0  0  0  0
  9 11  1  0  0  0  0
  9 32  1  0  0  0  0
 10 12  1  0  0  0  0
 10 33  1  0  0  0  0
 11 13  1  0  0  0  0
 11 34  1  0  0  0  0
 11 35  1  0  0  0  0
 12 14  1  0  0  0  0
 12 36  1  0  0  0  0
 12 37  1  0  0  0  0
 13 15  1  0  0  0  0
 13 38  1  0  0  0  0
 13 39  1  0  0  0  0
 14 16  1  0  0  0  0
 14 40  1  0  0  0  0
 14 41  1  0  0  0  0
 15 17  2  0  0  0  0
 15 18  1  0  0  0  0
 16 19  2  0  0  0  0
 16 20  1  0  0  0  0
 17 22  1  0  0  0  0
 17 44  1  0  0  0  0
 18 21  2  0  0  0  0
 18 45  1  0  0  0  0
 19 23  1  0  0  0  0
 19 46  1  0  0  0  0
 20 25  2  0  0  0  0
 20 47  1  0  0  0  0
 21 24  1  0  0  0  0
 22 24  2  0  0  0  0
 23 26  2  0  0  0  0
 25 26  1  0  0  0  0
 25 48  1  0  0  0  0
 27 51  1  0  0  0  0
 27 52  1  0  0  0  0
 27 53  1  0  0  0  0
 28 54  1  0  0  0  0
 28 55  1  0  0  0  0
 28 56  1  0  0  0  0
 29 57  1  0  0  0  0
 29 58  1  0  0  0  0
 29 59  1  0  0  0  0
M  END
> <PUBCHEM_COMPOUND_CID>
126887

> <PUBCHEM_CONFORMER_RMSD>
1

> <PUBCHEM_CONFORMER_DIVERSEORDER>
3
96
203
109
154
13
83
243
114
192
60
28
185
201
79
63
101
126
66
87
251
47
102
67
210
93
115
233
25
73
167
71
72
216
173
98
186
122
118
95
149
213
236
180
42
7
82
214
155
14
247
27
183
198
100
206
37
132
91
76
92
238
8
189
81
143
235
9
4
177
26
202
103
181
208
190
156
41
230
168
218
142
121
31
162
43
211
239
130
62
133
232
105
54
138
172
124
10
159
46
65
120
146
229
227
196
127
48
86
249
178
200
171
17
106
97
182
11
58
104
176
74
153
145
49
44
204
221
128
70
69
111
207
131
187
223
244
179
219
85
170
242
250
99
55
136
139
89
228
184
6
245
112
220
193
84
234
224
217
164
16
68
64
194
38
117
195
140
29
215
88
116
222
90
15
59
205
174
32
226
157
21
125
51
152
40
199
225
237
113
166
134
18
35
2
163
141
77
78
53
151
119
148
188
80
175
137
191
240
22
144
110
39
1
123
5
231
56
107
19
50
30
61
246
12
52
135
209
108
36
34
197
161
248
33
94
169
212
23
241
24
147
75
160
129
158
45
165
57
150
20

> <PUBCHEM_MMFF94_PARTIAL_CHARGES>
35
1 -0.68
10 0.28
13 0.14
14 0.14
15 -0.14
16 -0.14
17 -0.15
18 -0.15
19 -0.15
2 -0.68
20 -0.15
21 0.08
22 0.08
23 0.08
24 0.08
25 -0.15
26 0.08
27 0.28
28 0.28
29 0.28
3 -0.36
4 -0.36
42 0.4
43 0.4
44 0.15
45 0.15
46 0.15
47 0.15
48 0.15
49 0.45
5 -0.36
50 0.45
6 -0.53
7 -0.53
9 0.28

> <PUBCHEM_EFFECTIVE_ROTOR_COUNT>
11

> <PUBCHEM_PHARMACOPHORE_FEATURES>
11
1 1 acceptor
1 1 donor
1 2 acceptor
1 2 donor
1 3 acceptor
1 4 acceptor
1 5 acceptor
1 6 donor
1 7 donor
6 15 17 18 21 22 24 rings
6 16 19 20 23 25 26 rings

> <PUBCHEM_HEAVY_ATOM_COUNT>
29

> <PUBCHEM_ATOM_DEF_STEREO_COUNT>
2

> <PUBCHEM_ATOM_UDEF_STEREO_COUNT>
0

> <PUBCHEM_BOND_DEF_STEREO_COUNT>
0

> <PUBCHEM_BOND_UDEF_STEREO_COUNT>
0

> <PUBCHEM_ISOTOPIC_ATOM_COUNT>
0

> <PUBCHEM_COMPONENT_COUNT>
1

> <PUBCHEM_CACTVS_TAUTO_COUNT>
6

> <PUBCHEM_CONFORMER_ID>
0001EFA700000003

> <PUBCHEM_MMFF94_ENERGY>
98.0642

> <PUBCHEM_FEATURE_SELFOVERLAP>
55.825

> <PUBCHEM_SHAPE_FINGERPRINT>
12107183 9 18408315580601835202
12925494 130 18264487467390515864
13248334 5 18052258393153337575
14117953 113 18340210696083809612
14257110 125 18411979153007669043
14394314 77 18341337695940838025
14849402 71 18263645052405631250
15064981 194 17971483050395650862
15183329 4 18341896298516222656
15301273 46 14707205479081897522
15357212 105 17460613643457787540
15419008 145 18190170205702486344
16087824 20 18408887313779298356
16992752 21 17845926425961588383
19302320 297 18408611339764039912
19611394 137 18116444811671114763
20715895 44 18412830187813108010
21298829 104 18342181033863922601
21585482 111 18264209098229886261
21585482 57 18338227276318629295
22122407 14 18263369234084530402
245318 6 18115888445280241309
2748736 6 18412826884803967801
2838139 119 18342172288914589567
4144715 1 18116163340731187538
5911458 16 18341895186430760105
99344 41 18340206298258961149

> <PUBCHEM_SHAPE_MULTIPOLES>
555.72
26.15
3.98
1.03
13.67
0.65
0.07
12.98
-2.06
-2.03
0.48
0.29
-0.18
-3.04

> <PUBCHEM_SHAPE_SELFOVERLAP>
1150.696

> <PUBCHEM_SHAPE_VOLUME>
318.5

> <PUBCHEM_COORDINATE_TYPE>
2
5
10

$$$$
