126968632
  -OEChem-03292013293D

 57 60  0     1  0  0  0  0  0999 V2000
    3.4255    0.2094   -1.9104 O   0  0  0  0  0  0  0  0  0  0  0  0
   -0.3088    2.9124    0.0719 O   0  0  0  0  0  0  0  0  0  0  0  0
   -2.7331   -3.0046    0.2285 O   0  0  0  0  0  0  0  0  0  0  0  0
    5.1308   -0.7339    0.9066 O   0  0  0  0  0  0  0  0  0  0  0  0
   -6.3892    0.1521   -0.9571 O   0  0  0  0  0  0  0  0  0  0  0  0
    6.2999    1.6451    0.4674 O   0  0  0  0  0  0  0  0  0  0  0  0
    2.0206   -0.0528    0.0928 C   0  0  1  0  0  0  0  0  0  0  0  0
    1.0437   -0.9679   -0.6708 C   0  0  2  0  0  0  0  0  0  0  0  0
   -0.4381   -0.8973   -0.2823 C   0  0  2  0  0  0  0  0  0  0  0  0
   -0.9406    0.5812   -0.2435 C   0  0  1  0  0  0  0  0  0  0  0  0
    3.3420   -0.4285   -0.6383 C   0  0  1  0  0  0  0  0  0  0  0  0
   -2.4291    0.7213    0.3284 C   0  0  2  0  0  0  0  0  0  0  0  0
    1.5306    1.3876   -0.1030 C   0  0  0  0  0  0  0  0  0  0  0  0
    0.0835    1.5754    0.3878 C   0  0  1  0  0  0  0  0  0  0  0  0
    1.7531   -2.3187   -0.7030 C   0  0  0  0  0  0  0  0  0  0  0  0
    3.2468   -1.9575   -0.8410 C   0  0  0  0  0  0  0  0  0  0  0  0
   -0.8873   -1.6566    0.9634 C   0  0  0  0  0  0  0  0  0  0  0  0
    2.1483   -0.3706    1.6029 C   0  0  0  0  0  0  0  0  0  0  0  0
   -3.1606   -0.6310    0.3535 C   0  0  0  0  0  0  0  0  0  0  0  0
   -2.4142   -1.8138    0.9556 C   0  0  1  0  0  0  0  0  0  0  0  0
   -3.1868    1.7181   -0.6026 C   0  0  0  0  0  0  0  0  0  0  0  0
   -2.4814    1.2666    1.7777 C   0  0  0  0  0  0  0  0  0  0  0  0
    4.5867   -0.0014    0.0816 C   0  0  0  0  0  0  0  0  0  0  0  0
   -4.6908    1.7379   -0.3866 C   0  0  0  0  0  0  0  0  0  0  0  0
   -4.4256   -0.7922   -0.0779 C   0  0  0  0  0  0  0  0  0  0  0  0
   -5.2511    0.3496   -0.5359 C   0  0  0  0  0  0  0  0  0  0  0  0
    5.1249    1.3702   -0.2656 C   0  0  0  0  0  0  0  0  0  0  0  0
    1.0441   -0.6251   -1.7209 H   0  0  0  0  0  0  0  0  0  0  0  0
   -0.9585   -1.3810   -1.1250 H   0  0  0  0  0  0  0  0  0  0  0  0
   -0.9845    0.8714   -1.3051 H   0  0  0  0  0  0  0  0  0  0  0  0
    1.5801    1.6880   -1.1576 H   0  0  0  0  0  0  0  0  0  0  0  0
    2.1796    2.0936    0.4284 H   0  0  0  0  0  0  0  0  0  0  0  0
    0.0713    1.4897    1.4774 H   0  0  0  0  0  0  0  0  0  0  0  0
    1.4118   -2.9369   -1.5397 H   0  0  0  0  0  0  0  0  0  0  0  0
    1.6003   -2.8927    0.2158 H   0  0  0  0  0  0  0  0  0  0  0  0
    3.8174   -2.5300   -0.1019 H   0  0  0  0  0  0  0  0  0  0  0  0
    3.6078   -2.2566   -1.8318 H   0  0  0  0  0  0  0  0  0  0  0  0
   -0.5971   -1.1220    1.8696 H   0  0  0  0  0  0  0  0  0  0  0  0
   -0.4202   -2.6451    1.0089 H   0  0  0  0  0  0  0  0  0  0  0  0
    2.4724   -1.3984    1.7929 H   0  0  0  0  0  0  0  0  0  0  0  0
    1.2183   -0.2230    2.1502 H   0  0  0  0  0  0  0  0  0  0  0  0
    2.8763    0.2967    2.0788 H   0  0  0  0  0  0  0  0  0  0  0  0
   -2.7596   -1.9618    1.9862 H   0  0  0  0  0  0  0  0  0  0  0  0
   -3.0104    1.4453   -1.6527 H   0  0  0  0  0  0  0  0  0  0  0  0
   -2.7989    2.7354   -0.4784 H   0  0  0  0  0  0  0  0  0  0  0  0
   -2.1604    2.3119    1.8322 H   0  0  0  0  0  0  0  0  0  0  0  0
   -1.8511    0.6865    2.4591 H   0  0  0  0  0  0  0  0  0  0  0  0
   -3.4975    1.2311    2.1888 H   0  0  0  0  0  0  0  0  0  0  0  0
    4.1386   -0.2126   -2.4197 H   0  0  0  0  0  0  0  0  0  0  0  0
   -5.1532    2.3822   -1.1426 H   0  0  0  0  0  0  0  0  0  0  0  0
   -4.9599    2.1254    0.6006 H   0  0  0  0  0  0  0  0  0  0  0  0
    0.3117    3.5141    0.5176 H   0  0  0  0  0  0  0  0  0  0  0  0
   -4.9249   -1.7550   -0.0437 H   0  0  0  0  0  0  0  0  0  0  0  0
   -2.3462   -3.7555    0.7105 H   0  0  0  0  0  0  0  0  0  0  0  0
    4.3826    2.1327   -0.0243 H   0  0  0  0  0  0  0  0  0  0  0  0
    5.3898    1.4172   -1.3246 H   0  0  0  0  0  0  0  0  0  0  0  0
    6.5902    2.5403    0.2227 H   0  0  0  0  0  0  0  0  0  0  0  0
  1 11  1  0  0  0  0
  1 49  1  0  0  0  0
  2 14  1  0  0  0  0
  2 52  1  0  0  0  0
  3 20  1  0  0  0  0
  3 54  1  0  0  0  0
  4 23  2  0  0  0  0
  5 26  2  0  0  0  0
  6 27  1  0  0  0  0
  6 57  1  0  0  0  0
  7  8  1  0  0  0  0
  7 11  1  0  0  0  0
  7 13  1  0  0  0  0
  7 18  1  0  0  0  0
  8  9  1  0  0  0  0
  8 15  1  0  0  0  0
  8 28  1  0  0  0  0
  9 10  1  0  0  0  0
  9 17  1  0  0  0  0
  9 29  1  0  0  0  0
 10 12  1  0  0  0  0
 10 14  1  0  0  0  0
 10 30  1  0  0  0  0
 11 16  1  0  0  0  0
 11 23  1  0  0  0  0
 12 19  1  0  0  0  0
 12 21  1  0  0  0  0
 12 22  1  0  0  0  0
 13 14  1  0  0  0  0
 13 31  1  0  0  0  0
 13 32  1  0  0  0  0
 14 33  1  0  0  0  0
 15 16  1  0  0  0  0
 15 34  1  0  0  0  0
 15 35  1  0  0  0  0
 16 36  1  0  0  0  0
 16 37  1  0  0  0  0
 17 20  1  0  0  0  0
 17 38  1  0  0  0  0
 17 39  1  0  0  0  0
 18 40  1  0  0  0  0
 18 41  1  0  0  0  0
 18 42  1  0  0  0  0
 19 20  1  0  0  0  0
 19 25  2  0  0  0  0
 20 43  1  0  0  0  0
 21 24  1  0  0  0  0
 21 44  1  0  0  0  0
 21 45  1  0  0  0  0
 22 46  1  0  0  0  0
 22 47  1  0  0  0  0
 22 48  1  0  0  0  0
 23 27  1  0  0  0  0
 24 26  1  0  0  0  0
 24 50  1  0  0  0  0
 24 51  1  0  0  0  0
 25 26  1  0  0  0  0
 25 53  1  0  0  0  0
 27 55  1  0  0  0  0
 27 56  1  0  0  0  0
M  END
> <PUBCHEM_COMPOUND_CID>
126968632

> <PUBCHEM_CONFORMER_RMSD>
0.8

> <PUBCHEM_CONFORMER_DIVERSEORDER>
1
8
2
7
6
9
5
3
4

> <PUBCHEM_MMFF94_PARTIAL_CHARGES>
21
1 -0.68
11 0.34
12 0.14
14 0.28
19 -0.28
2 -0.68
20 0.42
23 0.45
24 0.06
25 -0.14
26 0.49
27 0.34
3 -0.68
4 -0.57
49 0.4
5 -0.57
52 0.4
53 0.15
54 0.4
57 0.4
6 -0.68

> <PUBCHEM_EFFECTIVE_ROTOR_COUNT>
3.8

> <PUBCHEM_PHARMACOPHORE_FEATURES>
14
1 1 acceptor
1 1 donor
1 2 acceptor
1 2 donor
1 3 acceptor
1 3 donor
1 4 acceptor
1 5 acceptor
1 6 acceptor
1 6 donor
5 7 8 11 15 16 rings
6 12 19 21 24 25 26 rings
6 7 8 9 10 13 14 rings
6 9 10 12 17 19 20 rings

> <PUBCHEM_HEAVY_ATOM_COUNT>
27

> <PUBCHEM_ATOM_DEF_STEREO_COUNT>
6

> <PUBCHEM_ATOM_UDEF_STEREO_COUNT>
2

> <PUBCHEM_BOND_DEF_STEREO_COUNT>
0

> <PUBCHEM_BOND_UDEF_STEREO_COUNT>
0

> <PUBCHEM_ISOTOPIC_ATOM_COUNT>
0

> <PUBCHEM_COMPONENT_COUNT>
1

> <PUBCHEM_CACTVS_TAUTO_COUNT>
6

> <PUBCHEM_CONFORMER_ID>
0791633800000001

> <PUBCHEM_MMFF94_ENERGY>
103.3638

> <PUBCHEM_FEATURE_SELFOVERLAP>
71.159

> <PUBCHEM_SHAPE_FINGERPRINT>
10366900 7 17704352177694507603
10498660 4 18410580552362337524
10675989 125 17397252842550952325
10906281 52 18340785779092904017
11135609 187 18341048532866308297
11578080 2 16771808104289904131
12011746 2 18343019995104458853
12035758 1 18335433382733149713
12236239 1 17458060473693015234
12403814 3 17167863045669725789
12553582 1 18266765543666613168
12788726 201 18339918200084088505
13140716 1 18340492265338745720
13224815 77 18273221876229484094
13402501 40 18410571799155840621
13911987 19 17489032668734302696
14787075 74 18412258428544366761
14790565 3 17764598620892236577
15196674 1 18339927021603418439
15375358 24 18411422791096125998
15788980 27 16950287299456010760
16752209 62 18188490142959993025
16945 1 18266476333775302412
17349148 13 18411975836717617773
17980427 23 17822576135243233286
18608769 82 18334861667052527587
18769570 83 16732697234112041093
200 152 17775281647702335597
20511986 3 17894896443281806402
20645477 70 17632019637462974558
20691752 17 18118141185422095240
20715895 44 18114460042078453573
21029758 11 18342176657286622329
21033648 29 17489295382935130003
21285901 2 18339645521157585037
21859007 373 17170098253892800334
221357 26 18412258403586907693
23402539 116 18410004429549014719
23558518 356 17837782122824892304
23559900 14 18269548493896936537
3004659 81 18186802431477110910
3178227 256 18260844687580465681
3380486 145 18267602345694368491
34797466 226 17632584876486310140
34934 24 18410290319836800326
350125 39 18267592488153593153
4340502 62 16226053262569434521
5104073 3 18337117769489689354
5283173 99 18261950739452214941
59554788 191 18264492964785040078
59755656 215 18338240354336251150
6004065 56 18200300139288465221
9709674 26 18269846324056232806
9981440 41 18187088355744957731

> <PUBCHEM_SHAPE_MULTIPOLES>
520.43
11.8
2.49
1.19
1.49
0.34
-0.18
-2.95
1.67
-0.32
-0.05
0.17
0.05
0.62

> <PUBCHEM_SHAPE_SELFOVERLAP>
1119.597

> <PUBCHEM_SHAPE_VOLUME>
281.9

> <PUBCHEM_COORDINATE_TYPE>
2
5
10

$$$$
