REMARK  Name = 126970673
REMARK  5 active torsions:
REMARK  status: ('A' for Active; 'I' for Inactive)
REMARK    1  A    between atoms: N_1  and  C_28
REMARK    2  A    between atoms: C_4  and  N_9
REMARK    3  A    between atoms: C_13  and  C_19
REMARK    4  A    between atoms: C_33  and  C_34
REMARK    5  A    between atoms: C_34  and  O_36
REMARK                            x       y       z     vdW  Elec       q    Type
REMARK                         _______ _______ _______ _____ _____    ______ ____
ROOT
ATOM      1  N   UNL     1       1.550  -1.202   0.178  0.00  0.00    -0.256 N 
ATOM      2  N   UNL     1       1.916  -2.192   1.010  0.00  0.00    -0.173 NA
ATOM      3  C   UNL     1       0.265  -1.306  -0.270  0.00  0.00    +0.071 A 
ATOM      4  C   UNL     1      -0.243  -2.443   0.309  0.00  0.00    +0.086 A 
ATOM      5  C   UNL     1       0.817  -2.947   1.087  0.00  0.00    +0.094 A 
ATOM      6  C   UNL     1      -0.342  -0.324  -1.189  0.00  0.00    +0.053 C 
ATOM      7  C   UNL     1       0.829  -4.157   1.928  0.00  0.00    +0.055 C 
ENDROOT
BRANCH   4   9
ATOM      8 CL   UNL     1      -6.788  -0.718  -0.879  0.00  0.00    -0.078 Cl
ATOM      9  N   UNL     1      -1.481  -2.955   0.162  0.00  0.00    -0.245 N 
ATOM     10  N   UNL     1      -2.852  -1.049  -0.229  0.00  0.00    -0.336 NA
ATOM     11  N   UNL     1      -3.818  -3.256  -0.178  0.00  0.00    -0.169 NA
ATOM     12  C   UNL     1      -2.792  -2.388  -0.097  0.00  0.00    +0.149 C 
ATOM     13  C   UNL     1      -4.084  -0.555  -0.469  0.00  0.00    +0.159 C 
ATOM     14  C   UNL     1      -5.216  -1.337  -0.575  0.00  0.00    +0.108 C 
ATOM     15  C   UNL     1      -5.021  -2.694  -0.419  0.00  0.00    +0.126 C 
ATOM     16  H   UNL     1      -1.501  -3.936   0.249  0.00  0.00    +0.165 HD
BRANCH  13  19
ATOM     17  N   UNL     1      -3.947   3.054  -0.173  0.00  0.00    -0.189 N 
ATOM     18  N   UNL     1      -4.438   2.981  -1.440  0.00  0.00    -0.172 NA
ATOM     19  C   UNL     1      -4.129   0.876  -0.608  0.00  0.00    +0.068 C 
ATOM     20  C   UNL     1      -3.750   1.775   0.358  0.00  0.00    +0.078 C 
ATOM     21  C   UNL     1      -4.542   1.674  -1.685  0.00  0.00    +0.122 C 
ATOM     22  C   UNL     1      -3.238   1.669   1.682  0.00  0.00    +0.017 C 
ATOM     23  C   UNL     1      -3.656   4.210   0.561  0.00  0.00    +0.089 C 
ATOM     24  C   UNL     1      -2.962   2.787   2.379  0.00  0.00    +0.003 C 
ATOM     25  C   UNL     1      -3.175   4.106   1.809  0.00  0.00    +0.018 C 
ENDBRANCH  13  19
ENDBRANCH   4   9
BRANCH   1  28
ATOM     26  O   UNL     1       7.178   0.538  -1.819  0.00  0.00    -0.272 OA
ATOM     27  N   UNL     1       5.226   0.907  -0.615  0.00  0.00    -0.277 N 
ATOM     28  C   UNL     1       2.551  -0.116  -0.167  0.00  0.00    +0.108 C 
ATOM     29  C   UNL     1       3.514   0.174   1.000  0.00  0.00    +0.046 C 
ATOM     30  C   UNL     1       3.343  -0.446  -1.446  0.00  0.00    +0.046 C 
ATOM     31  C   UNL     1       4.522   1.260   0.624  0.00  0.00    +0.095 C 
ATOM     32  C   UNL     1       4.354   0.655  -1.763  0.00  0.00    +0.095 C 
ATOM     33  C   UNL     1       6.610   0.820  -0.761  0.00  0.00    +0.253 C 
BRANCH  33  34
ATOM     34  C   UNL     1       7.438   1.091   0.470  0.00  0.00    +0.187 C 
ATOM     35  C   UNL     1       7.733  -0.191   1.212  0.00  0.00    +0.042 C 
BRANCH  34  36
ATOM     36  O   UNL     1       8.628   1.700   0.014  0.00  0.00    -0.376 OA
ATOM     37  H   UNL     1       8.413   2.519  -0.458  0.00  0.00    +0.211 HD
ENDBRANCH  34  36
ENDBRANCH  33  34
ENDBRANCH   1  28
TORSDOF 5
