REMARK  Name = 126963455
REMARK  5 active torsions:
REMARK  status: ('A' for Active; 'I' for Inactive)
REMARK    1  A    between atoms: N_2  and  C1*_12
REMARK    2  A    between atoms: C2*_13  and  O2*_16
REMARK    3  A    between atoms: C3*_14  and  O3*_18
REMARK    4  A    between atoms: C4*_15  and  C5*_20
REMARK    5  A    between atoms: C5*_20  and  O5*_21
REMARK                            x       y       z     vdW  Elec       q    Type
REMARK                         _______ _______ _______ _____ _____    ______ ____
ROOT
ATOM      1 BR   UNL     1      -2.184   3.351  -0.571  0.00  0.00    -0.051 Br
ATOM      2  N   UNL     1      -0.130  -0.050   0.201  0.00  0.00    -0.250 N 
ATOM      3  N   UNL     1      -1.696  -1.855   0.518  0.00  0.00    -0.233 NA
ATOM      4  N   UNL     1      -4.016  -1.151   0.292  0.00  0.00    -0.234 NA
ATOM      5  C   UNL     1      -1.395  -0.570   0.264  0.00  0.00    +0.122 C 
ATOM      6  C   UNL     1      -0.200   1.291  -0.077  0.00  0.00    +0.071 C 
ATOM      7  C   UNL     1      -2.295   0.461   0.020  0.00  0.00    +0.137 C 
ATOM      8  C   UNL     1      -1.530   1.635  -0.195  0.00  0.00    +0.041 C 
ATOM      9  C   UNL     1      -3.648   0.126   0.041  0.00  0.00    +0.110 C 
ATOM     10  C   UNL     1      -3.031  -2.051   0.512  0.00  0.00    +0.252 C 
ATOM     11  N   UNL     1      -4.650   1.087  -0.191  0.00  0.00    -0.346 N 
ATOM     12  H   UNL     1      -5.598   0.824  -0.171  0.00  0.00    +0.143 HD
ATOM     13  H   UNL     1      -4.402   2.022  -0.375  0.00  0.00    +0.143 HD
ENDROOT
BRANCH   2  15
ATOM     14  O4* UNL     1       2.164   0.005   1.018  0.00  0.00    -0.333 OA
ATOM     15  C1* UNL     1       1.154  -0.823   0.407  0.00  0.00    +0.227 C 
ATOM     16  C2* UNL     1       1.741  -1.362  -0.904  0.00  0.00    +0.187 C 
ATOM     17  C3* UNL     1       2.956  -0.488  -1.149  0.00  0.00    +0.171 C 
ATOM     18  C4* UNL     1       3.381  -0.116   0.265  0.00  0.00    +0.175 C 
BRANCH  16  19
ATOM     19  O2* UNL     1       2.144  -2.718  -0.725  0.00  0.00    -0.378 OA
ATOM     20  H2* UNL     1       1.361  -3.270  -0.569  0.00  0.00    +0.211 HD
ENDBRANCH  16  19
BRANCH  17  21
ATOM     21  O3* UNL     1       2.569   0.671  -1.876  0.00  0.00    -0.379 OA
ATOM     22  H3* UNL     1       2.302   0.416  -2.773  0.00  0.00    +0.211 HD
ENDBRANCH  17  21
BRANCH  18  23
ATOM     23  C5* UNL     1       4.178   1.170   0.390  0.00  0.00    +0.169 C 
BRANCH  23  24
ATOM     24  O5* UNL     1       4.489   1.386   1.758  0.00  0.00    -0.379 OA
ATOM     25  H5* UNL     1       4.999   2.206   1.848  0.00  0.00    +0.211 HD
ENDBRANCH  23  24
ENDBRANCH  18  23
ENDBRANCH   2  15
TORSDOF 5
