126970300
  -OEChem-03292013293D

 48 52  0     1  0  0  0  0  0999 V2000
   -1.9836    3.8943   -0.5195 F   0  0  0  0  0  0  0  0  0  0  0  0
    2.0140   -3.8445   -0.3933 F   0  0  0  0  0  0  0  0  0  0  0  0
   -0.7511   -0.3552    2.4634 O   0  0  0  0  0  0  0  0  0  0  0  0
   -2.6945    0.7944    2.1504 O   0  0  0  0  0  0  0  0  0  0  0  0
   -2.0163    1.1528   -0.6572 N   0  0  0  0  0  0  0  0  0  0  0  0
    0.3161    1.0877   -0.3665 N   0  0  0  0  0  0  0  0  0  0  0  0
    1.5373    3.1492   -0.1090 N   0  0  0  0  0  0  0  0  0  0  0  0
    4.8413    0.7080    0.1945 N   0  0  0  0  0  0  0  0  0  0  0  0
    4.9159   -1.6974    0.0846 N   0  0  0  0  0  0  0  0  0  0  0  0
   -3.4307   -0.6766   -1.4894 C   0  0  0  0  0  0  0  0  0  0  0  0
   -3.3263   -1.9027    0.8035 C   0  0  0  0  0  0  0  0  0  0  0  0
   -2.1311   -0.2882   -0.7436 C   0  0  2  0  0  0  0  0  0  0  0  0
   -2.0858   -0.9917    0.6334 C   0  0  1  0  0  0  0  0  0  0  0  0
   -4.6598   -0.3161   -0.6340 C   0  0  0  0  0  0  0  0  0  0  0  0
   -3.4251   -2.2035   -1.7000 C   0  0  0  0  0  0  0  0  0  0  0  0
   -4.6196   -1.0717    0.6989 C   0  0  0  0  0  0  0  0  0  0  0  0
   -3.3315   -2.9268   -0.3480 C   0  0  0  0  0  0  0  0  0  0  0  0
   -1.9090   -0.0795    1.8148 C   0  0  0  0  0  0  0  0  0  0  0  0
   -0.8156    1.8147   -0.4736 C   0  0  0  0  0  0  0  0  0  0  0  0
   -0.8506    3.1927   -0.4092 C   0  0  0  0  0  0  0  0  0  0  0  0
    1.4397    1.8084   -0.1883 C   0  0  0  0  0  0  0  0  0  0  0  0
    0.3681    3.8128   -0.2240 C   0  0  0  0  0  0  0  0  0  0  0  0
    2.6615    1.0694   -0.0678 C   0  0  0  0  0  0  0  0  0  0  0  0
    2.8883   -0.3318   -0.1083 C   0  0  0  0  0  0  0  0  0  0  0  0
    3.8810    1.6835    0.1196 C   0  0  0  0  0  0  0  0  0  0  0  0
    4.2567   -0.5236    0.0580 C   0  0  0  0  0  0  0  0  0  0  0  0
    2.0901   -1.4761   -0.2677 C   0  0  0  0  0  0  0  0  0  0  0  0
    2.7220   -2.7181   -0.2480 C   0  0  0  0  0  0  0  0  0  0  0  0
    4.0986   -2.7644   -0.0734 C   0  0  0  0  0  0  0  0  0  0  0  0
   -3.4891   -0.1648   -2.4571 H   0  0  0  0  0  0  0  0  0  0  0  0
   -3.2961   -2.4217    1.7684 H   0  0  0  0  0  0  0  0  0  0  0  0
   -1.3003   -0.6668   -1.3558 H   0  0  0  0  0  0  0  0  0  0  0  0
   -1.2100   -1.6572    0.6182 H   0  0  0  0  0  0  0  0  0  0  0  0
   -5.5774   -0.5813   -1.1740 H   0  0  0  0  0  0  0  0  0  0  0  0
   -4.7220    0.7618   -0.4524 H   0  0  0  0  0  0  0  0  0  0  0  0
   -4.3363   -2.5154   -2.2247 H   0  0  0  0  0  0  0  0  0  0  0  0
   -2.5825   -2.4976   -2.3371 H   0  0  0  0  0  0  0  0  0  0  0  0
   -4.1764   -3.6173   -0.2388 H   0  0  0  0  0  0  0  0  0  0  0  0
   -4.7267   -0.3748    1.5352 H   0  0  0  0  0  0  0  0  0  0  0  0
   -5.4886   -1.7392    0.7621 H   0  0  0  0  0  0  0  0  0  0  0  0
   -2.4226   -3.5396   -0.3158 H   0  0  0  0  0  0  0  0  0  0  0  0
   -2.8537    1.6840   -0.4449 H   0  0  0  0  0  0  0  0  0  0  0  0
   -0.6152    0.2331    3.2364 H   0  0  0  0  0  0  0  0  0  0  0  0
    0.4402    4.8933   -0.1613 H   0  0  0  0  0  0  0  0  0  0  0  0
    4.1676    2.7230    0.2081 H   0  0  0  0  0  0  0  0  0  0  0  0
    5.8293    0.8712    0.3298 H   0  0  0  0  0  0  0  0  0  0  0  0
    1.0169   -1.4214   -0.4064 H   0  0  0  0  0  0  0  0  0  0  0  0
    4.6072   -3.7246   -0.0553 H   0  0  0  0  0  0  0  0  0  0  0  0
  1 20  1  0  0  0  0
  2 28  1  0  0  0  0
  3 18  1  0  0  0  0
  3 43  1  0  0  0  0
  4 18  2  0  0  0  0
  5 12  1  0  0  0  0
  5 19  1  0  0  0  0
  5 42  1  0  0  0  0
  6 19  2  0  0  0  0
  6 21  1  0  0  0  0
  7 21  2  0  0  0  0
  7 22  1  0  0  0  0
  8 25  1  0  0  0  0
  8 26  1  0  0  0  0
  8 46  1  0  0  0  0
  9 26  1  0  0  0  0
  9 29  2  0  0  0  0
 10 12  1  0  0  0  0
 10 14  1  0  0  0  0
 10 15  1  0  0  0  0
 10 30  1  0  0  0  0
 11 13  1  0  0  0  0
 11 16  1  0  0  0  0
 11 17  1  0  0  0  0
 11 31  1  0  0  0  0
 12 13  1  0  0  0  0
 12 32  1  0  0  0  0
 13 18  1  0  0  0  0
 13 33  1  0  0  0  0
 14 16  1  0  0  0  0
 14 34  1  0  0  0  0
 14 35  1  0  0  0  0
 15 17  1  0  0  0  0
 15 36  1  0  0  0  0
 15 37  1  0  0  0  0
 16 39  1  0  0  0  0
 16 40  1  0  0  0  0
 17 38  1  0  0  0  0
 17 41  1  0  0  0  0
 19 20  1  0  0  0  0
 20 22  2  0  0  0  0
 21 23  1  0  0  0  0
 22 44  1  0  0  0  0
 23 24  1  0  0  0  0
 23 25  2  0  0  0  0
 24 26  2  0  0  0  0
 24 27  1  0  0  0  0
 25 45  1  0  0  0  0
 27 28  2  0  0  0  0
 27 47  1  0  0  0  0
 28 29  1  0  0  0  0
 29 48  1  0  0  0  0
M  END
> <PUBCHEM_COMPOUND_CID>
126970300

> <PUBCHEM_CONFORMER_RMSD>
0.8

> <PUBCHEM_CONFORMER_DIVERSEORDER>
1
33
36
27
16
19
3
10
34
37
20
23
35
39
24
21
22
30
32
6
28
26
12
29
17
31
15
4
11
7
14
9
25
38
2
8
18
5
13

> <PUBCHEM_MMFF94_PARTIAL_CHARGES>
29
1 -0.19
12 0.37
13 0.06
18 0.66
19 0.41
2 -0.19
20 0.19
21 0.67
22 0.16
23 -0.05
25 -0.3
26 0.11
27 -0.15
28 0.19
29 0.16
3 -0.65
4 -0.57
42 0.4
43 0.5
44 0.15
45 0.15
46 0.27
47 0.15
48 0.15
5 -0.87
6 -0.62
7 -0.62
8 0.03
9 -0.57

> <PUBCHEM_EFFECTIVE_ROTOR_COUNT>
5.2

> <PUBCHEM_PHARMACOPHORE_FEATURES>
13
1 3 acceptor
1 4 acceptor
1 5 donor
1 8 cation
1 8 donor
1 9 acceptor
3 3 4 18 anion
3 5 6 19 cation
3 6 7 21 cation
5 8 23 24 25 26 rings
6 6 7 19 20 21 22 rings
6 9 24 26 27 28 29 rings
8 10 11 12 13 14 15 16 17 rings

> <PUBCHEM_HEAVY_ATOM_COUNT>
29

> <PUBCHEM_ATOM_DEF_STEREO_COUNT>
2

> <PUBCHEM_ATOM_UDEF_STEREO_COUNT>
0

> <PUBCHEM_BOND_DEF_STEREO_COUNT>
0

> <PUBCHEM_BOND_UDEF_STEREO_COUNT>
0

> <PUBCHEM_ISOTOPIC_ATOM_COUNT>
0

> <PUBCHEM_COMPONENT_COUNT>
1

> <PUBCHEM_CACTVS_TAUTO_COUNT>
29

> <PUBCHEM_CONFORMER_ID>
079169BC00000001

> <PUBCHEM_MMFF94_ENERGY>
77.7956

> <PUBCHEM_FEATURE_SELFOVERLAP>
66.281

> <PUBCHEM_SHAPE_FINGERPRINT>
10616163 171 18267582412640124486
1100329 8 17471847009401631182
11552529 35 18059297569614493704
11578080 2 17631425961071119577
12107183 9 18341062865319770977
12363563 72 18334580156961476948
12422481 6 17982197555686350817
12553582 1 18336564779723396420
12596599 1 17916604088691108398
12788726 201 18190451675782427209
13004483 165 18340760455991944663
13140716 1 18195809570560040296
13402501 40 18261109716125384842
13544653 18 18334296483014375380
1361 2 17977942711141314547
13690498 29 18195543497642080542
138480 1 14880030723887215388
13911987 19 17828495995957940924
14117953 113 18271806765988992959
14251757 17 18042385990020752797
14659021 117 18190450572524783234
14790565 3 17760371389335590308
14840074 17 18201726183941044087
14844126 61 18048026372986568434
14866123 147 18122060910543295225
15352361 1 18409444795494929766
17357779 13 18187081771485609020
19930381 70 18264766743380965575
20511986 3 17631442518438505045
21033650 10 16660638501575093261
21133410 171 17397767593980866647
22113638 7 18124029302481488910
23559900 14 18336253626423047924
3737641 26 18341060648705202390
46194498 28 17532366672336692215
463206 1 18336546130759743006
5309563 4 18337393837044752663
6443956 14 18335984263143017452
9709674 26 18265612079160506628

> <PUBCHEM_SHAPE_MULTIPOLES>
545.62
9.42
4.52
1.34
2.53
1.78
0.65
-6.12
-0.41
1.82
-1
-1.68
-0.19
-0.12

> <PUBCHEM_SHAPE_SELFOVERLAP>
1223.583

> <PUBCHEM_SHAPE_VOLUME>
289.2

> <PUBCHEM_COORDINATE_TYPE>
2
5
10

$$$$
