REMARK  Name = 126981
REMARK  4 active torsions:
REMARK  status: ('A' for Active; 'I' for Inactive)
REMARK    1  A    between atoms: C_9  and  S_17
REMARK    2  A    between atoms: S_17  and  C_19
REMARK    3  A    between atoms: C_19  and  C_21
REMARK    4  A    between atoms: C_23  and  O_27
REMARK                            x       y       z     vdW  Elec       q    Type
REMARK                         _______ _______ _______ _____ _____    ______ ____
ROOT
ATOM      1  F   UNL     1       7.263  -1.197  -0.575  0.00  0.00    -0.125 F 
ATOM      2  F   UNL     1       7.153  -0.352   1.441  0.00  0.00    -0.125 F 
ATOM      3  O   UNL     1       5.995   0.650  -0.230  0.00  0.00    -0.395 OA
ATOM      4  O   UNL     1       5.377  -1.513   0.643  0.00  0.00    -0.395 OA
ATOM      5  N   UNL     1       1.199   1.585  -0.882  0.00  0.00    -0.307 N 
ATOM      6  N   UNL     1       0.624  -0.406  -0.078  0.00  0.00    -0.307 N 
ATOM      7  C   UNL     1       2.382   0.969  -0.559  0.00  0.00    +0.063 C 
ATOM      8  C   UNL     1       1.995  -0.278  -0.057  0.00  0.00    +0.063 C 
ATOM      9  C   UNL     1       0.181   0.726  -0.577  0.00  0.00    +0.226 C 
ATOM     10  C   UNL     1       4.643   0.462  -0.224  0.00  0.00    +0.183 C 
ATOM     11  C   UNL     1       4.290  -0.774   0.275  0.00  0.00    +0.183 C 
ATOM     12  C   UNL     1       3.712   1.389  -0.663  0.00  0.00    +0.056 C 
ATOM     13  C   UNL     1       2.973  -1.193   0.379  0.00  0.00    +0.056 C 
ATOM     14  C   UNL     1       6.434  -0.600   0.318  0.00  0.00    +0.589 C 
ATOM     15  H   UNL     1       1.101   2.487  -1.265  0.00  0.00    +0.149 HD
ATOM     16  H   UNL     1       0.091  -1.179   0.217  0.00  0.00    +0.149 HD
ENDROOT
BRANCH   9  17
ATOM     17  S   UNL     1      -1.551   1.093  -0.825  0.00  0.00    +0.085 S 
ATOM     18  O   UNL     1      -1.794   2.552  -0.493  0.00  0.00    -0.252 OA
BRANCH  17  19
ATOM     19  C   UNL     1      -2.284   0.112   0.517  0.00  0.00    +0.140 C 
BRANCH  19  21
ATOM     20  N   UNL     1      -4.261   1.245   1.303  0.00  0.00    -0.247 NA
ATOM     21  C   UNL     1      -3.780   0.240   0.543  0.00  0.00    +0.072 C 
ATOM     22  C   UNL     1      -4.562  -0.640  -0.180  0.00  0.00    +0.027 C 
ATOM     23  C   UNL     1      -5.942  -0.475  -0.121  0.00  0.00    +0.137 C 
ATOM     24  C   UNL     1      -3.961  -1.731  -1.000  0.00  0.00    +0.035 C 
ATOM     25  C   UNL     1      -6.482   0.548   0.650  0.00  0.00    +0.057 C 
ATOM     26  C   UNL     1      -5.606   1.374   1.337  0.00  0.00    +0.102 C 
BRANCH  23  27
ATOM     27  O   UNL     1      -6.776  -1.304  -0.808  0.00  0.00    -0.472 OA
ATOM     28  C   UNL     1      -7.222  -2.479  -0.133  0.00  0.00    +0.252 C 
ENDBRANCH  23  27
ENDBRANCH  19  21
ENDBRANCH  17  19
ENDBRANCH   9  17
TORSDOF 4
