REMARK  Name = 126916
REMARK  5 active torsions:
REMARK  status: ('A' for Active; 'I' for Inactive)
REMARK    1  A    between atoms: C_7  and  C_17
REMARK    2  A    between atoms: C_16  and  O_20
REMARK    3  A    between atoms: C_18  and  O_22
REMARK    4  A    between atoms: C_19  and  C_24
REMARK    5  A    between atoms: C_24  and  O_25
REMARK                            x       y       z     vdW  Elec       q    Type
REMARK                         _______ _______ _______ _____ _____    ______ ____
ROOT
ATOM      1  F   UNL     1       2.213   2.976   0.495  0.00  0.00    -0.098 F 
ATOM      2  N   UNL     1       0.657  -2.292  -0.518  0.00  0.00    -0.249 N 
ATOM      3  N   UNL     1       1.997  -2.247  -0.378  0.00  0.00    -0.179 NA
ATOM      4  N   UNL     1       0.945   1.124   0.068  0.00  0.00    -0.318 NA
ATOM      5  N   UNL     1       3.421   1.041   0.300  0.00  0.00    -0.301 NA
ATOM      6  N   UNL     1       4.719  -0.983   0.098  0.00  0.00    -0.331 N 
ATOM      7  C   UNL     1       0.035  -1.089  -0.384  0.00  0.00    +0.171 C 
ATOM      8  C   UNL     1       1.042  -0.207  -0.139  0.00  0.00    +0.168 C 
ATOM      9  C   UNL     1       2.271  -0.952  -0.139  0.00  0.00    +0.170 C 
ATOM     10  C   UNL     1       3.492  -0.303   0.088  0.00  0.00    +0.213 C 
ATOM     11  C   UNL     1       2.189   1.647   0.277  0.00  0.00    +0.298 C 
ATOM     12  H   UNL     1       0.169  -3.126  -0.703  0.00  0.00    +0.169 HD
ATOM     13  H   UNL     1       5.554  -0.489   0.262  0.00  0.00    +0.145 HD
ATOM     14  H   UNL     1       4.745  -1.955  -0.058  0.00  0.00    +0.145 HD
ENDROOT
BRANCH   7  17
ATOM     15  O   UNL     1      -1.754   0.360  -1.075  0.00  0.00    -0.349 OA
ATOM     16  C   UNL     1      -2.194  -0.982   0.825  0.00  0.00    +0.169 C 
ATOM     17  C   UNL     1      -1.462  -0.933  -0.508  0.00  0.00    +0.171 C 
ATOM     18  C   UNL     1      -3.430  -0.151   0.537  0.00  0.00    +0.169 C 
ATOM     19  C   UNL     1      -2.889   0.934  -0.388  0.00  0.00    +0.174 C 
BRANCH  16  20
ATOM     20  O   UNL     1      -2.498  -2.307   1.211  0.00  0.00    -0.379 OA
ATOM     21  H   UNL     1      -1.676  -2.791   1.382  0.00  0.00    +0.211 HD
ENDBRANCH  16  20
BRANCH  18  22
ATOM     22  O   UNL     1      -4.409  -0.921  -0.160  0.00  0.00    -0.379 OA
ATOM     23  H   UNL     1      -4.755  -1.613   0.426  0.00  0.00    +0.211 HD
ENDBRANCH  18  22
BRANCH  19  24
ATOM     24  C   UNL     1      -2.418   2.171   0.363  0.00  0.00    +0.169 C 
BRANCH  24  25
ATOM     25  O   UNL     1      -1.926   3.112  -0.575  0.00  0.00    -0.379 OA
ATOM     26  H   UNL     1      -1.622   3.906  -0.108  0.00  0.00    +0.211 HD
ENDBRANCH  24  25
ENDBRANCH  19  24
ENDBRANCH   7  17
TORSDOF 5
