REMARK  Name = 126968903
REMARK  4 active torsions:
REMARK  status: ('A' for Active; 'I' for Inactive)
REMARK    1  A    between atoms: C_12  and  C_24
REMARK    2  A    between atoms: C_13  and  O_28
REMARK    3  A    between atoms: C_16  and  O_30
REMARK    4  A    between atoms: C_18  and  O_32
REMARK                            x       y       z     vdW  Elec       q    Type
REMARK                         _______ _______ _______ _____ _____    ______ ____
ROOT
ATOM      1  O   UNL     1      -1.122  -0.421  -1.186  0.00  0.00    -0.312 OA
ATOM      2  O   UNL     1       0.035   2.656  -0.569  0.00  0.00    -0.448 OA
ATOM      3  O   UNL     1       0.658  -1.964  -1.671  0.00  0.00    -0.423 OA
ATOM      4  O   UNL     1      -2.416  -1.444   1.379  0.00  0.00    -0.450 OA
ATOM      5  O   UNL     1      -1.637   2.348  -2.106  0.00  0.00    -0.247 OA
ATOM      6  O   UNL     1       1.942  -3.566  -0.646  0.00  0.00    -0.247 OA
ATOM      7  O   UNL     1      -3.849  -2.537  -0.045  0.00  0.00    -0.250 OA
ATOM      8  C   UNL     1      -0.139   0.651   0.661  0.00  0.00    +0.086 C 
ATOM      9  C   UNL     1       0.925  -0.262  -0.011  0.00  0.00    +0.108 C 
ATOM     10  C   UNL     1      -1.287   0.711  -0.335  0.00  0.00    +0.214 C 
ATOM     11  C   UNL     1       0.438   2.057   0.670  0.00  0.00    +0.198 C 
ATOM     12  C   UNL     1       2.173   0.650  -0.228  0.00  0.00    +0.039 C 
ATOM     13  C   UNL     1      -2.584   0.712   0.495  0.00  0.00    +0.167 C 
ATOM     14  C   UNL     1      -0.739   0.246   2.017  0.00  0.00    +0.053 C 
ATOM     15  C   UNL     1       0.285  -0.620  -1.357  0.00  0.00    +0.294 C 
ATOM     16  C   UNL     1       1.941   1.815   0.741  0.00  0.00    +0.151 C 
ATOM     17  C   UNL     1      -2.206  -0.076   1.739  0.00  0.00    +0.197 C 
ATOM     18  C   UNL     1       1.089  -1.655   0.594  0.00  0.00    +0.216 C 
ATOM     19  C   UNL     1      -1.026   1.984  -1.113  0.00  0.00    +0.344 C 
ATOM     20  C   UNL     1      -3.779  -0.097   0.006  0.00  0.00    +0.130 C 
ATOM     21  C   UNL     1       1.321  -2.517  -0.613  0.00  0.00    +0.346 C 
ATOM     22  C   UNL     1      -3.383  -1.502   0.405  0.00  0.00    +0.319 C 
ATOM     23  C   UNL     1      -4.130   0.053  -1.463  0.00  0.00    +0.014 C 
ENDROOT
BRANCH  12  24
ATOM     24  C   UNL     1       3.564   0.044  -0.088  0.00  0.00    +0.003 C 
ATOM     25  C   UNL     1       4.559   0.800  -0.987  0.00  0.00    +0.000 C 
ATOM     26  C   UNL     1       4.034   0.144   1.375  0.00  0.00    +0.000 C 
ATOM     27  C   UNL     1       3.536  -1.437  -0.506  0.00  0.00    +0.000 C 
ENDBRANCH  12  24
BRANCH  13  28
ATOM     28  O   UNL     1      -2.961   2.020   0.896  0.00  0.00    -0.380 OA
ATOM     29  H   UNL     1      -2.178   2.504   1.200  0.00  0.00    +0.211 HD
ENDBRANCH  13  28
BRANCH  16  30
ATOM     30  O   UNL     1       2.680   2.962   0.366  0.00  0.00    -0.381 OA
ATOM     31  H   UNL     1       2.510   3.677   0.999  0.00  0.00    +0.210 HD
ENDBRANCH  16  30
BRANCH  18  32
ATOM     32  O   UNL     1       2.077  -1.756   1.578  0.00  0.00    -0.374 OA
ATOM     33  H   UNL     1       1.856  -1.173   2.320  0.00  0.00    +0.211 HD
ENDBRANCH  18  32
TORSDOF 4
