REMARK  Name = 126969191
REMARK  5 active torsions:
REMARK  status: ('A' for Active; 'I' for Inactive)
REMARK    1  A    between atoms: N_2  and  C1*_15
REMARK    2  A    between atoms: C2*_16  and  O2*_19
REMARK    3  A    between atoms: C3*_17  and  O3*_21
REMARK    4  A    between atoms: C4*_18  and  C5*_23
REMARK    5  A    between atoms: C5*_23  and  O5*_24
REMARK                            x       y       z     vdW  Elec       q    Type
REMARK                         _______ _______ _______ _____ _____    ______ ____
ROOT
ATOM      1  O   UNL     1      -3.926   2.158   0.442  0.00  0.00    -0.191 OA
ATOM      2  N   UNL     1       0.056   0.164  -0.262  0.00  0.00    -0.222 N 
ATOM      3  N   UNL     1      -1.956   1.047   0.065  0.00  0.00    -0.142 N 
ATOM      4  N   UNL     1      -1.949  -1.234  -0.437  0.00  0.00    -0.295 NA
ATOM      5  N   UNL     1      -3.990  -0.076  -0.048  0.00  0.00    -0.240 NA
ATOM      6  N   UNL     1      -4.028  -2.342  -0.544  0.00  0.00    -0.283 N 
ATOM      7  C   UNL     1      -1.298  -0.140  -0.240  0.00  0.00    +0.277 C 
ATOM      8  C   UNL     1       0.197   1.509   0.035  0.00  0.00    +0.088 C 
ATOM      9  C   UNL     1      -1.020   2.046   0.230  0.00  0.00    +0.102 C 
ATOM     10  C   UNL     1      -3.327   1.117   0.172  0.00  0.00    +0.290 C 
ATOM     11  C   UNL     1      -3.332  -1.176  -0.333  0.00  0.00    +0.210 C 
ATOM     12  H   UNL     1      -3.545  -3.172  -0.758  0.00  0.00    +0.156 HD
ATOM     13  H   UNL     1      -5.011  -2.347  -0.480  0.00  0.00    +0.156 HD
ENDROOT
BRANCH   2  15
ATOM     14  O4* UNL     1       2.260  -0.122  -1.062  0.00  0.00    -0.333 OA
ATOM     15  C1* UNL     1       1.126  -0.783  -0.472  0.00  0.00    +0.229 C 
ATOM     16  C2* UNL     1       1.591  -1.375   0.857  0.00  0.00    +0.187 C 
ATOM     17  C3* UNL     1       2.813  -0.546   1.196  0.00  0.00    +0.171 C 
ATOM     18  C4* UNL     1       3.390  -0.262  -0.185  0.00  0.00    +0.175 C 
BRANCH  16  19
ATOM     19  O2* UNL     1       1.991  -2.728   0.659  0.00  0.00    -0.378 OA
ATOM     20  H2* UNL     1       1.214  -3.266   0.442  0.00  0.00    +0.211 HD
ENDBRANCH  16  19
BRANCH  17  21
ATOM     21  O3* UNL     1       2.413   0.661   1.831  0.00  0.00    -0.379 OA
ATOM     22  H3* UNL     1       2.048   0.459   2.708  0.00  0.00    +0.211 HD
ENDBRANCH  17  21
BRANCH  18  23
ATOM     23  C5* UNL     1       4.260   0.978  -0.286  0.00  0.00    +0.169 C 
BRANCH  23  24
ATOM     24  O5* UNL     1       4.729   1.103  -1.619  0.00  0.00    -0.379 OA
ATOM     25  H5* UNL     1       5.286   1.893  -1.694  0.00  0.00    +0.211 HD
ENDBRANCH  23  24
ENDBRANCH  18  23
ENDBRANCH   2  15
TORSDOF 5
