REMARK  Name = 126968801
REMARK  9 active torsions:
REMARK  status: ('A' for Active; 'I' for Inactive)
REMARK    1  A    between atoms: C_7  and  C_26
REMARK    2  A    between atoms: C_7  and  O_30
REMARK    3  A    between atoms: C_11  and  O_23
REMARK    4  A    between atoms: C_26  and  C_27
REMARK    5  A    between atoms: C_27  and  O_28
REMARK    6  A    between atoms: O_30  and  C_32
REMARK    7  A    between atoms: C_32  and  C_33
REMARK    8  A    between atoms: C_33  and  C_34
REMARK    9  A    between atoms: C_34  and  C_35
REMARK                            x       y       z     vdW  Elec       q    Type
REMARK                         _______ _______ _______ _____ _____    ______ ____
ROOT
ATOM      1  F   UNL     1      -1.919  -1.458  -0.238  0.00  0.00    -0.237 F 
ATOM      2  O   UNL     1      -6.606  -2.608   1.136  0.00  0.00    -0.287 OA
ATOM      3  C   UNL     1       0.487   1.203  -0.252  0.00  0.00    +0.043 C 
ATOM      4  C   UNL     1      -0.283   0.661   0.970  0.00  0.00    +0.007 C 
ATOM      5  C   UNL     1      -1.813   0.582   0.864  0.00  0.00    +0.033 C 
ATOM      6  C   UNL     1      -2.251  -0.132  -0.463  0.00  0.00    +0.164 C 
ATOM      7  C   UNL     1       1.942   1.053   0.287  0.00  0.00    +0.188 C 
ATOM      8  C   UNL     1       0.355   1.368   2.165  0.00  0.00    +0.004 C 
ATOM      9  C   UNL     1       0.117   0.312  -1.447  0.00  0.00    +0.036 C 
ATOM     10  C   UNL     1       1.842   1.554   1.759  0.00  0.00    +0.044 C 
ATOM     11  C   UNL     1      -1.402   0.296  -1.697  0.00  0.00    +0.141 C 
ATOM     12  C   UNL     1      -3.824  -0.077  -0.702  0.00  0.00    +0.064 C 
ATOM     13  C   UNL     1      -2.616   1.855   1.121  0.00  0.00    +0.007 C 
ATOM     14  C   UNL     1       0.190   2.687  -0.582  0.00  0.00    +0.004 C 
ATOM     15  C   UNL     1      -4.106   1.526   1.309  0.00  0.00    +0.023 C 
ATOM     16  C   UNL     1      -4.515   0.236   0.627  0.00  0.00    -0.035 C 
ATOM     17  C   UNL     1       2.793   0.875   2.741  0.00  0.00    +0.004 C 
ATOM     18  C   UNL     1      -4.269   1.013  -1.708  0.00  0.00    +0.011 C 
ATOM     19  C   UNL     1      -4.305  -1.399  -1.284  0.00  0.00    -0.017 C 
ATOM     20  C   UNL     1      -5.401  -0.583   1.214  0.00  0.00    +0.034 C 
ATOM     21  C   UNL     1      -5.193  -2.214  -0.707  0.00  0.00    +0.038 C 
ATOM     22  C   UNL     1      -5.798  -1.863   0.592  0.00  0.00    +0.195 C 
ENDROOT
BRANCH  11  23
ATOM     23  O   UNL     1      -1.656  -0.596  -2.783  0.00  0.00    -0.382 OA
ATOM     24  H   UNL     1      -2.609  -0.624  -2.961  0.00  0.00    +0.210 HD
ENDBRANCH  11  23
BRANCH   7  26
ATOM     25  O   UNL     1       3.636   2.707   0.025  0.00  0.00    -0.290 OA
ATOM     26  C   UNL     1       2.976   1.808  -0.492  0.00  0.00    +0.216 C 
BRANCH  26  27
ATOM     27  C   UNL     1       3.155   1.399  -1.939  0.00  0.00    +0.206 C 
BRANCH  27  28
ATOM     28  O   UNL     1       4.488   1.607  -2.354  0.00  0.00    -0.375 OA
ATOM     29  H   UNL     1       4.583   1.341  -3.282  0.00  0.00    +0.211 HD
ENDBRANCH  27  28
ENDBRANCH  26  27
ENDBRANCH   7  26
BRANCH   7  30
ATOM     30  O   UNL     1       2.425  -0.282   0.189  0.00  0.00    -0.449 OA
BRANCH  30  32
ATOM     31  O   UNL     1       4.590   0.468   0.462  0.00  0.00    -0.250 OA
ATOM     32  C   UNL     1       3.782  -0.435   0.294  0.00  0.00    +0.317 C 
BRANCH  32  33
ATOM     33  C   UNL     1       4.127  -1.902   0.171  0.00  0.00    +0.110 C 
BRANCH  33  34
ATOM     34  C   UNL     1       5.633  -2.144   0.257  0.00  0.00    +0.012 C 
BRANCH  34  35
ATOM     35  C   UNL     1       5.963  -3.634   0.170  0.00  0.00    +0.001 C 
ATOM     36  C   UNL     1       7.457  -3.882   0.294  0.00  0.00    +0.000 C 
ENDBRANCH  34  35
ENDBRANCH  33  34
ENDBRANCH  32  33
ENDBRANCH  30  32
ENDBRANCH   7  30
TORSDOF 9
