126970673
  -OEChem-03292013293D

 62 66  0     1  0  0  0  0  0999 V2000
   -6.7881   -0.7181   -0.8794 Cl  0  0  0  0  0  0  0  0  0  0  0  0
    7.1780    0.5381   -1.8194 O   0  0  0  0  0  0  0  0  0  0  0  0
    8.6284    1.6997    0.0143 O   0  0  0  0  0  0  0  0  0  0  0  0
    5.2259    0.9068   -0.6149 N   0  0  0  0  0  0  0  0  0  0  0  0
    1.5495   -1.2023    0.1780 N   0  0  0  0  0  0  0  0  0  0  0  0
    1.9164   -2.1920    1.0099 N   0  0  0  0  0  0  0  0  0  0  0  0
   -1.4813   -2.9554    0.1619 N   0  0  0  0  0  0  0  0  0  0  0  0
   -2.8515   -1.0487   -0.2293 N   0  0  0  0  0  0  0  0  0  0  0  0
   -3.8180   -3.2556   -0.1781 N   0  0  0  0  0  0  0  0  0  0  0  0
   -3.9472    3.0543   -0.1731 N   0  0  0  0  0  0  0  0  0  0  0  0
   -4.4378    2.9809   -1.4402 N   0  0  0  0  0  0  0  0  0  0  0  0
    2.5508   -0.1162   -0.1669 C   0  0  0  0  0  0  0  0  0  0  0  0
    3.5140    0.1745    1.0001 C   0  0  0  0  0  0  0  0  0  0  0  0
    3.3429   -0.4458   -1.4465 C   0  0  0  0  0  0  0  0  0  0  0  0
    4.5223    1.2602    0.6240 C   0  0  0  0  0  0  0  0  0  0  0  0
    4.3536    0.6551   -1.7634 C   0  0  0  0  0  0  0  0  0  0  0  0
    0.2652   -1.3063   -0.2696 C   0  0  0  0  0  0  0  0  0  0  0  0
    6.6099    0.8201   -0.7612 C   0  0  0  0  0  0  0  0  0  0  0  0
   -0.2431   -2.4434    0.3095 C   0  0  0  0  0  0  0  0  0  0  0  0
    0.8172   -2.9469    1.0865 C   0  0  0  0  0  0  0  0  0  0  0  0
    7.4375    1.0910    0.4697 C   0  0  1  0  0  0  0  0  0  0  0  0
   -0.3415   -0.3244   -1.1893 C   0  0  0  0  0  0  0  0  0  0  0  0
    0.8287   -4.1569    1.9282 C   0  0  0  0  0  0  0  0  0  0  0  0
    7.7330   -0.1914    1.2124 C   0  0  0  0  0  0  0  0  0  0  0  0
   -2.7917   -2.3875   -0.0966 C   0  0  0  0  0  0  0  0  0  0  0  0
   -4.0841   -0.5549   -0.4688 C   0  0  0  0  0  0  0  0  0  0  0  0
   -4.1293    0.8757   -0.6076 C   0  0  0  0  0  0  0  0  0  0  0  0
   -3.7498    1.7751    0.3580 C   0  0  0  0  0  0  0  0  0  0  0  0
   -5.2162   -1.3368   -0.5750 C   0  0  0  0  0  0  0  0  0  0  0  0
   -5.0209   -2.6940   -0.4191 C   0  0  0  0  0  0  0  0  0  0  0  0
   -4.5415    1.6741   -1.6852 C   0  0  0  0  0  0  0  0  0  0  0  0
   -3.2383    1.6689    1.6818 C   0  0  0  0  0  0  0  0  0  0  0  0
   -3.6565    4.2099    0.5610 C   0  0  0  0  0  0  0  0  0  0  0  0
   -2.9620    2.7868    2.3789 C   0  0  0  0  0  0  0  0  0  0  0  0
   -3.1745    4.1055    1.8094 C   0  0  0  0  0  0  0  0  0  0  0  0
    1.9427    0.7828   -0.3284 H   0  0  0  0  0  0  0  0  0  0  0  0
    2.6638   -0.5788   -2.2961 H   0  0  0  0  0  0  0  0  0  0  0  0
    3.8704   -1.3994   -1.3131 H   0  0  0  0  0  0  0  0  0  0  0  0
    4.0656   -0.7348    1.2716 H   0  0  0  0  0  0  0  0  0  0  0  0
    2.9494    0.4843    1.8876 H   0  0  0  0  0  0  0  0  0  0  0  0
    4.0092    2.2125    0.4450 H   0  0  0  0  0  0  0  0  0  0  0  0
    4.9393    0.3747   -2.6445 H   0  0  0  0  0  0  0  0  0  0  0  0
    3.8380    1.5940   -1.9970 H   0  0  0  0  0  0  0  0  0  0  0  0
    5.1814    1.4045    1.4769 H   0  0  0  0  0  0  0  0  0  0  0  0
    6.9908    1.8275    1.1356 H   0  0  0  0  0  0  0  0  0  0  0  0
   -0.8346    0.4792   -0.6352 H   0  0  0  0  0  0  0  0  0  0  0  0
    0.4051    0.1447   -1.8377 H   0  0  0  0  0  0  0  0  0  0  0  0
   -1.0482   -0.7971   -1.8774 H   0  0  0  0  0  0  0  0  0  0  0  0
   -1.6158   -3.9361    0.4070 H   0  0  0  0  0  0  0  0  0  0  0  0
    0.6947   -5.0523    1.3125 H   0  0  0  0  0  0  0  0  0  0  0  0
    1.7708   -4.2648    2.4762 H   0  0  0  0  0  0  0  0  0  0  0  0
    0.0180   -4.1219    2.6632 H   0  0  0  0  0  0  0  0  0  0  0  0
    8.2547   -0.9083    0.5681 H   0  0  0  0  0  0  0  0  0  0  0  0
    6.8177   -0.6672    1.5776 H   0  0  0  0  0  0  0  0  0  0  0  0
    8.3931    0.0021    2.0646 H   0  0  0  0  0  0  0  0  0  0  0  0
    8.3965    2.5677   -0.3585 H   0  0  0  0  0  0  0  0  0  0  0  0
   -5.8434   -3.3997   -0.4835 H   0  0  0  0  0  0  0  0  0  0  0  0
   -4.9131    1.3622   -2.6513 H   0  0  0  0  0  0  0  0  0  0  0  0
   -3.0745    0.6929    2.1258 H   0  0  0  0  0  0  0  0  0  0  0  0
   -3.8369    5.1634    0.0798 H   0  0  0  0  0  0  0  0  0  0  0  0
   -2.5722    2.7292    3.3893 H   0  0  0  0  0  0  0  0  0  0  0  0
   -2.9388    4.9787    2.4055 H   0  0  0  0  0  0  0  0  0  0  0  0
  1 29  1  0  0  0  0
  2 18  2  0  0  0  0
  3 21  1  0  0  0  0
  3 56  1  0  0  0  0
  4 15  1  0  0  0  0
  4 16  1  0  0  0  0
  4 18  1  0  0  0  0
  5  6  1  0  0  0  0
  5 12  1  0  0  0  0
  5 17  1  0  0  0  0
  6 20  2  0  0  0  0
  7 19  1  0  0  0  0
  7 25  1  0  0  0  0
  7 49  1  0  0  0  0
  8 25  1  0  0  0  0
  8 26  2  0  0  0  0
  9 25  2  0  0  0  0
  9 30  1  0  0  0  0
 10 11  1  0  0  0  0
 10 28  1  0  0  0  0
 10 33  1  0  0  0  0
 11 31  2  0  0  0  0
 12 13  1  0  0  0  0
 12 14  1  0  0  0  0
 12 36  1  0  0  0  0
 13 15  1  0  0  0  0
 13 39  1  0  0  0  0
 13 40  1  0  0  0  0
 14 16  1  0  0  0  0
 14 37  1  0  0  0  0
 14 38  1  0  0  0  0
 15 41  1  0  0  0  0
 15 44  1  0  0  0  0
 16 42  1  0  0  0  0
 16 43  1  0  0  0  0
 17 19  2  0  0  0  0
 17 22  1  0  0  0  0
 18 21  1  0  0  0  0
 19 20  1  0  0  0  0
 20 23  1  0  0  0  0
 21 24  1  0  0  0  0
 21 45  1  0  0  0  0
 22 46  1  0  0  0  0
 22 47  1  0  0  0  0
 22 48  1  0  0  0  0
 23 50  1  0  0  0  0
 23 51  1  0  0  0  0
 23 52  1  0  0  0  0
 24 53  1  0  0  0  0
 24 54  1  0  0  0  0
 24 55  1  0  0  0  0
 26 27  1  0  0  0  0
 26 29  1  0  0  0  0
 27 28  2  0  0  0  0
 27 31  1  0  0  0  0
 28 32  1  0  0  0  0
 29 30  2  0  0  0  0
 30 57  1  0  0  0  0
 31 58  1  0  0  0  0
 32 34  2  0  0  0  0
 32 59  1  0  0  0  0
 33 35  2  0  0  0  0
 33 60  1  0  0  0  0
 34 35  1  0  0  0  0
 34 61  1  0  0  0  0
 35 62  1  0  0  0  0
M  END
> <PUBCHEM_COMPOUND_CID>
126970673

> <PUBCHEM_CONFORMER_RMSD>
1.2

> <PUBCHEM_CONFORMER_DIVERSEORDER>
1
74
123
75
120
22
121
152
112
95
82
150
76
83
110
109
133
81
72
124
79
130
107
96
14
65
31
59
52
58
141
129
105
116
42
68
17
127
47
64
145
90
15
122
85
114
103
131
87
153
38
25
128
155
135
111
46
91
147
154
60
18
136
34
108
99
139
39
57
20
100
4
43
86
148
32
149
54
40
12
84
146
102
49
62
104
53
16
33
70
26
77
151
41
23
29
89
101
35
61
27
51
117
132
134
97
11
98
106
30
10
73
138
66
80
13
71
21
37
115
92
88
56
5
143
50
126
137
19
142
67
94
9
2
28
55
7
24
125
69
140
113
144
119
63
44
48
118
45
78
3
6
36
8
93

> <PUBCHEM_MMFF94_PARTIAL_CHARGES>
40
1 -0.18
10 0.6
11 -0.71
12 0.26
15 0.3
16 0.3
17 -0.33
18 0.57
19 0.08
2 -0.57
20 0.11
21 0.34
22 0.18
23 0.18
25 0.72
26 0.36
27 -0.05
28 -0.2
29 0.18
3 -0.68
30 0.16
31 0.14
32 -0.11
33 -0.18
34 -0.15
35 -0.15
4 -0.66
49 0.4
5 0.31
56 0.4
57 0.15
58 0.15
59 0.15
6 -0.71
60 0.15
61 0.15
62 0.15
7 -0.58
8 -0.62
9 -0.62

> <PUBCHEM_EFFECTIVE_ROTOR_COUNT>
7.2

> <PUBCHEM_PHARMACOPHORE_FEATURES>
13
1 11 acceptor
1 2 acceptor
1 3 acceptor
1 3 donor
1 6 acceptor
1 7 donor
1 8 acceptor
4 7 8 9 25 cation
5 10 11 27 28 31 rings
5 5 6 17 19 20 rings
6 10 28 32 33 34 35 rings
6 4 12 13 14 15 16 rings
6 8 9 25 26 29 30 rings

> <PUBCHEM_HEAVY_ATOM_COUNT>
35

> <PUBCHEM_ATOM_DEF_STEREO_COUNT>
1

> <PUBCHEM_ATOM_UDEF_STEREO_COUNT>
0

> <PUBCHEM_BOND_DEF_STEREO_COUNT>
0

> <PUBCHEM_BOND_UDEF_STEREO_COUNT>
0

> <PUBCHEM_ISOTOPIC_ATOM_COUNT>
0

> <PUBCHEM_COMPONENT_COUNT>
1

> <PUBCHEM_CACTVS_TAUTO_COUNT>
10

> <PUBCHEM_CONFORMER_ID>
07916B3100000001

> <PUBCHEM_MMFF94_ENERGY>
81.0928

> <PUBCHEM_FEATURE_SELFOVERLAP>
66.095

> <PUBCHEM_SHAPE_FINGERPRINT>
100830 39 18412261753255287800
10670039 82 18342176682607799456
10951579 204 18339380591107575084
11007060 377 18409455786590683378
11135609 149 16342041797057122292
11135609 187 18192426369620227813
11136131 41 17896309221920417186
11434127 23 18131352981698291837
11477941 20 17916855932925723749
11505856 67 17415566416098467185
12390115 104 18335706035483277430
12655364 131 17676756575237861946
13560911 43 18260824947151520417
13631057 29 18411414055707620063
13726171 33 17845664629475560337
14068700 675 18264487467917868101
14118638 360 18411420600863564198
15021287 119 16877663483206342308
15119646 57 16916520138053362561
15183329 4 18187368757712670734
15289351 153 18343012273929673442
15328684 2 18114445809184459168
15347590 135 18041008375398870835
15351339 4 18339634560248097322
15419008 47 17774723176745826512
16112460 7 18113611271216398522
18603816 31 12685088246017995729
19304152 47 17968957296298737857
21033650 10 18193583201295408950
21049683 271 18264201574105839175
21859007 373 18130779110407440136
22122407 14 16081092605538117677
22956985 138 17257373476024116479
23569943 247 16879321486944036698
249057 25 18041285465081576804
354706 132 18342465794390770992
397830 11 12252477695541345694
4197921 191 18334296496210312116
44426695 248 15213599909135185528
469060 322 18042144166646231955
48014 12 18259985980892719981
550186 7 18202289125468191327
6058803 2 18121203304554223963
6201320 215 18273207591548209088
6299153 45 18114173095977889994
6371009 1 18261113019086955348
9980921 221 18269298845092152188

> <PUBCHEM_SHAPE_MULTIPOLES>
670.57
19.38
4.96
1.74
37.26
0.69
0.3
9.76
-4.3
-7.85
2.69
0.11
0.7
-2.08

> <PUBCHEM_SHAPE_SELFOVERLAP>
1448.269

> <PUBCHEM_SHAPE_VOLUME>
368.2

> <PUBCHEM_COORDINATE_TYPE>
2
5
10

$$$$
