REMARK  Name = 126963541
REMARK  3 active torsions:
REMARK  status: ('A' for Active; 'I' for Inactive)
REMARK    1  A    between atoms: C_9  and  C_18
REMARK    2  A    between atoms: C_9  and  O_22
REMARK    3  A    between atoms: C_13  and  O_24
REMARK                            x       y       z     vdW  Elec       q    Type
REMARK                         _______ _______ _______ _____ _____    ______ ____
ROOT
ATOM      1  O   UNL     1       0.492  -1.823   1.565  0.00  0.00    -0.413 OA
ATOM      2  O   UNL     1       2.821   1.348  -0.159  0.00  0.00    -0.452 OA
ATOM      3  O   UNL     1      -1.710  -2.128   0.447  0.00  0.00    -0.412 OA
ATOM      4  O   UNL     1       2.597  -0.932   1.854  0.00  0.00    -0.250 OA
ATOM      5  O   UNL     1      -3.341  -1.683  -1.136  0.00  0.00    -0.247 OA
ATOM      6  O   UNL     1       4.484   0.270  -1.342  0.00  0.00    -0.250 OA
ATOM      7  C   UNL     1      -0.236  -0.491  -0.186  0.00  0.00    +0.148 C 
ATOM      8  C   UNL     1       1.260  -0.325  -0.153  0.00  0.00    +0.149 C 
ATOM      9  C   UNL     1      -0.728   0.740   0.754  0.00  0.00    +0.102 C 
ATOM     10  C   UNL     1       1.425   1.165  -0.172  0.00  0.00    +0.182 C 
ATOM     11  C   UNL     1       0.546   1.627   0.964  0.00  0.00    +0.071 C 
ATOM     12  C   UNL     1      -0.315  -1.878   0.409  0.00  0.00    +0.350 C 
ATOM     13  C   UNL     1      -1.057  -0.810  -1.420  0.00  0.00    +0.220 C 
ATOM     14  C   UNL     1       2.255  -0.726  -1.203  0.00  0.00    +0.124 C 
ATOM     15  C   UNL     1       1.576  -1.043   1.194  0.00  0.00    +0.323 C 
ATOM     16  C   UNL     1      -2.193  -1.577  -0.736  0.00  0.00    +0.347 C 
ATOM     17  C   UNL     1       3.333   0.321  -0.938  0.00  0.00    +0.318 C 
ENDROOT
BRANCH   9  18
ATOM     18  C   UNL     1      -1.866   1.620   0.231  0.00  0.00    +0.023 C 
ATOM     19  C   UNL     1      -1.454   2.257  -1.105  0.00  0.00    +0.002 C 
ATOM     20  C   UNL     1      -2.171   2.729   1.250  0.00  0.00    +0.002 C 
ATOM     21  C   UNL     1      -3.125   0.764   0.019  0.00  0.00    +0.002 C 
ENDBRANCH   9  18
BRANCH   9  22
ATOM     22  O   UNL     1      -1.142   0.286   2.046  0.00  0.00    -0.386 OA
ATOM     23  H   UNL     1      -0.452  -0.280   2.426  0.00  0.00    +0.210 HD
ENDBRANCH   9  22
BRANCH  13  24
ATOM     24  O   UNL     1      -1.452   0.289  -2.184  0.00  0.00    -0.374 OA
ATOM     25  H   UNL     1      -0.670   0.709  -2.576  0.00  0.00    +0.211 HD
ENDBRANCH  13  24
TORSDOF 3
