REMARK  Name = 126984
REMARK  11 active torsions:
REMARK  status: ('A' for Active; 'I' for Inactive)
REMARK    1  A    between atoms: C_1  and  C_2
REMARK    2  A    between atoms: C_1  and  CA_18
REMARK    3  A    between atoms: C_2  and  C_13
REMARK    4  A    between atoms: C_8  and  C_15
REMARK    5  A    between atoms: C_15  and  O_16
REMARK    6  A    between atoms: CA_18  and  N_20
REMARK    7  A    between atoms: CA_18  and  C_32
REMARK    8  A    between atoms: C_21  and  O_23
REMARK    9  A    between atoms: O_23  and  C_24
REMARK   10  A    between atoms: C_24  and  C_25
REMARK   11  A    between atoms: C_32  and  O_33
REMARK                            x       y       z     vdW  Elec       q    Type
REMARK                         _______ _______ _______ _____ _____    ______ ____
ROOT
ATOM      1  C   UNL     1      -0.262  -2.171  -1.170  0.00  0.00    +0.041 C 
ENDROOT
BRANCH   1   2
ATOM      2  C   UNL     1      -1.017  -1.202  -0.271  0.00  0.00    +0.088 C 
BRANCH   2  13
ATOM      3  O   UNL     1      -2.427  -0.953  -2.168  0.00  0.00    -0.275 OA
ATOM      4  N   UNL     1      -2.973   0.292  -0.296  0.00  0.00    -0.273 N 
ATOM      5  C   UNL     1      -4.013   2.393  -0.156  0.00  0.00    +0.020 C 
ATOM      6  C   UNL     1      -4.010   1.087  -0.959  0.00  0.00    +0.076 C 
ATOM      7  C   UNL     1      -3.743   1.913   1.273  0.00  0.00    +0.033 C 
ATOM      8  C   UNL     1      -2.765   0.748   1.083  0.00  0.00    +0.174 C 
ATOM      9  C   UNL     1      -5.269   3.242  -0.322  0.00  0.00    +0.002 C 
ATOM     10  C   UNL     1      -5.351   0.343  -0.954  0.00  0.00    +0.020 C 
ATOM     11  C   UNL     1      -6.565   2.438  -0.290  0.00  0.00    +0.000 C 
ATOM     12  C   UNL     1      -6.518   1.270  -1.268  0.00  0.00    +0.002 C 
ATOM     13  C   UNL     1      -2.195  -0.612  -1.006  0.00  0.00    +0.226 C 
BRANCH   8  15
ATOM     14  O   UNL     1      -3.947  -1.234   1.799  0.00  0.00    -0.248 OA
ATOM     15  C   UNL     1      -3.121  -0.361   2.023  0.00  0.00    +0.332 C 
BRANCH  15  16
ATOM     16  O   UNL     1      -2.401  -0.269   3.167  0.00  0.00    -0.479 OA
ATOM     17  H   UNL     1      -1.782   0.427   3.277  0.00  0.00    +0.295 HD
ENDBRANCH  15  16
ENDBRANCH   8  15
ENDBRANCH   2  13
ENDBRANCH   1   2
BRANCH   1  18
ATOM     18  CA  UNL     1       0.981  -2.793  -0.519  0.00  0.00    +0.174 C 
BRANCH  18  20
ATOM     19  O   UNL     1       3.176  -1.844  -2.169  0.00  0.00    -0.226 OA
ATOM     20  N   UNL     1       1.959  -1.786  -0.194  0.00  0.00    -0.262 N 
ATOM     21  C   UNL     1       2.974  -1.396  -1.045  0.00  0.00    +0.402 C 
ATOM     22  H   UNL     1       1.900  -1.351   0.687  0.00  0.00    +0.153 HD
BRANCH  21  23
ATOM     23  O   UNL     1       3.731  -0.427  -0.449  0.00  0.00    -0.430 OA
BRANCH  23  24
ATOM     24  C   UNL     1       4.827   0.074  -1.224  0.00  0.00    +0.237 C 
BRANCH  24  25
ATOM     25  C   UNL     1       5.549   1.123  -0.429  0.00  0.00    +0.021 C 
ATOM     26  C   UNL     1       5.165   2.460  -0.528  0.00  0.00    -0.001 C 
ATOM     27  C   UNL     1       6.604   0.760   0.408  0.00  0.00    -0.001 C 
ATOM     28  C   UNL     1       5.835   3.435   0.210  0.00  0.00    -0.000 C 
ATOM     29  C   UNL     1       7.275   1.736   1.146  0.00  0.00    -0.000 C 
ATOM     30  C   UNL     1       6.891   3.073   1.047  0.00  0.00    -0.000 C 
ENDBRANCH  24  25
ENDBRANCH  23  24
ENDBRANCH  21  23
ENDBRANCH  18  20
BRANCH  18  32
ATOM     31  OXT UNL     1      -0.165  -4.559   0.679  0.00  0.00    -0.248 OA
ATOM     32  C   UNL     1       0.590  -3.592   0.717  0.00  0.00    +0.332 C 
BRANCH  32  33
ATOM     33  O   UNL     1       1.185  -3.188   1.864  0.00  0.00    -0.479 OA
ATOM     34  H   UNL     1       1.757  -2.445   1.859  0.00  0.00    +0.295 HD
ENDBRANCH  32  33
ENDBRANCH  18  32
ENDBRANCH   1  18
TORSDOF 11
