REMARK  Name = 126970626
REMARK  7 active torsions:
REMARK  status: ('A' for Active; 'I' for Inactive)
REMARK    1  A    between atoms: C_6  and  C_24
REMARK    2  A    between atoms: C_10  and  O_20
REMARK    3  A    between atoms: C_19  and  O_22
REMARK    4  A    between atoms: C_24  and  C_26
REMARK    5  A    between atoms: C_26  and  C_27
REMARK    6  A    between atoms: C_27  and  C_28
REMARK    7  A    between atoms: C_28  and  S_29
REMARK                            x       y       z     vdW  Elec       q    Type
REMARK                         _______ _______ _______ _____ _____    ______ ____
ROOT
ATOM      1  C   UNL     1      -0.721   1.279  -0.371  0.00  0.00    +0.002 C 
ATOM      2  C   UNL     1       0.599   0.467  -0.475  0.00  0.00    +0.000 C 
ATOM      3  C   UNL     1      -1.951   0.589  -1.008  0.00  0.00    +0.027 C 
ATOM      4  C   UNL     1      -2.143  -0.908  -0.625  0.00  0.00    +0.002 C 
ATOM      5  C   UNL     1      -3.590  -1.323  -0.150  0.00  0.00    +0.000 C 
ATOM      6  C   UNL     1       1.449   1.148   0.634  0.00  0.00    +0.000 C 
ATOM      7  C   UNL     1      -4.662  -0.713  -1.114  0.00  0.00    +0.005 C 
ATOM      8  C   UNL     1       0.368  -1.053  -0.284  0.00  0.00    +0.000 C 
ATOM      9  C   UNL     1      -1.004  -1.429   0.273  0.00  0.00    +0.000 C 
ATOM     10  C   UNL     1      -3.227   1.430  -0.886  0.00  0.00    +0.110 C 
ATOM     11  C   UNL     1      -0.866   1.659   1.118  0.00  0.00    +0.000 C 
ATOM     12  C   UNL     1       0.469   1.342   1.786  0.00  0.00    +0.000 C 
ATOM     13  C   UNL     1      -4.406   0.742  -1.556  0.00  0.00    +0.029 C 
ATOM     14  C   UNL     1      -3.864  -0.932   1.328  0.00  0.00    +0.002 C 
ATOM     15  C   UNL     1       1.272   0.685  -1.845  0.00  0.00    +0.000 C 
ATOM     16  C   UNL     1      -6.111  -0.887  -0.599  0.00  0.00    +0.029 C 
ATOM     17  C   UNL     1      -3.697  -2.876  -0.244  0.00  0.00    +0.000 C 
ATOM     18  C   UNL     1      -5.311  -1.149   1.777  0.00  0.00    +0.029 C 
ATOM     19  C   UNL     1      -6.310  -0.463   0.854  0.00  0.00    +0.111 C 
ENDROOT
BRANCH  10  20
ATOM     20  O   UNL     1      -3.018   2.692  -1.524  0.00  0.00    -0.384 OA
ATOM     21  H   UNL     1      -2.268   3.145  -1.108  0.00  0.00    +0.210 HD
ENDBRANCH  10  20
BRANCH  19  22
ATOM     22  O   UNL     1      -6.181   0.951   0.964  0.00  0.00    -0.384 OA
ATOM     23  H   UNL     1      -6.820   1.380   0.374  0.00  0.00    +0.210 HD
ENDBRANCH  19  22
BRANCH   6  24
ATOM     24  C   UNL     1       2.730   0.449   1.069  0.00  0.00    +0.000 C 
ATOM     25  C   UNL     1       3.404   1.244   2.192  0.00  0.00    +0.000 C 
BRANCH  24  26
ATOM     26  C   UNL     1       3.727   0.256  -0.091  0.00  0.00    +0.002 C 
BRANCH  26  27
ATOM     27  C   UNL     1       5.154  -0.045   0.376  0.00  0.00    +0.026 C 
BRANCH  27  28
ATOM     28  C   UNL     1       6.079  -0.292  -0.807  0.00  0.00    +0.158 C 
BRANCH  28  29
ATOM     29  S   UNL     1       7.719  -0.663  -0.274  0.00  0.00    +0.023 S 
ATOM     30  O   UNL     1       8.441  -0.865  -1.529  0.00  0.00    -0.069 OA
ATOM     31  O   UNL     1       8.106   0.532   0.474  0.00  0.00    -0.069 OA
ATOM     32  O   UNL     1       7.543  -1.868   0.537  0.00  0.00    -0.069 OA
ENDBRANCH  28  29
ENDBRANCH  27  28
ENDBRANCH  26  27
ENDBRANCH  24  26
ENDBRANCH   6  24
TORSDOF 7
