REMARK  Name = 126968501
REMARK  6 active torsions:
REMARK  status: ('A' for Active; 'I' for Inactive)
REMARK    1  A    between atoms: C_6  and  O_22
REMARK    2  A    between atoms: C_6  and  C_27
REMARK    3  A    between atoms: C_8  and  O_24
REMARK    4  A    between atoms: C_27  and  C_28
REMARK    5  A    between atoms: C_28  and  O_29
REMARK    6  A    between atoms: O_29  and  C_31
REMARK                            x       y       z     vdW  Elec       q    Type
REMARK                         _______ _______ _______ _____ _____    ______ ____
ROOT
ATOM      1  O   UNL     1       6.823  -0.174   1.747  0.00  0.00    -0.287 OA
ATOM      2  C   UNL     1      -1.072   0.201  -0.209  0.00  0.00    +0.031 C 
ATOM      3  C   UNL     1      -0.143  -0.759   0.559  0.00  0.00    +0.003 C 
ATOM      4  C   UNL     1       1.336  -0.779   0.156  0.00  0.00    +0.003 C 
ATOM      5  C   UNL     1       1.930   0.673   0.091  0.00  0.00    +0.034 C 
ATOM      6  C   UNL     1      -2.406  -0.092   0.535  0.00  0.00    +0.143 C 
ATOM      7  C   UNL     1      -0.499   1.611  -0.030  0.00  0.00    +0.032 C 
ATOM      8  C   UNL     1       0.952   1.722  -0.532  0.00  0.00    +0.111 C 
ATOM      9  C   UNL     1      -0.929  -2.067   0.615  0.00  0.00    +0.003 C 
ATOM     10  C   UNL     1       3.405   0.693  -0.509  0.00  0.00    +0.036 C 
ATOM     11  C   UNL     1      -2.400  -1.621   0.745  0.00  0.00    +0.034 C 
ATOM     12  C   UNL     1       1.723  -1.603  -1.074  0.00  0.00    +0.004 C 
ATOM     13  C   UNL     1       3.256  -1.813  -1.161  0.00  0.00    +0.019 C 
ATOM     14  C   UNL     1      -1.226  -0.125  -1.714  0.00  0.00    +0.003 C 
ATOM     15  C   UNL     1       4.015  -0.717  -0.401  0.00  0.00    -0.038 C 
ATOM     16  C   UNL     1       3.483   1.121  -1.995  0.00  0.00    +0.009 C 
ATOM     17  C   UNL     1       4.224   1.723   0.259  0.00  0.00    -0.020 C 
ATOM     18  C   UNL     1       3.595  -3.256  -0.751  0.00  0.00    +0.004 C 
ATOM     19  C   UNL     1       5.113  -0.972   0.333  0.00  0.00    +0.034 C 
ATOM     20  C   UNL     1       5.317   1.461   0.981  0.00  0.00    +0.038 C 
ATOM     21  C   UNL     1       5.830   0.086   1.076  0.00  0.00    +0.195 C 
ENDROOT
BRANCH   6  22
ATOM     22  O   UNL     1      -2.444   0.558   1.804  0.00  0.00    -0.380 OA
ATOM     23  H   UNL     1      -1.670   0.293   2.326  0.00  0.00    +0.211 HD
ENDBRANCH   6  22
BRANCH   8  24
ATOM     24  O   UNL     1       1.370   3.049  -0.205  0.00  0.00    -0.384 OA
ATOM     25  H   UNL     1       2.284   3.182  -0.500  0.00  0.00    +0.210 HD
ENDBRANCH   8  24
BRANCH   6  27
ATOM     26  O   UNL     1      -3.617   1.400  -0.874  0.00  0.00    -0.290 OA
ATOM     27  C   UNL     1      -3.641   0.400  -0.158  0.00  0.00    +0.218 C 
BRANCH  27  28
ATOM     28  C   UNL     1      -4.905  -0.401   0.075  0.00  0.00    +0.274 C 
BRANCH  28  29
ATOM     29  O   UNL     1      -6.044   0.428  -0.015  0.00  0.00    -0.440 OA
BRANCH  29  31
ATOM     30  O   UNL     1      -7.424  -1.373   0.419  0.00  0.00    -0.250 OA
ATOM     31  C   UNL     1      -7.255  -0.185   0.178  0.00  0.00    +0.318 C 
ATOM     32  C   UNL     1      -8.368   0.811   0.053  0.00  0.00    +0.121 C 
ENDBRANCH  29  31
ENDBRANCH  28  29
ENDBRANCH  27  28
ENDBRANCH   6  27
TORSDOF 6
