REMARK  Name = 126968722
REMARK  9 active torsions:
REMARK  status: ('A' for Active; 'I' for Inactive)
REMARK    1  A    between atoms: C_6  and  C_24
REMARK    2  A    between atoms: C_13  and  O_20
REMARK    3  A    between atoms: C_19  and  O_22
REMARK    4  A    between atoms: C_24  and  C_26
REMARK    5  A    between atoms: C_26  and  C_27
REMARK    6  A    between atoms: C_27  and  C_30
REMARK    7  A    between atoms: N_29  and  C_32
REMARK    8  A    between atoms: C_32  and  C_34
REMARK    9  A    between atoms: C_34  and  O_35
REMARK                            x       y       z     vdW  Elec       q    Type
REMARK                         _______ _______ _______ _____ _____    ______ ____
ROOT
ATOM      1  C   UNL     1      -0.547   2.555  -0.993  0.00  0.00    +0.000 C 
ATOM      2  C   UNL     1       0.717   1.638  -0.966  0.00  0.00    +0.000 C 
ATOM      3  C   UNL     1      -1.887   1.891  -0.572  0.00  0.00    +0.002 C 
ATOM      4  C   UNL     1      -1.993   0.458  -1.151  0.00  0.00    +0.000 C 
ATOM      5  C   UNL     1      -3.433  -0.170  -0.945  0.00  0.00    +0.002 C 
ATOM      6  C   UNL     1       1.804   2.518  -0.276  0.00  0.00    +0.000 C 
ATOM      7  C   UNL     1      -3.946  -0.030   0.528  0.00  0.00    +0.029 C 
ATOM      8  C   UNL     1       0.437   0.331  -0.213  0.00  0.00    +0.000 C 
ATOM      9  C   UNL     1      -0.813  -0.418  -0.679  0.00  0.00    +0.000 C 
ATOM     10  C   UNL     1      -0.172   3.826  -0.212  0.00  0.00    +0.000 C 
ATOM     11  C   UNL     1      -2.257   1.882   0.919  0.00  0.00    +0.029 C 
ATOM     12  C   UNL     1       1.002   3.419   0.661  0.00  0.00    +0.000 C 
ATOM     13  C   UNL     1      -3.692   1.381   1.112  0.00  0.00    +0.111 C 
ATOM     14  C   UNL     1      -3.521  -1.645  -1.444  0.00  0.00    +0.003 C 
ATOM     15  C   UNL     1       1.181   1.300  -2.398  0.00  0.00    +0.000 C 
ATOM     16  C   UNL     1      -3.465  -1.145   1.474  0.00  0.00    +0.032 C 
ATOM     17  C   UNL     1      -4.416   0.620  -1.869  0.00  0.00    +0.000 C 
ATOM     18  C   UNL     1      -3.116  -2.735  -0.460  0.00  0.00    +0.029 C 
ATOM     19  C   UNL     1      -3.739  -2.535   0.913  0.00  0.00    +0.111 C 
ENDROOT
BRANCH  13  20
ATOM     20  O   UNL     1      -4.002   1.430   2.503  0.00  0.00    -0.384 OA
ATOM     21  H   UNL     1      -4.909   1.116   2.643  0.00  0.00    +0.210 HD
ENDBRANCH  13  20
BRANCH  19  22
ATOM     22  O   UNL     1      -3.212  -3.500   1.819  0.00  0.00    -0.384 OA
ATOM     23  H   UNL     1      -3.609  -3.373   2.695  0.00  0.00    +0.210 HD
ENDBRANCH  19  22
BRANCH   6  24
ATOM     24  C   UNL     1       2.929   1.784   0.442  0.00  0.00    +0.000 C 
ATOM     25  C   UNL     1       3.563   2.700   1.494  0.00  0.00    +0.000 C 
BRANCH  24  26
ATOM     26  C   UNL     1       3.963   1.270  -0.580  0.00  0.00    +0.010 C 
BRANCH  26  27
ATOM     27  C   UNL     1       5.096   0.457   0.047  0.00  0.00    +0.085 C 
BRANCH  27  30
ATOM     28  O   UNL     1       4.792  -0.884   2.039  0.00  0.00    -0.275 OA
ATOM     29  N   UNL     1       3.860  -1.605   0.036  0.00  0.00    -0.295 N 
ATOM     30  C   UNL     1       4.584  -0.735   0.838  0.00  0.00    +0.223 C 
ATOM     31  H   UNL     1       3.755  -1.386  -0.918  0.00  0.00    +0.150 HD
BRANCH  29  32
ATOM     32  C   UNL     1       3.252  -2.817   0.535  0.00  0.00    +0.200 C 
BRANCH  32  34
ATOM     33  O   UNL     1       1.930  -4.640  -0.316  0.00  0.00    -0.248 OA
ATOM     34  C   UNL     1       2.521  -3.590  -0.533  0.00  0.00    +0.334 C 
BRANCH  34  35
ATOM     35  O   UNL     1       2.579  -3.011  -1.755  0.00  0.00    -0.479 OA
ATOM     36  H   UNL     1       3.045  -2.206  -1.870  0.00  0.00    +0.295 HD
ENDBRANCH  34  35
ENDBRANCH  32  34
ENDBRANCH  29  32
ENDBRANCH  27  30
ENDBRANCH  26  27
ENDBRANCH  24  26
ENDBRANCH   6  24
TORSDOF 9
