REMARK  Name = 126968493
REMARK  11 active torsions:
REMARK  status: ('A' for Active; 'I' for Inactive)
REMARK    1  A    between atoms: S_1  and  S_2
REMARK    2  A    between atoms: S_1  and  C_17
REMARK    3  A    between atoms: S_2  and  C_3
REMARK    4  A    between atoms: C_3  and  C_4
REMARK    5  A    between atoms: C_4  and  C_12
REMARK    6  A    between atoms: C_8  and  C_14
REMARK    7  A    between atoms: C_14  and  O_15
REMARK    8  A    between atoms: C_17  and  C_18
REMARK    9  A    between atoms: C_18  and  C_26
REMARK   10  A    between atoms: C_22  and  C_28
REMARK   11  A    between atoms: C_28  and  O_29
REMARK                            x       y       z     vdW  Elec       q    Type
REMARK                         _______ _______ _______ _____ _____    ______ ____
ROOT
ATOM      1  S   UNL     1       0.289   1.316   0.791  0.00  0.00    -0.082 S 
ENDROOT
BRANCH   1   2
ATOM      2  S   UNL     1      -0.717   1.214  -0.997  0.00  0.00    -0.082 S 
BRANCH   2   3
ATOM      3  C   UNL     1      -1.967   2.520  -0.782  0.00  0.00    +0.078 C 
BRANCH   3   4
ATOM      4  C   UNL     1      -3.150   2.042   0.057  0.00  0.00    +0.088 C 
ATOM      5  C   UNL     1      -4.195   3.142   0.200  0.00  0.00    +0.011 C 
BRANCH   4  12
ATOM      6  O   UNL     1      -3.790   0.713  -1.811  0.00  0.00    -0.275 OA
ATOM      7  N   UNL     1      -4.444  -0.025   0.283  0.00  0.00    -0.271 N 
ATOM      8  C   UNL     1      -5.271  -1.131  -0.180  0.00  0.00    +0.174 C 
ATOM      9  C   UNL     1      -6.099  -1.531   1.035  0.00  0.00    +0.033 C 
ATOM     10  C   UNL     1      -5.203  -1.158   2.213  0.00  0.00    +0.024 C 
ATOM     11  C   UNL     1      -4.506   0.107   1.736  0.00  0.00    +0.094 C 
ATOM     12  C   UNL     1      -3.823   0.857  -0.588  0.00  0.00    +0.226 C 
BRANCH   8  14
ATOM     13  O   UNL     1      -3.236  -2.435  -0.131  0.00  0.00    -0.248 OA
ATOM     14  C   UNL     1      -4.342  -2.228  -0.607  0.00  0.00    +0.332 C 
BRANCH  14  15
ATOM     15  O   UNL     1      -4.896  -2.966  -1.600  0.00  0.00    -0.479 OA
ATOM     16  H   UNL     1      -5.751  -2.753  -1.920  0.00  0.00    +0.295 HD
ENDBRANCH  14  15
ENDBRANCH   8  14
ENDBRANCH   4  12
ENDBRANCH   3   4
ENDBRANCH   2   3
ENDBRANCH   1   2
BRANCH   1  17
ATOM     17  C   UNL     1       1.587   2.520   0.417  0.00  0.00    +0.078 C 
BRANCH  17  18
ATOM     18  C   UNL     1       2.750   1.882  -0.344  0.00  0.00    +0.088 C 
ATOM     19  C   UNL     1       3.836   2.915  -0.632  0.00  0.00    +0.011 C 
BRANCH  18  26
ATOM     20  O   UNL     1       3.339   0.786   1.685  0.00  0.00    -0.275 OA
ATOM     21  N   UNL     1       3.977  -0.236  -0.291  0.00  0.00    -0.271 N 
ATOM     22  C   UNL     1       4.484  -1.462   0.311  0.00  0.00    +0.174 C 
ATOM     23  C   UNL     1       4.619  -2.438  -0.852  0.00  0.00    +0.033 C 
ATOM     24  C   UNL     1       4.886  -1.529  -2.049  0.00  0.00    +0.024 C 
ATOM     25  C   UNL     1       4.043  -0.299  -1.749  0.00  0.00    +0.094 C 
ATOM     26  C   UNL     1       3.375   0.766   0.454  0.00  0.00    +0.226 C 
BRANCH  22  28
ATOM     27  O   UNL     1       6.584  -0.280   0.513  0.00  0.00    -0.248 OA
ATOM     28  C   UNL     1       5.814  -1.137   0.922  0.00  0.00    +0.332 C 
BRANCH  28  29
ATOM     29  O   UNL     1       6.054  -1.927   1.996  0.00  0.00    -0.479 OA
ATOM     30  H   UNL     1       5.421  -2.566   2.258  0.00  0.00    +0.295 HD
ENDBRANCH  28  29
ENDBRANCH  22  28
ENDBRANCH  18  26
ENDBRANCH  17  18
ENDBRANCH   1  17
TORSDOF 11
