REMARK  Name = 126961234
REMARK  7 active torsions:
REMARK  status: ('A' for Active; 'I' for Inactive)
REMARK    1  A    between atoms: N_2  and  CA_5
REMARK    2  A    between atoms: C_3  and  C_16
REMARK    3  A    between atoms: CA_5  and  C_8
REMARK    4  A    between atoms: CA_5  and  CB_9
REMARK    5  A    between atoms: CB_9  and  CG_10
REMARK    6  A    between atoms: C_16  and  C_18
REMARK    7  A    between atoms: C_25  and  O_27
REMARK                            x       y       z     vdW  Elec       q    Type
REMARK                         _______ _______ _______ _____ _____    ______ ____
ROOT
ATOM      1  O   UNL     1       1.500   1.819   1.980  0.00  0.00    -0.275 OA
ATOM      2  N   UNL     1       1.841   1.088  -0.197  0.00  0.00    -0.296 N 
ATOM      3  C   ACE A   0       1.254   1.882   0.778  0.00  0.00    +0.227 C 
ATOM      4  H   UNL     1       1.575   1.218  -1.136  0.00  0.00    +0.150 HD
ENDROOT
BRANCH   2   5
ATOM      5  CA  UNL     1       2.828   0.079   0.111  0.00  0.00    +0.180 C 
BRANCH   5   8
ATOM      6  O   UNL     1       4.674   1.195  -0.910  0.00  0.00    -0.244 OA
ATOM      7  OXT UNL     1       4.769   0.684   1.314  0.00  0.00    -0.244 OA
ATOM      8  C   UNL     1       4.229   0.715   0.169  0.00  0.00    +0.383 C 
ENDBRANCH   5   8
BRANCH   5   9
ATOM      9  CB  UNL     1       2.744  -1.090  -0.879  0.00  0.00    +0.058 C 
BRANCH   9  10
ATOM     10  CG  UNL     1       1.583  -2.018  -0.602  0.00  0.00    -0.020 C 
ATOM     11  CD1 UNL     1       1.751  -3.109   0.250  0.00  0.00    -0.004 C 
ATOM     12  CD2 UNL     1       0.345  -1.782  -1.199  0.00  0.00    -0.004 C 
ATOM     13  CE1 UNL     1       0.679  -3.966   0.505  0.00  0.00    -0.000 C 
ATOM     14  CE2 UNL     1      -0.727  -2.638  -0.943  0.00  0.00    -0.000 C 
ATOM     15  CZ  UNL     1      -0.559  -3.730  -0.091  0.00  0.00    -0.000 C 
ENDBRANCH   9  10
ENDBRANCH   5   9
ENDBRANCH   2   5
BRANCH   3  16
ATOM     16  C   UNL     1       0.248   2.875   0.197  0.00  0.00    +0.113 C 
BRANCH  16  18
ATOM     17  N   UNL     1      -2.436   1.675  -1.969  0.00  0.00    -0.312 N 
ATOM     18  C   UNL     1      -0.922   2.247  -0.450  0.00  0.00    +0.003 C 
ATOM     19  C   UNL     1      -1.851   1.357   0.160  0.00  0.00    +0.011 C 
ATOM     20  C   UNL     1      -2.790   1.014  -0.815  0.00  0.00    +0.051 C 
ATOM     21  C   UNL     1      -1.309   2.423  -1.758  0.00  0.00    +0.058 C 
ATOM     22  C   UNL     1      -1.983   0.810   1.452  0.00  0.00    +0.004 C 
ATOM     23  C   UNL     1      -3.858   0.146  -0.562  0.00  0.00    +0.051 C 
ATOM     24  C   UNL     1      -3.047  -0.059   1.719  0.00  0.00    +0.037 C 
ATOM     25  C   UNL     1      -3.969  -0.385   0.727  0.00  0.00    +0.135 C 
ATOM     26  H   UNL     1      -2.923   1.619  -2.823  0.00  0.00    +0.152 HD
BRANCH  25  27
ATOM     27  O   UNL     1      -4.996  -1.234   1.014  0.00  0.00    -0.505 OA
ATOM     28  H   UNL     1      -5.619  -1.457   0.351  0.00  0.00    +0.292 HD
ENDBRANCH  25  27
ENDBRANCH  16  18
ENDBRANCH   3  16
TORSDOF 7
