126968722
  -OEChem-03292013293D

 75 78  0     1  0  0  0  0  0999 V2000
   -4.0021    1.4303    2.5027 O   0  0  0  0  0  0  0  0  0  0  0  0
   -3.2118   -3.5002    1.8190 O   0  0  0  0  0  0  0  0  0  0  0  0
    4.7920   -0.8845    2.0392 O   0  0  0  0  0  0  0  0  0  0  0  0
    2.5795   -3.0111   -1.7549 O   0  0  0  0  0  0  0  0  0  0  0  0
    1.9296   -4.6403   -0.3158 O   0  0  0  0  0  0  0  0  0  0  0  0
    3.8597   -1.6051    0.0365 N   0  0  0  0  0  0  0  0  0  0  0  0
   -0.5466    2.5554   -0.9929 C   0  0  1  0  0  0  0  0  0  0  0  0
    0.7168    1.6379   -0.9664 C   0  0  1  0  0  0  0  0  0  0  0  0
   -1.8869    1.8905   -0.5717 C   0  0  1  0  0  0  0  0  0  0  0  0
   -1.9930    0.4584   -1.1505 C   0  0  2  0  0  0  0  0  0  0  0  0
   -3.4325   -0.1695   -0.9453 C   0  0  2  0  0  0  0  0  0  0  0  0
    1.8039    2.5180   -0.2757 C   0  0  1  0  0  0  0  0  0  0  0  0
   -3.9459   -0.0299    0.5280 C   0  0  2  0  0  0  0  0  0  0  0  0
    0.4371    0.3314   -0.2134 C   0  0  0  0  0  0  0  0  0  0  0  0
   -0.8130   -0.4180   -0.6786 C   0  0  0  0  0  0  0  0  0  0  0  0
   -0.1722    3.8260   -0.2117 C   0  0  0  0  0  0  0  0  0  0  0  0
   -2.2568    1.8816    0.9194 C   0  0  0  0  0  0  0  0  0  0  0  0
    1.0022    3.4191    0.6607 C   0  0  0  0  0  0  0  0  0  0  0  0
   -3.6916    1.3805    1.1120 C   0  0  2  0  0  0  0  0  0  0  0  0
   -3.5209   -1.6446   -1.4443 C   0  0  0  0  0  0  0  0  0  0  0  0
    1.1807    1.2997   -2.3985 C   0  0  0  0  0  0  0  0  0  0  0  0
   -3.4649   -1.1448    1.4744 C   0  0  0  0  0  0  0  0  0  0  0  0
    2.9293    1.7845    0.4422 C   0  0  1  0  0  0  0  0  0  0  0  0
   -4.4164    0.6197   -1.8695 C   0  0  0  0  0  0  0  0  0  0  0  0
   -3.1161   -2.7350   -0.4595 C   0  0  0  0  0  0  0  0  0  0  0  0
   -3.7388   -2.5352    0.9131 C   0  0  1  0  0  0  0  0  0  0  0  0
    3.9630    1.2702   -0.5800 C   0  0  0  0  0  0  0  0  0  0  0  0
    3.5635    2.6999    1.4941 C   0  0  0  0  0  0  0  0  0  0  0  0
    5.0960    0.4569    0.0470 C   0  0  0  0  0  0  0  0  0  0  0  0
    4.5841   -0.7349    0.8383 C   0  0  0  0  0  0  0  0  0  0  0  0
    3.2517   -2.8174    0.5351 C   0  0  0  0  0  0  0  0  0  0  0  0
    2.5205   -3.5895   -0.5329 C   0  0  0  0  0  0  0  0  0  0  0  0
   -0.7061    2.8808   -2.0324 H   0  0  0  0  0  0  0  0  0  0  0  0
   -2.6468    2.5180   -1.0556 H   0  0  0  0  0  0  0  0  0  0  0  0
   -1.8592    0.5587   -2.2383 H   0  0  0  0  0  0  0  0  0  0  0  0
    2.2542    3.1872   -1.0250 H   0  0  0  0  0  0  0  0  0  0  0  0
   -5.0402   -0.1523    0.5090 H   0  0  0  0  0  0  0  0  0  0  0  0
    1.2845   -0.3589   -0.2951 H   0  0  0  0  0  0  0  0  0  0  0  0
    0.3317    0.5362    0.8582 H   0  0  0  0  0  0  0  0  0  0  0  0
   -0.5378   -1.0949   -1.4979 H   0  0  0  0  0  0  0  0  0  0  0  0
   -1.0932   -1.0576    0.1543 H   0  0  0  0  0  0  0  0  0  0  0  0
   -0.9895    4.2743    0.3562 H   0  0  0  0  0  0  0  0  0  0  0  0
    0.1625    4.5938   -0.9225 H   0  0  0  0  0  0  0  0  0  0  0  0
   -1.5698    1.2766    1.5176 H   0  0  0  0  0  0  0  0  0  0  0  0
   -2.1964    2.8875    1.3468 H   0  0  0  0  0  0  0  0  0  0  0  0
    1.5502    4.3094    0.9845 H   0  0  0  0  0  0  0  0  0  0  0  0
    0.6469    2.8783    1.5452 H   0  0  0  0  0  0  0  0  0  0  0  0
   -4.3763    2.0852    0.6248 H   0  0  0  0  0  0  0  0  0  0  0  0
   -2.9447   -1.7616   -2.3711 H   0  0  0  0  0  0  0  0  0  0  0  0
   -4.5626   -1.8614   -1.7206 H   0  0  0  0  0  0  0  0  0  0  0  0
    0.3273    1.0117   -3.0234 H   0  0  0  0  0  0  0  0  0  0  0  0
    1.8674    0.4523   -2.4397 H   0  0  0  0  0  0  0  0  0  0  0  0
    1.6525    2.1562   -2.8916 H   0  0  0  0  0  0  0  0  0  0  0  0
   -2.4078   -1.0317    1.7331 H   0  0  0  0  0  0  0  0  0  0  0  0
   -3.9877   -1.0676    2.4373 H   0  0  0  0  0  0  0  0  0  0  0  0
    2.5338    0.9366    1.0076 H   0  0  0  0  0  0  0  0  0  0  0  0
   -4.4908    1.6796   -1.6160 H   0  0  0  0  0  0  0  0  0  0  0  0
   -5.4327    0.2132   -1.8019 H   0  0  0  0  0  0  0  0  0  0  0  0
   -4.1067    0.5513   -2.9189 H   0  0  0  0  0  0  0  0  0  0  0  0
   -3.4310   -3.7095   -0.8561 H   0  0  0  0  0  0  0  0  0  0  0  0
   -2.0290   -2.8246   -0.3803 H   0  0  0  0  0  0  0  0  0  0  0  0
   -4.8223   -2.6945    0.8551 H   0  0  0  0  0  0  0  0  0  0  0  0
    4.4068    2.1208   -1.1129 H   0  0  0  0  0  0  0  0  0  0  0  0
    3.4883    0.6516   -1.3365 H   0  0  0  0  0  0  0  0  0  0  0  0
    3.9398    3.6252    1.0444 H   0  0  0  0  0  0  0  0  0  0  0  0
    4.4055    2.2126    1.9945 H   0  0  0  0  0  0  0  0  0  0  0  0
    2.8666    2.9557    2.2983 H   0  0  0  0  0  0  0  0  0  0  0  0
   -3.8835    2.3484    2.8004 H   0  0  0  0  0  0  0  0  0  0  0  0
   -3.4058   -4.3807    1.4549 H   0  0  0  0  0  0  0  0  0  0  0  0
    5.7225    1.0732    0.6989 H   0  0  0  0  0  0  0  0  0  0  0  0
    5.7544    0.0792   -0.7451 H   0  0  0  0  0  0  0  0  0  0  0  0
    3.7849   -1.4166   -0.9584 H   0  0  0  0  0  0  0  0  0  0  0  0
    2.5455   -2.5388    1.3230 H   0  0  0  0  0  0  0  0  0  0  0  0
    4.0447   -3.4450    0.9522 H   0  0  0  0  0  0  0  0  0  0  0  0
    2.0949   -3.5308   -2.4312 H   0  0  0  0  0  0  0  0  0  0  0  0
  1 19  1  0  0  0  0
  1 68  1  0  0  0  0
  2 26  1  0  0  0  0
  2 69  1  0  0  0  0
  3 30  2  0  0  0  0
  4 32  1  0  0  0  0
  4 75  1  0  0  0  0
  5 32  2  0  0  0  0
  6 30  1  0  0  0  0
  6 31  1  0  0  0  0
  6 72  1  0  0  0  0
  7  8  1  0  0  0  0
  7  9  1  0  0  0  0
  7 16  1  0  0  0  0
  7 33  1  0  0  0  0
  8 12  1  0  0  0  0
  8 14  1  0  0  0  0
  8 21  1  0  0  0  0
  9 10  1  0  0  0  0
  9 17  1  0  0  0  0
  9 34  1  0  0  0  0
 10 11  1  0  0  0  0
 10 15  1  0  0  0  0
 10 35  1  0  0  0  0
 11 13  1  0  0  0  0
 11 20  1  0  0  0  0
 11 24  1  0  0  0  0
 12 18  1  0  0  0  0
 12 23  1  0  0  0  0
 12 36  1  0  0  0  0
 13 19  1  0  0  0  0
 13 22  1  0  0  0  0
 13 37  1  0  0  0  0
 14 15  1  0  0  0  0
 14 38  1  0  0  0  0
 14 39  1  0  0  0  0
 15 40  1  0  0  0  0
 15 41  1  0  0  0  0
 16 18  1  0  0  0  0
 16 42  1  0  0  0  0
 16 43  1  0  0  0  0
 17 19  1  0  0  0  0
 17 44  1  0  0  0  0
 17 45  1  0  0  0  0
 18 46  1  0  0  0  0
 18 47  1  0  0  0  0
 19 48  1  0  0  0  0
 20 25  1  0  0  0  0
 20 49  1  0  0  0  0
 20 50  1  0  0  0  0
 21 51  1  0  0  0  0
 21 52  1  0  0  0  0
 21 53  1  0  0  0  0
 22 26  1  0  0  0  0
 22 54  1  0  0  0  0
 22 55  1  0  0  0  0
 23 27  1  0  0  0  0
 23 28  1  0  0  0  0
 23 56  1  0  0  0  0
 24 57  1  0  0  0  0
 24 58  1  0  0  0  0
 24 59  1  0  0  0  0
 25 26  1  0  0  0  0
 25 60  1  0  0  0  0
 25 61  1  0  0  0  0
 26 62  1  0  0  0  0
 27 29  1  0  0  0  0
 27 63  1  0  0  0  0
 27 64  1  0  0  0  0
 28 65  1  0  0  0  0
 28 66  1  0  0  0  0
 28 67  1  0  0  0  0
 29 30  1  0  0  0  0
 29 70  1  0  0  0  0
 29 71  1  0  0  0  0
 31 32  1  0  0  0  0
 31 73  1  0  0  0  0
 31 74  1  0  0  0  0
M  END
> <PUBCHEM_COMPOUND_CID>
126968722

> <PUBCHEM_CONFORMER_RMSD>
1

> <PUBCHEM_CONFORMER_DIVERSEORDER>
2
39
79
56
13
44
54
75
48
21
49
40
77
36
18
47
61
57
19
72
43
55
67
20
60
29
76
62
17
23
34
71
15
59
68
66
1
74
45
10
41
25
16
46
27
37
63
58
30
28
70
78
73
31
7
26
64
14
11
33
22
50
51
35
69
52
32
9
65
3
53
4
5
42
12
6
38
24
8

> <PUBCHEM_MMFF94_PARTIAL_CHARGES>
16
1 -0.68
19 0.28
2 -0.68
26 0.28
29 0.06
3 -0.57
30 0.57
31 0.36
32 0.66
4 -0.65
5 -0.57
6 -0.73
68 0.4
69 0.4
72 0.37
75 0.5

> <PUBCHEM_EFFECTIVE_ROTOR_COUNT>
9.2

> <PUBCHEM_PHARMACOPHORE_FEATURES>
14
1 1 acceptor
1 1 donor
1 2 acceptor
1 2 donor
1 28 hydrophobe
1 3 acceptor
1 4 acceptor
1 5 acceptor
1 6 donor
3 4 5 32 anion
5 7 8 12 16 18 rings
6 11 13 20 22 25 26 rings
6 7 8 9 10 14 15 rings
6 9 10 11 13 17 19 rings

> <PUBCHEM_HEAVY_ATOM_COUNT>
32

> <PUBCHEM_ATOM_DEF_STEREO_COUNT>
10

> <PUBCHEM_ATOM_UDEF_STEREO_COUNT>
0

> <PUBCHEM_BOND_DEF_STEREO_COUNT>
0

> <PUBCHEM_BOND_UDEF_STEREO_COUNT>
0

> <PUBCHEM_ISOTOPIC_ATOM_COUNT>
0

> <PUBCHEM_COMPONENT_COUNT>
1

> <PUBCHEM_CACTVS_TAUTO_COUNT>
2

> <PUBCHEM_CONFORMER_ID>
0791639200000002

> <PUBCHEM_MMFF94_ENERGY>
116.3467

> <PUBCHEM_FEATURE_SELFOVERLAP>
71.286

> <PUBCHEM_SHAPE_FINGERPRINT>
10928967 22 18408888442848879082
1100329 8 17548412609672233764
11135609 12 17750239260914755753
11552529 35 18131068272695134963
11578080 2 14764082125054939961
12422481 6 17764051085323188081
12553582 1 18338526231026173022
12633257 1 18202001010556663736
13583140 156 18269829964320191117
1813 80 17676780764293121396
20028762 73 17768252666770568735
20764821 26 18261968387657404978
21421861 104 18267321845532951836
23559900 14 18335408102187042516
3117164 225 18127985100357593225
3493558 16 13246918514123314521
3633792 109 18266730304530893349
3737641 26 18269002994658980030
445580 102 18190746525177157618
460360 51 18193564371747443461
463206 1 18408042905316223056
5309563 4 18337670927001908646
56638632 33 17913196573186078506
7097593 13 18341343244446902421

> <PUBCHEM_SHAPE_MULTIPOLES>
624.22
9.95
5.18
1.87
2.89
3.57
-0.15
3.9
-2.93
2.39
-0.28
-1.05
-0.06
0.57

> <PUBCHEM_SHAPE_SELFOVERLAP>
1298.59

> <PUBCHEM_SHAPE_VOLUME>
350.9

> <PUBCHEM_COORDINATE_TYPE>
2
5
10

$$$$
