REMARK  Name = 126968858
REMARK  10 active torsions:
REMARK  status: ('A' for Active; 'I' for Inactive)
REMARK    1  A    between atoms: C_2  and  C_3
REMARK    2  A    between atoms: C_2  and  O_19
REMARK    3  A    between atoms: C_4  and  N_9
REMARK    4  A    between atoms: N_9  and  C_11
REMARK    5  A    between atoms: O_19  and  C_25
REMARK    6  A    between atoms: C_21  and  O_26
REMARK    7  A    between atoms: C_22  and  O_28
REMARK    8  A    between atoms: C_23  and  O_30
REMARK    9  A    between atoms: C_24  and  C_33
REMARK   10  A    between atoms: C_33  and  O_34
REMARK                            x       y       z     vdW  Elec       q    Type
REMARK                         _______ _______ _______ _____ _____    ______ ____
ROOT
ATOM      1  O   UNL     1       1.629  -1.412  -2.242  0.00  0.00    -0.245 OA
ATOM      2  C   UNL     1       1.410  -1.663  -1.067  0.00  0.00    +0.344 C 
ENDROOT
BRANCH   2   3
ATOM      3  C   UNL     1       0.384  -2.638  -0.621  0.00  0.00    +0.089 C 
ATOM      4  C   UNL     1      -0.930  -2.243  -0.367  0.00  0.00    +0.055 C 
ATOM      5  C   UNL     1       0.755  -3.973  -0.455  0.00  0.00    +0.008 C 
ATOM      6  C   UNL     1      -1.872  -3.183   0.053  0.00  0.00    +0.015 C 
ATOM      7  C   UNL     1      -0.187  -4.912  -0.035  0.00  0.00    +0.000 C 
ATOM      8  C   UNL     1      -1.501  -4.517   0.218  0.00  0.00    +0.001 C 
BRANCH   4   9
ATOM      9  N   UNL     1      -1.326  -0.897  -0.527  0.00  0.00    -0.313 N 
ATOM     10  H   UNL     1      -0.820  -0.415  -1.221  0.00  0.00    +0.152 HD
BRANCH   9  11
ATOM     11  C   UNL     1      -2.303  -0.110   0.110  0.00  0.00    +0.044 C 
ATOM     12  C   UNL     1      -2.936   0.933  -0.567  0.00  0.00    -0.012 C 
ATOM     13  C   UNL     1      -3.900   1.703   0.083  0.00  0.00    -0.025 C 
ATOM     14  C   UNL     1      -2.635  -0.383   1.437  0.00  0.00    +0.014 C 
ATOM     15  C   UNL     1      -2.582   1.229  -1.991  0.00  0.00    +0.032 C 
ATOM     16  C   UNL     1      -4.232   1.430   1.410  0.00  0.00    -0.004 C 
ATOM     17  C   UNL     1      -3.600   0.387   2.087  0.00  0.00    +0.001 C 
ATOM     18  C   UNL     1      -4.593   2.825  -0.619  0.00  0.00    +0.031 C 
ENDBRANCH   9  11
ENDBRANCH   4   9
ENDBRANCH   2   3
BRANCH   2  19
ATOM     19  O   UNL     1       2.046  -1.113   0.002  0.00  0.00    -0.419 OA
BRANCH  19  25
ATOM     20  O   UNL     1       2.550   0.938  -1.066  0.00  0.00    -0.307 OA
ATOM     21  C   UNL     1       2.760   1.218   1.815  0.00  0.00    +0.173 C 
ATOM     22  C   UNL     1       2.169   2.317   0.925  0.00  0.00    +0.178 C 
ATOM     23  C   UNL     1       3.719   0.363   0.982  0.00  0.00    +0.211 C 
ATOM     24  C   UNL     1       1.593   1.734  -0.366  0.00  0.00    +0.246 C 
ATOM     25  C   UNL     1       3.059  -0.157  -0.300  0.00  0.00    +0.321 C 
BRANCH  21  26
ATOM     26  O   UNL     1       1.719   0.412   2.369  0.00  0.00    -0.379 OA
ATOM     27  H   UNL     1       1.122   0.971   2.892  0.00  0.00    +0.211 HD
ENDBRANCH  21  26
BRANCH  22  28
ATOM     28  O   UNL     1       1.150   3.018   1.628  0.00  0.00    -0.379 OA
ATOM     29  H   UNL     1       1.517   3.387   2.446  0.00  0.00    +0.211 HD
ENDBRANCH  22  28
BRANCH  23  30
ATOM     30  O   UNL     1       4.222  -0.725   1.745  0.00  0.00    -0.377 OA
ATOM     31  H   UNL     1       4.638  -0.388   2.554  0.00  0.00    +0.211 HD
ENDBRANCH  23  30
BRANCH  24  33
ATOM     32  O   UNL     1       1.822   2.955  -2.435  0.00  0.00    -0.247 OA
ATOM     33  C   UNL     1       1.285   2.820  -1.346  0.00  0.00    +0.344 C 
BRANCH  33  34
ATOM     34  O   UNL     1       0.324   3.644  -0.861  0.00  0.00    -0.478 OA
ATOM     35  H   UNL     1      -0.047   3.484  -0.016  0.00  0.00    +0.295 HD
ENDBRANCH  33  34
ENDBRANCH  24  33
ENDBRANCH  19  25
ENDBRANCH   2  19
TORSDOF 10
