126968945
  -OEChem-03292013293D

 66 70  0     1  0  0  0  0  0999 V2000
    1.5725   -0.5740    0.3339 O   0  0  0  0  0  0  0  0  0  0  0  0
    3.2644    0.9916   -0.1049 O   0  0  0  0  0  0  0  0  0  0  0  0
    3.3762   -0.2369    2.4292 O   0  0  0  0  0  0  0  0  0  0  0  0
    5.9797   -1.1754    2.1496 O   0  0  0  0  0  0  0  0  0  0  0  0
   -8.5503    1.1769    1.0273 O   0  0  0  0  0  0  0  0  0  0  0  0
    6.9240    0.7564    0.2035 O   0  0  0  0  0  0  0  0  0  0  0  0
    5.9492    3.0938   -0.9227 O   0  0  0  0  0  0  0  0  0  0  0  0
    3.7864    3.4707   -0.3094 O   0  0  0  0  0  0  0  0  0  0  0  0
   -0.5958   -1.4367   -0.4897 C   0  0  1  0  0  0  0  0  0  0  0  0
   -0.9336    0.0010   -0.9569 C   0  0  2  0  0  0  0  0  0  0  0  0
   -2.4031    0.4363   -0.9038 C   0  0  2  0  0  0  0  0  0  0  0  0
    0.9586   -1.3924   -0.6667 C   0  0  1  0  0  0  0  0  0  0  0  0
   -2.9695    0.1644    0.5193 C   0  0  2  0  0  0  0  0  0  0  0  0
   -1.1225   -1.5881    0.9484 C   0  0  0  0  0  0  0  0  0  0  0  0
   -0.1441    0.1655   -2.2514 C   0  0  0  0  0  0  0  0  0  0  0  0
    1.1407   -0.6608   -2.0216 C   0  0  0  0  0  0  0  0  0  0  0  0
   -2.6206   -1.2478    1.0543 C   0  0  0  0  0  0  0  0  0  0  0  0
   -3.3336   -0.1138   -1.9871 C   0  0  0  0  0  0  0  0  0  0  0  0
   -1.1928   -2.5645   -1.3736 C   0  0  0  0  0  0  0  0  0  0  0  0
   -4.4635    0.4346    0.6200 C   0  0  0  0  0  0  0  0  0  0  0  0
   -4.6919    0.5810   -1.9133 C   0  0  0  0  0  0  0  0  0  0  0  0
   -5.2699    0.5988   -0.5220 C   0  0  0  0  0  0  0  0  0  0  0  0
    1.6243   -2.7021   -0.6652 C   0  0  0  0  0  0  0  0  0  0  0  0
    2.9608   -0.3933    0.0720 C   0  0  1  0  0  0  0  0  0  0  0  0
   -5.0590    0.5279    1.8908 C   0  0  0  0  0  0  0  0  0  0  0  0
   -6.6428    0.8543   -0.3698 C   0  0  0  0  0  0  0  0  0  0  0  0
    3.7583   -0.9521    1.2500 C   0  0  1  0  0  0  0  0  0  0  0  0
   -6.4254    0.7713    2.0281 C   0  0  0  0  0  0  0  0  0  0  0  0
    2.1677   -3.7723   -0.6639 C   0  0  0  0  0  0  0  0  0  0  0  0
    5.2523   -0.7629    0.9957 C   0  0  1  0  0  0  0  0  0  0  0  0
   -7.2178    0.9334    0.8974 C   0  0  0  0  0  0  0  0  0  0  0  0
    4.6360    1.2152   -0.4263 C   0  0  2  0  0  0  0  0  0  0  0  0
    5.5747    0.6966    0.6638 C   0  0  2  0  0  0  0  0  0  0  0  0
    4.7104    2.7035   -0.5349 C   0  0  0  0  0  0  0  0  0  0  0  0
   -0.4476    0.6895   -0.2435 H   0  0  0  0  0  0  0  0  0  0  0  0
   -2.3981    1.5290   -1.0448 H   0  0  0  0  0  0  0  0  0  0  0  0
   -2.4767    0.8886    1.1859 H   0  0  0  0  0  0  0  0  0  0  0  0
   -0.5744   -0.9253    1.6295 H   0  0  0  0  0  0  0  0  0  0  0  0
   -0.9524   -2.6091    1.3109 H   0  0  0  0  0  0  0  0  0  0  0  0
    0.0882    1.2181   -2.4448 H   0  0  0  0  0  0  0  0  0  0  0  0
   -0.6825   -0.2191   -3.1229 H   0  0  0  0  0  0  0  0  0  0  0  0
    1.2352   -1.3772   -2.8485 H   0  0  0  0  0  0  0  0  0  0  0  0
    1.9928    0.0164   -2.1100 H   0  0  0  0  0  0  0  0  0  0  0  0
   -3.2209   -2.0054    0.5375 H   0  0  0  0  0  0  0  0  0  0  0  0
   -2.9045   -1.3246    2.1116 H   0  0  0  0  0  0  0  0  0  0  0  0
   -3.5014   -1.1849   -1.8699 H   0  0  0  0  0  0  0  0  0  0  0  0
   -2.9140    0.0424   -2.9860 H   0  0  0  0  0  0  0  0  0  0  0  0
   -0.9515   -2.4462   -2.4339 H   0  0  0  0  0  0  0  0  0  0  0  0
   -2.2758   -2.6431   -1.2946 H   0  0  0  0  0  0  0  0  0  0  0  0
   -0.8199   -3.5462   -1.0601 H   0  0  0  0  0  0  0  0  0  0  0  0
   -5.3818    0.0725   -2.5978 H   0  0  0  0  0  0  0  0  0  0  0  0
   -4.5920    1.6183   -2.2567 H   0  0  0  0  0  0  0  0  0  0  0  0
    3.3102   -0.9215   -0.8250 H   0  0  0  0  0  0  0  0  0  0  0  0
   -4.4555    0.4147    2.7884 H   0  0  0  0  0  0  0  0  0  0  0  0
   -7.2616    0.9964   -1.2536 H   0  0  0  0  0  0  0  0  0  0  0  0
    3.5256   -2.0032    1.4444 H   0  0  0  0  0  0  0  0  0  0  0  0
   -6.8626    0.8372    3.0205 H   0  0  0  0  0  0  0  0  0  0  0  0
    5.5749   -1.4093    0.1698 H   0  0  0  0  0  0  0  0  0  0  0  0
    2.6505   -4.7214   -0.6622 H   0  0  0  0  0  0  0  0  0  0  0  0
    4.8522    0.7902   -1.4143 H   0  0  0  0  0  0  0  0  0  0  0  0
    5.5199    1.3129    1.5688 H   0  0  0  0  0  0  0  0  0  0  0  0
    3.4073    0.7147    2.2336 H   0  0  0  0  0  0  0  0  0  0  0  0
    5.7518   -2.1047    2.3233 H   0  0  0  0  0  0  0  0  0  0  0  0
   -8.9433    1.2634    0.1418 H   0  0  0  0  0  0  0  0  0  0  0  0
    6.9874    0.2348   -0.6148 H   0  0  0  0  0  0  0  0  0  0  0  0
    6.0186    4.0692   -1.0005 H   0  0  0  0  0  0  0  0  0  0  0  0
  1 12  1  0  0  0  0
  1 24  1  0  0  0  0
  2 24  1  0  0  0  0
  2 32  1  0  0  0  0
  3 27  1  0  0  0  0
  3 62  1  0  0  0  0
  4 30  1  0  0  0  0
  4 63  1  0  0  0  0
  5 31  1  0  0  0  0
  5 64  1  0  0  0  0
  6 33  1  0  0  0  0
  6 65  1  0  0  0  0
  7 34  1  0  0  0  0
  7 66  1  0  0  0  0
  8 34  2  0  0  0  0
  9 10  1  0  0  0  0
  9 12  1  0  0  0  0
  9 14  1  0  0  0  0
  9 19  1  0  0  0  0
 10 11  1  0  0  0  0
 10 15  1  0  0  0  0
 10 35  1  0  0  0  0
 11 13  1  0  0  0  0
 11 18  1  0  0  0  0
 11 36  1  0  0  0  0
 12 16  1  0  0  0  0
 12 23  1  0  0  0  0
 13 17  1  0  0  0  0
 13 20  1  0  0  0  0
 13 37  1  0  0  0  0
 14 17  1  0  0  0  0
 14 38  1  0  0  0  0
 14 39  1  0  0  0  0
 15 16  1  0  0  0  0
 15 40  1  0  0  0  0
 15 41  1  0  0  0  0
 16 42  1  0  0  0  0
 16 43  1  0  0  0  0
 17 44  1  0  0  0  0
 17 45  1  0  0  0  0
 18 21  1  0  0  0  0
 18 46  1  0  0  0  0
 18 47  1  0  0  0  0
 19 48  1  0  0  0  0
 19 49  1  0  0  0  0
 19 50  1  0  0  0  0
 20 22  2  0  0  0  0
 20 25  1  0  0  0  0
 21 22  1  0  0  0  0
 21 51  1  0  0  0  0
 21 52  1  0  0  0  0
 22 26  1  0  0  0  0
 23 29  3  0  0  0  0
 24 27  1  0  0  0  0
 24 53  1  0  0  0  0
 25 28  2  0  0  0  0
 25 54  1  0  0  0  0
 26 31  2  0  0  0  0
 26 55  1  0  0  0  0
 27 30  1  0  0  0  0
 27 56  1  0  0  0  0
 28 31  1  0  0  0  0
 28 57  1  0  0  0  0
 29 59  1  0  0  0  0
 30 33  1  0  0  0  0
 30 58  1  0  0  0  0
 32 33  1  0  0  0  0
 32 34  1  0  0  0  0
 32 60  1  0  0  0  0
 33 61  1  0  0  0  0
M  END
> <PUBCHEM_COMPOUND_CID>
126968945

> <PUBCHEM_CONFORMER_RMSD>
0.8

> <PUBCHEM_CONFORMER_DIVERSEORDER>
1
15
13
5
2
12
10
7
14
4
8
11
9
3
6

> <PUBCHEM_MMFF94_PARTIAL_CHARGES>
34
1 -0.56
12 0.48
13 0.14
2 -0.56
20 -0.14
21 0.14
22 -0.14
23 -0.2
24 0.56
25 -0.15
26 -0.15
27 0.28
28 -0.15
29 -0.18
3 -0.68
30 0.28
31 0.08
32 0.34
33 0.28
34 0.66
4 -0.68
5 -0.53
54 0.15
55 0.15
57 0.15
59 0.18
6 -0.68
62 0.4
63 0.4
64 0.45
65 0.4
66 0.5
7 -0.65
8 -0.57

> <PUBCHEM_EFFECTIVE_ROTOR_COUNT>
5.6

> <PUBCHEM_PHARMACOPHORE_FEATURES>
18
1 1 acceptor
1 2 acceptor
1 29 hydrophobe
1 3 acceptor
1 3 donor
1 4 acceptor
1 4 donor
1 5 donor
1 6 acceptor
1 6 donor
1 7 acceptor
1 8 acceptor
3 7 8 34 anion
5 9 10 12 15 16 rings
6 11 13 18 20 21 22 rings
6 2 24 27 30 32 33 rings
6 20 22 25 26 28 31 rings
6 9 10 11 13 14 17 rings

> <PUBCHEM_HEAVY_ATOM_COUNT>
34

> <PUBCHEM_ATOM_DEF_STEREO_COUNT>
10

> <PUBCHEM_ATOM_UDEF_STEREO_COUNT>
0

> <PUBCHEM_BOND_DEF_STEREO_COUNT>
0

> <PUBCHEM_BOND_UDEF_STEREO_COUNT>
0

> <PUBCHEM_ISOTOPIC_ATOM_COUNT>
0

> <PUBCHEM_COMPONENT_COUNT>
1

> <PUBCHEM_CACTVS_TAUTO_COUNT>
55

> <PUBCHEM_CONFORMER_ID>
0791647100000001

> <PUBCHEM_MMFF94_ENERGY>
121.4472

> <PUBCHEM_FEATURE_SELFOVERLAP>
91.597

> <PUBCHEM_SHAPE_FINGERPRINT>
10 15 17676211290152300285
10319926 262 16298105367887071269
10670039 82 14548746062657930715
10721379 63 15553621599307458806
11578080 2 18271260394794131791
12128747 34 16878774994276124576
12236239 1 17131545051618524735
12422481 6 17603865632589070157
12596602 18 18040156236189958009
12633257 1 18334564750961453970
13583140 156 17531512214073130558
13782708 43 16154255097747360578
14251764 75 18192999433620036580
14341114 176 17675922088851119140
14705955 166 17022893515358177757
14840074 17 18343866632497318453
15064986 96 18410297995729640754
15082195 135 14332842777194510520
15131766 46 18272926151005654781
15183329 4 14476967765515329230
15238133 3 17917708020182831136
15475509 35 16226317124296552408
17980427 23 18188211017509878447
1813 80 12251899274520170318
18222031 100 12251904780541350790
18393751 57 18408045100693695443
19304671 126 18198359536243196188
19315092 285 11458967833193249980
19958102 18 13038917645792891628
20105231 36 17822009766966161058
20567600 234 18409168809850303233
20567600 247 8430319008924677949
21033648 144 18115572876889551524
21033648 29 18269264828797836008
21315764 119 13183022917116035857
21716022 299 14834744365828026102
21792934 111 16515688828389752157
21792964 463 17987256468367449809
21859007 373 17095794405418920703
22122407 14 18341623649660720217
221357 26 10952050043862343771
22393880 68 15123497117240040631
23559900 14 17605012324612719935
23569914 152 10228984680899481849
244849 19 17461146665757837095
2838139 119 17917989481763209825
3004659 81 13118292455617440531
314194 84 9079117778059804516
3178227 256 18186796960158157778
3383291 50 14779557794540698777
392239 28 18334857216928104573
394071 54 18334862701110854700
397830 11 17313107492222079337
4340502 62 18187930547439645259
5104073 3 18116421721641691722
5385378 56 18201996578430144930
57527293 21 18113334236550238054
57724786 102 18336828684210900060
59682541 52 12391516386491523968
6034566 193 18339363096761214071
6608658 132 16630259008865104961
86090 222 15864915309867731090

> <PUBCHEM_SHAPE_MULTIPOLES>
652.75
18.5
2.8
2.04
11.97
0.46
0.12
-13.24
7.66
-4.73
-0.85
0.78
0.07
-1.83

> <PUBCHEM_SHAPE_SELFOVERLAP>
1419.042

> <PUBCHEM_SHAPE_VOLUME>
350.7

> <PUBCHEM_COORDINATE_TYPE>
2
5
10

$$$$
