126963478
  -OEChem-03292013293D

 55 58  0     1  0  0  0  0  0999 V2000
    2.7644   -0.1103    0.7534 O   0  0  0  0  0  0  0  0  0  0  0  0
    1.1616   -2.0652   -0.6735 O   0  0  0  0  0  0  0  0  0  0  0  0
   -0.0416   -1.0560    1.0680 O   0  0  0  0  0  0  0  0  0  0  0  0
    2.7350   -1.5481    0.9994 O   0  0  0  0  0  0  0  0  0  0  0  0
   -1.7997    0.4943    0.7211 O   0  0  0  0  0  0  0  0  0  0  0  0
   -3.1069   -1.2309    1.5170 O   0  0  0  0  0  0  0  0  0  0  0  0
   -7.5144   -0.4034   -1.0054 O   0  0  0  0  0  0  0  0  0  0  0  0
   -6.0602    1.1663   -1.7695 O   0  0  0  0  0  0  0  0  0  0  0  0
    1.6701    0.2757   -0.0967 C   0  0  2  0  0  0  0  0  0  0  0  0
    2.2942    0.6181   -1.4826 C   0  0  1  0  0  0  0  0  0  0  0  0
    1.0135    1.5480    0.4967 C   0  0  2  0  0  0  0  0  0  0  0  0
    3.2666    1.8393   -1.4461 C   0  0  1  0  0  0  0  0  0  0  0  0
    0.5990   -0.8363   -0.1967 C   0  0  1  0  0  0  0  0  0  0  0  0
    2.0189    2.7013    0.6200 C   0  0  0  0  0  0  0  0  0  0  0  0
    0.2282    1.2668    1.8026 C   0  0  1  0  0  0  0  0  0  0  0  0
    2.9058   -0.5934   -2.2177 C   0  0  0  0  0  0  0  0  0  0  0  0
    2.6112    3.0439   -0.7466 C   0  0  0  0  0  0  0  0  0  0  0  0
    2.5170   -2.2112   -0.2478 C   0  0  2  0  0  0  0  0  0  0  0  0
    3.4816   -1.7149   -1.3436 C   0  0  0  0  0  0  0  0  0  0  0  0
   -0.7332    0.0853    1.5765 C   0  0  2  0  0  0  0  0  0  0  0  0
    4.6585    1.5708   -0.8625 C   0  0  0  0  0  0  0  0  0  0  0  0
    1.0974    1.0131    3.0387 C   0  0  0  0  0  0  0  0  0  0  0  0
    2.7477   -3.6976    0.0186 C   0  0  0  0  0  0  0  0  0  0  0  0
   -2.9398   -0.2594    0.7932 C   0  0  0  0  0  0  0  0  0  0  0  0
   -3.9622    0.3036   -0.1706 C   0  0  0  0  0  0  0  0  0  0  0  0
   -5.3050   -0.4142   -0.1051 C   0  0  0  0  0  0  0  0  0  0  0  0
   -6.3080    0.2145   -1.0406 C   0  0  0  0  0  0  0  0  0  0  0  0
    1.4605    0.9499   -2.1221 H   0  0  0  0  0  0  0  0  0  0  0  0
    0.2566    1.8811   -0.2314 H   0  0  0  0  0  0  0  0  0  0  0  0
    3.4376    2.1399   -2.4900 H   0  0  0  0  0  0  0  0  0  0  0  0
   -0.1740   -0.5612   -0.9237 H   0  0  0  0  0  0  0  0  0  0  0  0
    2.8274    2.4532    1.3156 H   0  0  0  0  0  0  0  0  0  0  0  0
    1.5163    3.5893    1.0217 H   0  0  0  0  0  0  0  0  0  0  0  0
   -0.3740    2.1611    2.0159 H   0  0  0  0  0  0  0  0  0  0  0  0
    3.6660   -0.2661   -2.9375 H   0  0  0  0  0  0  0  0  0  0  0  0
    2.1138   -1.0373   -2.8377 H   0  0  0  0  0  0  0  0  0  0  0  0
    1.8080    3.4274   -1.3897 H   0  0  0  0  0  0  0  0  0  0  0  0
    3.3323    3.8631   -0.6393 H   0  0  0  0  0  0  0  0  0  0  0  0
    3.7180   -2.5407   -2.0274 H   0  0  0  0  0  0  0  0  0  0  0  0
    4.4323   -1.4034   -0.8965 H   0  0  0  0  0  0  0  0  0  0  0  0
   -1.1527   -0.1986    2.5500 H   0  0  0  0  0  0  0  0  0  0  0  0
    4.6336    1.3083    0.1972 H   0  0  0  0  0  0  0  0  0  0  0  0
    5.2832    2.4669   -0.9548 H   0  0  0  0  0  0  0  0  0  0  0  0
    5.1743    0.7732   -1.4037 H   0  0  0  0  0  0  0  0  0  0  0  0
    1.6750    0.0889    2.9658 H   0  0  0  0  0  0  0  0  0  0  0  0
    0.4640    0.9234    3.9289 H   0  0  0  0  0  0  0  0  0  0  0  0
    1.7870    1.8409    3.2250 H   0  0  0  0  0  0  0  0  0  0  0  0
    2.0748   -4.0532    0.8080 H   0  0  0  0  0  0  0  0  0  0  0  0
    3.7720   -3.8871    0.3570 H   0  0  0  0  0  0  0  0  0  0  0  0
    2.5443   -4.3017   -0.8721 H   0  0  0  0  0  0  0  0  0  0  0  0
   -4.1003    1.3648    0.0692 H   0  0  0  0  0  0  0  0  0  0  0  0
   -3.5491    0.2286   -1.1834 H   0  0  0  0  0  0  0  0  0  0  0  0
   -5.7066   -0.3664    0.9132 H   0  0  0  0  0  0  0  0  0  0  0  0
   -5.1813   -1.4664   -0.3840 H   0  0  0  0  0  0  0  0  0  0  0  0
   -8.1546    0.0075   -1.6246 H   0  0  0  0  0  0  0  0  0  0  0  0
  1  4  1  0  0  0  0
  1  9  1  0  0  0  0
  2 13  1  0  0  0  0
  2 18  1  0  0  0  0
  3 13  1  0  0  0  0
  3 20  1  0  0  0  0
  4 18  1  0  0  0  0
  5 20  1  0  0  0  0
  5 24  1  0  0  0  0
  6 24  2  0  0  0  0
  7 27  1  0  0  0  0
  7 55  1  0  0  0  0
  8 27  2  0  0  0  0
  9 10  1  0  0  0  0
  9 11  1  0  0  0  0
  9 13  1  0  0  0  0
 10 12  1  0  0  0  0
 10 16  1  0  0  0  0
 10 28  1  0  0  0  0
 11 14  1  0  0  0  0
 11 15  1  0  0  0  0
 11 29  1  0  0  0  0
 12 17  1  0  0  0  0
 12 21  1  0  0  0  0
 12 30  1  0  0  0  0
 13 31  1  0  0  0  0
 14 17  1  0  0  0  0
 14 32  1  0  0  0  0
 14 33  1  0  0  0  0
 15 20  1  0  0  0  0
 15 22  1  0  0  0  0
 15 34  1  0  0  0  0
 16 19  1  0  0  0  0
 16 35  1  0  0  0  0
 16 36  1  0  0  0  0
 17 37  1  0  0  0  0
 17 38  1  0  0  0  0
 18 19  1  0  0  0  0
 18 23  1  0  0  0  0
 19 39  1  0  0  0  0
 19 40  1  0  0  0  0
 20 41  1  0  0  0  0
 21 42  1  0  0  0  0
 21 43  1  0  0  0  0
 21 44  1  0  0  0  0
 22 45  1  0  0  0  0
 22 46  1  0  0  0  0
 22 47  1  0  0  0  0
 23 48  1  0  0  0  0
 23 49  1  0  0  0  0
 23 50  1  0  0  0  0
 24 25  1  0  0  0  0
 25 26  1  0  0  0  0
 25 51  1  0  0  0  0
 25 52  1  0  0  0  0
 26 27  1  0  0  0  0
 26 53  1  0  0  0  0
 26 54  1  0  0  0  0
M  END
> <PUBCHEM_COMPOUND_CID>
126963478

> <PUBCHEM_CONFORMER_RMSD>
0.8

> <PUBCHEM_CONFORMER_DIVERSEORDER>
1
19
63
72
30
21
78
32
9
56
49
53
77
40
66
29
44
13
65
55
76
36
45
58
69
15
35
67
57
50
11
39
59
27
82
46
33
68
2
48
61
20
6
47
22
54
70
74
37
84
60
8
17
62
42
51
3
81
43
79
71
64
25
10
24
52
41
38
7
73
34
80
75
83
18
23
31
14
28
16
26
12
4
5

> <PUBCHEM_MMFF94_PARTIAL_CHARGES>
17
1 -0.28
13 0.56
18 0.56
2 -0.56
20 0.56
24 0.66
25 0.06
26 0.06
27 0.66
3 -0.56
4 -0.28
5 -0.43
55 0.5
6 -0.57
7 -0.65
8 -0.57
9 0.28

> <PUBCHEM_EFFECTIVE_ROTOR_COUNT>
7.2

> <PUBCHEM_PHARMACOPHORE_FEATURES>
9
1 2 acceptor
1 3 acceptor
1 6 acceptor
1 7 acceptor
1 8 acceptor
3 7 8 27 anion
6 3 9 11 13 15 20 rings
6 9 10 11 12 14 17 rings
9 1 2 4 9 10 13 16 18 19 rings

> <PUBCHEM_HEAVY_ATOM_COUNT>
27

> <PUBCHEM_ATOM_DEF_STEREO_COUNT>
8

> <PUBCHEM_ATOM_UDEF_STEREO_COUNT>
0

> <PUBCHEM_BOND_DEF_STEREO_COUNT>
0

> <PUBCHEM_BOND_UDEF_STEREO_COUNT>
0

> <PUBCHEM_ISOTOPIC_ATOM_COUNT>
0

> <PUBCHEM_COMPONENT_COUNT>
1

> <PUBCHEM_CACTVS_TAUTO_COUNT>
1

> <PUBCHEM_CONFORMER_ID>
07914F1600000001

> <PUBCHEM_MMFF94_ENERGY>
85.1703

> <PUBCHEM_FEATURE_SELFOVERLAP>
45.824

> <PUBCHEM_SHAPE_FINGERPRINT>
10498660 4 17530687628245733261
10674148 151 12973895797767475702
10693767 8 18059586745789475958
11069576 57 18130510708483757415
11497681 19 17628078889527894190
11720765 8 18191574264174493300
12661589 4 15481528984596634285
12730499 353 18337117881617443059
13965767 371 12973888186024844470
14068700 675 18055635015084214250
14863182 85 17418372480713096358
15183329 4 17561367262994665441
15210252 30 15936702509722811317
15238133 3 13767924611711908349
15475509 35 13182751311768671085
16945 1 17687514175919100530
17349148 13 16271929307618282303
17492 54 17845106210527798604
17980427 26 16519326197037206632
1813 80 15985108487803120281
18222031 100 15985107401339872409
20369508 70 17632286874654409283
20626108 58 18126843802744697627
20645477 70 18272660073195848155
21304303 282 17122236860966184416
21756936 100 9292988135934462418
21968339 14 18408598167062140693
22393880 68 18057885942850278895
23419403 2 17839710735498553792
23559900 14 18410005520998501667
238 59 18270973464875898714
25147074 1 17916885516697317025
2748010 2 16692205777616145740
3004659 81 17846498106744732487
3380486 77 18267309733446057194
3472631 163 16733548355070072125
34797466 226 18113894988598066893
404807 78 17902795498748069731
44317340 157 18408040702931741805
44802255 64 17248123168882694548
46194498 28 18335135367658047079
495365 180 18335982055508442209
513532 50 17675919893859041335
5281201 14 18337104584594165757
57527573 199 15827150765860606874
59682541 52 18337943516435069975
59755656 215 17822008709623036036
7471813 234 18200601276461549854
8988823 20 9655576319040489905
960060 61 18201722864495689845
9841814 1 16630237074192609219

> <PUBCHEM_SHAPE_MULTIPOLES>
508.69
11.45
2.96
2.08
30.6
0.99
0.65
-0.1
-7.77
-4.75
-0.08
-0.2
-0.61
0.13

> <PUBCHEM_SHAPE_SELFOVERLAP>
1076.418

> <PUBCHEM_SHAPE_VOLUME>
275.1

> <PUBCHEM_COORDINATE_TYPE>
2
5
10

$$$$
