126961128
  -OEChem-03292013293D

 38 39  0     1  0  0  0  0  0999 V2000
   -0.8835   -1.0620    1.3314 O   0  0  0  0  0  0  0  0  0  0  0  0
   -4.4715   -1.7335   -0.1583 O   0  5  0  0  0  0  0  0  0  0  0  0
   -5.6396    0.1074    0.5077 O   0  0  0  0  0  0  0  0  0  0  0  0
    5.4179    2.1839    0.4075 O   0  0  0  0  0  0  0  0  0  0  0  0
   -2.2028   -0.2865   -0.4137 N   0  0  0  0  0  0  0  0  0  0  0  0
    3.2636   -2.2016    0.1930 N   0  0  0  0  0  0  0  0  0  0  0  0
   -3.3782    1.7827    0.2209 C   0  0  0  0  0  0  0  0  0  0  0  0
   -3.2701    0.2519    0.4038 C   0  0  1  0  0  0  0  0  0  0  0  0
    1.2997   -1.4321   -0.4985 C   0  0  0  0  0  0  0  0  0  0  0  0
   -0.1357   -1.3779   -0.9503 C   0  0  0  0  0  0  0  0  0  0  0  0
    2.1801   -0.3254   -0.3392 C   0  0  0  0  0  0  0  0  0  0  0  0
   -3.9399    2.1454   -1.1588 C   0  0  0  0  0  0  0  0  0  0  0  0
   -2.0425    2.5022    0.4402 C   0  0  0  0  0  0  0  0  0  0  0  0
   -1.0885   -0.9044    0.1306 C   0  0  0  0  0  0  0  0  0  0  0  0
    3.4053   -0.8357    0.0951 C   0  0  0  0  0  0  0  0  0  0  0  0
    1.9945   -2.5714   -0.1636 C   0  0  0  0  0  0  0  0  0  0  0  0
   -4.5875   -0.5350    0.2227 C   0  0  0  0  0  0  0  0  0  0  0  0
    2.0518    1.0656   -0.5236 C   0  0  0  0  0  0  0  0  0  0  0  0
    4.5131   -0.0213    0.3552 C   0  0  0  0  0  0  0  0  0  0  0  0
    3.1515    1.8925   -0.2673 C   0  0  0  0  0  0  0  0  0  0  0  0
    4.3623    1.3553    0.1653 C   0  0  0  0  0  0  0  0  0  0  0  0
   -4.0829    2.1667    0.9705 H   0  0  0  0  0  0  0  0  0  0  0  0
   -3.0050    0.0812    1.4563 H   0  0  0  0  0  0  0  0  0  0  0  0
   -0.2024   -0.7208   -1.8263 H   0  0  0  0  0  0  0  0  0  0  0  0
   -0.4683   -2.3733   -1.2690 H   0  0  0  0  0  0  0  0  0  0  0  0
   -2.3096   -0.2457   -1.4230 H   0  0  0  0  0  0  0  0  0  0  0  0
   -4.0391    3.2328   -1.2533 H   0  0  0  0  0  0  0  0  0  0  0  0
   -4.9311    1.7185   -1.3323 H   0  0  0  0  0  0  0  0  0  0  0  0
   -2.1864    3.5881    0.4292 H   0  0  0  0  0  0  0  0  0  0  0  0
   -1.6115    2.2336    1.4103 H   0  0  0  0  0  0  0  0  0  0  0  0
   -1.3139    2.2585   -0.3396 H   0  0  0  0  0  0  0  0  0  0  0  0
   -3.2803    1.8061   -1.9644 H   0  0  0  0  0  0  0  0  0  0  0  0
    1.7015   -3.6119   -0.1460 H   0  0  0  0  0  0  0  0  0  0  0  0
    3.9915   -2.8385    0.4859 H   0  0  0  0  0  0  0  0  0  0  0  0
    1.1154    1.4998   -0.8614 H   0  0  0  0  0  0  0  0  0  0  0  0
    5.4543   -0.4438    0.6920 H   0  0  0  0  0  0  0  0  0  0  0  0
    3.0444    2.9649   -0.4123 H   0  0  0  0  0  0  0  0  0  0  0  0
    5.1475    3.1008    0.2282 H   0  0  0  0  0  0  0  0  0  0  0  0
  1 14  2  0  0  0  0
  2 17  1  0  0  0  0
  3 17  2  0  0  0  0
  4 21  1  0  0  0  0
  4 38  1  0  0  0  0
  5  8  1  0  0  0  0
  5 14  1  0  0  0  0
  5 26  1  0  0  0  0
  6 15  1  0  0  0  0
  6 16  1  0  0  0  0
  6 34  1  0  0  0  0
  7  8  1  0  0  0  0
  7 12  1  0  0  0  0
  7 13  1  0  0  0  0
  7 22  1  0  0  0  0
  8 17  1  0  0  0  0
  8 23  1  0  0  0  0
  9 10  1  0  0  0  0
  9 11  1  0  0  0  0
  9 16  2  0  0  0  0
 10 14  1  0  0  0  0
 10 24  1  0  0  0  0
 10 25  1  0  0  0  0
 11 15  2  0  0  0  0
 11 18  1  0  0  0  0
 12 27  1  0  0  0  0
 12 28  1  0  0  0  0
 12 32  1  0  0  0  0
 13 29  1  0  0  0  0
 13 30  1  0  0  0  0
 13 31  1  0  0  0  0
 15 19  1  0  0  0  0
 16 33  1  0  0  0  0
 18 20  2  0  0  0  0
 18 35  1  0  0  0  0
 19 21  2  0  0  0  0
 19 36  1  0  0  0  0
 20 21  1  0  0  0  0
 20 37  1  0  0  0  0
M  CHG  1   2  -1
M  END
> <PUBCHEM_COMPOUND_CID>
126961128

> <PUBCHEM_CONFORMER_RMSD>
0.8

> <PUBCHEM_CONFORMER_DIVERSEORDER>
1
120
87
97
45
116
32
51
60
53
5
58
84
55
93
76
86
82
117
29
54
111
8
94
61
22
69
104
57
49
95
31
19
30
39
110
105
34
38
112
83
80
85
12
11
28
72
63
26
6
101
70
71
107
59
23
24
27
92
118
75
41
115
3
36
68
64
40
96
119
17
48
78
103
14
4
62
2
106
10
21
20
56
47
65
90
46
99
33
16
108
79
100
113
102
43
109
35
89
13
7
15
81
73
42
77
67
50
44
98
66
25
74
91
52
18
9
114
37
88

> <PUBCHEM_MMFF94_PARTIAL_CHARGES>
24
1 -0.57
10 0.24
14 0.57
15 -0.15
16 -0.3
17 0.91
18 -0.15
19 -0.15
2 -0.9
20 -0.15
21 0.08
26 0.37
3 -0.9
33 0.15
34 0.27
35 0.15
36 0.15
37 0.15
38 0.45
4 -0.53
5 -0.73
6 0.03
8 0.19
9 -0.18

> <PUBCHEM_EFFECTIVE_ROTOR_COUNT>
6

> <PUBCHEM_PHARMACOPHORE_FEATURES>
11
1 1 acceptor
1 2 acceptor
1 3 acceptor
1 4 donor
1 5 donor
1 6 cation
1 6 donor
3 2 3 17 anion
3 7 12 13 hydrophobe
5 6 9 11 15 16 rings
6 11 15 18 19 20 21 rings

> <PUBCHEM_HEAVY_ATOM_COUNT>
21

> <PUBCHEM_ATOM_DEF_STEREO_COUNT>
1

> <PUBCHEM_ATOM_UDEF_STEREO_COUNT>
0

> <PUBCHEM_BOND_DEF_STEREO_COUNT>
0

> <PUBCHEM_BOND_UDEF_STEREO_COUNT>
0

> <PUBCHEM_ISOTOPIC_ATOM_COUNT>
0

> <PUBCHEM_COMPONENT_COUNT>
1

> <PUBCHEM_CACTVS_TAUTO_COUNT>
55

> <PUBCHEM_CONFORMER_ID>
079145E800000001

> <PUBCHEM_MMFF94_ENERGY>
34.4462

> <PUBCHEM_FEATURE_SELFOVERLAP>
55.967

> <PUBCHEM_SHAPE_FINGERPRINT>
10498660 4 18412829057730729205
10670039 82 18335437763632129004
12107183 9 17761773966323059323
12403259 415 18261678073600549861
12403814 3 18272932726652728223
12507557 5 18337387124142244089
12596602 18 17240760743748049560
13533116 47 17603864443231769579
14251764 38 18338799996452678225
14341114 176 18409174285670030335
14466204 15 18340196475795531632
14787075 74 18337109072576384259
14790565 3 18117284864388323356
15188451 53 16081939286022606955
15196674 1 18410856525322613021
17492 89 18339925905271520535
17844677 252 18269281174894893895
18186145 218 18198352766524559887
20157964 124 18410290290209593511
20681677 76 18336544911257380839
20715895 44 17908420256400751545
20739085 24 18186237308707997180
21065199 12 18333454218336702995
21652331 79 18412827988573691493
23227448 37 18343018938737878063
23402539 116 18408880767842489647
23559900 14 18124875664025406078
245318 6 17389962367330625244
351380 180 18335139803979500649
3545911 37 18410296903936911822
4214541 1 18337391535289973927
4325135 7 18273213132071890519
474 4 18261113019128880006
5104073 3 18335425608462535969
7808743 9 18124873710600925848
9709674 26 18336554845227073267

> <PUBCHEM_SHAPE_MULTIPOLES>
398.73
11.43
2.81
0.87
3.84
0.48
0.04
3.8
-1.17
-0.88
0.13
0.33
0.05
0.45

> <PUBCHEM_SHAPE_SELFOVERLAP>
844.208

> <PUBCHEM_SHAPE_VOLUME>
223.7

> <PUBCHEM_COORDINATE_TYPE>
2
5
10

$$$$
