REMARK  Name = 126959
REMARK  7 active torsions:
REMARK  status: ('A' for Active; 'I' for Inactive)
REMARK    1  A    between atoms: N_2  and  C_7
REMARK    2  A    between atoms: C_3  and  C_17
REMARK    3  A    between atoms: C_17  and  N_18
REMARK    4  A    between atoms: C_17  and  C_22
REMARK    5  A    between atoms: C_22  and  C_23
REMARK    6  A    between atoms: C_23  and  C_25
REMARK    7  A    between atoms: C_25  and  O_26
REMARK                            x       y       z     vdW  Elec       q    Type
REMARK                         _______ _______ _______ _____ _____    ______ ____
ROOT
ATOM      1  O   UNL     1       1.640  -0.148   1.702  0.00  0.00    -0.277 OA
ATOM      2  N   UNL     1       1.019   1.386   0.031  0.00  0.00    -0.286 N 
ATOM      3  C   UNL     1       1.905   0.769   0.928  0.00  0.00    +0.206 C 
ATOM      4  H   UNL     1       1.395   2.117  -0.511  0.00  0.00    +0.155 HD
ENDROOT
BRANCH   2   7
ATOM      5  O   UNL     1      -2.869  -1.240   1.046  0.00  0.00    -0.421 OA
ATOM      6  O   UNL     1      -4.708  -2.503   1.548  0.00  0.00    -0.244 OA
ATOM      7  C   UNL     1      -0.326   1.093  -0.191  0.00  0.00    +0.053 C 
ATOM      8  C   UNL     1      -3.048   0.511  -0.647  0.00  0.00    +0.031 C 
ATOM      9  C   UNL     1      -2.295  -0.200   0.289  0.00  0.00    +0.150 C 
ATOM     10  C   UNL     1      -0.948   0.076   0.526  0.00  0.00    +0.052 C 
ATOM     11  C   UNL     1      -4.461   0.153  -0.832  0.00  0.00    -0.012 C 
ATOM     12  C   UNL     1      -1.053   1.820  -1.133  0.00  0.00    +0.015 C 
ATOM     13  C   UNL     1      -2.404   1.532  -1.360  0.00  0.00    +0.004 C 
ATOM     14  C   UNL     1      -4.980  -0.841  -0.098  0.00  0.00    +0.078 C 
ATOM     15  C   UNL     1      -5.297   0.899  -1.831  0.00  0.00    +0.031 C 
ATOM     16  C   UNL     1      -4.199  -1.599   0.894  0.00  0.00    +0.346 C 
ENDBRANCH   2   7
BRANCH   3  17
ATOM     17  C   UNL     1       3.305   1.381   0.874  0.00  0.00    +0.014 C 
BRANCH  17  18
ATOM     18  N   UNL     1       3.551   1.972   2.191  0.00  0.00    +0.387 N 
ATOM     19  H   UNL     1       4.479   2.397   2.205  0.00  0.00    -0.089 HD
ATOM     20  H   UNL     1       3.499   1.246   2.905  0.00  0.00    -0.089 HD
ATOM     21  H   UNL     1       2.848   2.687   2.380  0.00  0.00    -0.089 HD
ENDBRANCH  17  18
BRANCH  17  22
ATOM     22  C   UNL     1       4.365   0.307   0.581  0.00  0.00    -0.001 C 
BRANCH  22  23
ATOM     23  C   UNL     1       4.192  -0.380  -0.778  0.00  0.00    +0.108 C 
BRANCH  23  25
ATOM     24  O   UNL     1       6.187  -1.702  -0.325  0.00  0.00    -0.250 OA
ATOM     25  C   UNL     1       5.278  -1.388  -1.081  0.00  0.00    +0.314 C 
BRANCH  25  26
ATOM     26  O   UNL     1       5.147  -1.899  -2.333  0.00  0.00    -0.480 OA
ATOM     27  H   UNL     1       4.434  -1.629  -2.878  0.00  0.00    +0.295 HD
ENDBRANCH  25  26
ENDBRANCH  23  25
ENDBRANCH  22  23
ENDBRANCH  17  22
ENDBRANCH   3  17
TORSDOF 7
