REMARK  Name = 126945
REMARK  7 active torsions:
REMARK  status: ('A' for Active; 'I' for Inactive)
REMARK    1  A    between atoms: C1*_2  and  N_6
REMARK    2  A    between atoms: C2*_3  and  O2*_16
REMARK    3  A    between atoms: C3*_4  and  O3*_18
REMARK    4  A    between atoms: C4*_5  and  C5*_20
REMARK    5  A    between atoms: C_10  and  C_12
REMARK    6  A    between atoms: C_12  and  O_14
REMARK    7  A    between atoms: C5*_20  and  O5*_21
REMARK                            x       y       z     vdW  Elec       q    Type
REMARK                         _______ _______ _______ _____ _____    ______ ____
ROOT
ATOM      1  O4* UNL     1       1.771  -0.607  -0.940  0.00  0.00    -0.336 OA
ATOM      2  C1* UNL     1       0.974   0.479  -0.430  0.00  0.00    +0.208 C 
ATOM      3  C2* UNL     1       1.704   0.999   0.799  0.00  0.00    +0.183 C 
ATOM      4  C3* UNL     1       3.152   0.797   0.399  0.00  0.00    +0.171 C 
ATOM      5  C4* UNL     1       3.096  -0.523  -0.365  0.00  0.00    +0.175 C 
ENDROOT
BRANCH   2   6
ATOM      6  N   UNL     1      -0.384   0.011  -0.163  0.00  0.00    -0.224 NA
ATOM      7  N   UNL     1      -2.027  -1.372   0.414  0.00  0.00    -0.257 NA
ATOM      8  C   UNL     1      -1.541   0.731  -0.281  0.00  0.00    +0.100 C 
ATOM      9  C   UNL     1      -0.728  -1.246   0.257  0.00  0.00    +0.202 C 
ATOM     10  C   UNL     1      -2.540  -0.143   0.080  0.00  0.00    +0.074 C 
ATOM     11  C   UNL     1      -1.577   2.139  -0.714  0.00  0.00    +0.024 C 
BRANCH  10  12
ATOM     12  C   UNL     1      -3.991   0.097   0.136  0.00  0.00    +0.147 C 
ATOM     13  C   UNL     1      -4.720  -0.235  -1.177  0.00  0.00    +0.038 C 
BRANCH  12  14
ATOM     14  O   UNL     1      -4.662  -0.667   1.158  0.00  0.00    -0.379 OA
ATOM     15  H   UNL     1      -4.243  -0.498   2.016  0.00  0.00    +0.211 HD
ENDBRANCH  12  14
ENDBRANCH  10  12
ENDBRANCH   2   6
BRANCH   3  16
ATOM     16  O2* UNL     1       1.387   2.350   1.067  0.00  0.00    -0.378 OA
ATOM     17  H2* UNL     1       0.453   2.420   1.317  0.00  0.00    +0.211 HD
ENDBRANCH   3  16
BRANCH   4  18
ATOM     18  O3* UNL     1       3.546   1.833  -0.501  0.00  0.00    -0.379 OA
ATOM     19  H3* UNL     1       3.585   2.677  -0.024  0.00  0.00    +0.211 HD
ENDBRANCH   4  18
BRANCH   5  20
ATOM     20  C5* UNL     1       3.310  -1.736   0.529  0.00  0.00    +0.169 C 
BRANCH  20  21
ATOM     21  O5* UNL     1       3.230  -2.905  -0.267  0.00  0.00    -0.379 OA
ATOM     22  H5* UNL     1       3.365  -3.687   0.293  0.00  0.00    +0.211 HD
ENDBRANCH  20  21
ENDBRANCH   5  20
TORSDOF 7
