REMARK  Name = 126969738
REMARK  5 active torsions:
REMARK  status: ('A' for Active; 'I' for Inactive)
REMARK    1  A    between atoms: C_7  and  O_25
REMARK    2  A    between atoms: C_11  and  O_27
REMARK    3  A    between atoms: C_14  and  O_29
REMARK    4  A    between atoms: C_16  and  O_31
REMARK    5  A    between atoms: C_17  and  O_33
REMARK                            x       y       z     vdW  Elec       q    Type
REMARK                         _______ _______ _______ _____ _____    ______ ____
ROOT
ATOM      1  O   UNL     1      -2.055   1.774  -1.443  0.00  0.00    -0.353 OA
ATOM      2  O   UNL     1      -1.264  -2.494  -0.717  0.00  0.00    -0.450 OA
ATOM      3  O   UNL     1      -2.608  -3.435   0.884  0.00  0.00    -0.247 OA
ATOM      4  O   UNL     1       3.373   0.748   2.423  0.00  0.00    -0.289 OA
ATOM      5  C   UNL     1      -0.712  -0.066  -0.759  0.00  0.00    +0.094 C 
ATOM      6  C   UNL     1       0.490   0.712  -0.062  0.00  0.00    +0.040 C 
ATOM      7  C   UNL     1      -2.096  -0.051  -0.060  0.00  0.00    +0.153 C 
ATOM      8  C   UNL     1       1.923   0.488  -0.827  0.00  0.00    +0.038 C 
ATOM      9  C   UNL     1      -2.342   1.447  -0.037  0.00  0.00    +0.145 C 
ATOM     10  C   UNL     1      -0.221  -1.520  -0.741  0.00  0.00    +0.174 C 
ATOM     11  C   UNL     1       0.101   2.148   0.372  0.00  0.00    +0.140 C 
ATOM     12  C   UNL     1      -1.149   0.742  -1.985  0.00  0.00    +0.148 C 
ATOM     13  C   UNL     1       2.192  -1.060  -1.132  0.00  0.00    +0.025 C 
ATOM     14  C   UNL     1      -1.354   2.226   0.861  0.00  0.00    +0.164 C 
ATOM     15  C   UNL     1       0.915  -1.749  -1.714  0.00  0.00    +0.048 C 
ATOM     16  C   UNL     1      -2.102  -1.040   1.095  0.00  0.00    +0.237 C 
ATOM     17  C   UNL     1       3.110   1.007   0.036  0.00  0.00    +0.172 C 
ATOM     18  C   UNL     1       2.063   1.203  -2.200  0.00  0.00    +0.003 C 
ATOM     19  C   UNL     1      -3.783   1.872   0.268  0.00  0.00    +0.035 C 
ATOM     20  C   UNL     1       2.778  -1.832   0.065  0.00  0.00    -0.041 C 
ATOM     21  C   UNL     1      -2.015  -2.453   0.452  0.00  0.00    +0.347 C 
ATOM     22  C   UNL     1       3.216   0.223   1.325  0.00  0.00    +0.199 C 
ATOM     23  C   UNL     1       3.200  -1.250   1.200  0.00  0.00    +0.031 C 
ATOM     24  C   UNL     1       2.915  -3.326  -0.075  0.00  0.00    +0.026 C 
ENDROOT
BRANCH   7  25
ATOM     25  O   UNL     1      -3.147  -0.606  -0.924  0.00  0.00    -0.381 OA
ATOM     26  H   UNL     1      -3.243  -0.051  -1.714  0.00  0.00    +0.210 HD
ENDBRANCH   7  25
BRANCH  11  27
ATOM     27  O   UNL     1       0.257   3.106  -0.664  0.00  0.00    -0.382 OA
ATOM     28  H   UNL     1       1.169   3.080  -0.993  0.00  0.00    +0.210 HD
ENDBRANCH  11  27
BRANCH  14  29
ATOM     29  O   UNL     1      -1.410   1.747   2.202  0.00  0.00    -0.380 OA
ATOM     30  H   UNL     1      -2.324   1.791   2.523  0.00  0.00    +0.211 HD
ENDBRANCH  14  29
BRANCH  16  31
ATOM     31  O   UNL     1      -3.294  -0.954   1.852  0.00  0.00    -0.373 OA
ATOM     32  H   UNL     1      -3.357  -0.075   2.258  0.00  0.00    +0.211 HD
ENDBRANCH  16  31
BRANCH  17  33
ATOM     33  O   UNL     1       3.018   2.391   0.306  0.00  0.00    -0.377 OA
ATOM     34  H   UNL     1       2.951   2.879  -0.529  0.00  0.00    +0.211 HD
ENDBRANCH  17  33
TORSDOF 5
