REMARK  Name = 126970300
REMARK  4 active torsions:
REMARK  status: ('A' for Active; 'I' for Inactive)
REMARK    1  A    between atoms: N_2  and  C_23
REMARK    2  A    between atoms: C_7  and  C_13
REMARK    3  A    between atoms: C_24  and  C_30
REMARK    4  A    between atoms: C_30  and  O_31
REMARK                            x       y       z     vdW  Elec       q    Type
REMARK                         _______ _______ _______ _____ _____    ______ ____
ROOT
ATOM      1  F   UNL     1      -1.984   3.894  -0.519  0.00  0.00    -0.198 F 
ATOM      2  N   UNL     1      -2.016   1.153  -0.657  0.00  0.00    -0.307 N 
ATOM      3  N   UNL     1       0.316   1.088  -0.366  0.00  0.00    -0.333 NA
ATOM      4  N   UNL     1       1.537   3.149  -0.109  0.00  0.00    -0.180 NA
ATOM      5  C   UNL     1      -0.816   1.815  -0.474  0.00  0.00    +0.221 C 
ATOM      6  C   UNL     1      -0.851   3.193  -0.409  0.00  0.00    +0.204 C 
ATOM      7  C   UNL     1       1.440   1.808  -0.188  0.00  0.00    +0.090 C 
ATOM      8  C   UNL     1       0.368   3.813  -0.224  0.00  0.00    +0.144 C 
ATOM      9  H   UNL     1      -2.837   1.691  -0.733  0.00  0.00    +0.149 HD
ENDROOT
BRANCH   7  13
ATOM     10  F   UNL     1       2.014  -3.845  -0.393  0.00  0.00    -0.203 F 
ATOM     11  N   UNL     1       4.841   0.708   0.195  0.00  0.00    -0.296 N 
ATOM     12  N   UNL     1       4.916  -1.697   0.085  0.00  0.00    -0.227 NA
ATOM     13  C   UNL     1       2.662   1.069  -0.068  0.00  0.00    +0.091 C 
ATOM     14  C   UNL     1       2.888  -0.332  -0.108  0.00  0.00    +0.046 C 
ATOM     15  C   UNL     1       3.881   1.683   0.120  0.00  0.00    +0.074 C 
ATOM     16  C   UNL     1       4.257  -0.524   0.058  0.00  0.00    +0.133 C 
ATOM     17  C   UNL     1       2.090  -1.476  -0.268  0.00  0.00    +0.035 C 
ATOM     18  C   UNL     1       2.722  -2.718  -0.248  0.00  0.00    +0.159 C 
ATOM     19  C   UNL     1       4.099  -2.764  -0.073  0.00  0.00    +0.130 C 
ATOM     20  H   UNL     1       5.804   0.868   0.326  0.00  0.00    +0.154 HD
ENDBRANCH   7  13
BRANCH   2  23
ATOM     21  C   UNL     1      -3.431  -0.677  -1.489  0.00  0.00    +0.019 C 
ATOM     22  C   UNL     1      -3.326  -1.903   0.803  0.00  0.00    +0.012 C 
ATOM     23  C   UNL     1      -2.131  -0.288  -0.744  0.00  0.00    +0.082 C 
ATOM     24  C   UNL     1      -2.086  -0.992   0.633  0.00  0.00    +0.117 C 
ATOM     25  C   UNL     1      -4.660  -0.316  -0.634  0.00  0.00    +0.002 C 
ATOM     26  C   UNL     1      -3.425  -2.204  -1.700  0.00  0.00    +0.002 C 
ATOM     27  C   UNL     1      -4.620  -1.072   0.699  0.00  0.00    +0.001 C 
ATOM     28  C   UNL     1      -3.332  -2.927  -0.348  0.00  0.00    +0.001 C 
BRANCH  24  30
ATOM     29  O   UNL     1      -2.695   0.794   2.150  0.00  0.00    -0.250 OA
ATOM     30  C   UNL     1      -1.909  -0.080   1.815  0.00  0.00    +0.315 C 
BRANCH  30  31
ATOM     31  O   UNL     1      -0.751  -0.355   2.463  0.00  0.00    -0.480 OA
ATOM     32  H   UNL     1      -0.192  -1.040   2.153  0.00  0.00    +0.295 HD
ENDBRANCH  30  31
ENDBRANCH  24  30
ENDBRANCH   2  23
TORSDOF 4
