REMARK  Name = 126983
REMARK  11 active torsions:
REMARK  status: ('A' for Active; 'I' for Inactive)
REMARK    1  A    between atoms: C_1  and  C_2
REMARK    2  A    between atoms: C_1  and  CA_18
REMARK    3  A    between atoms: C_2  and  C_9
REMARK    4  A    between atoms: C_5  and  C_15
REMARK    5  A    between atoms: C_15  and  O_16
REMARK    6  A    between atoms: CA_18  and  N_20
REMARK    7  A    between atoms: CA_18  and  C_32
REMARK    8  A    between atoms: C_21  and  O_23
REMARK    9  A    between atoms: O_23  and  C_24
REMARK   10  A    between atoms: C_24  and  C_25
REMARK   11  A    between atoms: C_32  and  O_33
REMARK                            x       y       z     vdW  Elec       q    Type
REMARK                         _______ _______ _______ _____ _____    ______ ____
ROOT
ATOM      1  C   UNL     1       0.295   2.105  -1.226  0.00  0.00    +0.041 C 
ENDROOT
BRANCH   1   2
ATOM      2  C   UNL     1       1.034   1.203  -0.248  0.00  0.00    +0.088 C 
BRANCH   2   9
ATOM      3  O   UNL     1       2.460   0.834  -2.100  0.00  0.00    -0.275 OA
ATOM      4  N   UNL     1       2.987  -0.273  -0.115  0.00  0.00    -0.250 N 
ATOM      5  C   UNL     1       2.741  -0.605   1.309  0.00  0.00    +0.183 C 
ATOM      6  C   UNL     1       3.570  -1.858   1.630  0.00  0.00    +0.059 C 
ATOM      7  C   UNL     1       4.494  -1.920   0.453  0.00  0.00    -0.006 C 
ATOM      8  C   UNL     1       4.106  -1.023  -0.547  0.00  0.00    +0.050 C 
ATOM      9  C   UNL     1       2.233   0.575  -0.917  0.00  0.00    +0.230 C 
ATOM     10  C   UNL     1       5.569  -2.778   0.277  0.00  0.00    -0.003 C 
ATOM     11  C   UNL     1       4.792  -0.970  -1.751  0.00  0.00    +0.015 C 
ATOM     12  C   UNL     1       6.269  -2.723  -0.927  0.00  0.00    -0.000 C 
ATOM     13  C   UNL     1       5.883  -1.827  -1.934  0.00  0.00    +0.001 C 
BRANCH   5  15
ATOM     14  O   UNL     1       4.152   1.299   1.806  0.00  0.00    -0.248 OA
ATOM     15  C   UNL     1       3.239   0.553   2.127  0.00  0.00    +0.333 C 
BRANCH  15  16
ATOM     16  O   UNL     1       2.537   0.660   3.282  0.00  0.00    -0.479 OA
ATOM     17  H   UNL     1       1.847   0.054   3.468  0.00  0.00    +0.295 HD
ENDBRANCH  15  16
ENDBRANCH   5  15
ENDBRANCH   2   9
ENDBRANCH   1   2
BRANCH   1  18
ATOM     18  CA  UNL     1      -0.966   2.761  -0.647  0.00  0.00    +0.174 C 
BRANCH  18  20
ATOM     19  O   UNL     1      -3.116   1.693  -2.282  0.00  0.00    -0.226 OA
ATOM     20  N   UNL     1      -1.947   1.772  -0.279  0.00  0.00    -0.262 N 
ATOM     21  C   UNL     1      -2.940   1.320  -1.127  0.00  0.00    +0.402 C 
ATOM     22  H   UNL     1      -1.908   1.395   0.630  0.00  0.00    +0.153 HD
BRANCH  21  23
ATOM     23  O   UNL     1      -3.707   0.388  -0.487  0.00  0.00    -0.430 OA
BRANCH  23  24
ATOM     24  C   UNL     1      -4.781  -0.169  -1.253  0.00  0.00    +0.237 C 
BRANCH  24  25
ATOM     25  C   UNL     1      -5.518  -1.168  -0.409  0.00  0.00    +0.021 C 
ATOM     26  C   UNL     1      -5.125  -2.506  -0.411  0.00  0.00    -0.001 C 
ATOM     27  C   UNL     1      -6.594  -0.758   0.377  0.00  0.00    -0.001 C 
ATOM     28  C   UNL     1      -5.809  -3.435   0.374  0.00  0.00    -0.000 C 
ATOM     29  C   UNL     1      -7.279  -1.686   1.162  0.00  0.00    -0.000 C 
ATOM     30  C   UNL     1      -6.886  -3.025   1.160  0.00  0.00    -0.000 C 
ENDBRANCH  24  25
ENDBRANCH  23  24
ENDBRANCH  21  23
ENDBRANCH  18  20
BRANCH  18  32
ATOM     31  OXT UNL     1       0.143   4.608   0.460  0.00  0.00    -0.248 OA
ATOM     32  C   UNL     1      -0.608   3.642   0.542  0.00  0.00    +0.332 C 
BRANCH  32  33
ATOM     33  O   UNL     1      -1.230   3.309   1.700  0.00  0.00    -0.479 OA
ATOM     34  H   UNL     1      -1.798   2.565   1.730  0.00  0.00    +0.295 HD
ENDBRANCH  32  33
ENDBRANCH  18  32
ENDBRANCH   1  18
TORSDOF 11
