126963541
  -OEChem-03292013293D

 41 44  0     1  0  0  0  0  0999 V2000
    0.4921   -1.8235    1.5650 O   0  0  0  0  0  0  0  0  0  0  0  0
    2.8206    1.3477   -0.1593 O   0  0  0  0  0  0  0  0  0  0  0  0
   -1.7102   -2.1280    0.4468 O   0  0  0  0  0  0  0  0  0  0  0  0
   -1.1420    0.2860    2.0458 O   0  0  0  0  0  0  0  0  0  0  0  0
   -1.4523    0.2888   -2.1844 O   0  0  0  0  0  0  0  0  0  0  0  0
    2.5972   -0.9316    1.8544 O   0  0  0  0  0  0  0  0  0  0  0  0
   -3.3405   -1.6826   -1.1362 O   0  0  0  0  0  0  0  0  0  0  0  0
    4.4841    0.2704   -1.3420 O   0  0  0  0  0  0  0  0  0  0  0  0
   -0.2360   -0.4915   -0.1858 C   0  0  2  0  0  0  0  0  0  0  0  0
    1.2604   -0.3253   -0.1527 C   0  0  2  0  0  0  0  0  0  0  0  0
   -0.7278    0.7403    0.7540 C   0  0  2  0  0  0  0  0  0  0  0  0
    1.4249    1.1647   -0.1718 C   0  0  1  0  0  0  0  0  0  0  0  0
    0.5458    1.6265    0.9641 C   0  0  0  0  0  0  0  0  0  0  0  0
   -0.3152   -1.8781    0.4089 C   0  0  1  0  0  0  0  0  0  0  0  0
   -1.0568   -0.8096   -1.4199 C   0  0  1  0  0  0  0  0  0  0  0  0
   -1.8657    1.6201    0.2313 C   0  0  0  0  0  0  0  0  0  0  0  0
    2.2554   -0.7264   -1.2028 C   0  0  0  0  0  0  0  0  0  0  0  0
    1.5760   -1.0431    1.1935 C   0  0  0  0  0  0  0  0  0  0  0  0
   -2.1928   -1.5773   -0.7358 C   0  0  0  0  0  0  0  0  0  0  0  0
    3.3327    0.3210   -0.9376 C   0  0  0  0  0  0  0  0  0  0  0  0
   -1.4539    2.2575   -1.1054 C   0  0  0  0  0  0  0  0  0  0  0  0
   -2.1709    2.7295    1.2503 C   0  0  0  0  0  0  0  0  0  0  0  0
   -3.1249    0.7644    0.0194 C   0  0  0  0  0  0  0  0  0  0  0  0
    1.1214    1.6126   -1.1151 H   0  0  0  0  0  0  0  0  0  0  0  0
    1.0141    1.4561    1.9411 H   0  0  0  0  0  0  0  0  0  0  0  0
    0.4191    2.7070    0.8833 H   0  0  0  0  0  0  0  0  0  0  0  0
    0.1227   -2.6683   -0.2232 H   0  0  0  0  0  0  0  0  0  0  0  0
   -0.5338   -1.5076   -2.0858 H   0  0  0  0  0  0  0  0  0  0  0  0
    1.8783   -0.6021   -2.2215 H   0  0  0  0  0  0  0  0  0  0  0  0
    2.6622   -1.7297   -1.0531 H   0  0  0  0  0  0  0  0  0  0  0  0
   -1.7083   -0.4950    1.9422 H   0  0  0  0  0  0  0  0  0  0  0  0
   -1.3426    3.4106    1.4556 H   0  0  0  0  0  0  0  0  0  0  0  0
   -3.3722    0.5377   -1.0153 H   0  0  0  0  0  0  0  0  0  0  0  0
   -3.2623   -0.0516    0.7291 H   0  0  0  0  0  0  0  0  0  0  0  0
   -2.5081    2.3220    2.2102 H   0  0  0  0  0  0  0  0  0  0  0  0
   -2.9883    3.3638    0.8826 H   0  0  0  0  0  0  0  0  0  0  0  0
   -1.2242    3.3172   -0.9044 H   0  0  0  0  0  0  0  0  0  0  0  0
   -0.5545    1.9761   -1.6315 H   0  0  0  0  0  0  0  0  0  0  0  0
   -2.3000    2.3506   -1.8012 H   0  0  0  0  0  0  0  0  0  0  0  0
   -3.9904    1.4019    0.2671 H   0  0  0  0  0  0  0  0  0  0  0  0
   -1.9692   -0.0463   -2.9369 H   0  0  0  0  0  0  0  0  0  0  0  0
  1 14  1  0  0  0  0
  1 18  1  0  0  0  0
  2 12  1  0  0  0  0
  2 20  1  0  0  0  0
  3 14  1  0  0  0  0
  3 19  1  0  0  0  0
  4 11  1  0  0  0  0
  4 31  1  0  0  0  0
  5 15  1  0  0  0  0
  5 41  1  0  0  0  0
  6 18  2  0  0  0  0
  7 19  2  0  0  0  0
  8 20  2  0  0  0  0
  9 10  1  0  0  0  0
  9 11  1  0  0  0  0
  9 14  1  0  0  0  0
  9 15  1  0  0  0  0
 10 12  1  0  0  0  0
 10 17  1  0  0  0  0
 10 18  1  0  0  0  0
 11 13  1  0  0  0  0
 11 16  1  0  0  0  0
 12 13  1  0  0  0  0
 12 24  1  0  0  0  0
 13 25  1  0  0  0  0
 13 26  1  0  0  0  0
 14 27  1  0  0  0  0
 15 19  1  0  0  0  0
 15 28  1  0  0  0  0
 16 21  1  0  0  0  0
 16 22  1  0  0  0  0
 16 23  1  0  0  0  0
 17 20  1  0  0  0  0
 17 29  1  0  0  0  0
 17 30  1  0  0  0  0
 21 37  1  0  0  0  0
 21 38  1  0  0  0  0
 21 39  1  0  0  0  0
 22 32  1  0  0  0  0
 22 35  1  0  0  0  0
 22 36  1  0  0  0  0
 23 33  1  0  0  0  0
 23 34  1  0  0  0  0
 23 40  1  0  0  0  0
M  END
> <PUBCHEM_COMPOUND_CID>
126963541

> <PUBCHEM_CONFORMER_RMSD>
0.6

> <PUBCHEM_CONFORMER_DIVERSEORDER>
1

> <PUBCHEM_MMFF94_PARTIAL_CHARGES>
19
1 -0.43
10 0.06
11 0.28
12 0.28
14 0.56
15 0.34
17 0.06
18 0.66
19 0.66
2 -0.43
20 0.66
3 -0.43
31 0.4
4 -0.68
41 0.4
5 -0.68
6 -0.57
7 -0.57
8 -0.57

> <PUBCHEM_EFFECTIVE_ROTOR_COUNT>
2.4

> <PUBCHEM_PHARMACOPHORE_FEATURES>
12
1 4 acceptor
1 4 donor
1 5 acceptor
1 5 donor
1 6 acceptor
1 7 acceptor
1 8 acceptor
4 16 21 22 23 hydrophobe
5 1 9 10 14 18 rings
5 2 10 12 17 20 rings
5 3 9 14 15 19 rings
5 9 10 11 12 13 rings

> <PUBCHEM_HEAVY_ATOM_COUNT>
23

> <PUBCHEM_ATOM_DEF_STEREO_COUNT>
6

> <PUBCHEM_ATOM_UDEF_STEREO_COUNT>
0

> <PUBCHEM_BOND_DEF_STEREO_COUNT>
0

> <PUBCHEM_BOND_UDEF_STEREO_COUNT>
0

> <PUBCHEM_ISOTOPIC_ATOM_COUNT>
0

> <PUBCHEM_COMPONENT_COUNT>
1

> <PUBCHEM_CACTVS_TAUTO_COUNT>
4

> <PUBCHEM_CONFORMER_ID>
07914F5500000001

> <PUBCHEM_MMFF94_ENERGY>
161.0306

> <PUBCHEM_FEATURE_SELFOVERLAP>
62.051

> <PUBCHEM_SHAPE_FINGERPRINT>
104564 63 18341897411381899603
10863032 1 18200322017424193965
10948715 1 18052276006681245065
11315181 36 18115035238112231348
11578080 2 17756101757977588780
11640471 11 18188770531093673844
121448 382 17968658345289334602
12423570 1 15616686072518537754
12491281 212 18058468529299166676
12808571 1 18197225745467560221
13024252 1 17896335746952056111
13140716 1 18341882035462218849
13172582 1 18051682248821700257
13299463 15 18042673065233942430
13538477 17 18410848828835819825
14142880 1 17822020838399787364
144361 1 18131074856737620257
14617773 55 18336253587667777611
14817 1 18059566962979874541
14955137 171 17828489063933102266
15534591 1 18336844008511436484
15775835 57 18260836951231353444
16752209 62 18343008991678094351
16945 1 18130219376836033385
18981168 100 18060130994921987410
19868273 293 18272093742913293476
20691752 17 18044632399792886353
22112679 90 18338222774565012322
229495 10 17532371950646101381
23419403 2 16593399216993964521
23493267 7 18058454209630288477
23557571 272 17631431514305284810
23559900 14 17773601521353433174
2748010 2 17616813679091640570
353137 74 18262794193560878141
430814 3 18054241924728656825
4340502 62 17313968332791627633
81228 2 18339366382400684697

> <PUBCHEM_SHAPE_MULTIPOLES>
426.37
4.78
2.45
1.73
3.05
0.31
0.13
0.61
-1.51
-1.82
0.32
0.2
-0.17
-0.82

> <PUBCHEM_SHAPE_SELFOVERLAP>
972.153

> <PUBCHEM_SHAPE_VOLUME>
223

> <PUBCHEM_COORDINATE_TYPE>
2
5
10

$$$$
