REMARK  Name = 126969
REMARK  9 active torsions:
REMARK  status: ('A' for Active; 'I' for Inactive)
REMARK    1  A    between atoms: C_5  and  C_20
REMARK    2  A    between atoms: C_6  and  O_16
REMARK    3  A    between atoms: C_7  and  C_14
REMARK    4  A    between atoms: C_9  and  O_18
REMARK    5  A    between atoms: C_20  and  C_21
REMARK    6  A    between atoms: C_22  and  O_31
REMARK    7  A    between atoms: C_23  and  O_33
REMARK    8  A    between atoms: C_25  and  C_29
REMARK    9  A    between atoms: C_26  and  O_35
REMARK                            x       y       z     vdW  Elec       q    Type
REMARK                         _______ _______ _______ _____ _____    ______ ____
ROOT
ATOM      1  O   UNL     1      -4.186  -0.226   0.538  0.00  0.00    -0.478 OA
ATOM      2  C   UNL     1      -4.811   0.821   1.312  0.00  0.00    +0.152 C 
ATOM      3  C   UNL     1      -2.954  -0.005  -0.009  0.00  0.00    +0.147 A 
ATOM      4  C   UNL     1      -2.248   1.191   0.131  0.00  0.00    +0.067 A 
ATOM      5  C   UNL     1      -0.444   0.267  -1.200  0.00  0.00    +0.050 A 
ATOM      6  C   UNL     1      -0.989   1.323  -0.468  0.00  0.00    +0.136 A 
ATOM      7  C   UNL     1      -2.406  -1.061  -0.743  0.00  0.00    +0.102 A 
ATOM      8  C   UNL     1      -4.026   2.104   1.446  0.00  0.00    +0.013 C 
ATOM      9  C   UNL     1      -1.153  -0.924  -1.338  0.00  0.00    +0.138 A 
ATOM     10  C   UNL     1      -2.824   2.284   0.894  0.00  0.00    +0.005 C 
ATOM     11  C   UNL     1      -5.060   0.234   2.706  0.00  0.00    +0.048 C 
ATOM     12  C   UNL     1      -6.151   1.118   0.629  0.00  0.00    +0.048 C 
ENDROOT
BRANCH   7  14
ATOM     13  O   UNL     1      -3.925  -2.493  -1.842  0.00  0.00    -0.291 OA
ATOM     14  C   UNL     1      -3.141  -2.314  -0.893  0.00  0.00    +0.179 C 
ATOM     15  C   UNL     1      -2.955  -3.433   0.122  0.00  0.00    +0.077 C 
ENDBRANCH   7  14
BRANCH   6  16
ATOM     16  O   UNL     1      -0.275   2.482  -0.347  0.00  0.00    -0.506 OA
ATOM     17  H   UNL     1      -0.627   3.200   0.141  0.00  0.00    +0.292 HD
ENDBRANCH   6  16
BRANCH   9  18
ATOM     18  O   UNL     1      -0.617  -1.954  -2.054  0.00  0.00    -0.506 OA
ATOM     19  H   UNL     1       0.226  -1.859  -2.453  0.00  0.00    +0.292 HD
ENDBRANCH   9  18
BRANCH   5  20
ATOM     20  C   UNL     1       0.901   0.414  -1.838  0.00  0.00    +0.065 C 
BRANCH  20  21
ATOM     21  C   UNL     1       2.053   0.335  -0.859  0.00  0.00    +0.050 A 
ATOM     22  C   UNL     1       2.719   1.496  -0.500  0.00  0.00    +0.137 A 
ATOM     23  C   UNL     1       2.420  -0.896  -0.339  0.00  0.00    +0.138 A 
ATOM     24  C   UNL     1       3.780   1.424   0.403  0.00  0.00    +0.046 A 
ATOM     25  C   UNL     1       3.481  -0.968   0.564  0.00  0.00    +0.102 A 
ATOM     26  C   UNL     1       4.161   0.192   0.934  0.00  0.00    +0.138 A 
ATOM     27  C   UNL     1       4.509   2.668   0.800  0.00  0.00    +0.037 C 
BRANCH  25  29
ATOM     28  O   UNL     1       4.734  -2.966   0.557  0.00  0.00    -0.291 OA
ATOM     29  C   UNL     1       3.880  -2.256   1.120  0.00  0.00    +0.179 C 
ATOM     30  C   UNL     1       3.250  -2.759   2.411  0.00  0.00    +0.077 C 
ENDBRANCH  25  29
BRANCH  22  31
ATOM     31  O   UNL     1       2.346   2.701  -1.020  0.00  0.00    -0.472 OA
ATOM     32  C   UNL     1       2.979   3.106  -2.231  0.00  0.00    +0.252 C 
ENDBRANCH  22  31
BRANCH  23  33
ATOM     33  O   UNL     1       1.752  -2.029  -0.703  0.00  0.00    -0.506 OA
ATOM     34  H   UNL     1       1.039  -1.978  -1.310  0.00  0.00    +0.292 HD
ENDBRANCH  23  33
BRANCH  26  35
ATOM     35  O   UNL     1       5.200   0.125   1.817  0.00  0.00    -0.506 OA
ATOM     36  H   UNL     1       5.655   0.906   2.065  0.00  0.00    +0.292 HD
ENDBRANCH  26  35
ENDBRANCH  20  21
ENDBRANCH   5  20
TORSDOF 9
