REMARK  Name = 126963478
REMARK  6 active torsions:
REMARK  status: ('A' for Active; 'I' for Inactive)
REMARK    1  A    between atoms: C_16  and  O_20
REMARK    2  A    between atoms: O_20  and  C_22
REMARK    3  A    between atoms: C_22  and  C_23
REMARK    4  A    between atoms: C_23  and  C_24
REMARK    5  A    between atoms: C_24  and  C_26
REMARK    6  A    between atoms: C_26  and  O_27
REMARK                            x       y       z     vdW  Elec       q    Type
REMARK                         _______ _______ _______ _____ _____    ______ ____
ROOT
ATOM      1  O   UNL     1       2.764  -0.110   0.753  0.00  0.00    -0.218 OA
ATOM      2  O   UNL     1       1.162  -2.065  -0.673  0.00  0.00    -0.306 OA
ATOM      3  O   UNL     1      -0.042  -1.056   1.068  0.00  0.00    -0.293 OA
ATOM      4  O   UNL     1       2.735  -1.548   0.999  0.00  0.00    -0.197 OA
ATOM      5  C   UNL     1       1.670   0.276  -0.097  0.00  0.00    +0.178 C 
ATOM      6  C   UNL     1       2.294   0.618  -1.483  0.00  0.00    +0.033 C 
ATOM      7  C   UNL     1       1.014   1.548   0.497  0.00  0.00    +0.039 C 
ATOM      8  C   UNL     1       3.267   1.839  -1.446  0.00  0.00    +0.003 C 
ATOM      9  C   UNL     1       0.599  -0.836  -0.197  0.00  0.00    +0.268 C 
ATOM     10  C   UNL     1       2.019   2.701   0.620  0.00  0.00    +0.003 C 
ATOM     11  C   UNL     1       0.228   1.267   1.803  0.00  0.00    +0.073 C 
ATOM     12  C   UNL     1       2.906  -0.593  -2.218  0.00  0.00    +0.008 C 
ATOM     13  C   UNL     1       2.611   3.044  -0.747  0.00  0.00    +0.000 C 
ATOM     14  C   UNL     1       2.517  -2.211  -0.248  0.00  0.00    +0.221 C 
ATOM     15  C   UNL     1       3.482  -1.715  -1.344  0.00  0.00    +0.059 C 
ATOM     16  C   UNL     1      -0.733   0.085   1.577  0.00  0.00    +0.292 C 
ATOM     17  C   UNL     1       4.659   1.571  -0.863  0.00  0.00    +0.000 C 
ATOM     18  C   UNL     1       1.097   1.013   3.039  0.00  0.00    +0.007 C 
ATOM     19  C   UNL     1       2.748  -3.698   0.019  0.00  0.00    +0.064 C 
ENDROOT
BRANCH  16  20
ATOM     20  O   UNL     1      -1.800   0.494   0.721  0.00  0.00    -0.424 OA
BRANCH  20  22
ATOM     21  O   UNL     1      -3.107  -1.231   1.517  0.00  0.00    -0.250 OA
ATOM     22  C   UNL     1      -2.940  -0.259   0.793  0.00  0.00    +0.319 C 
BRANCH  22  23
ATOM     23  C   UNL     1      -3.962   0.304  -0.171  0.00  0.00    +0.121 C 
BRANCH  23  24
ATOM     24  C   UNL     1      -5.305  -0.414  -0.105  0.00  0.00    +0.121 C 
BRANCH  24  26
ATOM     25  O   UNL     1      -6.060   1.166  -1.770  0.00  0.00    -0.250 OA
ATOM     26  C   UNL     1      -6.308   0.214  -1.041  0.00  0.00    +0.314 C 
BRANCH  26  27
ATOM     27  O   UNL     1      -7.514  -0.403  -1.005  0.00  0.00    -0.480 OA
ATOM     28  H   UNL     1      -7.653  -1.129  -0.429  0.00  0.00    +0.295 HD
ENDBRANCH  26  27
ENDBRANCH  24  26
ENDBRANCH  23  24
ENDBRANCH  22  23
ENDBRANCH  20  22
ENDBRANCH  16  20
TORSDOF 6
