REMARK  Name = 126961128
REMARK  6 active torsions:
REMARK  status: ('A' for Active; 'I' for Inactive)
REMARK    1  A    between atoms: C_2  and  C_13
REMARK    2  A    between atoms: C_9  and  O_11
REMARK    3  A    between atoms: C_13  and  C_16
REMARK    4  A    between atoms: N_15  and  CA_18
REMARK    5  A    between atoms: CA_18  and  C_21
REMARK    6  A    between atoms: CA_18  and  CB_22
REMARK                            x       y       z     vdW  Elec       q    Type
REMARK                         _______ _______ _______ _____ _____    ______ ____
ROOT
ATOM      1  N   UNL     1       3.264  -2.202   0.193  0.00  0.00    -0.312 N 
ATOM      2  C   UNL     1       1.300  -1.432  -0.498  0.00  0.00    +0.003 C 
ATOM      3  C   UNL     1       2.180  -0.325  -0.339  0.00  0.00    +0.011 C 
ATOM      4  C   UNL     1       3.405  -0.836   0.095  0.00  0.00    +0.051 C 
ATOM      5  C   UNL     1       1.994  -2.571  -0.164  0.00  0.00    +0.058 C 
ATOM      6  C   UNL     1       2.052   1.066  -0.524  0.00  0.00    +0.004 C 
ATOM      7  C   UNL     1       4.513  -0.021   0.355  0.00  0.00    +0.051 C 
ATOM      8  C   UNL     1       3.151   1.893  -0.267  0.00  0.00    +0.037 C 
ATOM      9  C   UNL     1       4.362   1.355   0.165  0.00  0.00    +0.135 C 
ATOM     10  H   UNL     1       3.972  -2.823   0.478  0.00  0.00    +0.152 HD
ENDROOT
BRANCH   9  11
ATOM     11  O   UNL     1       5.418   2.184   0.407  0.00  0.00    -0.505 OA
ATOM     12  H   UNL     1       6.235   1.829   0.699  0.00  0.00    +0.292 HD
ENDBRANCH   9  11
BRANCH   2  13
ATOM     13  C   UNL     1      -0.136  -1.378  -0.950  0.00  0.00    +0.113 C 
BRANCH  13  16
ATOM     14  O   UNL     1      -0.883  -1.062   1.331  0.00  0.00    -0.275 OA
ATOM     15  N   UNL     1      -2.203  -0.286  -0.414  0.00  0.00    -0.296 N 
ATOM     16  C   ACE A   0      -1.089  -0.904   0.131  0.00  0.00    +0.227 C 
ATOM     17  H   UNL     1      -2.272  -0.211  -1.393  0.00  0.00    +0.150 HD
BRANCH  15  18
ATOM     18  CA  UNL     1      -3.270   0.252   0.404  0.00  0.00    +0.176 C 
BRANCH  18  21
ATOM     19  O   UNL     1      -4.471  -1.734  -0.158  0.00  0.00    -0.244 OA
ATOM     20  OXT UNL     1      -5.640   0.107   0.508  0.00  0.00    -0.244 OA
ATOM     21  C   UNL     1      -4.588  -0.535   0.223  0.00  0.00    +0.382 C 
ENDBRANCH  18  21
BRANCH  18  22
ATOM     22  CB  UNL     1      -3.378   1.783   0.221  0.00  0.00    +0.029 C 
ATOM     23  CG1 UNL     1      -3.940   2.145  -1.159  0.00  0.00    +0.002 C 
ATOM     24  CG2 UNL     1      -2.042   2.502   0.440  0.00  0.00    +0.002 C 
ENDBRANCH  18  22
ENDBRANCH  15  18
ENDBRANCH  13  16
ENDBRANCH   2  13
TORSDOF 6
