REMARK  Name = 126968660
REMARK  7 active torsions:
REMARK  status: ('A' for Active; 'I' for Inactive)
REMARK    1  A    between atoms: C_9  and  O_24
REMARK    2  A    between atoms: C_11  and  O_20
REMARK    3  A    between atoms: C_12  and  C_22
REMARK    4  A    between atoms: O_24  and  C_26
REMARK    5  A    between atoms: C_26  and  C_27
REMARK    6  A    between atoms: C_27  and  S_28
REMARK    7  A    between atoms: S_28  and  C_33
REMARK                            x       y       z     vdW  Elec       q    Type
REMARK                         _______ _______ _______ _____ _____    ______ ____
ROOT
ATOM      1  O   UNL     1       3.178  -0.984  -2.553  0.00  0.00    -0.296 OA
ATOM      2  C   UNL     1       2.074  -1.618   0.759  0.00  0.00    +0.009 C 
ATOM      3  C   UNL     1       1.650  -1.527  -0.727  0.00  0.00    +0.061 C 
ATOM      4  C   UNL     1       0.377  -0.728  -1.075  0.00  0.00    +0.043 C 
ATOM      5  C   UNL     1       2.390  -0.284   1.587  0.00  0.00    +0.027 C 
ATOM      6  C   UNL     1      -0.819  -1.452  -0.302  0.00  0.00    +0.004 C 
ATOM      7  C   UNL     1       0.883  -2.368   1.446  0.00  0.00    +0.001 C 
ATOM      8  C   UNL     1       3.313  -2.565   0.641  0.00  0.00    +0.008 C 
ATOM      9  C   UNL     1       0.370   0.767  -0.623  0.00  0.00    +0.169 C 
ATOM     10  C   UNL     1      -0.483  -1.701   1.196  0.00  0.00    +0.000 C 
ATOM     11  C   UNL     1       3.208   0.912   0.988  0.00  0.00    +0.110 C 
ATOM     12  C   UNL     1       2.458   2.068   0.241  0.00  0.00    +0.028 C 
ATOM     13  C   UNL     1       2.973  -1.482  -1.456  0.00  0.00    +0.150 C 
ATOM     14  C   UNL     1       4.017  -2.259  -0.688  0.00  0.00    +0.065 C 
ATOM     15  C   UNL     1       1.605   1.607  -0.969  0.00  0.00    +0.046 C 
ATOM     16  C   UNL     1       0.131  -0.800  -2.605  0.00  0.00    +0.004 C 
ATOM     17  C   UNL     1       3.080  -0.634   2.938  0.00  0.00    +0.002 C 
ATOM     18  C   UNL     1      -1.302  -2.772  -0.934  0.00  0.00    +0.000 C 
ATOM     19  C   UNL     1       3.508   3.073  -0.314  0.00  0.00    +0.003 C 
ENDROOT
BRANCH  11  20
ATOM     20  O   UNL     1       4.342   0.456   0.268  0.00  0.00    -0.384 OA
ATOM     21  H   UNL     1       4.775  -0.256   0.765  0.00  0.00    +0.210 HD
ENDBRANCH  11  20
BRANCH  12  22
ATOM     22  C   UNL     1       1.596   2.873   1.246  0.00  0.00    +0.002 C 
ATOM     23  C   UNL     1       1.014   4.099   0.585  0.00  0.00    +0.000 C 
ENDBRANCH  12  22
BRANCH   9  24
ATOM     24  O   UNL     1      -0.785   1.432  -1.168  0.00  0.00    -0.452 OA
BRANCH  24  26
ATOM     25  O   UNL     1      -1.588   1.762   0.966  0.00  0.00    -0.249 OA
ATOM     26  C   UNL     1      -1.686   1.880  -0.247  0.00  0.00    +0.329 C 
BRANCH  26  27
ATOM     27  C   UNL     1      -2.817   2.543  -0.991  0.00  0.00    +0.183 C 
BRANCH  27  28
ATOM     28  S   UNL     1      -4.378   2.391  -0.089  0.00  0.00    -0.017 S 
BRANCH  28  33
ATOM     29  N   UNL     1      -4.642  -0.056   1.194  0.00  0.00    -0.312 NA
ATOM     30  N   UNL     1      -4.648  -0.142  -1.092  0.00  0.00    -0.106 NA
ATOM     31  N   UNL     1      -4.779  -1.363  -0.552  0.00  0.00    -0.188 N 
ATOM     32  N   UNL     1      -4.897  -2.442   1.520  0.00  0.00    -0.319 N 
ATOM     33  C   UNL     1      -4.569   0.613   0.005  0.00  0.00    +0.134 C 
ATOM     34  C   UNL     1      -4.774  -1.303   0.807  0.00  0.00    +0.262 C 
ATOM     35  H   UNL     1      -4.868  -2.194  -1.072  0.00  0.00    +0.179 HD
ATOM     36  H   UNL     1      -4.895  -2.409   2.504  0.00  0.00    +0.146 HD
ATOM     37  H   UNL     1      -4.989  -3.305   1.057  0.00  0.00    +0.146 HD
ENDBRANCH  28  33
ENDBRANCH  27  28
ENDBRANCH  26  27
ENDBRANCH  24  26
ENDBRANCH   9  24
TORSDOF 7
