REMARK  Name = 126971
REMARK  0 active torsions:
REMARK  status: ('A' for Active; 'I' for Inactive)
REMARK                            x       y       z     vdW  Elec       q    Type
REMARK                         _______ _______ _______ _____ _____    ______ ____
ROOT
ATOM      1  N   UNL     1      -2.379  -1.577  -1.138  0.00  0.00    -0.257 N 
ATOM      2  N   UNL     1       2.000  -1.856   0.847  0.00  0.00    -0.261 N 
ATOM      3  N   UNL     1      -2.014   0.472  -2.055  0.00  0.00    -0.233 NA
ATOM      4  N   UNL     1      -3.650  -0.907   0.844  0.00  0.00    -0.230 NA
ATOM      5  N   UNL     1       1.443   0.510   1.079  0.00  0.00    -0.327 NA
ATOM      6  N   UNL     1      -1.751   2.449   0.291  0.00  0.00    -0.222 NA
ATOM      7  N   UNL     1       3.815  -1.687  -0.433  0.00  0.00    -0.240 NA
ATOM      8  N   UNL     1      -3.587   1.459   1.210  0.00  0.00    -0.195 NA
ATOM      9  N   UNL     1       3.023   1.908  -0.128  0.00  0.00    -0.327 NA
ATOM     10  C   UNL     1      -0.617  -3.074  -0.274  0.00  0.00    +0.024 C 
ATOM     11  C   UNL     1      -2.036  -2.957  -0.848  0.00  0.00    +0.098 C 
ATOM     12  C   UNL     1      -0.443  -2.346   1.065  0.00  0.00    +0.023 C 
ATOM     13  C   UNL     1       0.965  -2.480   1.647  0.00  0.00    +0.095 C 
ATOM     14  C   UNL     1      -3.005   0.624  -0.947  0.00  0.00    +0.241 C 
ATOM     15  C   UNL     1      -3.082  -0.751  -0.302  0.00  0.00    +0.147 C 
ATOM     16  C   UNL     1       2.185  -0.516   0.633  0.00  0.00    +0.218 C 
ATOM     17  C   UNL     1      -1.785  -0.813  -2.101  0.00  0.00    +0.165 C 
ATOM     18  C   UNL     1      -2.687   1.581   0.164  0.00  0.00    +0.034 C 
ATOM     19  C   UNL     1       3.315  -0.438  -0.166  0.00  0.00    +0.167 C 
ATOM     20  C   UNL     1       0.370   3.547  -0.136  0.00  0.00    +0.045 C 
ATOM     21  C   UNL     1       1.143   2.929   1.038  0.00  0.00    +0.127 C 
ATOM     22  C   UNL     1       3.005  -2.516   0.191  0.00  0.00    +0.222 C 
ATOM     23  C   UNL     1      -0.720   2.636  -0.712  0.00  0.00    +0.137 C 
ATOM     24  C   UNL     1       1.926   1.701   0.648  0.00  0.00    +0.117 C 
ATOM     25  C   UNL     1       3.732   0.832  -0.543  0.00  0.00    +0.210 C 
ATOM     26  C   UNL     1      -4.037   0.262   1.471  0.00  0.00    +0.262 C 
ATOM     27  N   UNL     1       4.871   1.005  -1.348  0.00  0.00    -0.331 N 
ATOM     28  H   UNL     1       5.157   1.910  -1.609  0.00  0.00    +0.145 HD
ATOM     29  H   UNL     1       5.382   0.220  -1.652  0.00  0.00    +0.145 HD
ENDROOT
TORSDOF 0
