REMARK  Name = 126968461
REMARK  9 active torsions:
REMARK  status: ('A' for Active; 'I' for Inactive)
REMARK    1  A    between atoms: C_6  and  C_24
REMARK    2  A    between atoms: C_10  and  O_20
REMARK    3  A    between atoms: C_19  and  O_22
REMARK    4  A    between atoms: C_24  and  C_26
REMARK    5  A    between atoms: C_26  and  C_27
REMARK    6  A    between atoms: C_27  and  C_30
REMARK    7  A    between atoms: N_29  and  C_32
REMARK    8  A    between atoms: C_32  and  C_34
REMARK    9  A    between atoms: C_34  and  O_35
REMARK                            x       y       z     vdW  Elec       q    Type
REMARK                         _______ _______ _______ _____ _____    ______ ____
ROOT
ATOM      1  C   UNL     1      -1.320  -1.158  -0.266  0.00  0.00    +0.002 C 
ATOM      2  C   UNL     1      -0.456  -0.344   0.713  0.00  0.00    +0.000 C 
ATOM      3  C   UNL     1      -2.807  -1.300   0.151  0.00  0.00    +0.027 C 
ATOM      4  C   UNL     1      -3.321   0.012   0.853  0.00  0.00    +0.002 C 
ATOM      5  C   UNL     1      -4.895   0.161   0.906  0.00  0.00    +0.000 C 
ATOM      6  C   UNL     1       0.924  -0.495   0.017  0.00  0.00    +0.000 C 
ATOM      7  C   UNL     1      -5.613  -0.297  -0.394  0.00  0.00    +0.005 C 
ATOM      8  C   UNL     1      -0.981   1.104   0.737  0.00  0.00    +0.000 C 
ATOM      9  C   UNL     1      -2.489   1.233   0.409  0.00  0.00    +0.000 C 
ATOM     10  C   UNL     1      -3.628  -1.711  -1.091  0.00  0.00    +0.110 C 
ATOM     11  C   UNL     1      -0.506  -2.431  -0.506  0.00  0.00    +0.000 C 
ATOM     12  C   UNL     1       0.962  -1.978  -0.407  0.00  0.00    +0.000 C 
ATOM     13  C   UNL     1      -5.130  -1.663  -0.872  0.00  0.00    +0.029 C 
ATOM     14  C   UNL     1      -5.387   1.589   1.293  0.00  0.00    +0.002 C 
ATOM     15  C   UNL     1      -0.408  -0.932   2.145  0.00  0.00    +0.000 C 
ATOM     16  C   UNL     1      -5.542   0.746  -1.518  0.00  0.00    +0.029 C 
ATOM     17  C   UNL     1      -5.376  -0.771   2.066  0.00  0.00    +0.000 C 
ATOM     18  C   UNL     1      -5.455   2.611   0.157  0.00  0.00    +0.029 C 
ATOM     19  C   UNL     1      -6.161   2.066  -1.075  0.00  0.00    +0.111 C 
ENDROOT
BRANCH  10  20
ATOM     20  O   UNL     1      -3.284  -3.049  -1.457  0.00  0.00    -0.384 OA
ATOM     21  H   UNL     1      -2.328  -3.108  -1.603  0.00  0.00    +0.210 HD
ENDBRANCH  10  20
BRANCH  19  22
ATOM     22  O   UNL     1      -6.049   3.024  -2.123  0.00  0.00    -0.384 OA
ATOM     23  H   UNL     1      -6.495   2.689  -2.916  0.00  0.00    +0.210 HD
ENDBRANCH  19  22
BRANCH   6  24
ATOM     24  C   UNL     1       2.143  -0.078   0.827  0.00  0.00    +0.000 C 
ATOM     25  C   UNL     1       2.009   1.386   1.261  0.00  0.00    +0.000 C 
BRANCH  24  26
ATOM     26  C   UNL     1       3.431  -0.326   0.015  0.00  0.00    +0.010 C 
BRANCH  26  27
ATOM     27  C   UNL     1       4.714  -0.001   0.779  0.00  0.00    +0.085 C 
BRANCH  27  30
ATOM     28  O   UNL     1       5.933  -0.794  -1.156  0.00  0.00    -0.275 OA
ATOM     29  N   UNL     1       7.117  -0.026   0.690  0.00  0.00    -0.295 N 
ATOM     30  C   UNL     1       5.964  -0.328  -0.021  0.00  0.00    +0.223 C 
ATOM     31  H   UNL     1       7.025   0.345   1.597  0.00  0.00    +0.150 HD
BRANCH  29  32
ATOM     32  C   UNL     1       8.446  -0.231   0.161  0.00  0.00    +0.200 C 
BRANCH  32  34
ATOM     33  O   UNL     1      10.078   0.999  -1.111  0.00  0.00    -0.248 OA
ATOM     34  C   UNL     1       8.974   0.970  -0.580  0.00  0.00    +0.334 C 
BRANCH  34  35
ATOM     35  O   UNL     1       8.114   2.014  -0.603  0.00  0.00    -0.479 OA
ATOM     36  H   UNL     1       7.280   1.942  -0.181  0.00  0.00    +0.295 HD
ENDBRANCH  34  35
ENDBRANCH  32  34
ENDBRANCH  29  32
ENDBRANCH  27  30
ENDBRANCH  26  27
ENDBRANCH  24  26
ENDBRANCH   6  24
TORSDOF 9
