126969191
  -OEChem-03292013293D

 33 35  0     1  0  0  0  0  0999 V2000
    2.2598   -0.1224   -1.0621 O   0  0  0  0  0  0  0  0  0  0  0  0
    1.9912   -2.7277    0.6591 O   0  0  0  0  0  0  0  0  0  0  0  0
    2.4125    0.6608    1.8315 O   0  0  0  0  0  0  0  0  0  0  0  0
    4.7286    1.1025   -1.6192 O   0  0  0  0  0  0  0  0  0  0  0  0
   -3.9256    2.1575    0.4423 O   0  0  0  0  0  0  0  0  0  0  0  0
    0.0557    0.1636   -0.2623 N   0  0  0  0  0  0  0  0  0  0  0  0
   -1.9560    1.0468    0.0653 N   0  0  0  0  0  0  0  0  0  0  0  0
   -1.9490   -1.2339   -0.4369 N   0  0  0  0  0  0  0  0  0  0  0  0
   -3.9897   -0.0757   -0.0477 N   0  0  0  0  0  0  0  0  0  0  0  0
   -4.0283   -2.3419   -0.5437 N   0  0  0  0  0  0  0  0  0  0  0  0
    1.1258   -0.7828   -0.4717 C   0  0  2  0  0  0  0  0  0  0  0  0
    1.5912   -1.3745    0.8571 C   0  0  2  0  0  0  0  0  0  0  0  0
    2.8134   -0.5463    1.1957 C   0  0  1  0  0  0  0  0  0  0  0  0
    3.3905   -0.2615   -0.1851 C   0  0  2  0  0  0  0  0  0  0  0  0
    4.2601    0.9783   -0.2861 C   0  0  0  0  0  0  0  0  0  0  0  0
   -1.2985   -0.1401   -0.2397 C   0  0  0  0  0  0  0  0  0  0  0  0
    0.1966    1.5093    0.0349 C   0  0  0  0  0  0  0  0  0  0  0  0
   -1.0195    2.0463    0.2298 C   0  0  0  0  0  0  0  0  0  0  0  0
   -3.3271    1.1175    0.1720 C   0  0  0  0  0  0  0  0  0  0  0  0
   -3.3319   -1.1757   -0.3331 C   0  0  0  0  0  0  0  0  0  0  0  0
    0.8056   -1.5599   -1.1750 H   0  0  0  0  0  0  0  0  0  0  0  0
    0.8230   -1.3571    1.6373 H   0  0  0  0  0  0  0  0  0  0  0  0
    3.5398   -1.0580    1.8347 H   0  0  0  0  0  0  0  0  0  0  0  0
    3.9463   -1.1341   -0.5517 H   0  0  0  0  0  0  0  0  0  0  0  0
    5.1208    0.9084    0.3860 H   0  0  0  0  0  0  0  0  0  0  0  0
    3.6932    1.8859   -0.0572 H   0  0  0  0  0  0  0  0  0  0  0  0
    1.1559    1.9973    0.0650 H   0  0  0  0  0  0  0  0  0  0  0  0
    1.1992   -3.2299    0.4017 H   0  0  0  0  0  0  0  0  0  0  0  0
    1.9989    0.4205    2.6781 H   0  0  0  0  0  0  0  0  0  0  0  0
   -1.2912    3.0612    0.4680 H   0  0  0  0  0  0  0  0  0  0  0  0
    5.2852    1.8991   -1.6542 H   0  0  0  0  0  0  0  0  0  0  0  0
   -5.0403   -2.3684   -0.4829 H   0  0  0  0  0  0  0  0  0  0  0  0
   -3.5489   -3.2077   -0.7657 H   0  0  0  0  0  0  0  0  0  0  0  0
  1 11  1  0  0  0  0
  1 14  1  0  0  0  0
  2 12  1  0  0  0  0
  2 28  1  0  0  0  0
  3 13  1  0  0  0  0
  3 29  1  0  0  0  0
  4 15  1  0  0  0  0
  4 31  1  0  0  0  0
  5 19  2  0  0  0  0
  6 11  1  0  0  0  0
  6 16  1  0  0  0  0
  6 17  1  0  0  0  0
  7 16  1  0  0  0  0
  7 18  1  0  0  0  0
  7 19  1  0  0  0  0
  8 16  2  0  0  0  0
  8 20  1  0  0  0  0
  9 19  1  0  0  0  0
  9 20  2  0  0  0  0
 10 20  1  0  0  0  0
 10 32  1  0  0  0  0
 10 33  1  0  0  0  0
 11 12  1  0  0  0  0
 11 21  1  0  0  0  0
 12 13  1  0  0  0  0
 12 22  1  0  0  0  0
 13 14  1  0  0  0  0
 13 23  1  0  0  0  0
 14 15  1  0  0  0  0
 14 24  1  0  0  0  0
 15 25  1  0  0  0  0
 15 26  1  0  0  0  0
 17 18  2  0  0  0  0
 17 27  1  0  0  0  0
 18 30  1  0  0  0  0
M  END
> <PUBCHEM_COMPOUND_CID>
126969191

> <PUBCHEM_CONFORMER_RMSD>
0.6

> <PUBCHEM_CONFORMER_DIVERSEORDER>
2
5
16
11
9
6
8
14
12
10
1
4
15
13
7
3

> <PUBCHEM_MMFF94_PARTIAL_CHARGES>
27
1 -0.56
10 -0.85
11 0.65
12 0.28
13 0.28
14 0.28
15 0.28
16 0.56
17 -0.05
18 -0.04
19 0.84
2 -0.68
20 0.71
27 0.15
28 0.4
29 0.4
3 -0.68
30 0.15
31 0.4
32 0.4
33 0.4
4 -0.68
5 -0.57
6 -0.52
7 -0.23
8 -0.66
9 -0.66

> <PUBCHEM_EFFECTIVE_ROTOR_COUNT>
3

> <PUBCHEM_PHARMACOPHORE_FEATURES>
13
1 1 acceptor
1 10 donor
1 2 acceptor
1 2 donor
1 3 acceptor
1 3 donor
1 4 acceptor
1 4 donor
1 5 acceptor
1 9 donor
5 1 11 12 13 14 rings
5 6 7 16 17 18 rings
6 7 8 9 16 19 20 rings

> <PUBCHEM_HEAVY_ATOM_COUNT>
20

> <PUBCHEM_ATOM_DEF_STEREO_COUNT>
4

> <PUBCHEM_ATOM_UDEF_STEREO_COUNT>
0

> <PUBCHEM_BOND_DEF_STEREO_COUNT>
0

> <PUBCHEM_BOND_UDEF_STEREO_COUNT>
0

> <PUBCHEM_ISOTOPIC_ATOM_COUNT>
0

> <PUBCHEM_COMPONENT_COUNT>
1

> <PUBCHEM_CACTVS_TAUTO_COUNT>
3

> <PUBCHEM_CONFORMER_ID>
0791656700000002

> <PUBCHEM_MMFF94_ENERGY>
74.5925

> <PUBCHEM_FEATURE_SELFOVERLAP>
66.151

> <PUBCHEM_SHAPE_FINGERPRINT>
10366900 7 18341327898592161627
10498660 4 18412825772281149396
10616163 171 18412544293083421927
10759866 29 18337113367390692862
11578080 2 17679549398722428149
11806522 49 18266456688462956983
12236239 1 18040999544312352935
12403814 3 17749389226815760445
12553582 1 18268422619949976959
12670545 47 17346304990943774697
13140716 1 17906165510170702235
13224815 77 18409160000323778834
13296908 3 18273210893887396959
13538477 17 18337388227774778933
13760787 19 18409451358173309381
14178342 30 18339061736265166955
14289901 80 18334856073986762721
14787075 74 18266742578745350964
15375462 189 18334576836978092155
15415430 112 18412830187602117997
15669948 3 18343295951343768823
15806764 133 17275109456766156560
16945 1 18339067199305493385
18186145 218 16298391206017694123
19050596 39 18335977576057986826
19422 9 18408600331815373834
20281475 54 18409159991966069763
204376 136 16371298830535221020
20645477 70 15430301512843610098
21267235 1 18411708707232635551
21501502 16 18338511933016903258
23402539 116 18411417328509428140
23557571 272 18059585705810822949
23559900 14 18129383683595728022
23566358 27 18190185589948428982
296302 2 17675926490691424421
34934 24 18336828602511406917
4340502 62 16877959213010761505
4409770 3 15951031010723635926
474 4 17604161423151116788
4990 188 17988651791819981516
5104073 3 18411980239169983810
57096353 35 18335419101365705030
7097593 13 17903905665529882930
7364860 26 18267022744115933830
77492 1 18040152898725938223

> <PUBCHEM_SHAPE_MULTIPOLES>
357.34
8.29
2.23
1.07
0.15
0.48
0.13
-0.62
-1.34
1.3
0.19
-1.2
-0.05
-1.2

> <PUBCHEM_SHAPE_SELFOVERLAP>
777.57

> <PUBCHEM_SHAPE_VOLUME>
193.1

> <PUBCHEM_COORDINATE_TYPE>
2
5
10

$$$$
