REMARK  Name = 126970172
REMARK  6 active torsions:
REMARK  status: ('A' for Active; 'I' for Inactive)
REMARK    1  A    between atoms: C_7  and  C_13
REMARK    2  A    between atoms: C_13  and  C_14
REMARK    3  A    between atoms: C_14  and  C_15
REMARK    4  A    between atoms: C_15  and  C_16
REMARK    5  A    between atoms: C_16  and  C_18
REMARK    6  A    between atoms: C_18  and  O_19
REMARK                            x       y       z     vdW  Elec       q    Type
REMARK                         _______ _______ _______ _____ _____    ______ ____
ROOT
ATOM      1  S   UNL     1       0.963   2.104   0.262  0.00  0.00    +0.044 S 
ATOM      2  O   UNL     1       0.316   2.442  -1.051  0.00  0.00    -0.256 OA
ATOM      3  O   UNL     1       5.019  -2.241  -0.105  0.00  0.00    -0.253 OA
ATOM      4  N   UNL     1       2.764  -1.508   0.044  0.00  0.00    -0.288 N 
ATOM      5  N   UNL     1       4.433   0.058   0.010  0.00  0.00    -0.288 N 
ATOM      6  C   UNL     1       2.174  -0.228  -0.185  0.00  0.00    +0.104 C 
ATOM      7  C   UNL     1       0.887   0.222   0.466  0.00  0.00    +0.099 C 
ATOM      8  C   UNL     1       3.220   0.698   0.405  0.00  0.00    +0.105 C 
ATOM      9  C   UNL     1       2.815   2.068  -0.064  0.00  0.00    +0.113 C 
ATOM     10  C   UNL     1       4.184  -1.350  -0.028  0.00  0.00    +0.301 C 
ATOM     11  H   UNL     1       2.281  -2.348   0.219  0.00  0.00    +0.151 HD
ATOM     12  H   UNL     1       5.285   0.505  -0.199  0.00  0.00    +0.151 HD
ENDROOT
BRANCH   7  13
ATOM     13  C   UNL     1      -0.365  -0.348  -0.172  0.00  0.00    +0.015 C 
BRANCH  13  14
ATOM     14  C   UNL     1      -1.663   0.107   0.503  0.00  0.00    +0.002 C 
BRANCH  14  15
ATOM     15  C   UNL     1      -2.957  -0.403  -0.138  0.00  0.00    +0.012 C 
BRANCH  15  16
ATOM     16  C   UNL     1      -4.220   0.126   0.539  0.00  0.00    +0.109 C 
BRANCH  16  18
ATOM     17  O   UNL     1      -5.507  -1.266  -0.990  0.00  0.00    -0.250 OA
ATOM     18  C   UNL     1      -5.473  -0.472  -0.060  0.00  0.00    +0.314 C 
BRANCH  18  19
ATOM     19  O   UNL     1      -6.590  -0.011   0.563  0.00  0.00    -0.480 OA
ATOM     20  H   UNL     1      -6.513   0.597   1.272  0.00  0.00    +0.295 HD
ENDBRANCH  18  19
ENDBRANCH  16  18
ENDBRANCH  15  16
ENDBRANCH  14  15
ENDBRANCH  13  14
ENDBRANCH   7  13
TORSDOF 6
