REMARK  Name = 126919
REMARK  13 active torsions:
REMARK  status: ('A' for Active; 'I' for Inactive)
REMARK    1  A    between atoms: C_1  and  N_3
REMARK    2  A    between atoms: C_1  and  C_15
REMARK    3  A    between atoms: C_1  and  C_18
REMARK    4  A    between atoms: C_4  and  CA_6
REMARK    5  A    between atoms: CA_6  and  N_7
REMARK    6  A    between atoms: CA_6  and  CB_11
REMARK    7  A    between atoms: C_15  and  O_16
REMARK    8  A    between atoms: C_18  and  O_19
REMARK    9  A    between atoms: C_18  and  C_21
REMARK   10  A    between atoms: C_21  and  C_26
REMARK   11  A    between atoms: O_22  and  C_26
REMARK   12  A    between atoms: N_24  and  C_27
REMARK   13  A    between atoms: C_26  and  C_27
REMARK                            x       y       z     vdW  Elec       q    Type
REMARK                         _______ _______ _______ _____ _____    ______ ____
ROOT
ATOM      1  C   UNK A   2       0.665   1.240  -0.140  0.00  0.00    +0.198 C 
ENDROOT
BRANCH   1   3
ATOM      2  O   VAL A   1       2.379  -0.138  -1.996  0.00  0.00    -0.277 OA
ATOM      3  N   UNK A   2       1.538   0.126   0.149  0.00  0.00    -0.297 N 
ATOM      4  C   VAL A   1       2.333  -0.477  -0.814  0.00  0.00    +0.202 C 
ATOM      5  H   UNK A   2       1.571  -0.219   1.071  0.00  0.00    +0.150 HD
BRANCH   4   6
ATOM      6  CA  VAL A   1       3.154  -1.638  -0.253  0.00  0.00    +0.013 C 
BRANCH   6   7
ATOM      7  N   VAL A   1       3.852  -2.253  -1.385  0.00  0.00    +0.387 N 
ATOM      8  H1  VAL A   1       3.173  -2.527  -2.095  0.00  0.00    -0.089 HD
ATOM      9  H2  VAL A   1       4.360  -3.077  -1.064  0.00  0.00    -0.089 HD
ATOM     10  H3  VAL A   1       4.509  -1.582  -1.784  0.00  0.00    -0.089 HD
ENDBRANCH   6   7
BRANCH   6  11
ATOM     11  CB  VAL A   1       4.148  -1.205   0.850  0.00  0.00    -0.011 C 
ATOM     12  CG1 VAL A   1       5.156  -0.142   0.399  0.00  0.00    -0.002 C 
ATOM     13  CG2 VAL A   1       4.892  -2.402   1.448  0.00  0.00    -0.002 C 
ENDBRANCH   6  11
ENDBRANCH   4   6
ENDBRANCH   1   3
BRANCH   1  15
ATOM     14  O   UNK A   2       2.397   2.703   0.760  0.00  0.00    -0.248 OA
ATOM     15  C   UNK A   2       1.499   2.507  -0.049  0.00  0.00    +0.334 C 
BRANCH  15  16
ATOM     16  O   UNK A   2       1.161   3.409  -1.007  0.00  0.00    -0.479 OA
ATOM     17  H   UNK A   2       0.467   3.218  -1.606  0.00  0.00    +0.295 HD
ENDBRANCH  15  16
ENDBRANCH   1  15
BRANCH   1  18
ATOM     18  C   UNK A   2      -0.565   1.258   0.778  0.00  0.00    +0.142 C 
BRANCH  18  19
ATOM     19  O   UNK A   2      -0.139   1.487   2.122  0.00  0.00    -0.382 OA
ATOM     20  H   UNK A   2      -0.912   1.500   2.708  0.00  0.00    +0.210 HD
ENDBRANCH  18  19
BRANCH  18  21
ATOM     21  C   UNK A   2      -1.402  -0.028   0.735  0.00  0.00    +0.063 C 
BRANCH  21  22
ATOM     22  C   UNK A   2      -1.978  -0.290  -0.652  0.00  0.00    +0.137 C 
BRANCH  22  23
ATOM     23  O   UNK A   2      -2.908   0.780  -0.973  0.00  0.00    -0.352 OA
ATOM     24  C   UNK A   2      -4.258   0.258  -0.964  0.00  0.00    +0.174 C 
ENDBRANCH  22  23
BRANCH  22  25
ATOM     25  C   UNK A   2      -2.781  -1.607  -0.732  0.00  0.00    +0.119 C 
BRANCH  25  27
ATOM     26  O   UNK A   2      -5.010  -1.812   1.488  0.00  0.00    -0.265 OA
ATOM     27  N   UNK A   2      -4.155  -1.162  -0.613  0.00  0.00    -0.295 N 
ATOM     28  C   UNK A   2      -4.839  -1.050   0.563  0.00  0.00    +0.300 C 
ATOM     29  H   UNK A   2      -4.802  -0.499  -0.280  0.00  0.00    +0.150 HD
ENDBRANCH  25  27
ENDBRANCH  22  25
ENDBRANCH  21  22
ENDBRANCH  18  21
ENDBRANCH   1  18
TORSDOF 13
REMARK  Name = 126919
REMARK  13 active torsions:
REMARK  status: ('A' for Active; 'I' for Inactive)
REMARK    1  A    between atoms: C_1  and  N_3
REMARK    2  A    between atoms: C_1  and  C_15
REMARK    3  A    between atoms: C_1  and  C_18
REMARK    4  A    between atoms: C_4  and  CA_6
REMARK    5  A    between atoms: CA_6  and  N_7
REMARK    6  A    between atoms: CA_6  and  CB_11
REMARK    7  A    between atoms: C_15  and  O_16
REMARK    8  A    between atoms: C_18  and  O_19
REMARK    9  A    between atoms: C_18  and  C_21
REMARK   10  A    between atoms: C_21  and  C_26
REMARK   11  A    between atoms: O_22  and  C_26
REMARK   12  A    between atoms: N_24  and  C_27
REMARK   13  A    between atoms: C_26  and  C_27
REMARK                            x       y       z     vdW  Elec       q    Type
REMARK                         _______ _______ _______ _____ _____    ______ ____
ROOT
ATOM      1  C   UNK A   2      -5.139   0.435   0.284  0.00  0.00    +0.000 C 
ENDROOT
TORSDOF 0
