126969783
  -OEChem-03292013293D

 63 64  0     1  0  0  0  0  0999 V2000
    2.0031   -3.3494   -0.6509 O   0  0  0  0  0  0  0  0  0  0  0  0
   -1.8312   -0.6333    0.0557 O   0  0  0  0  0  0  0  0  0  0  0  0
    4.5196    0.9765   -0.3207 O   0  0  0  0  0  0  0  0  0  0  0  0
    0.8458   -5.0504   -1.6820 O   0  0  0  0  0  0  0  0  0  0  0  0
   -1.5439    2.3205   -0.3934 O   0  0  0  0  0  0  0  0  0  0  0  0
   -2.8723   -0.7215    2.1074 O   0  0  0  0  0  0  0  0  0  0  0  0
    6.0769    2.4144    0.5981 O   0  0  0  0  0  0  0  0  0  0  0  0
   -1.8340    3.6516   -2.2593 O   0  0  0  0  0  0  0  0  0  0  0  0
   -7.4294    0.3263    1.0147 O   0  0  0  0  0  0  0  0  0  0  0  0
    0.2605   -1.7883   -0.3133 C   0  0  1  0  0  0  0  0  0  0  0  0
   -0.5766   -0.9422    0.6745 C   0  0  1  0  0  0  0  0  0  0  0  0
    1.6284   -2.2550    0.2015 C   0  0  2  0  0  0  0  0  0  0  0  0
    0.0392    0.3909    1.1870 C   0  0  0  0  0  0  0  0  0  0  0  0
   -0.2727   -3.1371   -0.7045 C   0  0  0  0  0  0  0  0  0  0  0  0
    2.6563   -1.1734    0.0919 C   0  0  0  0  0  0  0  0  0  0  0  0
    0.5762    1.3797    0.1600 C   0  0  0  0  0  0  0  0  0  0  0  0
    3.3417   -0.6247    1.1133 C   0  0  0  0  0  0  0  0  0  0  0  0
    0.8783   -3.9912   -1.0826 C   0  0  0  0  0  0  0  0  0  0  0  0
    3.9473    0.7592    0.9665 C   0  0  2  0  0  0  0  0  0  0  0  0
    2.8803    1.8392    1.2502 C   0  0  0  0  0  0  0  0  0  0  0  0
    1.7956    1.9612    0.2033 C   0  0  0  0  0  0  0  0  0  0  0  0
   -0.3696    1.7673   -0.9499 C   0  0  0  0  0  0  0  0  0  0  0  0
   -1.5105   -3.6385   -0.7091 C   0  0  0  0  0  0  0  0  0  0  0  0
    3.4212   -1.2014    2.5016 C   0  0  0  0  0  0  0  0  0  0  0  0
   -2.8984   -0.5542    0.8964 C   0  0  0  0  0  0  0  0  0  0  0  0
   -4.1275   -0.2340    0.1088 C   0  0  0  0  0  0  0  0  0  0  0  0
    5.5842    1.8319   -0.3584 C   0  0  0  0  0  0  0  0  0  0  0  0
   -4.1899   -0.6777   -1.3228 C   0  0  0  0  0  0  0  0  0  0  0  0
   -2.1890    3.2610   -1.1554 C   0  0  0  0  0  0  0  0  0  0  0  0
   -5.0768    0.4641    0.7596 C   0  0  0  0  0  0  0  0  0  0  0  0
    6.0789    1.9635   -1.7669 C   0  0  0  0  0  0  0  0  0  0  0  0
   -6.4014    0.9079    0.2209 C   0  0  0  0  0  0  0  0  0  0  0  0
   -3.4104    3.7571   -0.4425 C   0  0  0  0  0  0  0  0  0  0  0  0
    0.3699   -1.2327   -1.2556 H   0  0  0  0  0  0  0  0  0  0  0  0
   -0.7517   -1.5757    1.5559 H   0  0  0  0  0  0  0  0  0  0  0  0
    1.5411   -2.6483    1.2201 H   0  0  0  0  0  0  0  0  0  0  0  0
    0.8137    0.1391    1.9154 H   0  0  0  0  0  0  0  0  0  0  0  0
   -0.7231    0.9295    1.7658 H   0  0  0  0  0  0  0  0  0  0  0  0
    2.6898   -0.6825   -0.8798 H   0  0  0  0  0  0  0  0  0  0  0  0
    4.7352    0.8422    1.7272 H   0  0  0  0  0  0  0  0  0  0  0  0
    3.3736    2.8188    1.3035 H   0  0  0  0  0  0  0  0  0  0  0  0
    2.4349    1.6861    2.2405 H   0  0  0  0  0  0  0  0  0  0  0  0
    2.0585    2.6498   -0.5998 H   0  0  0  0  0  0  0  0  0  0  0  0
   -0.6348    0.8943   -1.5540 H   0  0  0  0  0  0  0  0  0  0  0  0
    0.1168    2.4769   -1.6309 H   0  0  0  0  0  0  0  0  0  0  0  0
   -2.3684   -3.0583   -0.4019 H   0  0  0  0  0  0  0  0  0  0  0  0
   -1.7052   -4.6632   -1.0093 H   0  0  0  0  0  0  0  0  0  0  0  0
    2.8199   -0.6131    3.2011 H   0  0  0  0  0  0  0  0  0  0  0  0
    4.4598   -1.1930    2.8504 H   0  0  0  0  0  0  0  0  0  0  0  0
    3.0919   -2.2416    2.5556 H   0  0  0  0  0  0  0  0  0  0  0  0
   -3.4268   -0.1650   -1.9179 H   0  0  0  0  0  0  0  0  0  0  0  0
   -5.1524   -0.4842   -1.7995 H   0  0  0  0  0  0  0  0  0  0  0  0
   -4.0196   -1.7560   -1.3933 H   0  0  0  0  0  0  0  0  0  0  0  0
   -4.9040    0.7542    1.7954 H   0  0  0  0  0  0  0  0  0  0  0  0
    6.4070    0.9889   -2.1369 H   0  0  0  0  0  0  0  0  0  0  0  0
    6.9302    2.6499   -1.7899 H   0  0  0  0  0  0  0  0  0  0  0  0
    5.2867    2.3697   -2.4009 H   0  0  0  0  0  0  0  0  0  0  0  0
   -6.5766    0.6314   -0.8193 H   0  0  0  0  0  0  0  0  0  0  0  0
   -6.4788    1.9968    0.3025 H   0  0  0  0  0  0  0  0  0  0  0  0
   -4.2671    3.1376   -0.7139 H   0  0  0  0  0  0  0  0  0  0  0  0
   -3.5977    4.7954   -0.7299 H   0  0  0  0  0  0  0  0  0  0  0  0
   -3.2575    3.7341    0.6402 H   0  0  0  0  0  0  0  0  0  0  0  0
   -8.2765    0.6616    0.6745 H   0  0  0  0  0  0  0  0  0  0  0  0
  1 12  1  0  0  0  0
  1 18  1  0  0  0  0
  2 11  1  0  0  0  0
  2 25  1  0  0  0  0
  3 19  1  0  0  0  0
  3 27  1  0  0  0  0
  4 18  2  0  0  0  0
  5 22  1  0  0  0  0
  5 29  1  0  0  0  0
  6 25  2  0  0  0  0
  7 27  2  0  0  0  0
  8 29  2  0  0  0  0
  9 32  1  0  0  0  0
  9 63  1  0  0  0  0
 10 11  1  0  0  0  0
 10 12  1  0  0  0  0
 10 14  1  0  0  0  0
 10 34  1  0  0  0  0
 11 13  1  0  0  0  0
 11 35  1  0  0  0  0
 12 15  1  0  0  0  0
 12 36  1  0  0  0  0
 13 16  1  0  0  0  0
 13 37  1  0  0  0  0
 13 38  1  0  0  0  0
 14 18  1  0  0  0  0
 14 23  2  0  0  0  0
 15 17  2  3  0  0  0
 15 39  1  0  0  0  0
 16 21  2  3  0  0  0
 16 22  1  0  0  0  0
 17 19  1  0  0  0  0
 17 24  1  0  0  0  0
 19 20  1  0  0  0  0
 19 40  1  0  0  0  0
 20 21  1  0  0  0  0
 20 41  1  0  0  0  0
 20 42  1  0  0  0  0
 21 43  1  0  0  0  0
 22 44  1  0  0  0  0
 22 45  1  0  0  0  0
 23 46  1  0  0  0  0
 23 47  1  0  0  0  0
 24 48  1  0  0  0  0
 24 49  1  0  0  0  0
 24 50  1  0  0  0  0
 25 26  1  0  0  0  0
 26 28  1  0  0  0  0
 26 30  2  3  0  0  0
 27 31  1  0  0  0  0
 28 51  1  0  0  0  0
 28 52  1  0  0  0  0
 28 53  1  0  0  0  0
 29 33  1  0  0  0  0
 30 32  1  0  0  0  0
 30 54  1  0  0  0  0
 31 55  1  0  0  0  0
 31 56  1  0  0  0  0
 31 57  1  0  0  0  0
 32 58  1  0  0  0  0
 32 59  1  0  0  0  0
 33 60  1  0  0  0  0
 33 61  1  0  0  0  0
 33 62  1  0  0  0  0
M  END
> <PUBCHEM_COMPOUND_CID>
126969783

> <PUBCHEM_CONFORMER_RMSD>
1

> <PUBCHEM_CONFORMER_DIVERSEORDER>
1
13
5
7
10
11
9
12
4
6
8
3
2

> <PUBCHEM_MMFF94_PARTIAL_CHARGES>
39
1 -0.43
10 0.14
11 0.28
12 0.42
13 0.14
14 -0.12
15 -0.29
16 -0.28
17 -0.28
18 0.71
19 0.42
2 -0.43
20 0.14
21 -0.29
22 0.42
23 -0.3
24 0.14
25 0.71
26 -0.12
27 0.66
28 0.14
29 0.66
3 -0.43
30 -0.29
31 0.06
32 0.42
33 0.06
39 0.15
4 -0.57
43 0.15
46 0.15
47 0.15
5 -0.43
54 0.15
6 -0.57
63 0.4
7 -0.57
8 -0.57
9 -0.68

> <PUBCHEM_EFFECTIVE_ROTOR_COUNT>
10

> <PUBCHEM_PHARMACOPHORE_FEATURES>
8
1 28 hydrophobe
1 4 acceptor
1 6 acceptor
1 7 acceptor
1 8 acceptor
1 9 acceptor
1 9 donor
5 1 10 12 14 18 rings

> <PUBCHEM_HEAVY_ATOM_COUNT>
33

> <PUBCHEM_ATOM_DEF_STEREO_COUNT>
4

> <PUBCHEM_ATOM_UDEF_STEREO_COUNT>
0

> <PUBCHEM_BOND_DEF_STEREO_COUNT>
0

> <PUBCHEM_BOND_UDEF_STEREO_COUNT>
3

> <PUBCHEM_ISOTOPIC_ATOM_COUNT>
0

> <PUBCHEM_COMPONENT_COUNT>
1

> <PUBCHEM_CACTVS_TAUTO_COUNT>
1

> <PUBCHEM_CONFORMER_ID>
079167B700000001

> <PUBCHEM_MMFF94_ENERGY>
67.9899

> <PUBCHEM_FEATURE_SELFOVERLAP>
40.599

> <PUBCHEM_SHAPE_FINGERPRINT>
10165383 225 18343587360711801536
10411042 1 17623015594635558735
10906281 52 18260559913399010345
11578080 2 18127143978420841889
12107698 1 18041554738014040434
12422481 6 18264486188060234001
13140716 1 18266168603363247163
13757389 114 18196102268048678846
14114211 80 18271820058854276762
14790565 3 18413112770733612752
14840074 17 18335985345738442069
15131766 46 15142667231952454772
15219462 58 17097223723090104577
15297060 5 18059866115678297074
15420108 30 18123465252805521257
15575132 122 18334015012375044620
15775530 1 17975694987779185221
15961568 22 18186807971642298117
19319366 153 17894901971643214690
1979834 28 18411708673321043475
20775438 99 17402010468165750951
21033648 29 18058161915662608721
21285901 2 18261394387047997289
22182313 1 18052246298434643623
23559900 14 17979629031671925426
46194498 28 18268151950694056775
5047190 48 18410011022598016741
5265222 85 18339368581619710204
59755656 215 18342745100202658193

> <PUBCHEM_SHAPE_MULTIPOLES>
626.3
12.23
5.3
1.69
4.28
3.42
0.16
-9.53
1.53
-0.64
-3.63
-0.6
0.04
0.17

> <PUBCHEM_SHAPE_SELFOVERLAP>
1288.019

> <PUBCHEM_SHAPE_VOLUME>
356.8

> <PUBCHEM_COORDINATE_TYPE>
2
5
10

$$$$
