126970172
  -OEChem-03292013293D

 33 34  0     1  0  0  0  0  0999 V2000
    0.9632    2.1041    0.2617 S   0  0  1  0  0  0  0  0  0  0  0  0
    0.3164    2.4420   -1.0507 O   0  0  0  0  0  0  0  0  0  0  0  0
    5.0185   -2.2407   -0.1050 O   0  0  0  0  0  0  0  0  0  0  0  0
   -6.5895   -0.0113    0.5632 O   0  0  0  0  0  0  0  0  0  0  0  0
   -5.5068   -1.2658   -0.9895 O   0  0  0  0  0  0  0  0  0  0  0  0
    2.7643   -1.5079    0.0438 N   0  0  0  0  0  0  0  0  0  0  0  0
    4.4325    0.0581    0.0100 N   0  0  0  0  0  0  0  0  0  0  0  0
    2.1736   -0.2276   -0.1852 C   0  0  1  0  0  0  0  0  0  0  0  0
    0.8867    0.2224    0.4657 C   0  0  2  0  0  0  0  0  0  0  0  0
    3.2198    0.6979    0.4049 C   0  0  2  0  0  0  0  0  0  0  0  0
    2.8151    2.0685   -0.0640 C   0  0  0  0  0  0  0  0  0  0  0  0
   -0.3650   -0.3484   -0.1718 C   0  0  0  0  0  0  0  0  0  0  0  0
   -1.6630    0.1074    0.5031 C   0  0  0  0  0  0  0  0  0  0  0  0
    4.1843   -1.3502   -0.0276 C   0  0  0  0  0  0  0  0  0  0  0  0
   -2.9567   -0.4032   -0.1378 C   0  0  0  0  0  0  0  0  0  0  0  0
   -4.2203    0.1264    0.5391 C   0  0  0  0  0  0  0  0  0  0  0  0
   -5.4731   -0.4717   -0.0599 C   0  0  0  0  0  0  0  0  0  0  0  0
    2.1142   -0.1169   -1.2793 H   0  0  0  0  0  0  0  0  0  0  0  0
    0.8953    0.0330    1.5458 H   0  0  0  0  0  0  0  0  0  0  0  0
    3.2109    0.6646    1.5053 H   0  0  0  0  0  0  0  0  0  0  0  0
    3.2855    2.8770    0.5001 H   0  0  0  0  0  0  0  0  0  0  0  0
    2.9735    2.2197   -1.1361 H   0  0  0  0  0  0  0  0  0  0  0  0
   -0.4077   -0.0883   -1.2369 H   0  0  0  0  0  0  0  0  0  0  0  0
   -0.3202   -1.4439   -0.1267 H   0  0  0  0  0  0  0  0  0  0  0  0
    2.2902   -2.4017   -0.0391 H   0  0  0  0  0  0  0  0  0  0  0  0
    5.3605    0.4677    0.0525 H   0  0  0  0  0  0  0  0  0  0  0  0
   -1.6424   -0.2103    1.5535 H   0  0  0  0  0  0  0  0  0  0  0  0
   -1.7125    1.2019    0.5154 H   0  0  0  0  0  0  0  0  0  0  0  0
   -2.9696   -0.1213   -1.1984 H   0  0  0  0  0  0  0  0  0  0  0  0
   -2.9558   -1.5003   -0.1105 H   0  0  0  0  0  0  0  0  0  0  0  0
   -4.2714    1.2151    0.4301 H   0  0  0  0  0  0  0  0  0  0  0  0
   -4.2009   -0.1261    1.6050 H   0  0  0  0  0  0  0  0  0  0  0  0
   -7.4067   -0.3933    0.1779 H   0  0  0  0  0  0  0  0  0  0  0  0
  1  2  2  0  0  0  0
  1  9  1  0  0  0  0
  1 11  1  0  0  0  0
  3 14  2  0  0  0  0
  4 17  1  0  0  0  0
  4 33  1  0  0  0  0
  5 17  2  0  0  0  0
  6  8  1  0  0  0  0
  6 14  1  0  0  0  0
  6 25  1  0  0  0  0
  7 10  1  0  0  0  0
  7 14  1  0  0  0  0
  7 26  1  0  0  0  0
  8  9  1  0  0  0  0
  8 10  1  0  0  0  0
  8 18  1  0  0  0  0
  9 12  1  0  0  0  0
  9 19  1  0  0  0  0
 10 11  1  0  0  0  0
 10 20  1  0  0  0  0
 11 21  1  0  0  0  0
 11 22  1  0  0  0  0
 12 13  1  0  0  0  0
 12 23  1  0  0  0  0
 12 24  1  0  0  0  0
 13 15  1  0  0  0  0
 13 27  1  0  0  0  0
 13 28  1  0  0  0  0
 15 16  1  0  0  0  0
 15 29  1  0  0  0  0
 15 30  1  0  0  0  0
 16 17  1  0  0  0  0
 16 31  1  0  0  0  0
 16 32  1  0  0  0  0
M  END
> <PUBCHEM_COMPOUND_CID>
126970172

> <PUBCHEM_CONFORMER_RMSD>
0.8

> <PUBCHEM_CONFORMER_DIVERSEORDER>
1
17
27
33
40
4
38
7
44
28
6
3
39
24
9
45
34
12
2
23
37
43
42
20
21
32
31
10
36
29
15
25
16
13
11
14
18
26
5
35
22
41
8
19
30

> <PUBCHEM_MMFF94_PARTIAL_CHARGES>
17
1 0.11
10 0.3
11 0.19
14 0.69
16 0.06
17 0.66
2 -0.5
25 0.37
26 0.37
3 -0.57
33 0.5
4 -0.65
5 -0.57
6 -0.73
7 -0.73
8 0.3
9 0.19

> <PUBCHEM_EFFECTIVE_ROTOR_COUNT>
5.8

> <PUBCHEM_PHARMACOPHORE_FEATURES>
10
1 2 acceptor
1 3 acceptor
1 4 acceptor
1 5 acceptor
1 6 donor
1 7 donor
3 4 5 17 anion
4 12 13 15 16 hydrophobe
5 1 8 9 10 11 rings
5 6 7 8 10 14 rings

> <PUBCHEM_HEAVY_ATOM_COUNT>
17

> <PUBCHEM_ATOM_DEF_STEREO_COUNT>
3

> <PUBCHEM_ATOM_UDEF_STEREO_COUNT>
1

> <PUBCHEM_BOND_DEF_STEREO_COUNT>
0

> <PUBCHEM_BOND_UDEF_STEREO_COUNT>
0

> <PUBCHEM_ISOTOPIC_ATOM_COUNT>
0

> <PUBCHEM_COMPONENT_COUNT>
1

> <PUBCHEM_CACTVS_TAUTO_COUNT>
3

> <PUBCHEM_CONFORMER_ID>
0791693C00000001

> <PUBCHEM_MMFF94_ENERGY>
41.0499

> <PUBCHEM_FEATURE_SELFOVERLAP>
51.064

> <PUBCHEM_SHAPE_FINGERPRINT>
10912923 1 17703516579555002539
11471102 20 18336547204633046048
12107183 9 17696202404752881411
12236239 1 17989487433304577075
12617007 42 17240768414628270516
13167372 99 18201165365167289825
13167823 11 18271803558091397359
13533116 47 18271807947004421313
13862211 1 18337389340636097522
13911852 28 18195526991534693630
14341114 176 18335989739943536633
15242439 84 17749390373577010731
15848700 24 18334011687933044580
15885798 251 18408040684786748664
17834072 33 18343582975539402023
17844677 252 18409174316283492609
18186145 218 17894903079770909945
18222031 100 18201164273818003422
200 152 18201719557259861915
20645477 70 18410573989662969110
21267235 1 18341057328621720174
221357 26 18261105267024517645
22224240 67 18199737202710407384
23402539 116 18060415812121804005
23559900 14 18262236728628840795
2871803 45 18113899329939681954
29717793 49 18130787854586392773
4214541 1 18341613686021829905
465052 167 18343306954992257838
5104073 3 17988365970452672187
522135 26 18410013255954695200
5281201 14 18187078460182141653
9971528 1 18335980951871080917

> <PUBCHEM_SHAPE_MULTIPOLES>
320.26
13.01
2.07
0.77
19.11
0.67
0.05
-6.25
-0.06
-2.85
0.34
0.36
0.12
-0.34

> <PUBCHEM_SHAPE_SELFOVERLAP>
637.569

> <PUBCHEM_SHAPE_VOLUME>
190.1

> <PUBCHEM_COORDINATE_TYPE>
2
5
10

$$$$
