126953
  -OEChem-03292013323D

 59 61  0     1  0  0  0  0  0999 V2000
   -3.5593    2.3169   -2.7102 O   0  0  0  0  0  0  0  0  0  0  0  0
   -3.6645    0.2339   -0.8713 O   0  0  0  0  0  0  0  0  0  0  0  0
    3.5003    0.9074   -2.4307 O   0  0  0  0  0  0  0  0  0  0  0  0
    5.0162   -3.4747    0.6601 O   0  5  0  0  0  0  0  0  0  0  0  0
    5.0035   -2.7715   -1.4194 O   0  0  0  0  0  0  0  0  0  0  0  0
    2.3015    2.3254    1.5048 N   0  0  0  0  0  0  0  0  0  0  0  0
   -1.1750    2.5280    0.1135 N   0  0  0  0  0  0  0  0  0  0  0  0
    3.0172    1.6467   -1.3647 N   0  0  0  0  0  0  0  0  0  0  0  0
    3.9911   -0.3218   -2.0253 N   0  0  0  0  0  0  0  0  0  0  0  0
    4.7476   -2.5957   -0.1997 N   0  3  0  0  0  0  0  0  0  0  0  0
    0.8599    2.5106    1.5985 C   0  0  0  0  0  0  0  0  0  0  0  0
    0.2652    2.3009    0.1871 C   0  0  0  0  0  0  0  0  0  0  0  0
    0.3113    1.4792    2.5947 C   0  0  0  0  0  0  0  0  0  0  0  0
    0.6060    3.9298    2.1227 C   0  0  0  0  0  0  0  0  0  0  0  0
   -1.6561    2.3611   -1.2500 C   0  0  0  0  0  0  0  0  0  0  0  0
    2.8872    1.1568    1.0665 C   0  0  0  0  0  0  0  0  0  0  0  0
   -3.1733    2.5349   -1.3501 C   0  0  2  0  0  0  0  0  0  0  0  0
   -3.9529    1.5673   -0.4624 C   0  0  0  0  0  0  0  0  0  0  0  0
    3.2009    0.8863   -0.2782 C   0  0  0  0  0  0  0  0  0  0  0  0
    3.2209    0.1227    1.9600 C   0  0  0  0  0  0  0  0  0  0  0  0
    3.8201   -0.3651   -0.6981 C   0  0  0  0  0  0  0  0  0  0  0  0
    3.8237   -1.0959    1.5510 C   0  0  0  0  0  0  0  0  0  0  0  0
    4.1457   -1.3867    0.2129 C   0  0  0  0  0  0  0  0  0  0  0  0
   -4.2727   -0.7707   -0.1672 C   0  0  0  0  0  0  0  0  0  0  0  0
   -3.5155   -1.7283    0.5080 C   0  0  0  0  0  0  0  0  0  0  0  0
   -5.6658   -0.8298   -0.1296 C   0  0  0  0  0  0  0  0  0  0  0  0
   -2.0235   -1.6808    0.4789 C   0  0  0  0  0  0  0  0  0  0  0  0
   -4.1518   -2.7446    1.2208 C   0  0  0  0  0  0  0  0  0  0  0  0
   -6.3019   -1.8460    0.5833 C   0  0  0  0  0  0  0  0  0  0  0  0
   -5.5450   -2.8034    1.2584 C   0  0  0  0  0  0  0  0  0  0  0  0
   -1.4326   -2.4596   -0.6667 C   0  0  0  0  0  0  0  0  0  0  0  0
   -0.6282   -1.9335   -1.5973 C   0  0  0  0  0  0  0  0  0  0  0  0
    0.4535    1.2744   -0.1482 H   0  0  0  0  0  0  0  0  0  0  0  0
    0.7675    2.9796   -0.5148 H   0  0  0  0  0  0  0  0  0  0  0  0
    0.3925    0.4535    2.2184 H   0  0  0  0  0  0  0  0  0  0  0  0
    0.8387    1.5290    3.5545 H   0  0  0  0  0  0  0  0  0  0  0  0
   -0.7508    1.6581    2.7985 H   0  0  0  0  0  0  0  0  0  0  0  0
    1.1248    4.0992    3.0740 H   0  0  0  0  0  0  0  0  0  0  0  0
    0.9735    4.6829    1.4160 H   0  0  0  0  0  0  0  0  0  0  0  0
   -0.4579    4.1191    2.2988 H   0  0  0  0  0  0  0  0  0  0  0  0
    2.8264    2.7648    2.2583 H   0  0  0  0  0  0  0  0  0  0  0  0
   -1.4006    3.4679    0.4351 H   0  0  0  0  0  0  0  0  0  0  0  0
   -1.1771    3.0891   -1.9180 H   0  0  0  0  0  0  0  0  0  0  0  0
   -1.3817    1.3728   -1.6392 H   0  0  0  0  0  0  0  0  0  0  0  0
   -3.4416    3.5660   -1.0905 H   0  0  0  0  0  0  0  0  0  0  0  0
   -3.6987    1.7013    0.5954 H   0  0  0  0  0  0  0  0  0  0  0  0
   -5.0225    1.7690   -0.5914 H   0  0  0  0  0  0  0  0  0  0  0  0
    3.0204    0.2513    3.0237 H   0  0  0  0  0  0  0  0  0  0  0  0
    4.0390   -1.8241    2.3328 H   0  0  0  0  0  0  0  0  0  0  0  0
   -4.5191    2.4615   -2.7689 H   0  0  0  0  0  0  0  0  0  0  0  0
   -6.2741   -0.1057   -0.6641 H   0  0  0  0  0  0  0  0  0  0  0  0
   -1.6758   -0.6401    0.4692 H   0  0  0  0  0  0  0  0  0  0  0  0
   -1.6256   -2.0966    1.4142 H   0  0  0  0  0  0  0  0  0  0  0  0
   -3.5753   -3.4986    1.7503 H   0  0  0  0  0  0  0  0  0  0  0  0
   -7.3867   -1.8947    0.6089 H   0  0  0  0  0  0  0  0  0  0  0  0
   -6.0404   -3.5955    1.8121 H   0  0  0  0  0  0  0  0  0  0  0  0
   -1.6657   -3.5202   -0.7250 H   0  0  0  0  0  0  0  0  0  0  0  0
   -0.3509   -0.8859   -1.5817 H   0  0  0  0  0  0  0  0  0  0  0  0
   -0.2291   -2.5536   -2.3926 H   0  0  0  0  0  0  0  0  0  0  0  0
  1 17  1  0  0  0  0
  1 50  1  0  0  0  0
  2 18  1  0  0  0  0
  2 24  1  0  0  0  0
  3  8  1  0  0  0  0
  3  9  1  0  0  0  0
  4 10  1  0  0  0  0
  5 10  2  0  0  0  0
  6 11  1  0  0  0  0
  6 16  1  0  0  0  0
  6 41  1  0  0  0  0
  7 12  1  0  0  0  0
  7 15  1  0  0  0  0
  7 42  1  0  0  0  0
  8 19  2  0  0  0  0
  9 21  2  0  0  0  0
 10 23  1  0  0  0  0
 11 12  1  0  0  0  0
 11 13  1  0  0  0  0
 11 14  1  0  0  0  0
 12 33  1  0  0  0  0
 12 34  1  0  0  0  0
 13 35  1  0  0  0  0
 13 36  1  0  0  0  0
 13 37  1  0  0  0  0
 14 38  1  0  0  0  0
 14 39  1  0  0  0  0
 14 40  1  0  0  0  0
 15 17  1  0  0  0  0
 15 43  1  0  0  0  0
 15 44  1  0  0  0  0
 16 19  1  0  0  0  0
 16 20  2  0  0  0  0
 17 18  1  0  0  0  0
 17 45  1  0  0  0  0
 18 46  1  0  0  0  0
 18 47  1  0  0  0  0
 19 21  1  0  0  0  0
 20 22  1  0  0  0  0
 20 48  1  0  0  0  0
 21 23  1  0  0  0  0
 22 23  2  0  0  0  0
 22 49  1  0  0  0  0
 24 25  1  0  0  0  0
 24 26  2  0  0  0  0
 25 27  1  0  0  0  0
 25 28  2  0  0  0  0
 26 29  1  0  0  0  0
 26 51  1  0  0  0  0
 27 31  1  0  0  0  0
 27 52  1  0  0  0  0
 27 53  1  0  0  0  0
 28 30  1  0  0  0  0
 28 54  1  0  0  0  0
 29 30  2  0  0  0  0
 29 55  1  0  0  0  0
 30 56  1  0  0  0  0
 31 32  2  0  0  0  0
 31 57  1  0  0  0  0
 32 58  1  0  0  0  0
 32 59  1  0  0  0  0
M  CHG  2   4  -1  10   1
M  END
> <PUBCHEM_COMPOUND_CID>
126953

> <PUBCHEM_CONFORMER_RMSD>
1.2

> <PUBCHEM_CONFORMER_DIVERSEORDER>
1
72
219
11
236
180
108
98
133
95
56
179
199
14
209
77
181
50
166
233
109
228
168
230
227
8
172
232
177
4
38
75
59
20
10
79
90
160
81
58
234
41
67
187
128
178
206
40
83
101
153
107
225
185
198
94
47
235
208
193
17
190
102
3
54
196
69
130
162
29
202
205
154
46
97
222
9
217
123
68
170
113
53
66
182
223
240
92
116
200
122
191
104
134
155
63
213
64
142
48
110
57
239
49
143
156
212
158
197
37
25
146
100
204
214
150
44
210
126
33
2
136
159
61
70
55
165
203
144
118
89
125
96
65
149
27
28
145
137
7
188
238
183
19
42
121
103
224
73
60
13
184
163
71
127
169
115
124
157
82
186
174
192
173
175
31
111
226
112
51
21
220
84
176
30
15
151
24
195
139
167
216
18
99
201
189
36
161
106
87
194
23
43
147
131
120
207
140
141
32
148
132
211
12
80
117
85
78
39
218
237
16
129
138
52
119
22
34
152
231
62
26
74
171
45
35
135
76
105
114
229
86
5
164
88
6
215
93
91
221

> <PUBCHEM_MMFF94_PARTIAL_CHARGES>
42
1 -0.68
10 0.91
11 0.37
12 0.27
15 0.27
16 0.1
17 0.28
18 0.28
19 0.29
2 -0.36
20 -0.15
21 0.29
22 -0.15
23 0.13
24 0.08
25 -0.14
26 -0.15
27 0.28
28 -0.15
29 -0.15
3 0.24
30 -0.15
31 -0.29
32 -0.3
4 -0.52
41 0.4
42 0.36
48 0.15
49 0.15
5 -0.52
50 0.4
51 0.15
54 0.15
55 0.15
56 0.15
57 0.15
58 0.15
59 0.15
6 -0.87
7 -0.9
8 -0.41
9 -0.41

> <PUBCHEM_EFFECTIVE_ROTOR_COUNT>
12

> <PUBCHEM_PHARMACOPHORE_FEATURES>
17
1 1 acceptor
1 1 donor
1 2 acceptor
1 32 hydrophobe
1 4 acceptor
1 4 anion
1 5 acceptor
1 6 cation
1 6 donor
1 7 cation
1 7 donor
1 8 acceptor
1 9 acceptor
3 11 13 14 hydrophobe
5 3 8 9 19 21 rings
6 16 19 20 21 22 23 rings
6 24 25 26 28 29 30 rings

> <PUBCHEM_HEAVY_ATOM_COUNT>
32

> <PUBCHEM_ATOM_DEF_STEREO_COUNT>
0

> <PUBCHEM_ATOM_UDEF_STEREO_COUNT>
1

> <PUBCHEM_BOND_DEF_STEREO_COUNT>
0

> <PUBCHEM_BOND_UDEF_STEREO_COUNT>
0

> <PUBCHEM_ISOTOPIC_ATOM_COUNT>
0

> <PUBCHEM_COMPONENT_COUNT>
1

> <PUBCHEM_CACTVS_TAUTO_COUNT>
2

> <PUBCHEM_CONFORMER_ID>
0001EFE900000001

> <PUBCHEM_MMFF94_ENERGY>
106.8275

> <PUBCHEM_FEATURE_SELFOVERLAP>
86.538

> <PUBCHEM_SHAPE_FINGERPRINT>
10928967 22 18341333383107331255
11135609 12 18410002248417694256
11796584 16 18117826725366122296
12422481 6 15481573957009422625
12633257 1 17488181680920049677
13402501 40 18412542115856184677
13726171 33 18336845155036557581
13782708 43 18270961366919104435
15001296 14 17458626765515991477
150020 26 18340481175733596486
15664445 248 17607530425067439821
17909252 39 18262804093492605688
20764821 26 17917129663938937894
437795 139 18187923907720788762
4461854 278 16677828635852419331
463206 1 17982171115329638512
508706 21 18262225622101811349

> <PUBCHEM_SHAPE_MULTIPOLES>
604.29
13.06
4.64
2.3
6.9
0.68
0.23
-11.51
0.27
-0.58
-0.75
-1.12
1.29
3.11

> <PUBCHEM_SHAPE_SELFOVERLAP>
1269.816

> <PUBCHEM_SHAPE_VOLUME>
340.2

> <PUBCHEM_COORDINATE_TYPE>
2
5
10

$$$$
