REMARK  Name = 126968951
REMARK  13 active torsions:
REMARK  status: ('A' for Active; 'I' for Inactive)
REMARK    1  A    between atoms: C_3  and  C_9
REMARK    2  A    between atoms: C_6  and  C_25
REMARK    3  A    between atoms: N_8  and  C_11
REMARK    4  A    between atoms: C_11  and  C_12
REMARK    5  A    between atoms: C_17  and  C_20
REMARK    6  A    between atoms: N_19  and  C_20
REMARK    7  A    between atoms: N_19  and  O_23
REMARK    8  A    between atoms: C_25  and  C_26
REMARK    9  A    between atoms: C_25  and  N_32
REMARK   10  A    between atoms: N_32  and  C_35
REMARK   11  A    between atoms: C_35  and  C_37
REMARK   12  A    between atoms: C_37  and  O_38
REMARK   13  A    between atoms: O_38  and  C_39
REMARK                            x       y       z     vdW  Elec       q    Type
REMARK                         _______ _______ _______ _____ _____    ______ ____
ROOT
ATOM      1  O   UNL     1       1.637  -0.695   1.300  0.00  0.00    -0.277 OA
ATOM      2  N   UNL     1       2.323  -1.636  -0.680  0.00  0.00    -0.275 N 
ATOM      3  C   UNL     1       1.966  -3.042  -0.561  0.00  0.00    +0.153 C 
ATOM      4  C   UNL     1       2.899  -1.745  -2.004  0.00  0.00    +0.096 C 
ATOM      5  C   UNL     1       2.793  -3.264  -1.839  0.00  0.00    +0.051 C 
ATOM      6  C   UNL     1       2.163  -0.595   0.192  0.00  0.00    +0.206 C 
ENDROOT
BRANCH   3   9
ATOM      7  O   UNL     1      -0.172  -3.423  -1.661  0.00  0.00    -0.273 OA
ATOM      8  N   UNL     1      -0.114  -3.429   0.653  0.00  0.00    -0.299 N 
ATOM      9  C   UNL     1       0.460  -3.313  -0.605  0.00  0.00    +0.241 C 
ATOM     10  H   UNL     1       0.464  -3.327   1.443  0.00  0.00    +0.150 HD
BRANCH   8  11
ATOM     11  C   UNL     1      -1.520  -3.693   0.860  0.00  0.00    +0.116 C 
BRANCH  11  12
ATOM     12  C   UNL     1      -2.322  -2.427   0.950  0.00  0.00    -0.003 C 
ATOM     13  C   UNL     1      -3.114  -2.025  -0.126  0.00  0.00    -0.003 C 
ATOM     14  C   UNL     1      -2.276  -1.653   2.110  0.00  0.00    -0.003 C 
ATOM     15  C   UNL     1      -3.859  -0.849  -0.042  0.00  0.00    +0.003 C 
ATOM     16  C   UNL     1      -3.021  -0.477   2.194  0.00  0.00    +0.003 C 
ATOM     17  C   UNL     1      -3.813  -0.075   1.118  0.00  0.00    +0.036 C 
BRANCH  17  19
ATOM     18  N   UNL     1      -4.124   2.212   1.992  0.00  0.00    -0.381 N 
ATOM     19  C   UNL     1      -4.590   1.151   1.206  0.00  0.00    +0.160 C 
ATOM     20  H   UNL     1      -4.647   3.044   2.055  0.00  0.00    +0.157 HD
ATOM     21  H   UNL     1      -3.274   2.126   2.481  0.00  0.00    +0.157 HD
BRANCH  19  22
ATOM     22  N   UNL     1      -5.727   1.227   0.529  0.00  0.00    -0.118 NA
BRANCH  22  23
ATOM     23  O   UNL     1      -6.365   2.459   0.705  0.00  0.00    -0.264 OA
ATOM     24  H   UNL     1      -7.179   2.630   0.274  0.00  0.00    +0.247 HD
ENDBRANCH  22  23
ENDBRANCH  19  22
ENDBRANCH  17  19
ENDBRANCH  11  12
ENDBRANCH   8  11
ENDBRANCH   3   9
BRANCH   6  25
ATOM     25  C   UNL     1       2.695   0.722  -0.307  0.00  0.00    +0.018 C 
BRANCH  25  26
ATOM     26  C   UNL     1       3.776   1.245   0.637  0.00  0.00    -0.011 C 
ATOM     27  C   UNL     1       4.923   0.233   0.760  0.00  0.00    -0.002 C 
ATOM     28  C   UNL     1       4.298   2.607   0.161  0.00  0.00    -0.002 C 
ATOM     29  C   UNL     1       5.419   3.126   1.059  0.00  0.00    -0.000 C 
ATOM     30  C   UNL     1       6.042   0.756   1.658  0.00  0.00    -0.000 C 
ATOM     31  C   UNL     1       6.553   2.114   1.187  0.00  0.00    -0.000 C 
ENDBRANCH  25  26
BRANCH  25  32
ATOM     32  N   UNL     1       1.580   1.653  -0.366  0.00  0.00    +0.398 N 
ATOM     33  H   UNL     1       1.918   2.559  -0.692  0.00  0.00    -0.083 HD
ATOM     34  H   UNL     1       1.177   1.737   0.567  0.00  0.00    -0.083 HD
BRANCH  32  35
ATOM     35  C   UNL     1       0.546   1.176  -1.276  0.00  0.00    +0.031 C 
BRANCH  35  37
ATOM     36  O   UNL     1      -0.625   3.224  -0.674  0.00  0.00    -0.252 OA
ATOM     37  C   UNL     1      -0.578   2.181  -1.313  0.00  0.00    +0.295 C 
BRANCH  37  38
ATOM     38  O   UNL     1      -1.536   1.732  -2.178  0.00  0.00    -0.450 OA
BRANCH  38  39
ATOM     39  C   UNL     1      -2.680   2.580  -2.326  0.00  0.00    +0.208 C 
ATOM     40  C   UNL     1      -3.639   1.946  -3.311  0.00  0.00    +0.051 C 
ENDBRANCH  38  39
ENDBRANCH  37  38
ENDBRANCH  35  37
ENDBRANCH  32  35
ENDBRANCH  25  32
ENDBRANCH   6  25
TORSDOF 13
