REMARK  Name = 126968766
REMARK  11 active torsions:
REMARK  status: ('A' for Active; 'I' for Inactive)
REMARK    1  A    between atoms: C_2  and  C_3
REMARK    2  A    between atoms: C_2  and  O_19
REMARK    3  A    between atoms: C_3  and  C_5
REMARK    4  A    between atoms: C_8  and  C_12
REMARK    5  A    between atoms: C_12  and  C_13
REMARK    6  A    between atoms: O_19  and  C_24
REMARK    7  A    between atoms: C_21  and  O_26
REMARK    8  A    between atoms: C_22  and  O_28
REMARK    9  A    between atoms: C_23  and  O_30
REMARK   10  A    between atoms: C_25  and  C_33
REMARK   11  A    between atoms: C_33  and  O_34
REMARK                            x       y       z     vdW  Elec       q    Type
REMARK                         _______ _______ _______ _____ _____    ______ ____
ROOT
ATOM      1  O   UNL     1       0.387   1.111   1.438  0.00  0.00    -0.250 OA
ATOM      2  C   UNL     1       0.813   1.187   0.293  0.00  0.00    +0.322 C 
ENDROOT
BRANCH   2   3
ATOM      3  C   UNL     1      -0.007   1.603  -0.922  0.00  0.00    +0.121 C 
ATOM      4  C   UNL     1       0.039   0.510  -1.994  0.00  0.00    +0.016 C 
BRANCH   3   5
ATOM      5  C   UNL     1      -1.430   1.980  -0.544  0.00  0.00    -0.012 C 
ATOM      6  C   UNL     1      -2.282   1.024   0.010  0.00  0.00    -0.001 C 
ATOM      7  C   UNL     1      -1.885   3.283  -0.751  0.00  0.00    -0.004 C 
ATOM      8  C   UNL     1      -3.588   1.371   0.357  0.00  0.00    +0.039 C 
ATOM      9  C   UNL     1      -3.191   3.629  -0.405  0.00  0.00    -0.000 C 
ATOM     10  C   UNL     1      -4.042   2.673   0.149  0.00  0.00    +0.003 C 
BRANCH   8  12
ATOM     11  O   UNL     1      -4.959   0.549   2.064  0.00  0.00    -0.287 OA
ATOM     12  C   UNL     1      -4.476   0.375   0.935  0.00  0.00    +0.196 C 
BRANCH  12  13
ATOM     13  C   UNL     1      -4.845  -0.882   0.217  0.00  0.00    +0.039 C 
ATOM     14  C   UNL     1      -5.702  -1.804   0.819  0.00  0.00    +0.003 C 
ATOM     15  C   UNL     1      -4.335  -1.133  -1.056  0.00  0.00    +0.003 C 
ATOM     16  C   UNL     1      -6.048  -2.976   0.147  0.00  0.00    +0.000 C 
ATOM     17  C   UNL     1      -4.680  -2.306  -1.728  0.00  0.00    +0.000 C 
ATOM     18  C   UNL     1      -5.537  -3.227  -1.126  0.00  0.00    +0.000 C 
ENDBRANCH  12  13
ENDBRANCH   8  12
ENDBRANCH   3   5
ENDBRANCH   2   3
BRANCH   2  19
ATOM     19  O   UNL     1       2.092   0.884  -0.093  0.00  0.00    -0.421 OA
BRANCH  19  24
ATOM     20  O   UNL     1       4.344   0.659   0.611  0.00  0.00    -0.307 OA
ATOM     21  C   UNL     1       3.239  -1.981   0.208  0.00  0.00    +0.173 C 
ATOM     22  C   UNL     1       2.689  -1.023   1.275  0.00  0.00    +0.211 C 
ATOM     23  C   UNL     1       4.676  -1.620  -0.189  0.00  0.00    +0.178 C 
ATOM     24  C   UNL     1       2.967   0.450   0.943  0.00  0.00    +0.321 C 
ATOM     25  C   UNL     1       4.782  -0.126  -0.492  0.00  0.00    +0.246 C 
BRANCH  21  26
ATOM     26  O   UNL     1       2.399  -1.916  -0.941  0.00  0.00    -0.379 OA
ATOM     27  H   UNL     1       1.490  -2.144  -0.690  0.00  0.00    +0.211 HD
ENDBRANCH  21  26
BRANCH  22  28
ATOM     28  O   UNL     1       3.297  -1.341   2.526  0.00  0.00    -0.377 OA
ATOM     29  H   UNL     1       3.125  -2.271   2.741  0.00  0.00    +0.211 HD
ENDBRANCH  22  28
BRANCH  23  30
ATOM     30  O   UNL     1       5.558  -1.952   0.882  0.00  0.00    -0.379 OA
ATOM     31  H   UNL     1       5.491  -2.901   1.074  0.00  0.00    +0.211 HD
ENDBRANCH  23  30
BRANCH  25  33
ATOM     32  O   UNL     1       6.827   1.084  -0.068  0.00  0.00    -0.247 OA
ATOM     33  C   UNL     1       6.199   0.281  -0.741  0.00  0.00    +0.344 C 
BRANCH  33  34
ATOM     34  O   UNL     1       6.699  -0.364  -1.823  0.00  0.00    -0.478 OA
ATOM     35  H   UNL     1       6.164  -0.970  -2.296  0.00  0.00    +0.295 HD
ENDBRANCH  33  34
ENDBRANCH  25  33
ENDBRANCH  19  24
ENDBRANCH   2  19
TORSDOF 11
