REMARK  Name = 126950
REMARK  16 active torsions:
REMARK  status: ('A' for Active; 'I' for Inactive)
REMARK    1  A    between atoms: CA_1  and  N_3
REMARK    2  A    between atoms: CA_1  and  C_19
REMARK    3  A    between atoms: CA_1  and  CB_26
REMARK    4  A    between atoms: C_4  and  C_6
REMARK    5  A    between atoms: C_6  and  C_7
REMARK    6  A    between atoms: C_7  and  CA_8
REMARK    7  A    between atoms: CA_8  and  N_9
REMARK    8  A    between atoms: CA_8  and  C_14
REMARK    9  A    between atoms: C_14  and  O_15
REMARK   10  A    between atoms: N_18  and  CA_21
REMARK   11  A    between atoms: CA_21  and  C_23
REMARK   12  A    between atoms: C_23  and  O_24
REMARK   13  A    between atoms: CB_26  and  SG_27
REMARK   14  A    between atoms: SG_27  and  C_28
REMARK   15  A    between atoms: C_28  and  C_29
REMARK   16  A    between atoms: C_29  and  N_32
REMARK                            x       y       z     vdW  Elec       q    Type
REMARK                         _______ _______ _______ _____ _____    ______ ____
ROOT
ATOM      1  CA  UNL     1       1.956   1.600   0.720  0.00  0.00    +0.159 C 
ENDROOT
BRANCH   1   3
ATOM      2  O   UNL     1       0.275   3.797   1.538  0.00  0.00    -0.275 OA
ATOM      3  N   UNL     1       0.949   2.267  -0.073  0.00  0.00    -0.298 N 
ATOM      4  C   UNL     1       0.187   3.320   0.410  0.00  0.00    +0.223 C 
ATOM      5  H   UNL     1       0.798   1.960  -0.996  0.00  0.00    +0.150 HD
BRANCH   4   6
ATOM      6  C   UNL     1      -0.797   3.822  -0.632  0.00  0.00    +0.083 C 
BRANCH   6   7
ATOM      7  C   UNL     1      -2.250   3.705  -0.167  0.00  0.00    -0.001 C 
BRANCH   7   8
ATOM      8  CA  UNL     1      -2.683   2.255   0.077  0.00  0.00    +0.036 C 
BRANCH   8   9
ATOM      9  N   UNL     1      -3.925   2.240   0.853  0.00  0.00    +0.389 N 
ATOM     10  H1  UNL     1      -3.774   2.712   1.745  0.00  0.00    -0.088 HD
ATOM     11  H2  UNL     1      -4.207   1.274   1.023  0.00  0.00    -0.088 HD
ATOM     12  H3  UNL     1      -4.658   2.722   0.333  0.00  0.00    -0.088 HD
ENDBRANCH   8   9
BRANCH   8  14
ATOM     13  OXT UNL     1      -4.053   1.558  -1.814  0.00  0.00    -0.253 OA
ATOM     14  C   UNL     1      -2.977   1.540  -1.230  0.00  0.00    +0.293 C 
BRANCH  14  15
ATOM     15  O   UNL     1      -1.907   0.838  -1.685  0.00  0.00    -0.482 OA
ATOM     16  H   UNL     1      -1.101   0.851  -1.207  0.00  0.00    +0.295 HD
ENDBRANCH  14  15
ENDBRANCH   8  14
ENDBRANCH   7   8
ENDBRANCH   6   7
ENDBRANCH   4   6
ENDBRANCH   1   3
BRANCH   1  19
ATOM     17  O   UNL     1       3.076   1.314  -1.413  0.00  0.00    -0.273 OA
ATOM     18  N   UNL     1       4.167   0.634   0.518  0.00  0.00    -0.294 N 
ATOM     19  C   ACE A   1       3.109   1.186  -0.191  0.00  0.00    +0.242 C 
ATOM     20  H   UNL     1       4.098   0.575   1.498  0.00  0.00    +0.150 HD
BRANCH  18  21
ATOM     21  CA  UNL     1       5.364   0.144  -0.124  0.00  0.00    +0.200 C 
BRANCH  21  23
ATOM     22  OXT UNL     1       6.185  -1.921  -1.048  0.00  0.00    -0.248 OA
ATOM     23  C   UNL     1       5.274  -1.312  -0.501  0.00  0.00    +0.334 C 
BRANCH  23  24
ATOM     24  O   UNL     1       4.089  -1.881  -0.180  0.00  0.00    -0.479 OA
ATOM     25  H   UNL     1       3.422  -1.372   0.237  0.00  0.00    +0.295 HD
ENDBRANCH  23  24
ENDBRANCH  21  23
ENDBRANCH  18  21
ENDBRANCH   1  19
BRANCH   1  26
ATOM     26  CB  UNL     1       1.380   0.439   1.536  0.00  0.00    +0.087 C 
BRANCH  26  27
ATOM     27  SG  UNL     1       0.692  -0.905   0.516  0.00  0.00    -0.136 S 
BRANCH  27  28
ATOM     28  C   UNL     1       0.084  -1.955   1.854  0.00  0.00    +0.080 C 
BRANCH  28  29
ATOM     29  C   UNL     1      -0.580  -3.223   1.335  0.00  0.00    +0.113 C 
BRANCH  29  32
ATOM     30  O   UNL     1      -1.088  -3.951  -1.513  0.00  0.00    -0.269 OA
ATOM     31  O   UNL     1      -3.109  -1.807   2.024  0.00  0.00    -0.269 OA
ATOM     32  N   UNL     1      -1.732  -2.960   0.515  0.00  0.00    -0.222 N 
ATOM     33  C   UNL     1      -1.866  -3.341  -0.799  0.00  0.00    +0.255 C 
ATOM     34  C   UNL     1      -2.858  -2.290   0.933  0.00  0.00    +0.255 C 
ATOM     35  C   UNL     1      -3.187  -2.868  -1.241  0.00  0.00    +0.063 C 
ATOM     36  C   UNL     1      -3.774  -2.246  -0.217  0.00  0.00    +0.063 C 
ENDBRANCH  29  32
ENDBRANCH  28  29
ENDBRANCH  27  28
ENDBRANCH  26  27
ENDBRANCH   1  26
TORSDOF 16
