REMARK  Name = 126927
REMARK  12 active torsions:
REMARK  status: ('A' for Active; 'I' for Inactive)
REMARK    1  A    between atoms: C_1  and  C_3
REMARK    2  A    between atoms: C_1  and  C_18
REMARK    3  A    between atoms: C_4  and  C_9
REMARK    4  A    between atoms: C_5  and  C_13
REMARK    5  A    between atoms: C_13  and  O_14
REMARK    6  A    between atoms: N_17  and  C_20
REMARK    7  A    between atoms: C_20  and  C_22
REMARK    8  A    between atoms: C_20  and  C_25
REMARK    9  A    between atoms: C_22  and  O_23
REMARK   10  A    between atoms: C_25  and  C_26
REMARK   11  A    between atoms: C_26  and  C_28
REMARK   12  A    between atoms: C_28  and  O_29
REMARK                            x       y       z     vdW  Elec       q    Type
REMARK                         _______ _______ _______ _____ _____    ______ ____
ROOT
ATOM      1  C   UNK     1      -1.082   0.980  -0.903  0.00  0.00    +0.084 C 
ENDROOT
BRANCH   1   3
ATOM      2  N   UNK     1      -4.075  -0.806  -0.490  0.00  0.00    +0.392 N 
ATOM      3  C   UNK     1      -1.989   0.251   0.093  0.00  0.00    +0.002 C 
ATOM      4  C   UNK     1      -3.206   1.067   0.575  0.00  0.00    -0.004 C 
ATOM      5  C   UNK     1      -2.624  -0.983  -0.574  0.00  0.00    +0.040 C 
ATOM      6  C   UNK     1      -4.308   0.632  -0.382  0.00  0.00    -0.077 C 
ATOM      7  H   UNK     1      -4.442  -1.286   0.331  0.00  0.00    -0.084 HD
ATOM      8  H   UNK     1      -4.543  -1.196  -1.308  0.00  0.00    -0.084 HD
BRANCH   4   9
ATOM      9  C   UNK     1      -3.040   2.548   0.659  0.00  0.00    -0.046 C 
ATOM     10  C   UNK     1      -1.982   3.043   1.600  0.00  0.00    +0.026 C 
ATOM     11  C   UNK     1      -3.794   3.388  -0.066  0.00  0.00    -0.009 C 
ENDBRANCH   4   9
BRANCH   5  13
ATOM     12  O   UNK     1      -2.930  -2.667   1.127  0.00  0.00    -0.253 OA
ATOM     13  C   UNK     1      -2.310  -2.245   0.161  0.00  0.00    +0.293 C 
BRANCH  13  14
ATOM     14  O   UNK     1      -1.237  -2.864  -0.387  0.00  0.00    -0.482 OA
ATOM     15  H   UNK     1      -0.806  -2.486  -1.128  0.00  0.00    +0.295 HD
ENDBRANCH  13  14
ENDBRANCH   5  13
ENDBRANCH   1   3
BRANCH   1  18
ATOM     16  O   UNK     1       0.251  -0.206  -2.537  0.00  0.00    -0.275 OA
ATOM     17  N   UNK     1       0.869  -0.262  -0.297  0.00  0.00    -0.297 N 
ATOM     18  C   UNK     1       0.068   0.114  -1.365  0.00  0.00    +0.223 C 
ATOM     19  H   UNK     1       0.628   0.053   0.603  0.00  0.00    +0.150 HD
BRANCH  17  20
ATOM     20  C   UNK     1       2.041  -1.095  -0.444  0.00  0.00    +0.172 C 
BRANCH  20  22
ATOM     21  O   UNK     1       2.936  -2.888   0.941  0.00  0.00    -0.248 OA
ATOM     22  C   UNK     1       2.137  -1.972   0.787  0.00  0.00    +0.332 C 
BRANCH  22  23
ATOM     23  O   UNK     1       1.246  -1.603   1.744  0.00  0.00    -0.479 OA
ATOM     24  H   UNK     1       0.652  -0.896   1.583  0.00  0.00    +0.295 HD
ENDBRANCH  22  23
ENDBRANCH  20  22
BRANCH  20  25
ATOM     25  C   UNK     1       3.312  -0.284  -0.727  0.00  0.00    +0.043 C 
BRANCH  25  26
ATOM     26  C   UNK     1       3.738   0.696   0.374  0.00  0.00    +0.112 C 
BRANCH  26  28
ATOM     27  O   UNK     1       5.632   1.386  -0.995  0.00  0.00    -0.250 OA
ATOM     28  C   UNK     1       4.990   1.479   0.042  0.00  0.00    +0.314 C 
BRANCH  28  29
ATOM     29  O   UNK     1       5.357   2.293   1.066  0.00  0.00    -0.480 OA
ATOM     30  H   UNK     1       4.834   2.333   1.843  0.00  0.00    +0.295 HD
ENDBRANCH  28  29
ENDBRANCH  26  28
ENDBRANCH  25  26
ENDBRANCH  20  25
ENDBRANCH  17  20
ENDBRANCH   1  18
TORSDOF 12
