REMARK  Name = 126968632
REMARK  6 active torsions:
REMARK  status: ('A' for Active; 'I' for Inactive)
REMARK    1  A    between atoms: C_6  and  O_21
REMARK    2  A    between atoms: C_6  and  C_28
REMARK    3  A    between atoms: C_9  and  O_23
REMARK    4  A    between atoms: C_15  and  O_25
REMARK    5  A    between atoms: C_28  and  C_29
REMARK    6  A    between atoms: C_29  and  O_30
REMARK                            x       y       z     vdW  Elec       q    Type
REMARK                         _______ _______ _______ _____ _____    ______ ____
ROOT
ATOM      1  O   UNL     1      -6.389   0.152  -0.957  0.00  0.00    -0.291 OA
ATOM      2  C   UNL     1       2.021  -0.053   0.093  0.00  0.00    +0.031 C 
ATOM      3  C   UNL     1       1.044  -0.968  -0.671  0.00  0.00    +0.003 C 
ATOM      4  C   UNL     1      -0.438  -0.897  -0.282  0.00  0.00    +0.005 C 
ATOM      5  C   UNL     1      -0.941   0.581  -0.243  0.00  0.00    +0.031 C 
ATOM      6  C   UNL     1       3.342  -0.428  -0.638  0.00  0.00    +0.141 C 
ATOM      7  C   UNL     1      -2.429   0.721   0.328  0.00  0.00    +0.020 C 
ATOM      8  C   UNL     1       1.531   1.388  -0.103  0.00  0.00    +0.032 C 
ATOM      9  C   UNL     1       0.084   1.575   0.388  0.00  0.00    +0.111 C 
ATOM     10  C   UNL     1       1.753  -2.319  -0.703  0.00  0.00    +0.003 C 
ATOM     11  C   UNL     1       3.247  -1.958  -0.841  0.00  0.00    +0.034 C 
ATOM     12  C   UNL     1      -0.887  -1.657   0.963  0.00  0.00    +0.034 C 
ATOM     13  C   UNL     1       2.148  -0.371   1.603  0.00  0.00    +0.003 C 
ATOM     14  C   UNL     1      -3.161  -0.631   0.353  0.00  0.00    -0.016 C 
ATOM     15  C   UNL     1      -2.414  -1.814   0.956  0.00  0.00    +0.129 C 
ATOM     16  C   UNL     1      -3.187   1.718  -0.603  0.00  0.00    +0.012 C 
ATOM     17  C   UNL     1      -2.481   1.267   1.778  0.00  0.00    +0.004 C 
ATOM     18  C   UNL     1      -4.691   1.738  -0.387  0.00  0.00    +0.069 C 
ATOM     19  C   UNL     1      -4.426  -0.792  -0.078  0.00  0.00    +0.031 C 
ATOM     20  C   UNL     1      -5.251   0.350  -0.536  0.00  0.00    +0.173 C 
ENDROOT
BRANCH   6  21
ATOM     21  O   UNL     1       3.425   0.209  -1.910  0.00  0.00    -0.380 OA
ATOM     22  H   UNL     1       2.646  -0.022  -2.440  0.00  0.00    +0.211 HD
ENDBRANCH   6  21
BRANCH   9  23
ATOM     23  O   UNL     1      -0.309   2.912   0.072  0.00  0.00    -0.384 OA
ATOM     24  H   UNL     1      -1.220   3.061   0.370  0.00  0.00    +0.210 HD
ENDBRANCH   9  23
BRANCH  15  25
ATOM     25  O   UNL     1      -2.733  -3.005   0.229  0.00  0.00    -0.380 OA
ATOM     26  H   UNL     1      -2.256  -3.756   0.614  0.00  0.00    +0.211 HD
ENDBRANCH  15  25
BRANCH   6  28
ATOM     27  O   UNL     1       5.131  -0.734   0.907  0.00  0.00    -0.291 OA
ATOM     28  C   UNL     1       4.587  -0.001   0.082  0.00  0.00    +0.204 C 
BRANCH  28  29
ATOM     29  C   UNL     1       5.125   1.370  -0.266  0.00  0.00    +0.204 C 
BRANCH  29  30
ATOM     30  O   UNL     1       6.300   1.645   0.467  0.00  0.00    -0.375 OA
ATOM     31  H   UNL     1       6.629   2.527   0.232  0.00  0.00    +0.211 HD
ENDBRANCH  29  30
ENDBRANCH  28  29
ENDBRANCH   6  28
TORSDOF 6
