REMARK  Name = 126969832
REMARK  9 active torsions:
REMARK  status: ('A' for Active; 'I' for Inactive)
REMARK    1  A    between atoms: C_6  and  C_28
REMARK    2  A    between atoms: C_7  and  O_20
REMARK    3  A    between atoms: C_10  and  O_22
REMARK    4  A    between atoms: C_13  and  O_24
REMARK    5  A    between atoms: C_19  and  O_26
REMARK    6  A    between atoms: C_28  and  C_30
REMARK    7  A    between atoms: C_30  and  C_31
REMARK    8  A    between atoms: C_31  and  C_33
REMARK    9  A    between atoms: C_33  and  O_34
REMARK                            x       y       z     vdW  Elec       q    Type
REMARK                         _______ _______ _______ _____ _____    ______ ____
ROOT
ATOM      1  C   UNL     1      -1.131   0.304  -0.216  0.00  0.00    +0.025 C 
ATOM      2  C   UNL     1      -0.312  -0.979   0.033  0.00  0.00    +0.005 C 
ATOM      3  C   UNL     1       1.127  -0.956  -0.548  0.00  0.00    +0.029 C 
ATOM      4  C   UNL     1       1.722   0.497  -0.502  0.00  0.00    +0.005 C 
ATOM      5  C   UNL     1       3.289   0.544  -0.668  0.00  0.00    +0.003 C 
ATOM      6  C   UNL     1      -2.475  -0.145   0.432  0.00  0.00    +0.002 C 
ATOM      7  C   UNL     1      -0.428   1.454   0.558  0.00  0.00    +0.110 C 
ATOM      8  C   UNL     1       3.976  -0.466   0.288  0.00  0.00    +0.032 C 
ATOM      9  C   UNL     1       1.111   1.278   0.686  0.00  0.00    +0.029 C 
ATOM     10  C   UNL     1       1.970  -2.004   0.220  0.00  0.00    +0.137 C 
ATOM     11  C   UNL     1      -1.244  -2.116  -0.389  0.00  0.00    +0.000 C 
ATOM     12  C   UNL     1      -2.653  -1.603  -0.049  0.00  0.00    +0.000 C 
ATOM     13  C   UNL     1       3.481  -1.896   0.035  0.00  0.00    +0.137 C 
ATOM     14  C   UNL     1       3.860   1.962  -0.377  0.00  0.00    +0.003 C 
ATOM     15  C   UNL     1      -1.347   0.617  -1.720  0.00  0.00    +0.002 C 
ATOM     16  C   UNL     1       5.521  -0.396   0.224  0.00  0.00    +0.032 C 
ATOM     17  C   UNL     1       3.592   0.209  -2.160  0.00  0.00    +0.000 C 
ATOM     18  C   UNL     1       5.387   2.040  -0.472  0.00  0.00    +0.029 C 
ATOM     19  C   UNL     1       6.059   1.018   0.442  0.00  0.00    +0.111 C 
ENDROOT
BRANCH   7  20
ATOM     20  O   UNL     1      -0.677   2.718  -0.057  0.00  0.00    -0.384 OA
ATOM     21  H   UNL     1      -1.633   2.851  -0.148  0.00  0.00    +0.210 HD
ENDBRANCH   7  20
BRANCH  10  22
ATOM     22  O   UNL     1       1.565  -3.309  -0.207  0.00  0.00    -0.382 OA
ATOM     23  H   UNL     1       0.605  -3.401  -0.099  0.00  0.00    +0.210 HD
ENDBRANCH  10  22
BRANCH  13  24
ATOM     24  O   UNL     1       4.105  -2.796   0.958  0.00  0.00    -0.382 OA
ATOM     25  H   UNL     1       5.068  -2.745   0.859  0.00  0.00    +0.210 HD
ENDBRANCH  13  24
BRANCH  19  26
ATOM     26  O   UNL     1       5.842   1.378   1.806  0.00  0.00    -0.384 OA
ATOM     27  H   UNL     1       6.270   0.727   2.384  0.00  0.00    +0.210 HD
ENDBRANCH  19  26
BRANCH   6  28
ATOM     28  C   UNL     1      -3.699   0.716   0.152  0.00  0.00    +0.001 C 
ATOM     29  C   UNL     1      -3.652   1.986   1.008  0.00  0.00    +0.000 C 
BRANCH  28  30
ATOM     30  C   UNL     1      -5.023  -0.032   0.409  0.00  0.00    +0.012 C 
BRANCH  30  31
ATOM     31  C   UNL     1      -6.234   0.635  -0.247  0.00  0.00    +0.109 C 
BRANCH  31  33
ATOM     32  O   UNL     1      -7.619  -1.074   0.797  0.00  0.00    -0.250 OA
ATOM     33  C   UNL     1      -7.521  -0.085   0.085  0.00  0.00    +0.314 C 
BRANCH  33  34
ATOM     34  O   UNL     1      -8.587   0.501  -0.521  0.00  0.00    -0.480 OA
ATOM     35  H   UNL     1      -8.463   1.259  -1.059  0.00  0.00    +0.295 HD
ENDBRANCH  33  34
ENDBRANCH  31  33
ENDBRANCH  30  31
ENDBRANCH  28  30
ENDBRANCH   6  28
TORSDOF 9
