126968766
  -OEChem-03292013293D

 53 55  0     1  0  0  0  0  0999 V2000
    4.3438    0.6586    0.6110 O   0  0  0  0  0  0  0  0  0  0  0  0
    2.0917    0.8836   -0.0935 O   0  0  0  0  0  0  0  0  0  0  0  0
    2.3988   -1.9160   -0.9409 O   0  0  0  0  0  0  0  0  0  0  0  0
    3.2967   -1.3409    2.5256 O   0  0  0  0  0  0  0  0  0  0  0  0
    5.5584   -1.9524    0.8821 O   0  0  0  0  0  0  0  0  0  0  0  0
    6.6993   -0.3645   -1.8231 O   0  0  0  0  0  0  0  0  0  0  0  0
    6.8274    1.0844   -0.0680 O   0  0  0  0  0  0  0  0  0  0  0  0
    0.3869    1.1105    1.4382 O   0  0  0  0  0  0  0  0  0  0  0  0
   -4.9592    0.5490    2.0636 O   0  0  0  0  0  0  0  0  0  0  0  0
    3.2394   -1.9808    0.2084 C   0  0  2  0  0  0  0  0  0  0  0  0
    2.6893   -1.0231    1.2746 C   0  0  2  0  0  0  0  0  0  0  0  0
    4.6760   -1.6204   -0.1894 C   0  0  1  0  0  0  0  0  0  0  0  0
    2.9672    0.4501    0.9434 C   0  0  1  0  0  0  0  0  0  0  0  0
    4.7819   -0.1260   -0.4918 C   0  0  2  0  0  0  0  0  0  0  0  0
    6.1993    0.2805   -0.7408 C   0  0  0  0  0  0  0  0  0  0  0  0
   -0.0073    1.6027   -0.9219 C   0  0  2  0  0  0  0  0  0  0  0  0
    0.8126    1.1866    0.2927 C   0  0  0  0  0  0  0  0  0  0  0  0
   -1.4303    1.9802   -0.5440 C   0  0  0  0  0  0  0  0  0  0  0  0
    0.0386    0.5101   -1.9936 C   0  0  0  0  0  0  0  0  0  0  0  0
   -2.2818    1.0244    0.0101 C   0  0  0  0  0  0  0  0  0  0  0  0
   -1.8848    3.2826   -0.7515 C   0  0  0  0  0  0  0  0  0  0  0  0
   -3.5877    1.3710    0.3567 C   0  0  0  0  0  0  0  0  0  0  0  0
   -3.1907    3.6291   -0.4049 C   0  0  0  0  0  0  0  0  0  0  0  0
   -4.0422    2.6733    0.1491 C   0  0  0  0  0  0  0  0  0  0  0  0
   -4.4759    0.3752    0.9350 C   0  0  0  0  0  0  0  0  0  0  0  0
   -4.8453   -0.8820    0.2169 C   0  0  0  0  0  0  0  0  0  0  0  0
   -5.7022   -1.8035    0.8189 C   0  0  0  0  0  0  0  0  0  0  0  0
   -4.3345   -1.1331   -1.0565 C   0  0  0  0  0  0  0  0  0  0  0  0
   -6.0481   -2.9762    0.1475 C   0  0  0  0  0  0  0  0  0  0  0  0
   -4.6804   -2.3057   -1.7279 C   0  0  0  0  0  0  0  0  0  0  0  0
   -5.5371   -3.2274   -1.1259 C   0  0  0  0  0  0  0  0  0  0  0  0
    3.2071   -3.0065    0.5955 H   0  0  0  0  0  0  0  0  0  0  0  0
    1.6132   -1.2003    1.3804 H   0  0  0  0  0  0  0  0  0  0  0  0
    4.9857   -2.2006   -1.0665 H   0  0  0  0  0  0  0  0  0  0  0  0
    2.8057    1.0687    1.8347 H   0  0  0  0  0  0  0  0  0  0  0  0
    4.1977    0.1515   -1.3779 H   0  0  0  0  0  0  0  0  0  0  0  0
    2.7470   -2.5456   -1.5950 H   0  0  0  0  0  0  0  0  0  0  0  0
    2.8967   -0.7661    3.2003 H   0  0  0  0  0  0  0  0  0  0  0  0
    5.4811   -2.9089    1.0392 H   0  0  0  0  0  0  0  0  0  0  0  0
    0.4869    2.4968   -1.3258 H   0  0  0  0  0  0  0  0  0  0  0  0
   -0.2975   -0.4568   -1.6023 H   0  0  0  0  0  0  0  0  0  0  0  0
   -0.5990    0.7693   -2.8460 H   0  0  0  0  0  0  0  0  0  0  0  0
    1.0565    0.3701   -2.3734 H   0  0  0  0  0  0  0  0  0  0  0  0
    7.6295   -0.1106   -2.0037 H   0  0  0  0  0  0  0  0  0  0  0  0
   -1.9208    0.0143    0.1901 H   0  0  0  0  0  0  0  0  0  0  0  0
   -1.2340    4.0387   -1.1823 H   0  0  0  0  0  0  0  0  0  0  0  0
   -3.5448    4.6430   -0.5669 H   0  0  0  0  0  0  0  0  0  0  0  0
   -5.0582    2.9553    0.4135 H   0  0  0  0  0  0  0  0  0  0  0  0
   -6.1145   -1.6325    1.8096 H   0  0  0  0  0  0  0  0  0  0  0  0
   -3.6928   -0.4381   -1.5859 H   0  0  0  0  0  0  0  0  0  0  0  0
   -6.7155   -3.6938    0.6157 H   0  0  0  0  0  0  0  0  0  0  0  0
   -4.2891   -2.4984   -2.7227 H   0  0  0  0  0  0  0  0  0  0  0  0
   -5.8078   -4.1396   -1.6495 H   0  0  0  0  0  0  0  0  0  0  0  0
  1 13  1  0  0  0  0
  1 14  1  0  0  0  0
  2 13  1  0  0  0  0
  2 17  1  0  0  0  0
  3 10  1  0  0  0  0
  3 37  1  0  0  0  0
  4 11  1  0  0  0  0
  4 38  1  0  0  0  0
  5 12  1  0  0  0  0
  5 39  1  0  0  0  0
  6 15  1  0  0  0  0
  6 44  1  0  0  0  0
  7 15  2  0  0  0  0
  8 17  2  0  0  0  0
  9 25  2  0  0  0  0
 10 11  1  0  0  0  0
 10 12  1  0  0  0  0
 10 32  1  0  0  0  0
 11 13  1  0  0  0  0
 11 33  1  0  0  0  0
 12 14  1  0  0  0  0
 12 34  1  0  0  0  0
 13 35  1  0  0  0  0
 14 15  1  0  0  0  0
 14 36  1  0  0  0  0
 16 17  1  0  0  0  0
 16 18  1  0  0  0  0
 16 19  1  0  0  0  0
 16 40  1  0  0  0  0
 18 20  2  0  0  0  0
 18 21  1  0  0  0  0
 19 41  1  0  0  0  0
 19 42  1  0  0  0  0
 19 43  1  0  0  0  0
 20 22  1  0  0  0  0
 20 45  1  0  0  0  0
 21 23  2  0  0  0  0
 21 46  1  0  0  0  0
 22 24  2  0  0  0  0
 22 25  1  0  0  0  0
 23 24  1  0  0  0  0
 23 47  1  0  0  0  0
 24 48  1  0  0  0  0
 25 26  1  0  0  0  0
 26 27  2  0  0  0  0
 26 28  1  0  0  0  0
 27 29  1  0  0  0  0
 27 49  1  0  0  0  0
 28 30  2  0  0  0  0
 28 50  1  0  0  0  0
 29 31  2  0  0  0  0
 29 51  1  0  0  0  0
 30 31  1  0  0  0  0
 30 52  1  0  0  0  0
 31 53  1  0  0  0  0
M  END
> <PUBCHEM_COMPOUND_CID>
126968766

> <PUBCHEM_CONFORMER_RMSD>
1.4

> <PUBCHEM_CONFORMER_DIVERSEORDER>
1
69
21
58
16
90
61
4
17
68
38
42
32
37
76
113
50
109
24
79
94
110
44
104
29
60
96
9
45
107
88
34
46
111
57
27
36
118
100
103
115
105
114
92
51
26
52
41
40
62
97
64
48
47
39
82
13
11
77
10
84
53
71
112
102
12
15
33
56
3
101
49
63
87
73
6
18
83
74
119
66
19
81
95
98
7
54
93
85
65
106
75
35
31
72
89
20
28
2
70
5
117
22
67
14
59
23
55
86
25
80
116
30
108
91
43
99
8
78

> <PUBCHEM_MMFF94_PARTIAL_CHARGES>
43
1 -0.56
10 0.28
11 0.28
12 0.28
13 0.56
14 0.34
15 0.66
16 0.2
17 0.66
18 -0.14
2 -0.43
20 -0.15
21 -0.15
22 0.09
23 -0.15
24 -0.15
25 0.4
26 0.09
27 -0.15
28 -0.15
29 -0.15
3 -0.68
30 -0.15
31 -0.15
37 0.4
38 0.4
39 0.4
4 -0.68
44 0.5
45 0.15
46 0.15
47 0.15
48 0.15
49 0.15
5 -0.68
50 0.15
51 0.15
52 0.15
53 0.15
6 -0.65
7 -0.57
8 -0.57
9 -0.57

> <PUBCHEM_EFFECTIVE_ROTOR_COUNT>
8.2

> <PUBCHEM_PHARMACOPHORE_FEATURES>
16
1 1 acceptor
1 19 hydrophobe
1 3 acceptor
1 3 donor
1 4 acceptor
1 4 donor
1 5 acceptor
1 5 donor
1 6 acceptor
1 7 acceptor
1 8 acceptor
1 9 acceptor
3 6 7 15 anion
6 1 10 11 12 13 14 rings
6 18 20 21 22 23 24 rings
6 26 27 28 29 30 31 rings

> <PUBCHEM_HEAVY_ATOM_COUNT>
31

> <PUBCHEM_ATOM_DEF_STEREO_COUNT>
3

> <PUBCHEM_ATOM_UDEF_STEREO_COUNT>
3

> <PUBCHEM_BOND_DEF_STEREO_COUNT>
0

> <PUBCHEM_BOND_UDEF_STEREO_COUNT>
0

> <PUBCHEM_ISOTOPIC_ATOM_COUNT>
0

> <PUBCHEM_COMPONENT_COUNT>
1

> <PUBCHEM_CACTVS_TAUTO_COUNT>
18

> <PUBCHEM_CONFORMER_ID>
079163BE00000001

> <PUBCHEM_MMFF94_ENERGY>
88.5172

> <PUBCHEM_FEATURE_SELFOVERLAP>
81.278

> <PUBCHEM_SHAPE_FINGERPRINT>
10042902 136 18341333396234527487
10462674 125 15259967572329319671
10815517 723 17916860365163629743
11135609 149 14419244410659575858
11513181 2 18337111138118952907
11552529 35 18342171112420780201
117089 54 17976547431730712187
11991303 11 17825370900855254469
12422481 6 17989216945361040687
12539765 74 17617931440801466541
12633257 1 16271366452259636291
13583140 156 17774704399486703721
13631057 29 18408885152518847625
13690498 29 18407760318238745485
13782708 43 18273213088927207390
13914758 101 10953729015841197940
14114206 34 17167856436190330353
14767858 380 17894920663119178004
14950920 106 17346600802948529665
15238133 3 9799691524080080314
15250474 111 18043235860568872771
15361156 5 18187939369318269385
15537594 2 18334299742963027507
17780758 139 17918280861720235281
17913733 40 14548749399747052661
18608769 82 18272088305901363020
20775530 9 18339915030835560395
21774942 28 12396842416279163878
21796203 349 17976014091180466329
23522609 53 18195841572193337456
23559900 14 17834956365478612174
397830 11 17988632043502618384
437795 51 17631729495695973728
4435113 14 17845392001757400798
4461854 278 17986406683302749551
463206 1 18117557547403149691
484985 159 18336252467609592255
550186 72 18409449180562438324
6431902 208 18261395572258861947
6673363 416 18339094782614961724
6691757 9 17917722267327967089
6898599 12 18115866291997463301
7970288 3 18193555791130928707

> <PUBCHEM_SHAPE_MULTIPOLES>
585.14
17.34
3.74
1.62
12.1
0.68
0.18
-10.9
-0.79
-6.31
-0.78
0.12
-0.48
-1.37

> <PUBCHEM_SHAPE_SELFOVERLAP>
1259.281

> <PUBCHEM_SHAPE_VOLUME>
316.9

> <PUBCHEM_COORDINATE_TYPE>
2
5
10

$$$$
