REMARK  Name = 126970113
REMARK  10 active torsions:
REMARK  status: ('A' for Active; 'I' for Inactive)
REMARK    1  A    between atoms: C_2  and  N_8
REMARK    2  A    between atoms: C_3  and  O_12
REMARK    3  A    between atoms: C_4  and  O_14
REMARK    4  A    between atoms: C_5  and  C_30
REMARK    5  A    between atoms: C_6  and  O_16
REMARK    6  A    between atoms: O_16  and  C_17
REMARK    7  A    between atoms: C_18  and  O_23
REMARK    8  A    between atoms: C_22  and  C_25
REMARK    9  A    between atoms: C_26  and  N_29
REMARK   10  A    between atoms: C_30  and  O_31
REMARK                            x       y       z     vdW  Elec       q    Type
REMARK                         _______ _______ _______ _____ _____    ______ ____
ROOT
ATOM      1  O   UNL     1      -2.771   1.422   0.913  0.00  0.00    -0.317 OA
ATOM      2  C   UNL     1      -2.620  -0.973   0.562  0.00  0.00    +0.172 C 
ATOM      3  C   UNL     1      -3.712  -0.902  -0.507  0.00  0.00    +0.164 C 
ATOM      4  C   UNL     1      -4.595   0.331  -0.290  0.00  0.00    +0.169 C 
ATOM      5  C   UNL     1      -3.749   1.598  -0.118  0.00  0.00    +0.177 C 
ATOM      6  C   UNL     1      -1.858   0.353   0.655  0.00  0.00    +0.309 C 
ENDROOT
BRANCH   2   8
ATOM      7  O   UNL     1      -1.222  -2.575   2.540  0.00  0.00    -0.275 OA
ATOM      8  N   UNL     1      -1.719  -2.077   0.321  0.00  0.00    -0.298 N 
ATOM      9  C   UNL     1      -1.097  -2.783   1.336  0.00  0.00    +0.223 C 
ATOM     10  C   UNL     1      -0.232  -3.896   0.808  0.00  0.00    +0.095 C 
ATOM     11  H   UNL     1      -1.539  -2.339  -0.611  0.00  0.00    +0.150 HD
ENDBRANCH   2   8
BRANCH   3  12
ATOM     12  O   UNL     1      -4.527  -2.072  -0.409  0.00  0.00    -0.380 OA
ATOM     13  H   UNL     1      -3.978  -2.861  -0.545  0.00  0.00    +0.211 HD
ENDBRANCH   3  12
BRANCH   4  14
ATOM     14  O   UNL     1      -5.457   0.460  -1.418  0.00  0.00    -0.379 OA
ATOM     15  H   UNL     1      -5.986  -0.347  -1.515  0.00  0.00    +0.211 HD
ENDBRANCH   4  14
BRANCH   6  16
ATOM     16  O   UNL     1      -1.098   0.575  -0.531  0.00  0.00    -0.448 OA
BRANCH  16  17
ATOM     17  C   UNL     1       0.258   0.678  -0.380  0.00  0.00    +0.175 C 
ATOM     18  C   UNL     1       1.114  -0.213  -1.026  0.00  0.00    +0.172 C 
ATOM     19  C   UNL     1       0.782   1.687   0.428  0.00  0.00    +0.040 C 
ATOM     20  C   UNL     1       2.495  -0.096  -0.863  0.00  0.00    +0.040 C 
ATOM     21  C   UNL     1       2.162   1.804   0.591  0.00  0.00    +0.003 C 
ATOM     22  C   UNL     1       3.019   0.912  -0.054  0.00  0.00    +0.005 C 
BRANCH  18  23
ATOM     23  O   UNL     1       0.614  -1.203  -1.817  0.00  0.00    -0.468 OA
ATOM     24  C   UNL     1       1.558  -2.072  -2.441  0.00  0.00    +0.253 C 
ENDBRANCH  18  23
BRANCH  22  25
ATOM     25  C   UNL     1       4.458   1.034   0.115  0.00  0.00    +0.026 C 
ATOM     26  C   UNL     1       5.333   0.012   0.049  0.00  0.00    +0.165 C 
BRANCH  26  29
ATOM     27  O   UNL     1       6.967   1.302   0.962  0.00  0.00    -0.126 OA
ATOM     28  O   UNL     1       7.538  -0.372  -0.351  0.00  0.00    -0.126 OA
ATOM     29  N   UNL     1       6.702   0.335   0.232  0.00  0.00    +0.059 N 
ENDBRANCH  26  29
ENDBRANCH  22  25
ENDBRANCH  16  17
ENDBRANCH   6  16
BRANCH   5  30
ATOM     30  C   UNL     1      -4.598   2.805   0.273  0.00  0.00    +0.169 C 
BRANCH  30  31
ATOM     31  O   UNL     1      -3.746   3.925   0.421  0.00  0.00    -0.379 OA
ATOM     32  H   UNL     1      -4.272   4.701   0.670  0.00  0.00    +0.211 HD
ENDBRANCH  30  31
ENDBRANCH   5  30
TORSDOF 10
