126923
  -OEChem-03292013323D

 37 38  0     1  0  0  0  0  0999 V2000
    2.5183    0.6419    0.9064 O   0  0  0  0  0  0  0  0  0  0  0  0
    2.2183   -2.4410   -0.9174 O   0  0  0  0  0  0  0  0  0  0  0  0
    4.5791   -1.3598   -0.1156 O   0  0  0  0  0  0  0  0  0  0  0  0
    3.1167    3.1642   -0.1627 O   0  0  0  0  0  0  0  0  0  0  0  0
   -3.1731   -1.1534   -1.5122 O   0  0  0  0  0  0  0  0  0  0  0  0
   -5.1177   -0.8996   -0.3741 O   0  0  0  0  0  0  0  0  0  0  0  0
    0.4331   -0.4890    0.8508 N   0  0  0  0  0  0  0  0  0  0  0  0
   -1.6575   -1.0263    1.3780 N   0  0  0  0  0  0  0  0  0  0  0  0
   -4.7645    1.8363   -0.5093 N   0  0  0  0  0  0  0  0  0  0  0  0
    2.2807   -1.0401   -0.7439 C   0  0  1  0  0  0  0  0  0  0  0  0
    1.8757   -0.6240    0.6620 C   0  0  1  0  0  0  0  0  0  0  0  0
    3.6927   -0.4942   -0.8249 C   0  0  1  0  0  0  0  0  0  0  0  0
    3.5766    0.8223   -0.0630 C   0  0  1  0  0  0  0  0  0  0  0  0
    3.2109    1.9967   -0.9599 C   0  0  0  0  0  0  0  0  0  0  0  0
   -0.3183    0.6225    0.5875 C   0  0  0  0  0  0  0  0  0  0  0  0
   -0.4152   -1.4525    1.3234 C   0  0  0  0  0  0  0  0  0  0  0  0
   -1.6041    0.2666    0.9205 C   0  0  0  0  0  0  0  0  0  0  0  0
   -2.8246    1.0828    0.8364 C   0  0  0  0  0  0  0  0  0  0  0  0
   -3.5733    0.9832   -0.5160 C   0  0  1  0  0  0  0  0  0  0  0  0
   -4.0538   -0.4365   -0.7660 C   0  0  0  0  0  0  0  0  0  0  0  0
    1.6442   -0.5643   -1.4989 H   0  0  0  0  0  0  0  0  0  0  0  0
    2.2256   -1.3326    1.4232 H   0  0  0  0  0  0  0  0  0  0  0  0
    4.0643   -0.4004   -1.8492 H   0  0  0  0  0  0  0  0  0  0  0  0
    4.4842    1.0562    0.5047 H   0  0  0  0  0  0  0  0  0  0  0  0
    2.2447    1.8528   -1.4536 H   0  0  0  0  0  0  0  0  0  0  0  0
    3.9758    2.1619   -1.7242 H   0  0  0  0  0  0  0  0  0  0  0  0
    0.1044    1.5373    0.1957 H   0  0  0  0  0  0  0  0  0  0  0  0
    2.8264   -2.8506   -0.2787 H   0  0  0  0  0  0  0  0  0  0  0  0
    5.4639   -0.9577   -0.1473 H   0  0  0  0  0  0  0  0  0  0  0  0
   -0.0738   -2.4383    1.6081 H   0  0  0  0  0  0  0  0  0  0  0  0
   -2.5674    2.1333    1.0272 H   0  0  0  0  0  0  0  0  0  0  0  0
   -3.5003    0.7837    1.6497 H   0  0  0  0  0  0  0  0  0  0  0  0
   -2.9246    1.2938   -1.3435 H   0  0  0  0  0  0  0  0  0  0  0  0
    2.4361    3.0035    0.5132 H   0  0  0  0  0  0  0  0  0  0  0  0
   -5.1956    1.8278   -1.4332 H   0  0  0  0  0  0  0  0  0  0  0  0
   -4.4899    2.8021   -0.3336 H   0  0  0  0  0  0  0  0  0  0  0  0
   -3.4930   -2.0655   -1.6791 H   0  0  0  0  0  0  0  0  0  0  0  0
  1 11  1  0  0  0  0
  1 13  1  0  0  0  0
  2 10  1  0  0  0  0
  2 28  1  0  0  0  0
  3 12  1  0  0  0  0
  3 29  1  0  0  0  0
  4 14  1  0  0  0  0
  4 34  1  0  0  0  0
  5 20  1  0  0  0  0
  5 37  1  0  0  0  0
  6 20  2  0  0  0  0
  7 11  1  0  0  0  0
  7 15  1  0  0  0  0
  7 16  1  0  0  0  0
  8 16  2  0  0  0  0
  8 17  1  0  0  0  0
  9 19  1  0  0  0  0
  9 35  1  0  0  0  0
  9 36  1  0  0  0  0
 10 11  1  0  0  0  0
 10 12  1  0  0  0  0
 10 21  1  0  0  0  0
 11 22  1  0  0  0  0
 12 13  1  0  0  0  0
 12 23  1  0  0  0  0
 13 14  1  0  0  0  0
 13 24  1  0  0  0  0
 14 25  1  0  0  0  0
 14 26  1  0  0  0  0
 15 17  2  0  0  0  0
 15 27  1  0  0  0  0
 16 30  1  0  0  0  0
 17 18  1  0  0  0  0
 18 19  1  0  0  0  0
 18 31  1  0  0  0  0
 18 32  1  0  0  0  0
 19 20  1  0  0  0  0
 19 33  1  0  0  0  0
M  END
> <PUBCHEM_COMPOUND_CID>
126923

> <PUBCHEM_CONFORMER_RMSD>
0.8

> <PUBCHEM_CONFORMER_DIVERSEORDER>
1
112
53
50
39
24
146
86
79
38
92
65
136
27
130
87
9
149
109
59
89
95
66
115
54
73
124
78
75
119
132
21
61
72
120
85
4
103
139
35
47
99
91
32
100
70
113
84
8
121
90
126
67
41
98
81
144
49
18
83
31
43
133
23
105
29
111
102
88
6
96
3
104
60
76
36
57
101
25
19
97
14
56
128
42
118
117
94
28
11
58
26
20
142
13
5
114
33
7
74
122
44
68
63
69
143
125
22
148
15
34
45
106
135
71
107
2
93
140
55
40
12
82
80
131
141
64
134
30
37
46
116
145
16
10
127
77
17
137
51
123
48
138
52
108
110
62
129
147

> <PUBCHEM_MMFF94_PARTIAL_CHARGES>
28
1 -0.56
10 0.28
11 0.54
12 0.28
13 0.28
14 0.28
15 -0.3
16 0.04
17 0.05
18 0.18
19 0.33
2 -0.68
20 0.66
27 0.15
28 0.4
29 0.4
3 -0.68
30 0.15
34 0.4
35 0.36
36 0.36
37 0.5
4 -0.68
5 -0.65
6 -0.57
7 0.05
8 -0.57
9 -0.99

> <PUBCHEM_EFFECTIVE_ROTOR_COUNT>
6

> <PUBCHEM_PHARMACOPHORE_FEATURES>
15
1 1 acceptor
1 2 acceptor
1 2 donor
1 3 acceptor
1 3 donor
1 4 acceptor
1 4 donor
1 5 acceptor
1 6 acceptor
1 9 cation
1 9 donor
3 5 6 20 anion
3 7 8 16 cation
5 1 10 11 12 13 rings
5 7 8 15 16 17 rings

> <PUBCHEM_HEAVY_ATOM_COUNT>
20

> <PUBCHEM_ATOM_DEF_STEREO_COUNT>
5

> <PUBCHEM_ATOM_UDEF_STEREO_COUNT>
0

> <PUBCHEM_BOND_DEF_STEREO_COUNT>
0

> <PUBCHEM_BOND_UDEF_STEREO_COUNT>
0

> <PUBCHEM_ISOTOPIC_ATOM_COUNT>
0

> <PUBCHEM_COMPONENT_COUNT>
1

> <PUBCHEM_CACTVS_TAUTO_COUNT>
1

> <PUBCHEM_CONFORMER_ID>
0001EFCB00000001

> <PUBCHEM_MMFF94_ENERGY>
32.6732

> <PUBCHEM_FEATURE_SELFOVERLAP>
76.199

> <PUBCHEM_SHAPE_FINGERPRINT>
11543360 7 18343018913068138273
11552529 35 10737585928899267841
12363563 72 14476955671108904947
12596602 18 10809352121995347149
12670546 177 18410009953256616103
12670546 56 12396304793778931093
12714826 92 15339124524511937313
128620 24 18412824703055416435
12892183 10 8358250454240571309
13134695 92 18261675875115279990
13583140 156 15936407887872572289
14250199 8 18410583859424040384
14251764 38 18041845150121757885
14252887 29 12319735860666967762
16752209 62 15410612524202967287
17349148 13 18412822456734994530
17959699 21 18334575754710007061
18186145 218 17967246486117149789
192875 21 18411984629122529360
19784866 240 16988290759424363822
19862831 5 18412263900437917873
200 152 17847061056165403650
20432913 95 12031785864132998461
20645477 70 18342748394695742846
20671657 53 16702300174225720745
20681677 76 18189346830084857442
20871999 31 18272923917727415279
21033648 29 16226035691626208853
21065198 48 7997970180600755477
21709351 56 18412263913359775596
22892500 29 18259985964150187038
23402539 116 18335136441231110830
23402655 69 18342178812848488952
23557571 272 17460607054234143395
23559900 14 18410855439180989266
238 59 18201446938453123800
2838139 119 18189054360314408492
3082319 5 18060420187981276763
351380 180 18261109651811385348
474 4 18187644747050909884
4990 188 18411981317296464547
5281201 14 18410860944859499301
59027123 10 18412543197808440477
633830 44 18260828177019206537
9709674 26 18411429383797306210
9971528 1 18339923719649176738

> <PUBCHEM_SHAPE_MULTIPOLES>
361.43
9.73
2.25
1.27
5.18
1.04
-0.03
1.63
3.45
-1.7
0.38
0.42
-0.33
-0.01

> <PUBCHEM_SHAPE_SELFOVERLAP>
754.013

> <PUBCHEM_SHAPE_VOLUME>
205.4

> <PUBCHEM_COORDINATE_TYPE>
2
5
10

$$$$
