126968951
  -OEChem-03292013293D

 69 71  0     1  0  0  0  0  0999 V2000
    1.6374   -0.6951    1.3000 O   0  0  0  0  0  0  0  0  0  0  0  0
   -0.1715   -3.4227   -1.6609 O   0  0  0  0  0  0  0  0  0  0  0  0
   -1.5361    1.7319   -2.1782 O   0  0  0  0  0  0  0  0  0  0  0  0
   -0.6248    3.2239   -0.6745 O   0  0  0  0  0  0  0  0  0  0  0  0
   -6.3649    2.4589    0.7050 O   0  0  0  0  0  0  0  0  0  0  0  0
    2.3233   -1.6362   -0.6804 N   0  0  0  0  0  0  0  0  0  0  0  0
    1.5797    1.6533   -0.3661 N   0  0  0  0  0  0  0  0  0  0  0  0
   -0.1143   -3.4294    0.6526 N   0  0  0  0  0  0  0  0  0  0  0  0
   -4.1242    2.2121    1.9919 N   0  0  0  0  0  0  0  0  0  0  0  0
   -5.7267    1.2271    0.5292 N   0  0  0  0  0  0  0  0  0  0  0  0
    3.7761    1.2447    0.6367 C   0  0  0  0  0  0  0  0  0  0  0  0
    2.6949    0.7218   -0.3073 C   0  0  1  0  0  0  0  0  0  0  0  0
    4.9231    0.2326    0.7602 C   0  0  0  0  0  0  0  0  0  0  0  0
    4.2984    2.6070    0.1609 C   0  0  0  0  0  0  0  0  0  0  0  0
    5.4186    3.1263    1.0592 C   0  0  0  0  0  0  0  0  0  0  0  0
    6.0423    0.7559    1.6577 C   0  0  0  0  0  0  0  0  0  0  0  0
    1.9662   -3.0421   -0.5611 C   0  0  2  0  0  0  0  0  0  0  0  0
    6.5528    2.1141    1.1867 C   0  0  0  0  0  0  0  0  0  0  0  0
    2.8992   -1.7447   -2.0042 C   0  0  0  0  0  0  0  0  0  0  0  0
    2.7933   -3.2636   -1.8390 C   0  0  0  0  0  0  0  0  0  0  0  0
    2.1625   -0.5946    0.1922 C   0  0  0  0  0  0  0  0  0  0  0  0
    0.4598   -3.3128   -0.6048 C   0  0  0  0  0  0  0  0  0  0  0  0
    0.5462    1.1757   -1.2761 C   0  0  0  0  0  0  0  0  0  0  0  0
   -0.5776    2.1811   -1.3126 C   0  0  0  0  0  0  0  0  0  0  0  0
   -1.5202   -3.6933    0.8596 C   0  0  0  0  0  0  0  0  0  0  0  0
   -2.3221   -2.4274    0.9503 C   0  0  0  0  0  0  0  0  0  0  0  0
   -3.1137   -2.0252   -0.1256 C   0  0  0  0  0  0  0  0  0  0  0  0
   -2.2757   -1.6534    2.1098 C   0  0  0  0  0  0  0  0  0  0  0  0
   -2.6798    2.5796   -2.3264 C   0  0  0  0  0  0  0  0  0  0  0  0
   -3.8590   -0.8492   -0.0417 C   0  0  0  0  0  0  0  0  0  0  0  0
   -3.0209   -0.4774    2.1936 C   0  0  0  0  0  0  0  0  0  0  0  0
   -3.8127   -0.0751    1.1179 C   0  0  0  0  0  0  0  0  0  0  0  0
   -3.6394    1.9456   -3.3106 C   0  0  0  0  0  0  0  0  0  0  0  0
   -4.5901    1.1506    1.2061 C   0  0  0  0  0  0  0  0  0  0  0  0
    3.3487    1.3801    1.6415 H   0  0  0  0  0  0  0  0  0  0  0  0
    3.1274    0.6377   -1.3091 H   0  0  0  0  0  0  0  0  0  0  0  0
    3.4955    3.3530    0.1504 H   0  0  0  0  0  0  0  0  0  0  0  0
    5.3342    0.0098   -0.2328 H   0  0  0  0  0  0  0  0  0  0  0  0
    4.6722    2.5265   -0.8680 H   0  0  0  0  0  0  0  0  0  0  0  0
    4.5688   -0.7161    1.1786 H   0  0  0  0  0  0  0  0  0  0  0  0
    2.4471   -3.5006    0.3133 H   0  0  0  0  0  0  0  0  0  0  0  0
    5.6746    0.8409    2.6878 H   0  0  0  0  0  0  0  0  0  0  0  0
    5.8089    4.0671    0.6549 H   0  0  0  0  0  0  0  0  0  0  0  0
    5.0146    3.3494    2.0544 H   0  0  0  0  0  0  0  0  0  0  0  0
    6.8693    0.0369    1.6724 H   0  0  0  0  0  0  0  0  0  0  0  0
    7.3052    2.4894    1.8895 H   0  0  0  0  0  0  0  0  0  0  0  0
    7.0507    1.9999    0.2159 H   0  0  0  0  0  0  0  0  0  0  0  0
    2.2624   -1.3148   -2.7818 H   0  0  0  0  0  0  0  0  0  0  0  0
    3.9222   -1.3709   -2.0886 H   0  0  0  0  0  0  0  0  0  0  0  0
    2.2862   -3.7775   -2.6613 H   0  0  0  0  0  0  0  0  0  0  0  0
    3.7539   -3.7613   -1.6621 H   0  0  0  0  0  0  0  0  0  0  0  0
    1.1867    1.7877    0.5656 H   0  0  0  0  0  0  0  0  0  0  0  0
    0.1061    0.2275   -0.9499 H   0  0  0  0  0  0  0  0  0  0  0  0
    0.9455    1.0788   -2.2916 H   0  0  0  0  0  0  0  0  0  0  0  0
    0.4702   -3.3091    1.4747 H   0  0  0  0  0  0  0  0  0  0  0  0
   -1.6169   -4.2650    1.7896 H   0  0  0  0  0  0  0  0  0  0  0  0
   -1.8898   -4.3340    0.0505 H   0  0  0  0  0  0  0  0  0  0  0  0
   -3.1563   -2.6165   -1.0363 H   0  0  0  0  0  0  0  0  0  0  0  0
   -1.6648   -1.9587    2.9552 H   0  0  0  0  0  0  0  0  0  0  0  0
   -3.1724    2.7007   -1.3552 H   0  0  0  0  0  0  0  0  0  0  0  0
   -2.3621    3.5602   -2.6979 H   0  0  0  0  0  0  0  0  0  0  0  0
   -4.4615   -0.5540   -0.8965 H   0  0  0  0  0  0  0  0  0  0  0  0
   -2.9770    0.0945    3.1163 H   0  0  0  0  0  0  0  0  0  0  0  0
   -3.1569    1.8069   -4.2838 H   0  0  0  0  0  0  0  0  0  0  0  0
   -3.9477    0.9536   -2.9653 H   0  0  0  0  0  0  0  0  0  0  0  0
   -4.5301    2.5660   -3.4431 H   0  0  0  0  0  0  0  0  0  0  0  0
   -3.2299    2.1860    2.4693 H   0  0  0  0  0  0  0  0  0  0  0  0
   -4.6588    3.0715    2.0614 H   0  0  0  0  0  0  0  0  0  0  0  0
   -7.1575    2.3479    0.1532 H   0  0  0  0  0  0  0  0  0  0  0  0
  1 21  2  0  0  0  0
  2 22  2  0  0  0  0
  3 24  1  0  0  0  0
  3 29  1  0  0  0  0
  4 24  2  0  0  0  0
  5 10  1  0  0  0  0
  5 69  1  0  0  0  0
  6 17  1  0  0  0  0
  6 19  1  0  0  0  0
  6 21  1  0  0  0  0
  7 12  1  0  0  0  0
  7 23  1  0  0  0  0
  7 52  1  0  0  0  0
  8 22  1  0  0  0  0
  8 25  1  0  0  0  0
  8 55  1  0  0  0  0
  9 34  1  0  0  0  0
  9 67  1  0  0  0  0
  9 68  1  0  0  0  0
 10 34  2  3  0  0  0
 11 12  1  0  0  0  0
 11 13  1  0  0  0  0
 11 14  1  0  0  0  0
 11 35  1  0  0  0  0
 12 21  1  0  0  0  0
 12 36  1  0  0  0  0
 13 16  1  0  0  0  0
 13 38  1  0  0  0  0
 13 40  1  0  0  0  0
 14 15  1  0  0  0  0
 14 37  1  0  0  0  0
 14 39  1  0  0  0  0
 15 18  1  0  0  0  0
 15 43  1  0  0  0  0
 15 44  1  0  0  0  0
 16 18  1  0  0  0  0
 16 42  1  0  0  0  0
 16 45  1  0  0  0  0
 17 20  1  0  0  0  0
 17 22  1  0  0  0  0
 17 41  1  0  0  0  0
 18 46  1  0  0  0  0
 18 47  1  0  0  0  0
 19 20  1  0  0  0  0
 19 48  1  0  0  0  0
 19 49  1  0  0  0  0
 20 50  1  0  0  0  0
 20 51  1  0  0  0  0
 23 24  1  0  0  0  0
 23 53  1  0  0  0  0
 23 54  1  0  0  0  0
 25 26  1  0  0  0  0
 25 56  1  0  0  0  0
 25 57  1  0  0  0  0
 26 27  2  0  0  0  0
 26 28  1  0  0  0  0
 27 30  1  0  0  0  0
 27 58  1  0  0  0  0
 28 31  2  0  0  0  0
 28 59  1  0  0  0  0
 29 33  1  0  0  0  0
 29 60  1  0  0  0  0
 29 61  1  0  0  0  0
 30 32  2  0  0  0  0
 30 62  1  0  0  0  0
 31 32  1  0  0  0  0
 31 63  1  0  0  0  0
 32 34  1  0  0  0  0
 33 64  1  0  0  0  0
 33 65  1  0  0  0  0
 33 66  1  0  0  0  0
M  END
> <PUBCHEM_COMPOUND_CID>
126968951

> <PUBCHEM_CONFORMER_RMSD>
1.2

> <PUBCHEM_CONFORMER_DIVERSEORDER>
1
25
70
33
50
63
51
30
16
45
48
10
66
34
27
4
74
38
37
36
23
59
53
31
5
47
73
13
28
72
76
75
49
41
58
68
67
11
6
15
64
24
40
71
46
44
21
20
69
12
26
61
22
56
32
29
39
60
42
8
7
55
62
65
17
57
2
43
54
9
14
52
35
3
18
19

> <PUBCHEM_MMFF94_PARTIAL_CHARGES>
35
1 -0.57
10 -0.51
12 0.33
17 0.28
19 0.22
2 -0.57
21 0.57
22 0.58
23 0.33
24 0.66
25 0.44
26 -0.14
27 -0.15
28 -0.15
29 0.28
3 -0.43
30 -0.15
31 -0.15
32 0.09
34 0.41
4 -0.57
5 -0.34
52 0.36
55 0.37
58 0.15
59 0.15
6 -0.51
62 0.15
63 0.15
67 0.4
68 0.4
69 0.4
7 -0.9
8 -0.73
9 -0.85

> <PUBCHEM_EFFECTIVE_ROTOR_COUNT>
15

> <PUBCHEM_PHARMACOPHORE_FEATURES>
12
1 1 acceptor
1 2 acceptor
1 4 acceptor
1 5 anion
1 7 cation
1 7 donor
1 8 donor
1 9 donor
3 9 10 34 cation
4 6 17 19 20 rings
6 11 13 14 15 16 18 rings
6 26 27 28 30 31 32 rings

> <PUBCHEM_HEAVY_ATOM_COUNT>
34

> <PUBCHEM_ATOM_DEF_STEREO_COUNT>
1

> <PUBCHEM_ATOM_UDEF_STEREO_COUNT>
1

> <PUBCHEM_BOND_DEF_STEREO_COUNT>
0

> <PUBCHEM_BOND_UDEF_STEREO_COUNT>
1

> <PUBCHEM_ISOTOPIC_ATOM_COUNT>
0

> <PUBCHEM_COMPONENT_COUNT>
1

> <PUBCHEM_CACTVS_TAUTO_COUNT>
10

> <PUBCHEM_CONFORMER_ID>
0791647700000001

> <PUBCHEM_MMFF94_ENERGY>
61.4793

> <PUBCHEM_FEATURE_SELFOVERLAP>
60.896

> <PUBCHEM_SHAPE_FINGERPRINT>
10675989 125 18054520110045340641
10764073 3 18410008819997718878
12422481 6 18337392746919183442
13402501 40 18044956570981808775
144659 39 18114167623688407680
14725015 67 17753052692106043859
14784336 7 14524521000063363404
15003188 8 18410016550131366371
15274700 34 17827940721733381603
161222 619 18410288095091272772
17913733 40 18272642455456615744
19309040 13 17417546730421969945
20587220 17 18056478340898532861
20764821 26 18117554020738737783
21033648 29 18337691753694102987
21795232 40 18339633564022211369
22182313 1 18335704884569062534
463206 1 16604899601603169133
5047190 48 18264498436769080220
5171179 24 18125163732103853502
57527358 35 17488475074868843507

> <PUBCHEM_SHAPE_MULTIPOLES>
645.45
12.64
5.16
2.47
6.34
2.64
1.17
-11.58
-6.93
-0.49
1.61
-1.9
-0.77
3.18

> <PUBCHEM_SHAPE_SELFOVERLAP>
1333.844

> <PUBCHEM_SHAPE_VOLUME>
367.4

> <PUBCHEM_COORDINATE_TYPE>
2
5
10

$$$$
