REMARK  Name = 126968945
REMARK  9 active torsions:
REMARK  status: ('A' for Active; 'I' for Inactive)
REMARK    1  A    between atoms: C_4  and  C_21
REMARK    2  A    between atoms: C_4  and  O_23
REMARK    3  A    between atoms: C_18  and  O_19
REMARK    4  A    between atoms: O_23  and  C_25
REMARK    5  A    between atoms: C_26  and  O_30
REMARK    6  A    between atoms: C_27  and  O_32
REMARK    7  A    between atoms: C_28  and  C_37
REMARK    8  A    between atoms: C_29  and  O_34
REMARK    9  A    between atoms: C_37  and  O_38
REMARK                            x       y       z     vdW  Elec       q    Type
REMARK                         _______ _______ _______ _____ _____    ______ ____
ROOT
ATOM      1  C   UNL     1      -0.596  -1.437  -0.490  0.00  0.00    +0.034 C 
ATOM      2  C   UNL     1      -0.934   0.001  -0.957  0.00  0.00    +0.004 C 
ATOM      3  C   UNL     1      -2.403   0.436  -0.904  0.00  0.00    +0.004 C 
ATOM      4  C   UNL     1       0.959  -1.392  -0.667  0.00  0.00    +0.149 C 
ATOM      5  C   UNL     1      -2.970   0.164   0.519  0.00  0.00    +0.022 C 
ATOM      6  C   UNL     1      -1.123  -1.588   0.948  0.00  0.00    +0.004 C 
ATOM      7  C   UNL     1      -0.144   0.166  -2.251  0.00  0.00    +0.004 C 
ATOM      8  C   UNL     1       1.141  -0.661  -2.022  0.00  0.00    +0.040 C 
ATOM      9  C   UNL     1      -2.621  -1.248   1.054  0.00  0.00    +0.004 C 
ATOM     10  C   UNL     1      -3.334  -0.114  -1.987  0.00  0.00    +0.005 C 
ATOM     11  C   UNL     1      -1.193  -2.564  -1.374  0.00  0.00    +0.003 C 
ATOM     12  C   UNL     1      -4.463   0.435   0.620  0.00  0.00    -0.026 C 
ATOM     13  C   UNL     1      -4.692   0.581  -1.913  0.00  0.00    +0.026 C 
ATOM     14  C   UNL     1      -5.270   0.599  -0.522  0.00  0.00    -0.023 C 
ATOM     15  C   UNL     1      -5.059   0.528   1.891  0.00  0.00    -0.001 C 
ATOM     16  C   UNL     1      -6.643   0.854  -0.370  0.00  0.00    +0.032 C 
ATOM     17  C   UNL     1      -6.425   0.771   2.028  0.00  0.00    +0.036 C 
ATOM     18  C   UNL     1      -7.218   0.933   0.897  0.00  0.00    +0.133 C 
ENDROOT
BRANCH  18  19
ATOM     19  O   UNL     1      -8.550   1.177   1.027  0.00  0.00    -0.506 OA
ATOM     20  H   UNL     1      -9.083   1.286   0.264  0.00  0.00    +0.292 HD
ENDBRANCH  18  19
BRANCH   4  21
ATOM     21  C   UNL     1       1.624  -2.702  -0.665  0.00  0.00    -0.052 C 
ATOM     22  C   UNL     1       2.168  -3.772  -0.664  0.00  0.00    -0.012 C 
ENDBRANCH   4  21
BRANCH   4  23
ATOM     23  O   UNL     1       1.573  -0.574   0.334  0.00  0.00    -0.321 OA
BRANCH  23  25
ATOM     24  O   UNL     1       3.264   0.992  -0.105  0.00  0.00    -0.317 OA
ATOM     25  C   UNL     1       2.961  -0.393   0.072  0.00  0.00    +0.267 C 
ATOM     26  C   UNL     1       3.758  -0.952   1.250  0.00  0.00    +0.196 C 
ATOM     27  C   UNL     1       5.252  -0.763   0.996  0.00  0.00    +0.172 C 
ATOM     28  C   UNL     1       4.636   1.215  -0.426  0.00  0.00    +0.245 C 
ATOM     29  C   UNL     1       5.575   0.697   0.664  0.00  0.00    +0.178 C 
BRANCH  26  30
ATOM     30  O   UNL     1       3.376  -0.237   2.429  0.00  0.00    -0.378 OA
ATOM     31  H   UNL     1       2.427  -0.359   2.588  0.00  0.00    +0.211 HD
ENDBRANCH  26  30
BRANCH  27  32
ATOM     32  O   UNL     1       5.980  -1.175   2.150  0.00  0.00    -0.379 OA
ATOM     33  H   UNL     1       5.769  -2.100   2.351  0.00  0.00    +0.211 HD
ENDBRANCH  27  32
BRANCH  29  34
ATOM     34  O   UNL     1       6.924   0.756   0.203  0.00  0.00    -0.379 OA
ATOM     35  H   UNL     1       7.517   0.427   0.897  0.00  0.00    +0.211 HD
ENDBRANCH  29  34
BRANCH  28  37
ATOM     36  O   UNL     1       3.786   3.471  -0.309  0.00  0.00    -0.247 OA
ATOM     37  C   UNL     1       4.710   2.704  -0.535  0.00  0.00    +0.344 C 
BRANCH  37  38
ATOM     38  O   UNL     1       5.949   3.094  -0.923  0.00  0.00    -0.478 OA
ATOM     39  H   UNL     1       6.615   2.453  -1.080  0.00  0.00    +0.295 HD
ENDBRANCH  37  38
ENDBRANCH  28  37
ENDBRANCH  23  25
ENDBRANCH   4  23
TORSDOF 9
