REMARK  Name = 126969195
REMARK  6 active torsions:
REMARK  status: ('A' for Active; 'I' for Inactive)
REMARK    1  A    between atoms: C_6  and  C_26
REMARK    2  A    between atoms: C_8  and  O_22
REMARK    3  A    between atoms: C_10  and  O_18
REMARK    4  A    between atoms: C_13  and  O_20
REMARK    5  A    between atoms: O_22  and  C_24
REMARK    6  A    between atoms: C_26  and  O_27
REMARK                            x       y       z     vdW  Elec       q    Type
REMARK                         _______ _______ _______ _____ _____    ______ ____
ROOT
ATOM      1  O   UNL     1      -1.714   2.051  -1.417  0.00  0.00    -0.351 OA
ATOM      2  O   UNL     1       0.636   1.535   1.318  0.00  0.00    -0.349 OA
ATOM      3  O   UNL     1       4.308  -0.890  -1.108  0.00  0.00    -0.289 OA
ATOM      4  C   UNL     1      -0.599  -0.069  -0.705  0.00  0.00    +0.074 C 
ATOM      5  C   UNL     1      -0.639   1.448  -0.668  0.00  0.00    +0.151 C 
ATOM      6  C   UNL     1       0.832  -0.521  -0.119  0.00  0.00    +0.093 C 
ATOM      7  C   UNL     1      -0.667   1.796   0.783  0.00  0.00    +0.173 C 
ATOM      8  C   UNL     1      -1.751  -0.363   0.344  0.00  0.00    +0.200 C 
ATOM      9  C   UNL     1      -0.388   2.424  -1.797  0.00  0.00    +0.172 C 
ATOM     10  C   UNL     1      -1.730   0.831   1.345  0.00  0.00    +0.180 C 
ATOM     11  C   UNL     1       1.058   0.160   1.275  0.00  0.00    +0.142 C 
ATOM     12  C   UNL     1      -0.897  -0.668  -2.086  0.00  0.00    +0.006 C 
ATOM     13  C   UNL     1       2.026  -0.158  -1.056  0.00  0.00    +0.176 C 
ATOM     14  C   UNL     1       2.484   0.133   1.758  0.00  0.00    +0.002 C 
ATOM     15  C   UNL     1       3.373  -0.468  -0.428  0.00  0.00    +0.196 C 
ATOM     16  C   UNL     1       3.560  -0.180   1.023  0.00  0.00    +0.013 C 
ATOM     17  C   UNL     1       4.948  -0.248   1.576  0.00  0.00    +0.034 C 
ENDROOT
BRANCH  10  18
ATOM     18  O   UNL     1      -2.998   1.475   1.390  0.00  0.00    -0.379 OA
ATOM     19  H   UNL     1      -2.962   2.214   2.018  0.00  0.00    +0.211 HD
ENDBRANCH  10  18
BRANCH  13  20
ATOM     20  O   UNL     1       2.123   1.230  -1.332  0.00  0.00    -0.377 OA
ATOM     21  H   UNL     1       1.299   1.536  -1.742  0.00  0.00    +0.211 HD
ENDBRANCH  13  20
BRANCH   8  22
ATOM     22  O   UNL     1      -3.024  -0.468  -0.290  0.00  0.00    -0.450 OA
BRANCH  22  24
ATOM     23  O   UNL     1      -3.772  -1.844   1.408  0.00  0.00    -0.250 OA
ATOM     24  C   UNL     1      -3.944  -1.244   0.356  0.00  0.00    +0.318 C 
ATOM     25  C   UNL     1      -5.226  -1.263  -0.421  0.00  0.00    +0.121 C 
ENDBRANCH  22  24
ENDBRANCH   8  22
BRANCH   6  26
ATOM     26  C   UNL     1       0.875  -2.070   0.059  0.00  0.00    +0.143 C 
BRANCH  26  27
ATOM     27  O   UNL     1       1.124  -2.628  -1.207  0.00  0.00    -0.382 OA
ATOM     28  H   UNL     1       1.158  -3.595  -1.133  0.00  0.00    +0.210 HD
ENDBRANCH  26  27
ENDBRANCH   6  26
TORSDOF 6
