REMARK  Name = 126960
REMARK  11 active torsions:
REMARK  status: ('A' for Active; 'I' for Inactive)
REMARK    1  A    between atoms: C_1  and  O_2
REMARK    2  A    between atoms: C_1  and  C_4
REMARK    3  A    between atoms: C_1  and  C_14
REMARK    4  A    between atoms: C_4  and  O_5
REMARK    5  A    between atoms: C_4  and  C_7
REMARK    6  A    between atoms: C_7  and  O_8
REMARK    7  A    between atoms: C_7  and  C_11
REMARK    8  A    between atoms: C_11  and  O_12
REMARK    9  A    between atoms: C_14  and  C_16
REMARK   10  A    between atoms: C_14  and  O_17
REMARK   11  A    between atoms: O_17  and  S_18
REMARK                            x       y       z     vdW  Elec       q    Type
REMARK                         _______ _______ _______ _____ _____    ______ ____
ROOT
ATOM      1  C   UNL     1      -0.547  -0.707   0.964  0.00  0.00    +0.178 C 
ENDROOT
BRANCH   1   2
ATOM      2  O   UNL     1      -0.119  -0.968   2.302  0.00  0.00    -0.379 OA
ATOM      3  H   UNL     1      -0.894  -1.042   2.881  0.00  0.00    +0.211 HD
ENDBRANCH   1   2
BRANCH   1   4
ATOM      4  C   UNL     1      -1.420   0.568   0.942  0.00  0.00    +0.178 C 
BRANCH   4   5
ATOM      5  O   UNL     1      -2.504   0.399   1.858  0.00  0.00    -0.379 OA
ATOM      6  H   UNL     1      -2.154   0.175   2.735  0.00  0.00    +0.211 HD
ENDBRANCH   4   5
BRANCH   4   7
ATOM      7  C   UNL     1      -1.990   0.922  -0.441  0.00  0.00    +0.239 C 
BRANCH   7   8
ATOM      8  O   UNL     1      -2.852   2.046  -0.326  0.00  0.00    -0.373 OA
ATOM      9  H   UNL     1      -2.355   2.800   0.029  0.00  0.00    +0.211 HD
ENDBRANCH   7   8
BRANCH   7  11
ATOM     10  O   UNL     1      -4.018  -0.393  -0.773  0.00  0.00    -0.248 OA
ATOM     11  C   UNL     1      -2.830  -0.211  -0.998  0.00  0.00    +0.344 C 
BRANCH  11  12
ATOM     12  O   UNL     1      -2.082  -1.035  -1.775  0.00  0.00    -0.478 OA
ATOM     13  H   UNL     1      -1.175  -0.849  -1.916  0.00  0.00    +0.295 HD
ENDBRANCH  11  12
ENDBRANCH   7  11
ENDBRANCH   4   7
ENDBRANCH   1   4
BRANCH   1  14
ATOM     14  C   UNL     1       0.708  -0.597   0.085  0.00  0.00    +0.240 C 
BRANCH  14  16
ATOM     15  O   UNL     1       1.840  -2.575  -0.759  0.00  0.00    -0.285 OA
ATOM     16  C   UNL     1       1.544  -1.858   0.192  0.00  0.00    +0.242 C 
ENDBRANCH  14  16
BRANCH  14  17
ATOM     17  O   UNL     1       1.516   0.499   0.473  0.00  0.00    -0.192 OA
BRANCH  17  18
ATOM     18  S   UNL     1       2.890   0.833  -0.352  0.00  0.00    +0.239 S 
ATOM     19  O   UNL     1       3.576   2.030   0.518  0.00  0.00    -0.022 OA
ATOM     20  O   UNL     1       3.755  -0.328  -0.257  0.00  0.00    -0.116 OA
ATOM     21  O   UNL     1       2.536   1.373  -1.652  0.00  0.00    -0.116 OA
ENDBRANCH  17  18
ENDBRANCH  14  17
ENDBRANCH   1  14
TORSDOF 11
