126968461
  -OEChem-03292013293D

 75 78  0     1  0  0  0  0  0999 V2000
   -3.2845   -3.0490   -1.4566 O   0  0  0  0  0  0  0  0  0  0  0  0
   -6.0487    3.0240   -2.1233 O   0  0  0  0  0  0  0  0  0  0  0  0
    5.9325   -0.7944   -1.1563 O   0  0  0  0  0  0  0  0  0  0  0  0
    8.1135    2.0135   -0.6027 O   0  0  0  0  0  0  0  0  0  0  0  0
   10.0778    0.9985   -1.1112 O   0  0  0  0  0  0  0  0  0  0  0  0
    7.1167   -0.0263    0.6896 N   0  0  0  0  0  0  0  0  0  0  0  0
   -1.3203   -1.1577   -0.2656 C   0  0  2  0  0  0  0  0  0  0  0  0
   -0.4555   -0.3439    0.7126 C   0  0  1  0  0  0  0  0  0  0  0  0
   -2.8074   -1.2998    0.1507 C   0  0  1  0  0  0  0  0  0  0  0  0
   -3.3209    0.0121    0.8531 C   0  0  2  0  0  0  0  0  0  0  0  0
   -4.8953    0.1605    0.9060 C   0  0  2  0  0  0  0  0  0  0  0  0
    0.9242   -0.4953    0.0172 C   0  0  2  0  0  0  0  0  0  0  0  0
   -5.6131   -0.2969   -0.3938 C   0  0  2  0  0  0  0  0  0  0  0  0
   -0.9814    1.1042    0.7371 C   0  0  0  0  0  0  0  0  0  0  0  0
   -2.4890    1.2333    0.4088 C   0  0  0  0  0  0  0  0  0  0  0  0
   -3.6280   -1.7112   -1.0908 C   0  0  2  0  0  0  0  0  0  0  0  0
   -0.5058   -2.4308   -0.5058 C   0  0  0  0  0  0  0  0  0  0  0  0
    0.9616   -1.9781   -0.4074 C   0  0  0  0  0  0  0  0  0  0  0  0
   -5.1295   -1.6635   -0.8715 C   0  0  0  0  0  0  0  0  0  0  0  0
   -5.3871    1.5893    1.2932 C   0  0  0  0  0  0  0  0  0  0  0  0
   -0.4077   -0.9323    2.1448 C   0  0  0  0  0  0  0  0  0  0  0  0
    2.1434   -0.0776    0.8271 C   0  0  1  0  0  0  0  0  0  0  0  0
   -5.5421    0.7459   -1.5182 C   0  0  0  0  0  0  0  0  0  0  0  0
   -5.3761   -0.7709    2.0663 C   0  0  0  0  0  0  0  0  0  0  0  0
   -5.4546    2.6108    0.1565 C   0  0  0  0  0  0  0  0  0  0  0  0
   -6.1606    2.0664   -1.0754 C   0  0  1  0  0  0  0  0  0  0  0  0
    3.4307   -0.3259    0.0146 C   0  0  0  0  0  0  0  0  0  0  0  0
    2.0087    1.3857    1.2610 C   0  0  0  0  0  0  0  0  0  0  0  0
    4.7142   -0.0008    0.7794 C   0  0  0  0  0  0  0  0  0  0  0  0
    5.9638   -0.3281   -0.0208 C   0  0  0  0  0  0  0  0  0  0  0  0
    8.4460   -0.2313    0.1614 C   0  0  0  0  0  0  0  0  0  0  0  0
    8.9743    0.9697   -0.5801 C   0  0  0  0  0  0  0  0  0  0  0  0
   -1.3125   -0.6173   -1.2274 H   0  0  0  0  0  0  0  0  0  0  0  0
   -2.8768   -2.1166    0.8825 H   0  0  0  0  0  0  0  0  0  0  0  0
   -3.0437   -0.0846    1.9106 H   0  0  0  0  0  0  0  0  0  0  0  0
    0.9109    0.1004   -0.9091 H   0  0  0  0  0  0  0  0  0  0  0  0
   -6.6830   -0.4159   -0.1648 H   0  0  0  0  0  0  0  0  0  0  0  0
   -0.8319    1.5497    1.7272 H   0  0  0  0  0  0  0  0  0  0  0  0
   -0.4451    1.7401    0.0236 H   0  0  0  0  0  0  0  0  0  0  0  0
   -2.8252    2.1438    0.9108 H   0  0  0  0  0  0  0  0  0  0  0  0
   -2.6098    1.3928   -0.6683 H   0  0  0  0  0  0  0  0  0  0  0  0
   -3.3660   -1.0718   -1.9414 H   0  0  0  0  0  0  0  0  0  0  0  0
   -0.7085   -2.8695   -1.4877 H   0  0  0  0  0  0  0  0  0  0  0  0
   -0.7200   -3.1932    0.2513 H   0  0  0  0  0  0  0  0  0  0  0  0
    1.4896   -2.6069    0.3187 H   0  0  0  0  0  0  0  0  0  0  0  0
    1.4652   -2.0944   -1.3736 H   0  0  0  0  0  0  0  0  0  0  0  0
   -5.4220   -2.4457   -0.1600 H   0  0  0  0  0  0  0  0  0  0  0  0
   -5.6431   -1.9384   -1.8025 H   0  0  0  0  0  0  0  0  0  0  0  0
   -4.7817    1.9908    2.1152 H   0  0  0  0  0  0  0  0  0  0  0  0
   -6.4071    1.5097    1.6963 H   0  0  0  0  0  0  0  0  0  0  0  0
   -1.3970   -1.0632    2.5857 H   0  0  0  0  0  0  0  0  0  0  0  0
    0.1526   -0.2883    2.8298 H   0  0  0  0  0  0  0  0  0  0  0  0
    0.0684   -1.9179    2.1725 H   0  0  0  0  0  0  0  0  0  0  0  0
    2.2194   -0.6899    1.7344 H   0  0  0  0  0  0  0  0  0  0  0  0
   -4.5127    0.9139   -1.8526 H   0  0  0  0  0  0  0  0  0  0  0  0
   -6.0786    0.3837   -2.4047 H   0  0  0  0  0  0  0  0  0  0  0  0
   -5.0166   -1.7981    1.9527 H   0  0  0  0  0  0  0  0  0  0  0  0
   -6.4702   -0.8083    2.1215 H   0  0  0  0  0  0  0  0  0  0  0  0
   -5.0149   -0.4064    3.0355 H   0  0  0  0  0  0  0  0  0  0  0  0
   -5.9791    3.5081    0.5097 H   0  0  0  0  0  0  0  0  0  0  0  0
   -4.4606    2.9696   -0.1250 H   0  0  0  0  0  0  0  0  0  0  0  0
   -7.2276    1.9232   -0.8677 H   0  0  0  0  0  0  0  0  0  0  0  0
    3.4023    0.2655   -0.9101 H   0  0  0  0  0  0  0  0  0  0  0  0
    3.4834   -1.3764   -0.2942 H   0  0  0  0  0  0  0  0  0  0  0  0
   -3.7701   -3.2656   -2.2708 H   0  0  0  0  0  0  0  0  0  0  0  0
    1.8261    2.0463    0.4076 H   0  0  0  0  0  0  0  0  0  0  0  0
    2.9184    1.7415    1.7528 H   0  0  0  0  0  0  0  0  0  0  0  0
    1.2308    1.5297    2.0097 H   0  0  0  0  0  0  0  0  0  0  0  0
   -6.4628    3.8477   -1.8140 H   0  0  0  0  0  0  0  0  0  0  0  0
    4.7470   -0.5673    1.7173 H   0  0  0  0  0  0  0  0  0  0  0  0
    4.7667    1.0658    1.0199 H   0  0  0  0  0  0  0  0  0  0  0  0
    7.0350    0.3764    1.6188 H   0  0  0  0  0  0  0  0  0  0  0  0
    8.4334   -1.0850   -0.5225 H   0  0  0  0  0  0  0  0  0  0  0  0
    9.1042   -0.4357    1.0103 H   0  0  0  0  0  0  0  0  0  0  0  0
    8.4801    2.7816   -1.0904 H   0  0  0  0  0  0  0  0  0  0  0  0
  1 16  1  0  0  0  0
  1 65  1  0  0  0  0
  2 26  1  0  0  0  0
  2 69  1  0  0  0  0
  3 30  2  0  0  0  0
  4 32  1  0  0  0  0
  4 75  1  0  0  0  0
  5 32  2  0  0  0  0
  6 30  1  0  0  0  0
  6 31  1  0  0  0  0
  6 72  1  0  0  0  0
  7  8  1  0  0  0  0
  7  9  1  0  0  0  0
  7 17  1  0  0  0  0
  7 33  1  0  0  0  0
  8 12  1  0  0  0  0
  8 14  1  0  0  0  0
  8 21  1  0  0  0  0
  9 10  1  0  0  0  0
  9 16  1  0  0  0  0
  9 34  1  0  0  0  0
 10 11  1  0  0  0  0
 10 15  1  0  0  0  0
 10 35  1  0  0  0  0
 11 13  1  0  0  0  0
 11 20  1  0  0  0  0
 11 24  1  0  0  0  0
 12 18  1  0  0  0  0
 12 22  1  0  0  0  0
 12 36  1  0  0  0  0
 13 19  1  0  0  0  0
 13 23  1  0  0  0  0
 13 37  1  0  0  0  0
 14 15  1  0  0  0  0
 14 38  1  0  0  0  0
 14 39  1  0  0  0  0
 15 40  1  0  0  0  0
 15 41  1  0  0  0  0
 16 19  1  0  0  0  0
 16 42  1  0  0  0  0
 17 18  1  0  0  0  0
 17 43  1  0  0  0  0
 17 44  1  0  0  0  0
 18 45  1  0  0  0  0
 18 46  1  0  0  0  0
 19 47  1  0  0  0  0
 19 48  1  0  0  0  0
 20 25  1  0  0  0  0
 20 49  1  0  0  0  0
 20 50  1  0  0  0  0
 21 51  1  0  0  0  0
 21 52  1  0  0  0  0
 21 53  1  0  0  0  0
 22 27  1  0  0  0  0
 22 28  1  0  0  0  0
 22 54  1  0  0  0  0
 23 26  1  0  0  0  0
 23 55  1  0  0  0  0
 23 56  1  0  0  0  0
 24 57  1  0  0  0  0
 24 58  1  0  0  0  0
 24 59  1  0  0  0  0
 25 26  1  0  0  0  0
 25 60  1  0  0  0  0
 25 61  1  0  0  0  0
 26 62  1  0  0  0  0
 27 29  1  0  0  0  0
 27 63  1  0  0  0  0
 27 64  1  0  0  0  0
 28 66  1  0  0  0  0
 28 67  1  0  0  0  0
 28 68  1  0  0  0  0
 29 30  1  0  0  0  0
 29 70  1  0  0  0  0
 29 71  1  0  0  0  0
 31 32  1  0  0  0  0
 31 73  1  0  0  0  0
 31 74  1  0  0  0  0
M  END
> <PUBCHEM_COMPOUND_CID>
126968461

> <PUBCHEM_CONFORMER_RMSD>
1

> <PUBCHEM_CONFORMER_DIVERSEORDER>
1
73
64
23
43
66
52
10
82
67
53
13
79
75
28
70
46
51
22
81
72
71
31
35
77
48
54
34
20
58
44
12
59
25
38
32
33
24
50
9
39
61
45
36
40
30
27
41
47
55
49
42
8
74
18
80
19
7
11
57
26
60
63
68
17
2
37
21
5
15
69
65
76
6
16
78
29
3
62
14
4
56

> <PUBCHEM_MMFF94_PARTIAL_CHARGES>
16
1 -0.68
16 0.28
2 -0.68
26 0.28
29 0.06
3 -0.57
30 0.57
31 0.36
32 0.66
4 -0.65
5 -0.57
6 -0.73
65 0.4
69 0.4
72 0.37
75 0.5

> <PUBCHEM_EFFECTIVE_ROTOR_COUNT>
9.2

> <PUBCHEM_PHARMACOPHORE_FEATURES>
14
1 1 acceptor
1 1 donor
1 2 acceptor
1 2 donor
1 28 hydrophobe
1 3 acceptor
1 4 acceptor
1 5 acceptor
1 6 donor
3 4 5 32 anion
5 7 8 12 17 18 rings
6 11 13 20 23 25 26 rings
6 7 8 9 10 14 15 rings
6 9 10 11 13 16 19 rings

> <PUBCHEM_HEAVY_ATOM_COUNT>
32

> <PUBCHEM_ATOM_DEF_STEREO_COUNT>
10

> <PUBCHEM_ATOM_UDEF_STEREO_COUNT>
0

> <PUBCHEM_BOND_DEF_STEREO_COUNT>
0

> <PUBCHEM_BOND_UDEF_STEREO_COUNT>
0

> <PUBCHEM_ISOTOPIC_ATOM_COUNT>
0

> <PUBCHEM_COMPONENT_COUNT>
1

> <PUBCHEM_CACTVS_TAUTO_COUNT>
2

> <PUBCHEM_CONFORMER_ID>
0791628D00000001

> <PUBCHEM_MMFF94_ENERGY>
114.8317

> <PUBCHEM_FEATURE_SELFOVERLAP>
71.237

> <PUBCHEM_SHAPE_FINGERPRINT>
10076449 9 17918273178023787787
10165383 225 17918280823297554091
10411042 1 17840579629248670583
10669705 176 18343585119081465462
11007060 377 18270676588162666290
11135926 11 17775570818580459095
11181472 205 18261958432692878296
11315181 36 18202566193786967035
11456790 92 13623524676617150668
11578821 258 18333453171051570596
12082328 90 17675924296052943714
13583140 156 18113614565730172971
13690498 29 17773865584116625063
13782708 43 11671772771744677678
14251764 18 18413108368977170698
14856354 85 18272088348593028295
15021287 119 18187086186611977141
15183329 4 18272366473653191610
15276724 80 18040428885599965724
15461852 350 18130784589936513863
1577012 14 18333446548221509794
16994733 274 18187359926901090608
1754908 1 13045942430827298748
1754911 235 18412268355342806068
18681886 176 18059565923260042586
195137 175 18408605864403131548
21267235 1 18131068298950871867
21709351 56 18272081712984262241
21756936 100 17894631457164658219
22899556 105 17763191636212008087
23559900 14 17632005429257342299
23576562 1 18267579281324687908
2838139 119 18187083974661595620
335352 9 18130785672732411127
4015057 19 16199855272297995819
4169191 19 18341052934664272832
44389302 135 9943265693134574468
44802255 64 18412820270987239151
4616759 239 12829484827456186317
5104073 3 11458967759503428932
5265222 85 17916302917664356118
58083652 198 12685099227991479950
59755656 215 18131348570861654726
6201320 82 18192437372435195829
6328613 192 18409167727455585408

> <PUBCHEM_SHAPE_MULTIPOLES>
624.22
24.58
2.5
1.58
67.13
0.12
0.14
13.04
-8.04
-3.96
-1.11
-2.02
0.21
0.13

> <PUBCHEM_SHAPE_SELFOVERLAP>
1299.269

> <PUBCHEM_SHAPE_VOLUME>
349.9

> <PUBCHEM_COORDINATE_TYPE>
2
5
10

$$$$
