126927
  -OEChem-03292013323D

 46 46  0     1  0  0  0  0  0999 V2000
   -1.2366   -2.8642   -0.3870 O   0  0  0  0  0  0  0  0  0  0  0  0
   -2.9297   -2.6671    1.1265 O   0  0  0  0  0  0  0  0  0  0  0  0
    0.2509   -0.2063   -2.5370 O   0  0  0  0  0  0  0  0  0  0  0  0
    1.2459   -1.6029    1.7439 O   0  0  0  0  0  0  0  0  0  0  0  0
    2.9355   -2.8876    0.9407 O   0  0  0  0  0  0  0  0  0  0  0  0
    5.3569    2.2931    1.0659 O   0  0  0  0  0  0  0  0  0  0  0  0
    5.6320    1.3856   -0.9953 O   0  0  0  0  0  0  0  0  0  0  0  0
   -4.0746   -0.8056   -0.4904 N   0  0  0  0  0  0  0  0  0  0  0  0
    0.8693   -0.2621   -0.2974 N   0  0  0  0  0  0  0  0  0  0  0  0
   -1.9890    0.2509    0.0935 C   0  0  1  0  0  0  0  0  0  0  0  0
   -3.2060    1.0670    0.5754 C   0  0  2  0  0  0  0  0  0  0  0  0
   -2.6241   -0.9832   -0.5743 C   0  0  1  0  0  0  0  0  0  0  0  0
   -4.3078    0.6321   -0.3821 C   0  0  0  0  0  0  0  0  0  0  0  0
   -1.0824    0.9798   -0.9032 C   0  0  0  0  0  0  0  0  0  0  0  0
   -3.0402    2.5479    0.6590 C   0  0  0  0  0  0  0  0  0  0  0  0
   -2.3104   -2.2449    0.1613 C   0  0  0  0  0  0  0  0  0  0  0  0
    0.0680    0.1138   -1.3655 C   0  0  0  0  0  0  0  0  0  0  0  0
   -1.9824    3.0429    1.6001 C   0  0  0  0  0  0  0  0  0  0  0  0
   -3.7941    3.3879   -0.0655 C   0  0  0  0  0  0  0  0  0  0  0  0
    2.0413   -1.0948   -0.4441 C   0  0  1  0  0  0  0  0  0  0  0  0
    3.3120   -0.2843   -0.7269 C   0  0  0  0  0  0  0  0  0  0  0  0
    3.7384    0.6955    0.3738 C   0  0  0  0  0  0  0  0  0  0  0  0
    2.1371   -1.9724    0.7870 C   0  0  0  0  0  0  0  0  0  0  0  0
    4.9898    1.4791    0.0415 C   0  0  0  0  0  0  0  0  0  0  0  0
   -1.4104   -0.0367    0.9804 H   0  0  0  0  0  0  0  0  0  0  0  0
   -3.4763    0.7081    1.5809 H   0  0  0  0  0  0  0  0  0  0  0  0
   -2.3598   -1.0985   -1.6311 H   0  0  0  0  0  0  0  0  0  0  0  0
   -4.2162    1.0634   -1.3858 H   0  0  0  0  0  0  0  0  0  0  0  0
   -5.3130    0.8362    0.0014 H   0  0  0  0  0  0  0  0  0  0  0  0
   -4.4283   -1.2425    0.3623 H   0  0  0  0  0  0  0  0  0  0  0  0
   -1.6500    1.2837   -1.7916 H   0  0  0  0  0  0  0  0  0  0  0  0
   -0.6389    1.8890   -0.4901 H   0  0  0  0  0  0  0  0  0  0  0  0
   -2.2964    2.8574    2.6332 H   0  0  0  0  0  0  0  0  0  0  0  0
   -1.0183    2.5512    1.4591 H   0  0  0  0  0  0  0  0  0  0  0  0
   -1.8163    4.1207    1.4956 H   0  0  0  0  0  0  0  0  0  0  0  0
   -4.5776    3.0862   -0.7477 H   0  0  0  0  0  0  0  0  0  0  0  0
   -3.6457    4.4610    0.0201 H   0  0  0  0  0  0  0  0  0  0  0  0
    0.6767    0.1183    0.6246 H   0  0  0  0  0  0  0  0  0  0  0  0
    1.8570   -1.7693   -1.2896 H   0  0  0  0  0  0  0  0  0  0  0  0
   -1.0108   -3.6937    0.0854 H   0  0  0  0  0  0  0  0  0  0  0  0
    3.1770    0.2757   -1.6616 H   0  0  0  0  0  0  0  0  0  0  0  0
    4.1406   -0.9818   -0.9074 H   0  0  0  0  0  0  0  0  0  0  0  0
    2.9357    1.4189    0.5545 H   0  0  0  0  0  0  0  0  0  0  0  0
    3.9301    0.1438    1.3009 H   0  0  0  0  0  0  0  0  0  0  0  0
    1.3199   -2.1606    2.5474 H   0  0  0  0  0  0  0  0  0  0  0  0
    6.1779    2.7897    0.8617 H   0  0  0  0  0  0  0  0  0  0  0  0
  1 16  1  0  0  0  0
  1 40  1  0  0  0  0
  2 16  2  0  0  0  0
  3 17  2  0  0  0  0
  4 23  1  0  0  0  0
  4 45  1  0  0  0  0
  5 23  2  0  0  0  0
  6 24  1  0  0  0  0
  6 46  1  0  0  0  0
  7 24  2  0  0  0  0
  8 12  1  0  0  0  0
  8 13  1  0  0  0  0
  8 30  1  0  0  0  0
  9 17  1  0  0  0  0
  9 20  1  0  0  0  0
  9 38  1  0  0  0  0
 10 11  1  0  0  0  0
 10 12  1  0  0  0  0
 10 14  1  0  0  0  0
 10 25  1  0  0  0  0
 11 13  1  0  0  0  0
 11 15  1  0  0  0  0
 11 26  1  0  0  0  0
 12 16  1  0  0  0  0
 12 27  1  0  0  0  0
 13 28  1  0  0  0  0
 13 29  1  0  0  0  0
 14 17  1  0  0  0  0
 14 31  1  0  0  0  0
 14 32  1  0  0  0  0
 15 18  1  0  0  0  0
 15 19  2  0  0  0  0
 18 33  1  0  0  0  0
 18 34  1  0  0  0  0
 18 35  1  0  0  0  0
 19 36  1  0  0  0  0
 19 37  1  0  0  0  0
 20 21  1  0  0  0  0
 20 23  1  0  0  0  0
 20 39  1  0  0  0  0
 21 22  1  0  0  0  0
 21 41  1  0  0  0  0
 21 42  1  0  0  0  0
 22 24  1  0  0  0  0
 22 43  1  0  0  0  0
 22 44  1  0  0  0  0
M  END
> <PUBCHEM_COMPOUND_CID>
126927

> <PUBCHEM_CONFORMER_RMSD>
1

> <PUBCHEM_CONFORMER_DIVERSEORDER>
1
43
56
6
137
8
128
75
116
49
38
80
51
118
114
28
88
40
124
132
25
109
87
22
102
122
27
52
92
39
34
107
103
65
135
12
4
63
117
21
121
115
44
54
50
85
86
33
5
84
112
2
82
30
136
68
71
104
47
78
101
105
29
98
45
36
3
127
97
14
17
113
99
125
108
58
96
74
93
26
131
123
24
37
72
106
64
129
69
23
83
31
130
9
70
48
94
126
16
91
19
119
62
100
18
7
59
76
73
134
10
89
79
95
111
60
110
61
35
42
13
41
55
11
120
133
66
46
20
57
81
32
67
90
77
53
15

> <PUBCHEM_MMFF94_PARTIAL_CHARGES>
29
1 -0.65
11 0.14
12 0.33
13 0.27
14 0.06
15 -0.28
16 0.66
17 0.57
18 0.14
19 -0.3
2 -0.57
20 0.36
22 0.06
23 0.66
24 0.66
3 -0.57
30 0.36
36 0.15
37 0.15
38 0.37
4 -0.65
40 0.5
45 0.5
46 0.5
5 -0.57
6 -0.65
7 -0.57
8 -0.9
9 -0.73

> <PUBCHEM_EFFECTIVE_ROTOR_COUNT>
11

> <PUBCHEM_PHARMACOPHORE_FEATURES>
14
1 1 acceptor
1 2 acceptor
1 3 acceptor
1 4 acceptor
1 5 acceptor
1 6 acceptor
1 7 acceptor
1 8 cation
1 8 donor
1 9 donor
3 1 2 16 anion
3 4 5 23 anion
3 6 7 24 anion
5 8 10 11 12 13 rings

> <PUBCHEM_HEAVY_ATOM_COUNT>
24

> <PUBCHEM_ATOM_DEF_STEREO_COUNT>
2

> <PUBCHEM_ATOM_UDEF_STEREO_COUNT>
2

> <PUBCHEM_BOND_DEF_STEREO_COUNT>
0

> <PUBCHEM_BOND_UDEF_STEREO_COUNT>
0

> <PUBCHEM_ISOTOPIC_ATOM_COUNT>
0

> <PUBCHEM_COMPONENT_COUNT>
1

> <PUBCHEM_CACTVS_TAUTO_COUNT>
2

> <PUBCHEM_CONFORMER_ID>
0001EFCF00000001

> <PUBCHEM_MMFF94_ENERGY>
45.0158

> <PUBCHEM_FEATURE_SELFOVERLAP>
71.224

> <PUBCHEM_SHAPE_FINGERPRINT>
10366900 7 18272078452687216945
12173636 292 18412542081180110719
12633257 1 18049155571159158138
12788726 201 18343294860775288961
12892183 10 18187657855765532683
13032168 30 18114744965787217747
13140716 1 17975423730355319083
13965767 371 17827933818855759989
14081887 123 18339071708936693483
14178342 30 18114472231147874054
14251751 18 7925626696576384772
14341114 328 18186517735454419372
14739800 52 18270944813813978864
14787075 74 18049723211369587828
20510252 161 18271812285506699153
21756936 100 18201145659788438764
23559900 14 17771631148380476398
34934 24 18186794794708780271
3633792 109 18044074801437346719
392239 28 18193562387508969328
469060 322 17824847730334410491
474 4 18187370952040142556
5104073 3 18188491276514627778
633830 44 17984700017885499269

> <PUBCHEM_SHAPE_MULTIPOLES>
442.86
10.03
3.72
1.42
10.3
0.34
-0.23
6.7
0.57
-1.64
1.56
0.33
-0.04
-0.64

> <PUBCHEM_SHAPE_SELFOVERLAP>
898.146

> <PUBCHEM_SHAPE_VOLUME>
257.9

> <PUBCHEM_COORDINATE_TYPE>
2
5
10

$$$$
