REMARK  Name = 126968862
REMARK  11 active torsions:
REMARK  status: ('A' for Active; 'I' for Inactive)
REMARK    1  A    between atoms: C_2  and  O_7
REMARK    2  A    between atoms: C_3  and  O_9
REMARK    3  A    between atoms: C_4  and  O_11
REMARK    4  A    between atoms: C_5  and  O_17
REMARK    5  A    between atoms: C_6  and  C_14
REMARK    6  A    between atoms: C_14  and  O_15
REMARK    7  A    between atoms: O_17  and  C_19
REMARK    8  A    between atoms: C_19  and  C_20
REMARK    9  A    between atoms: C_20  and  C_22
REMARK   10  A    between atoms: C_23  and  C_28
REMARK   11  A    between atoms: C_28  and  C_29
REMARK                            x       y       z     vdW  Elec       q    Type
REMARK                         _______ _______ _______ _____ _____    ______ ____
ROOT
ATOM      1  O   UNL     1      -2.749  -0.019  -0.438  0.00  0.00    -0.307 OA
ATOM      2  C   UNL     1      -1.639  -1.495   1.786  0.00  0.00    +0.173 C 
ATOM      3  C   UNL     1      -2.612  -0.323   1.989  0.00  0.00    +0.211 C 
ATOM      4  C   UNL     1      -1.748  -2.089   0.376  0.00  0.00    +0.178 C 
ATOM      5  C   UNL     1      -2.602   0.662   0.813  0.00  0.00    +0.321 C 
ATOM      6  C   UNL     1      -1.732  -0.983  -0.679  0.00  0.00    +0.246 C 
ENDROOT
BRANCH   2   7
ATOM      7  O   UNL     1      -0.302  -1.061   2.019  0.00  0.00    -0.379 OA
ATOM      8  H   UNL     1      -0.235  -0.685   2.911  0.00  0.00    +0.211 HD
ENDBRANCH   2   7
BRANCH   3   9
ATOM      9  O   UNL     1      -3.941  -0.825   2.124  0.00  0.00    -0.377 OA
ATOM     10  H   UNL     1      -3.976  -1.452   2.863  0.00  0.00    +0.211 HD
ENDBRANCH   3   9
BRANCH   4  11
ATOM     11  O   UNL     1      -2.971  -2.820   0.273  0.00  0.00    -0.379 OA
ATOM     12  H   UNL     1      -2.985  -3.523   0.941  0.00  0.00    +0.211 HD
ENDBRANCH   4  11
BRANCH   6  14
ATOM     13  O   UNL     1      -2.963  -1.224  -2.742  0.00  0.00    -0.247 OA
ATOM     14  C   UNL     1      -2.007  -1.528  -2.044  0.00  0.00    +0.344 C 
BRANCH  14  15
ATOM     15  O   UNL     1      -1.048  -2.414  -2.409  0.00  0.00    -0.478 OA
ATOM     16  H   UNL     1      -0.339  -2.603  -1.826  0.00  0.00    +0.295 HD
ENDBRANCH  14  15
ENDBRANCH   6  14
BRANCH   5  17
ATOM     17  O   UNL     1      -1.418   1.453   0.859  0.00  0.00    -0.421 OA
BRANCH  17  19
ATOM     18  O   UNL     1      -2.138   2.634  -0.982  0.00  0.00    -0.250 OA
ATOM     19  C   UNL     1      -1.310   2.416  -0.108  0.00  0.00    +0.322 C 
BRANCH  19  20
ATOM     20  C   UNL     1       0.013   3.154   0.052  0.00  0.00    +0.121 C 
ATOM     21  C   UNL     1       0.139   4.272  -0.987  0.00  0.00    +0.016 C 
BRANCH  20  22
ATOM     22  C   UNL     1       1.198   2.203   0.018  0.00  0.00    -0.012 C 
ATOM     23  C   UNL     1       3.369   0.452  -0.043  0.00  0.00    -0.022 C 
ATOM     24  C   UNL     1       1.468   1.466  -1.136  0.00  0.00    -0.004 C 
ATOM     25  C   UNL     1       2.013   2.063   1.141  0.00  0.00    -0.004 C 
ATOM     26  C   UNL     1       2.554   0.591  -1.166  0.00  0.00    -0.005 C 
ATOM     27  C   UNL     1       3.099   1.188   1.111  0.00  0.00    -0.005 C 
BRANCH  23  28
ATOM     28  C   UNL     1       4.530  -0.484  -0.075  0.00  0.00    +0.026 C 
BRANCH  28  29
ATOM     29  C   UNL     1       4.202  -1.927   0.381  0.00  0.00    +0.004 C 
ATOM     30  C   UNL     1       3.128  -2.571  -0.500  0.00  0.00    +0.000 C 
ATOM     31  C   UNL     1       5.466  -2.791   0.366  0.00  0.00    +0.000 C 
ENDBRANCH  28  29
ENDBRANCH  23  28
ENDBRANCH  20  22
ENDBRANCH  19  20
ENDBRANCH  17  19
ENDBRANCH   5  17
TORSDOF 11
