REMARK  Name = 126923
REMARK  10 active torsions:
REMARK  status: ('A' for Active; 'I' for Inactive)
REMARK    1  A    between atoms: N_2  and  C_4
REMARK    2  A    between atoms: N_2  and  C_5
REMARK    3  A    between atoms: C_3  and  C_5
REMARK    4  A    between atoms: C2*_8  and  O2*_12
REMARK    5  A    between atoms: C3*_10  and  O3*_14
REMARK    6  A    between atoms: C4*_11  and  C5*_16
REMARK    7  A    between atoms: C5*_16  and  O5*_17
REMARK    8  A    between atoms: CA_20  and  N_21
REMARK    9  A    between atoms: CA_20  and  C_26
REMARK   10  A    between atoms: C_26  and  O_27
REMARK                            x       y       z     vdW  Elec       q    Type
REMARK                         _______ _______ _______ _____ _____    ______ ____
ROOT
ATOM      1  N   UNL     1      -1.657  -1.026   1.378  0.00  0.00    -0.199 NA
ENDROOT
BRANCH   1   3
ATOM      2  N   UNL     1       0.433  -0.489   0.851  0.00  0.00    -0.111 NA
ATOM      3  C   UNL     1      -0.415  -1.452   1.323  0.00  0.00    +0.198 C 
ENDBRANCH   1   3
BRANCH   1   5
ATOM      4  C   UNL     1      -0.318   0.623   0.588  0.00  0.00    +0.025 C 
ATOM      5  C   UNL     1      -1.604   0.267   0.920  0.00  0.00    +0.086 C 
ENDBRANCH   1   5
TORSDOF 2
REMARK  Name = 126923
REMARK  10 active torsions:
REMARK  status: ('A' for Active; 'I' for Inactive)
REMARK    1  A    between atoms: N_2  and  C_4
REMARK    2  A    between atoms: N_2  and  C_5
REMARK    3  A    between atoms: C_3  and  C_5
REMARK    4  A    between atoms: C2*_8  and  O2*_12
REMARK    5  A    between atoms: C3*_10  and  O3*_14
REMARK    6  A    between atoms: C4*_11  and  C5*_16
REMARK    7  A    between atoms: C5*_16  and  O5*_17
REMARK    8  A    between atoms: CA_20  and  N_21
REMARK    9  A    between atoms: CA_20  and  C_26
REMARK   10  A    between atoms: C_26  and  O_27
REMARK                            x       y       z     vdW  Elec       q    Type
REMARK                         _______ _______ _______ _____ _____    ______ ____
ROOT
ATOM      1  O4* UNL     1       2.518   0.642   0.906  0.00  0.00    -0.348 OA
ATOM      2  C2* UNL     1       2.281  -1.040  -0.744  0.00  0.00    +0.169 C 
ATOM      3  C1* UNL     1       1.876  -0.624   0.662  0.00  0.00    +0.174 C 
ATOM      4  C3* UNL     1       3.693  -0.494  -0.825  0.00  0.00    +0.169 C 
ATOM      5  C4* UNL     1       3.577   0.822  -0.063  0.00  0.00    +0.174 C 
ENDROOT
BRANCH   2   6
ATOM      6  O2* UNL     1       2.218  -2.441  -0.917  0.00  0.00    -0.379 OA
ATOM      7  H2* UNL     1       1.296  -2.734  -0.856  0.00  0.00    +0.211 HD
ENDBRANCH   2   6
BRANCH   4   8
ATOM      8  O3* UNL     1       4.579  -1.360  -0.116  0.00  0.00    -0.379 OA
ATOM      9  H3* UNL     1       4.660  -2.201  -0.592  0.00  0.00    +0.211 HD
ENDBRANCH   4   8
BRANCH   5  10
ATOM     10  C5* UNL     1       3.211   1.997  -0.960  0.00  0.00    +0.169 C 
BRANCH  10  11
ATOM     11  O5* UNL     1       3.117   3.164  -0.163  0.00  0.00    -0.379 OA
ATOM     12  H5* UNL     1       2.884   3.921  -0.723  0.00  0.00    +0.211 HD
ENDBRANCH  10  11
ENDBRANCH   5  10
TORSDOF 4
REMARK  Name = 126923
REMARK  10 active torsions:
REMARK  status: ('A' for Active; 'I' for Inactive)
REMARK    1  A    between atoms: N_2  and  C_4
REMARK    2  A    between atoms: N_2  and  C_5
REMARK    3  A    between atoms: C_3  and  C_5
REMARK    4  A    between atoms: C2*_8  and  O2*_12
REMARK    5  A    between atoms: C3*_10  and  O3*_14
REMARK    6  A    between atoms: C4*_11  and  C5*_16
REMARK    7  A    between atoms: C5*_16  and  O5*_17
REMARK    8  A    between atoms: CA_20  and  N_21
REMARK    9  A    between atoms: CA_20  and  C_26
REMARK   10  A    between atoms: C_26  and  O_27
REMARK                            x       y       z     vdW  Elec       q    Type
REMARK                         _______ _______ _______ _____ _____    ______ ____
ROOT
ATOM      1  C   UNL     1      -2.825   1.083   0.836  0.00  0.00    -0.013 C 
ATOM      2  CA  UNL     1      -3.573   0.983  -0.516  0.00  0.00    +0.036 C 
ENDROOT
BRANCH   2   3
ATOM      3  N   UNL     1      -4.764   1.836  -0.509  0.00  0.00    +0.389 N 
ATOM      4  H1  UNL     1      -4.489   2.804  -0.344  0.00  0.00    -0.088 HD
ATOM      5  H2  UNL     1      -5.397   1.532   0.231  0.00  0.00    -0.088 HD
ATOM      6  H3  UNL     1      -5.238   1.767  -1.410  0.00  0.00    -0.088 HD
ENDBRANCH   2   3
BRANCH   2   8
ATOM      7  OXT UNL     1      -5.118  -0.900  -0.374  0.00  0.00    -0.253 OA
ATOM      8  C   UNL     1      -4.054  -0.436  -0.766  0.00  0.00    +0.293 C 
BRANCH   8   9
ATOM      9  O   UNL     1      -3.173  -1.153  -1.512  0.00  0.00    -0.482 OA
ATOM     10  H   UNL     1      -2.369  -0.762  -1.792  0.00  0.00    +0.295 HD
ENDBRANCH   8   9
ENDBRANCH   2   8
TORSDOF 3
