REMARK  Name = 126953
REMARK  13 active torsions:
REMARK  status: ('A' for Active; 'I' for Inactive)
REMARK    1  A    between atoms: N_1  and  C_4
REMARK    2  A    between atoms: N_1  and  C_22
REMARK    3  A    between atoms: C_4  and  C_5
REMARK    4  A    between atoms: C_5  and  N_8
REMARK    5  A    between atoms: N_8  and  C_13
REMARK    6  A    between atoms: C_18  and  N_21
REMARK    7  A    between atoms: C_22  and  C_23
REMARK    8  A    between atoms: C_23  and  O_24
REMARK    9  A    between atoms: C_23  and  C_26
REMARK   10  A    between atoms: C_26  and  O_27
REMARK   11  A    between atoms: O_27  and  C_28
REMARK   12  A    between atoms: C_29  and  C_34
REMARK   13  A    between atoms: C_34  and  C_35
REMARK                            x       y       z     vdW  Elec       q    Type
REMARK                         _______ _______ _______ _____ _____    ______ ____
ROOT
ATOM      1  N   UNL     1      -1.175   2.528   0.114  0.00  0.00    +0.387 N 
ATOM      2  H   UNL     1      -1.380   3.477   0.427  0.00  0.00    -0.084 HD
ATOM      3  H   UNL     1      -1.644   1.847   0.711  0.00  0.00    -0.084 HD
ENDROOT
BRANCH   1   4
ATOM      4  C   UNL     1       0.265   2.301   0.187  0.00  0.00    -0.063 C 
BRANCH   4   5
ATOM      5  C   UNL     1       0.860   2.511   1.599  0.00  0.00    +0.035 C 
ATOM      6  C   UNL     1       0.311   1.479   2.595  0.00  0.00    +0.017 C 
ATOM      7  C   UNL     1       0.606   3.930   2.123  0.00  0.00    +0.017 C 
BRANCH   5   8
ATOM      8  N   UNL     1       2.301   2.325   1.505  0.00  0.00    -0.336 N 
ATOM      9  H   UNL     1       2.887   3.072   1.768  0.00  0.00    +0.147 HD
BRANCH   8  13
ATOM     10  O   UNL     1       3.500   0.907  -2.431  0.00  0.00    -0.241 OA
ATOM     11  N   UNL     1       3.017   1.647  -1.365  0.00  0.00    -0.047 NA
ATOM     12  N   UNL     1       3.991  -0.322  -2.025  0.00  0.00    -0.047 NA
ATOM     13  C   UNL     1       2.887   1.157   1.067  0.00  0.00    +0.067 C 
ATOM     14  C   UNL     1       3.201   0.886  -0.278  0.00  0.00    +0.158 A 
ATOM     15  C   UNL     1       3.221   0.123   1.960  0.00  0.00    +0.018 C 
ATOM     16  C   UNL     1       3.820  -0.365  -0.698  0.00  0.00    +0.167 A 
ATOM     17  C   UNL     1       3.824  -1.096   1.551  0.00  0.00    +0.027 C 
ATOM     18  C   UNL     1       4.146  -1.387   0.213  0.00  0.00    +0.165 C 
BRANCH  18  21
ATOM     19  O   UNL     1       5.016  -3.475   0.660  0.00  0.00    -0.126 OA
ATOM     20  O   UNL     1       5.003  -2.772  -1.419  0.00  0.00    -0.126 OA
ATOM     21  N   UNL     1       4.748  -2.596  -0.200  0.00  0.00    +0.059 N 
ENDBRANCH  18  21
ENDBRANCH   8  13
ENDBRANCH   5   8
ENDBRANCH   4   5
ENDBRANCH   1   4
BRANCH   1  22
ATOM     22  C   UNL     1      -1.656   2.361  -1.250  0.00  0.00    -0.048 C 
BRANCH  22  23
ATOM     23  C   UNL     1      -3.173   2.535  -1.350  0.00  0.00    +0.133 C 
BRANCH  23  24
ATOM     24  O   UNL     1      -3.559   2.317  -2.710  0.00  0.00    -0.383 OA
ATOM     25  H   UNL     1      -3.071   2.926  -3.286  0.00  0.00    +0.210 HD
ENDBRANCH  23  24
BRANCH  23  26
ATOM     26  C   UNL     1      -3.953   1.567  -0.462  0.00  0.00    +0.232 C 
BRANCH  26  27
ATOM     27  O   UNL     1      -3.664   0.234  -0.871  0.00  0.00    -0.473 OA
BRANCH  27  28
ATOM     28  C   UNL     1      -4.273  -0.771  -0.167  0.00  0.00    +0.135 C 
ATOM     29  C   UNL     1      -3.515  -1.728   0.508  0.00  0.00    +0.016 C 
ATOM     30  C   UNL     1      -5.666  -0.830  -0.130  0.00  0.00    +0.037 C 
ATOM     31  C   UNL     1      -4.152  -2.745   1.221  0.00  0.00    -0.001 C 
ATOM     32  C   UNL     1      -6.302  -1.846   0.583  0.00  0.00    +0.003 C 
ATOM     33  C   UNL     1      -5.545  -2.803   1.258  0.00  0.00    -0.000 C 
BRANCH  29  34
ATOM     34  C   UNL     1      -2.023  -1.681   0.479  0.00  0.00    +0.055 C 
BRANCH  34  35
ATOM     35  C   UNL     1      -1.433  -2.460  -0.667  0.00  0.00    -0.021 C 
ATOM     36  C   UNL     1      -0.628  -1.933  -1.597  0.00  0.00    -0.005 C 
ENDBRANCH  34  35
ENDBRANCH  29  34
ENDBRANCH  27  28
ENDBRANCH  26  27
ENDBRANCH  23  26
ENDBRANCH  22  23
ENDBRANCH   1  22
TORSDOF 13
