REMARK  Name = 127032720
REMARK  4 active torsions:
REMARK  status: ('A' for Active; 'I' for Inactive)
REMARK    1  A    between atoms: C_6  and  O_28
REMARK    2  A    between atoms: C_8  and  O_30
REMARK    3  A    between atoms: C_11  and  O_32
REMARK    4  A    between atoms: C_13  and  O_34
REMARK                            x       y       z     vdW  Elec       q    Type
REMARK                         _______ _______ _______ _____ _____    ______ ____
ROOT
ATOM      1  O   UNL     1      -1.543   1.382   0.259  0.00  0.00    -0.480 OA
ATOM      2  O   UNL     1       3.309   2.579  -0.139  0.00  0.00    -0.293 OA
ATOM      3  O   UNL     1       5.650  -1.491   0.520  0.00  0.00    -0.296 OA
ATOM      4  O   UNL     1      -5.330  -0.181  -0.365  0.00  0.00    -0.426 OA
ATOM      5  O   UNL     1      -4.497  -2.276  -0.535  0.00  0.00    -0.245 OA
ATOM      6  C   UNL     1       2.135  -0.774  -0.457  0.00  0.00    +0.126 C 
ATOM      7  C   UNL     1      -0.449  -0.742  -0.344  0.00  0.00    +0.073 C 
ATOM      8  C   UNL     1       2.157   0.521   0.392  0.00  0.00    +0.190 C 
ATOM      9  C   UNL     1       0.833  -1.615  -0.177  0.00  0.00    +0.034 C 
ATOM     10  C   UNL     1      -0.427   0.513   0.572  0.00  0.00    +0.163 C 
ATOM     11  C   UNL     1       0.851   1.342   0.264  0.00  0.00    +0.180 C 
ATOM     12  C   UNL     1       3.392  -1.630  -0.196  0.00  0.00    +0.095 C 
ATOM     13  C   UNL     1      -1.785  -1.498  -0.181  0.00  0.00    +0.150 C 
ATOM     14  C   UNL     1       3.384   1.357   0.015  0.00  0.00    +0.185 C 
ATOM     15  C   UNL     1       4.725   0.638  -0.128  0.00  0.00    +0.105 C 
ATOM     16  C   UNL     1       0.751  -2.870  -1.067  0.00  0.00    +0.003 C 
ATOM     17  C   UNL     1      -0.524   0.214   2.084  0.00  0.00    +0.046 C 
ATOM     18  C   UNL     1       4.661  -0.865   0.125  0.00  0.00    +0.159 C 
ATOM     19  C   UNL     1      -2.939  -0.533  -0.145  0.00  0.00    +0.114 A 
ATOM     20  C   UNL     1      -2.769   0.789   0.026  0.00  0.00    +0.141 A 
ATOM     21  C   UNL     1       5.689   1.270   0.891  0.00  0.00    +0.015 C 
ATOM     22  C   UNL     1       5.260   0.853  -1.549  0.00  0.00    +0.015 C 
ATOM     23  C   UNL     1      -3.890   1.716  -0.007  0.00  0.00    +0.042 A 
ATOM     24  C   UNL     1      -4.301  -1.077  -0.365  0.00  0.00    +0.347 A 
ATOM     25  C   UNL     1      -5.123   1.210  -0.190  0.00  0.00    +0.126 A 
ATOM     26  C   UNL     1      -3.579   3.180   0.150  0.00  0.00    +0.037 C 
ATOM     27  C   UNL     1      -6.409   1.977  -0.218  0.00  0.00    +0.072 C 
ENDROOT
BRANCH   6  28
ATOM     28  O   UNL     1       2.128  -0.395  -1.842  0.00  0.00    -0.384 OA
ATOM     29  H   UNL     1       1.343   0.145  -2.025  0.00  0.00    +0.210 HD
ENDBRANCH   6  28
BRANCH   8  30
ATOM     30  O   UNL     1       2.387   0.196   1.763  0.00  0.00    -0.376 OA
ATOM     31  H   UNL     1       1.651  -0.341   2.096  0.00  0.00    +0.211 HD
ENDBRANCH   8  30
BRANCH  11  32
ATOM     32  O   UNL     1       0.750   1.853  -1.073  0.00  0.00    -0.378 OA
ATOM     33  H   UNL     1       1.542   2.374  -1.280  0.00  0.00    +0.211 HD
ENDBRANCH  11  32
BRANCH  13  34
ATOM     34  O   UNL     1      -1.778  -2.292   1.000  0.00  0.00    -0.349 OA
ATOM     35  C   UNL     1      -2.718  -3.353   0.919  0.00  0.00    +0.174 C 
ENDBRANCH  13  34
TORSDOF 4
