REMARK  Name = 127029612
REMARK  10 active torsions:
REMARK  status: ('A' for Active; 'I' for Inactive)
REMARK    1  A    between atoms: C_1  and  O_2
REMARK    2  A    between atoms: C_1  and  C_5
REMARK    3  A    between atoms: C_1  and  C_8
REMARK    4  A    between atoms: C_1  and  C_19
REMARK    5  A    between atoms: C_5  and  O_6
REMARK    6  A    between atoms: C_8  and  C_9
REMARK    7  A    between atoms: C_9  and  C_11
REMARK    8  A    between atoms: C_13  and  O_17
REMARK    9  A    between atoms: C_19  and  C_21
REMARK   10  A    between atoms: C_21  and  O_22
REMARK                            x       y       z     vdW  Elec       q    Type
REMARK                         _______ _______ _______ _____ _____    ______ ____
ROOT
ATOM      1  C   UNL     1      -2.362  -0.539   0.339  0.00  0.00    +0.188 C 
ENDROOT
BRANCH   1   2
ATOM      2  O   UNL     1      -2.945  -0.222   1.617  0.00  0.00    -0.376 OA
ATOM      3  H   UNL     1      -2.695   0.680   1.872  0.00  0.00    +0.211 HD
ENDBRANCH   1   2
BRANCH   1   5
ATOM      4  O   UNL     1      -3.496  -2.631   0.876  0.00  0.00    -0.248 OA
ATOM      5  C   UNL     1      -2.840  -1.969   0.079  0.00  0.00    +0.339 C 
BRANCH   5   6
ATOM      6  O   UNL     1      -2.491  -2.456  -1.137  0.00  0.00    -0.479 OA
ATOM      7  H   UNL     1      -1.990  -1.928  -1.727  0.00  0.00    +0.295 HD
ENDBRANCH   5   6
ENDBRANCH   1   5
BRANCH   1   8
ATOM      8  C   UNL     1      -0.839  -0.497   0.569  0.00  0.00    +0.043 C 
BRANCH   8   9
ATOM      9  C   UNL     1       0.032  -0.447  -0.690  0.00  0.00    +0.034 C 
BRANCH   9  11
ATOM     10  N   UNL     1       3.353   1.042   0.387  0.00  0.00    -0.211 NA
ATOM     11  C   UNL     1       1.495  -0.322  -0.341  0.00  0.00    +0.031 C 
ATOM     12  C   UNL     1       2.331  -1.430  -0.422  0.00  0.00    -0.002 C 
ATOM     13  C   UNL     1       2.050   0.881   0.065  0.00  0.00    +0.221 C 
ATOM     14  C   UNL     1       3.677  -1.304  -0.098  0.00  0.00    -0.003 C 
ATOM     15  C   UNL     1       4.135  -0.057   0.297  0.00  0.00    +0.098 C 
ATOM     16  C   UNL     1       4.598  -2.469  -0.175  0.00  0.00    +0.033 C 
BRANCH  13  17
ATOM     17  O   UNL     1       1.260   1.997   0.154  0.00  0.00    -0.456 OA
ATOM     18  C   UNL     1       1.895   3.198   0.577  0.00  0.00    +0.254 C 
ENDBRANCH  13  17
ENDBRANCH   9  11
ENDBRANCH   8   9
ENDBRANCH   1   8
BRANCH   1  19
ATOM     19  C   UNL     1      -2.910   0.457  -0.692  0.00  0.00    +0.147 C 
BRANCH  19  21
ATOM     20  O   UNL     1      -2.262   2.366   0.656  0.00  0.00    -0.250 OA
ATOM     21  C   UNL     1      -2.446   1.873  -0.447  0.00  0.00    +0.317 C 
BRANCH  21  22
ATOM     22  O   UNL     1      -2.235   2.529  -1.615  0.00  0.00    -0.480 OA
ATOM     23  H   UNL     1      -2.394   2.097  -2.431  0.00  0.00    +0.295 HD
ENDBRANCH  21  22
ENDBRANCH  19  21
ENDBRANCH   1  19
TORSDOF 10
