127025529
  -OEChem-03292013293D

 65 65  0     1  0  0  0  0  0999 V2000
    2.4165   -0.4909    0.3916 O   0  0  0  0  0  0  0  0  0  0  0  0
    4.7079    0.5988    1.7010 O   0  0  0  0  0  0  0  0  0  0  0  0
    4.6407   -1.9189    1.4860 O   0  0  0  0  0  0  0  0  0  0  0  0
    3.6371    2.2594   -1.3813 O   0  0  0  0  0  0  0  0  0  0  0  0
    6.1678   -3.3208   -0.6444 O   0  0  0  0  0  0  0  0  0  0  0  0
    3.7400    4.4799    0.2412 O   0  0  0  0  0  0  0  0  0  0  0  0
   -4.6208   -0.7147   -0.1230 C   0  0  2  0  0  0  0  0  0  0  0  0
   -4.5712   -0.3376    1.4064 C   0  0  1  0  0  0  0  0  0  0  0  0
   -3.1942   -1.1095   -0.5731 C   0  0  0  0  0  0  0  0  0  0  0  0
   -5.8456    0.3990    1.8476 C   0  0  0  0  0  0  0  0  0  0  0  0
   -5.1274    0.4791   -0.9586 C   0  0  0  0  0  0  0  0  0  0  0  0
   -5.5550   -1.9184   -0.3792 C   0  0  0  0  0  0  0  0  0  0  0  0
   -6.0411    1.6858    1.0565 C   0  0  0  0  0  0  0  0  0  0  0  0
   -4.3249   -1.5168    2.3576 C   0  0  0  0  0  0  0  0  0  0  0  0
   -5.7473    1.5362   -0.4010 C   0  0  0  0  0  0  0  0  0  0  0  0
   -2.2279    0.0430   -0.3492 C   0  0  0  0  0  0  0  0  0  0  0  0
   -4.9261    0.4576   -2.4542 C   0  0  0  0  0  0  0  0  0  0  0  0
   -0.8305   -0.3232   -0.7950 C   0  0  0  0  0  0  0  0  0  0  0  0
    0.1081   -0.8607    0.0082 C   0  0  0  0  0  0  0  0  0  0  0  0
   -0.5331   -0.0701   -2.2498 C   0  0  0  0  0  0  0  0  0  0  0  0
    3.7049   -0.4783   -0.2067 C   0  0  1  0  0  0  0  0  0  0  0  0
    1.4977   -1.2692   -0.3661 C   0  0  0  0  0  0  0  0  0  0  0  0
    4.4762    0.7514    0.3010 C   0  0  1  0  0  0  0  0  0  0  0  0
    4.4202   -1.8153    0.0736 C   0  0  1  0  0  0  0  0  0  0  0  0
    3.7545    2.0883    0.0369 C   0  0  1  0  0  0  0  0  0  0  0  0
    5.7844   -1.9483   -0.6017 C   0  0  0  0  0  0  0  0  0  0  0  0
    4.4889    3.3140    0.5755 C   0  0  0  0  0  0  0  0  0  0  0  0
   -3.7796    0.3880    1.6064 H   0  0  0  0  0  0  0  0  0  0  0  0
   -2.8505   -1.9959   -0.0253 H   0  0  0  0  0  0  0  0  0  0  0  0
   -3.1887   -1.4102   -1.6290 H   0  0  0  0  0  0  0  0  0  0  0  0
   -5.7993    0.6442    2.9161 H   0  0  0  0  0  0  0  0  0  0  0  0
   -6.7216   -0.2492    1.7205 H   0  0  0  0  0  0  0  0  0  0  0  0
   -5.2164   -2.8147    0.1510 H   0  0  0  0  0  0  0  0  0  0  0  0
   -5.5886   -2.1866   -1.4411 H   0  0  0  0  0  0  0  0  0  0  0  0
   -6.5832   -1.7095   -0.0657 H   0  0  0  0  0  0  0  0  0  0  0  0
   -5.3890    2.4701    1.4596 H   0  0  0  0  0  0  0  0  0  0  0  0
   -7.0727    2.0321    1.1869 H   0  0  0  0  0  0  0  0  0  0  0  0
   -3.4072   -2.0557    2.1083 H   0  0  0  0  0  0  0  0  0  0  0  0
   -5.1587   -2.2257    2.3543 H   0  0  0  0  0  0  0  0  0  0  0  0
   -4.2140   -1.1563    3.3868 H   0  0  0  0  0  0  0  0  0  0  0  0
   -6.0706    2.3621   -1.0305 H   0  0  0  0  0  0  0  0  0  0  0  0
   -2.1271    0.2892    0.7106 H   0  0  0  0  0  0  0  0  0  0  0  0
   -2.5350    0.9709   -0.8413 H   0  0  0  0  0  0  0  0  0  0  0  0
   -3.8687    0.5361   -2.7200 H   0  0  0  0  0  0  0  0  0  0  0  0
   -5.4397    1.2906   -2.9479 H   0  0  0  0  0  0  0  0  0  0  0  0
   -5.3285   -0.4611   -2.8902 H   0  0  0  0  0  0  0  0  0  0  0  0
   -0.1568   -1.0347    1.0502 H   0  0  0  0  0  0  0  0  0  0  0  0
   -0.7779   -0.9539   -2.8472 H   0  0  0  0  0  0  0  0  0  0  0  0
   -1.1334    0.7653   -2.6271 H   0  0  0  0  0  0  0  0  0  0  0  0
    0.5067    0.2141   -2.4329 H   0  0  0  0  0  0  0  0  0  0  0  0
    3.6015   -0.3625   -1.2940 H   0  0  0  0  0  0  0  0  0  0  0  0
    1.6838   -1.1899   -1.4400 H   0  0  0  0  0  0  0  0  0  0  0  0
    1.6177   -2.3234   -0.0928 H   0  0  0  0  0  0  0  0  0  0  0  0
    5.4534    0.7748   -0.1971 H   0  0  0  0  0  0  0  0  0  0  0  0
    3.7943   -2.6688   -0.2053 H   0  0  0  0  0  0  0  0  0  0  0  0
    2.7405    2.0715    0.4533 H   0  0  0  0  0  0  0  0  0  0  0  0
    6.5610   -1.4014   -0.0574 H   0  0  0  0  0  0  0  0  0  0  0  0
    5.7404   -1.5914   -1.6354 H   0  0  0  0  0  0  0  0  0  0  0  0
    5.4778    3.4107    0.1158 H   0  0  0  0  0  0  0  0  0  0  0  0
    4.5931    3.2758    1.6634 H   0  0  0  0  0  0  0  0  0  0  0  0
    5.4046    1.2267    1.9562 H   0  0  0  0  0  0  0  0  0  0  0  0
    3.7740   -1.8403    1.9203 H   0  0  0  0  0  0  0  0  0  0  0  0
    3.1590    3.0922   -1.5353 H   0  0  0  0  0  0  0  0  0  0  0  0
    7.0333   -3.3608   -1.0859 H   0  0  0  0  0  0  0  0  0  0  0  0
    4.2314    5.2430    0.5904 H   0  0  0  0  0  0  0  0  0  0  0  0
  1 21  1  0  0  0  0
  1 22  1  0  0  0  0
  2 23  1  0  0  0  0
  2 61  1  0  0  0  0
  3 24  1  0  0  0  0
  3 62  1  0  0  0  0
  4 25  1  0  0  0  0
  4 63  1  0  0  0  0
  5 26  1  0  0  0  0
  5 64  1  0  0  0  0
  6 27  1  0  0  0  0
  6 65  1  0  0  0  0
  7  8  1  0  0  0  0
  7  9  1  0  0  0  0
  7 11  1  0  0  0  0
  7 12  1  0  0  0  0
  8 10  1  0  0  0  0
  8 14  1  0  0  0  0
  8 28  1  0  0  0  0
  9 16  1  0  0  0  0
  9 29  1  0  0  0  0
  9 30  1  0  0  0  0
 10 13  1  0  0  0  0
 10 31  1  0  0  0  0
 10 32  1  0  0  0  0
 11 15  2  0  0  0  0
 11 17  1  0  0  0  0
 12 33  1  0  0  0  0
 12 34  1  0  0  0  0
 12 35  1  0  0  0  0
 13 15  1  0  0  0  0
 13 36  1  0  0  0  0
 13 37  1  0  0  0  0
 14 38  1  0  0  0  0
 14 39  1  0  0  0  0
 14 40  1  0  0  0  0
 15 41  1  0  0  0  0
 16 18  1  0  0  0  0
 16 42  1  0  0  0  0
 16 43  1  0  0  0  0
 17 44  1  0  0  0  0
 17 45  1  0  0  0  0
 17 46  1  0  0  0  0
 18 19  2  0  0  0  0
 18 20  1  0  0  0  0
 19 22  1  0  0  0  0
 19 47  1  0  0  0  0
 20 48  1  0  0  0  0
 20 49  1  0  0  0  0
 20 50  1  0  0  0  0
 21 23  1  0  0  0  0
 21 24  1  0  0  0  0
 21 51  1  0  0  0  0
 22 52  1  0  0  0  0
 22 53  1  0  0  0  0
 23 25  1  0  0  0  0
 23 54  1  0  0  0  0
 24 26  1  0  0  0  0
 24 55  1  0  0  0  0
 25 27  1  0  0  0  0
 25 56  1  0  0  0  0
 26 57  1  0  0  0  0
 26 58  1  0  0  0  0
 27 59  1  0  0  0  0
 27 60  1  0  0  0  0
M  END
> <PUBCHEM_COMPOUND_CID>
127025529

> <PUBCHEM_CONFORMER_RMSD>
1

> <PUBCHEM_CONFORMER_DIVERSEORDER>
3
84
39
24
127
115
68
30
74
113
94
125
64
93
105
106
130
80
21
104
117
107
19
122
98
111
14
36
82
100
121
27
109
22
126
116
114
12
123
8
16
81
92
25
79
103
110
31
47
45
99
89
49
69
75
112
51
118
43
86
29
120
102
72
5
50
108
35
52
9
41
11
37
67
83
71
101
97
13
54
48
23
17
58
44
55
129
95
60
34
33
6
32
124
53
40
63
7
88
57
20
96
90
42
91
73
128
59
119
4
78
46
18
2
62
28
38
85
77
61
66
56
70
15
76
1
87
26
65
10

> <PUBCHEM_MMFF94_PARTIAL_CHARGES>
29
1 -0.56
11 -0.28
13 0.14
15 -0.29
16 0.14
17 0.14
18 -0.28
19 -0.29
2 -0.68
20 0.14
21 0.28
22 0.42
23 0.28
24 0.28
25 0.28
26 0.28
27 0.28
3 -0.68
4 -0.68
41 0.15
47 0.15
5 -0.68
6 -0.68
61 0.4
62 0.4
63 0.4
64 0.4
65 0.4
7 0.14

> <PUBCHEM_EFFECTIVE_ROTOR_COUNT>
11.8

> <PUBCHEM_PHARMACOPHORE_FEATURES>
13
1 1 acceptor
1 2 acceptor
1 2 donor
1 20 hydrophobe
1 3 acceptor
1 3 donor
1 4 acceptor
1 4 donor
1 5 acceptor
1 5 donor
1 6 acceptor
1 6 donor
6 7 8 10 11 13 15 rings

> <PUBCHEM_HEAVY_ATOM_COUNT>
27

> <PUBCHEM_ATOM_DEF_STEREO_COUNT>
6

> <PUBCHEM_ATOM_UDEF_STEREO_COUNT>
0

> <PUBCHEM_BOND_DEF_STEREO_COUNT>
1

> <PUBCHEM_BOND_UDEF_STEREO_COUNT>
0

> <PUBCHEM_ISOTOPIC_ATOM_COUNT>
0

> <PUBCHEM_COMPONENT_COUNT>
1

> <PUBCHEM_CACTVS_TAUTO_COUNT>
1

> <PUBCHEM_CONFORMER_ID>
0792417900000003

> <PUBCHEM_MMFF94_ENERGY>
68.1892

> <PUBCHEM_FEATURE_SELFOVERLAP>
66.026

> <PUBCHEM_SHAPE_FINGERPRINT>
10319926 262 16950283997127417589
10763959 59 18410011009871409524
11045977 3 18186241718821738779
12166972 35 18131068191465419896
12422481 6 18341894065333870821
12596602 18 18411985788800817683
12616971 3 18273215287728579175
14251758 9 17894910698631689887
14251764 75 17978235186047046768
15021287 119 18201431437778983470
15081414 286 18261394494164432052
15183329 4 18338513045587662011
15348495 7 18259989300991720667
17844677 252 18411140225292498959
18927931 339 16443071582606127839
21033648 29 17603857923307545709
21315759 148 17968385661952443531
21792961 116 18116431433064570270
220451 1 11891335318453483823
22122407 14 18271814510284551817
2303208 19 17822013090294589663
23081809 10 17775562048515320231
23559900 14 18410288095228461290
249057 25 17704064110370148309
312425 54 17967536766045849699
397830 11 18187652461186388931
5104073 3 18333450971525953163
90127 26 18187081763038157691

> <PUBCHEM_SHAPE_MULTIPOLES>
520.43
19
3.29
1.86
0.07
2.77
0.01
-0.25
-3.24
-7.28
-0.31
2.57
-0.09
0.73

> <PUBCHEM_SHAPE_SELFOVERLAP>
1025.907

> <PUBCHEM_SHAPE_VOLUME>
308.7

> <PUBCHEM_COORDINATE_TYPE>
2
5
10

$$$$
