127043
  -OEChem-03292013323D

 26 27  0     0  0  0  0  0  0999 V2000
    2.6617   -0.1680    0.5570 S   0  0  0  0  0  0  0  0  0  0  0  0
   -4.5718   -1.2642   -1.7011 S   0  0  0  0  0  0  0  0  0  0  0  0
    3.0893    1.2164    0.7413 O   0  0  0  0  0  0  0  0  0  0  0  0
    3.1655   -1.1756    1.4869 O   0  0  0  0  0  0  0  0  0  0  0  0
   -0.7888    2.7687   -0.3304 O   0  0  0  0  0  0  0  0  0  0  0  0
    3.0557   -0.6580   -1.0563 N   0  0  0  0  0  0  0  0  0  0  0  0
    0.4108    2.1065   -0.1336 N   0  0  0  0  0  0  0  0  0  0  0  0
   -1.8768    1.9538   -0.0680 N   0  0  0  0  0  0  0  0  0  0  0  0
   -3.4206   -0.4656    0.6982 N   0  0  0  0  0  0  0  0  0  0  0  0
    0.9223   -0.2147    0.5856 C   0  0  0  0  0  0  0  0  0  0  0  0
    0.0858    0.8672    0.2551 C   0  0  0  0  0  0  0  0  0  0  0  0
    0.2373   -1.3863    0.9560 C   0  0  0  0  0  0  0  0  0  0  0  0
   -1.3683    0.7701    0.2967 C   0  0  0  0  0  0  0  0  0  0  0  0
   -2.0333   -0.4122    0.6703 C   0  0  0  0  0  0  0  0  0  0  0  0
   -1.1786   -1.4810    0.9965 C   0  0  0  0  0  0  0  0  0  0  0  0
    2.6053   -2.0040   -1.4930 C   0  0  0  0  0  0  0  0  0  0  0  0
    2.9096    0.3535   -2.1338 C   0  0  0  0  0  0  0  0  0  0  0  0
   -3.9050   -0.8066   -0.3274 C   0  0  0  0  0  0  0  0  0  0  0  0
    0.8009   -2.2789    1.2250 H   0  0  0  0  0  0  0  0  0  0  0  0
   -1.6168   -2.4325    1.2967 H   0  0  0  0  0  0  0  0  0  0  0  0
    3.2112   -2.3330   -2.3433 H   0  0  0  0  0  0  0  0  0  0  0  0
    1.5543   -1.9862   -1.7945 H   0  0  0  0  0  0  0  0  0  0  0  0
    2.7460   -2.7367   -0.6937 H   0  0  0  0  0  0  0  0  0  0  0  0
    3.3732    1.2993   -1.8411 H   0  0  0  0  0  0  0  0  0  0  0  0
    1.8552    0.5173   -2.3715 H   0  0  0  0  0  0  0  0  0  0  0  0
    3.4244    0.0080   -3.0361 H   0  0  0  0  0  0  0  0  0  0  0  0
  1  3  2  0  0  0  0
  1  4  2  0  0  0  0
  1  6  1  0  0  0  0
  1 10  1  0  0  0  0
  2 18  2  0  0  0  0
  5  7  1  0  0  0  0
  5  8  1  0  0  0  0
  6 16  1  0  0  0  0
  6 17  1  0  0  0  0
  7 11  2  0  0  0  0
  8 13  2  0  0  0  0
  9 14  1  0  0  0  0
  9 18  2  0  0  0  0
 10 11  1  0  0  0  0
 10 12  2  0  0  0  0
 11 13  1  0  0  0  0
 12 15  1  0  0  0  0
 12 19  1  0  0  0  0
 13 14  1  0  0  0  0
 14 15  2  0  0  0  0
 15 20  1  0  0  0  0
 16 21  1  0  0  0  0
 16 22  1  0  0  0  0
 16 23  1  0  0  0  0
 17 24  1  0  0  0  0
 17 25  1  0  0  0  0
 17 26  1  0  0  0  0
M  END
> <PUBCHEM_COMPOUND_CID>
127043

> <PUBCHEM_CONFORMER_RMSD>
0.6

> <PUBCHEM_CONFORMER_DIVERSEORDER>
1
16
18
6
20
10
7
17
4
19
8
11
9
21
2
13
12
3
15
5
14

> <PUBCHEM_MMFF94_PARTIAL_CHARGES>
20
1 1.45
10 -0.01
11 0.29
12 -0.15
13 0.29
14 0.18
15 -0.15
16 0.36
17 0.36
18 0.57
19 0.15
2 -0.27
20 0.15
3 -0.65
4 -0.65
5 0.24
6 -0.85
7 -0.41
8 -0.41
9 -0.48

> <PUBCHEM_EFFECTIVE_ROTOR_COUNT>
3

> <PUBCHEM_PHARMACOPHORE_FEATURES>
8
1 2 acceptor
1 3 acceptor
1 4 acceptor
1 7 acceptor
1 8 acceptor
1 9 acceptor
5 5 7 8 11 13 rings
6 10 11 12 13 14 15 rings

> <PUBCHEM_HEAVY_ATOM_COUNT>
18

> <PUBCHEM_ATOM_DEF_STEREO_COUNT>
0

> <PUBCHEM_ATOM_UDEF_STEREO_COUNT>
0

> <PUBCHEM_BOND_DEF_STEREO_COUNT>
0

> <PUBCHEM_BOND_UDEF_STEREO_COUNT>
0

> <PUBCHEM_ISOTOPIC_ATOM_COUNT>
0

> <PUBCHEM_COMPONENT_COUNT>
1

> <PUBCHEM_CACTVS_TAUTO_COUNT>
1

> <PUBCHEM_CONFORMER_ID>
0001F04300000001

> <PUBCHEM_MMFF94_ENERGY>
37.0109

> <PUBCHEM_FEATURE_SELFOVERLAP>
40.8

> <PUBCHEM_SHAPE_FINGERPRINT>
11089746 13 12108321791023185295
11206711 2 18259983739204257205
11769659 78 17203331104659529175
11796584 16 16415483774881679959
12202030 40 17632016325816134022
12553582 1 18409458002693613651
13583140 156 15267055926604396635
14115302 16 17385436648188506859
14289901 80 16845296076660408403
15342816 4 18271235110205329879
15475509 84 8570274830733939303
15848700 24 18341890813916435615
16752209 62 18187642457954335771
16945 1 18187937200026897747
18186145 218 17386018264164709231
19765921 60 16372430296492930056
20645476 183 17023477454821789474
20645477 70 18195805396068087087
20671657 53 18336816581108721029
22620623 9 18129104433491210893
22802520 49 18126855897636067626
2334 1 18261394382257184241
23402539 116 18339063939346142563
23557571 272 18342453695308720426
23559900 14 18339085865813266452
2748010 2 18335700524755536521
3060560 45 18265312054262781671
4463277 69 17489868250210676295
449060 23 18272934916700868759
5262128 65 18047226040232538188
537710 114 17967819366098133145
81228 2 18336274444060784681

> <PUBCHEM_SHAPE_MULTIPOLES>
340.6
6.95
2.19
1.6
4.21
1.03
0.65
-3.1
2.58
-0.01
0.47
-0.71
-0.67
-0.11

> <PUBCHEM_SHAPE_SELFOVERLAP>
697.224

> <PUBCHEM_SHAPE_VOLUME>
198.7

> <PUBCHEM_COORDINATE_TYPE>
2
5
10

$$$$
