REMARK  Name = 127025529
REMARK  16 active torsions:
REMARK  status: ('A' for Active; 'I' for Inactive)
REMARK    1  A    between atoms: O_1  and  C_2
REMARK    2  A    between atoms: O_1  and  C_18
REMARK    3  A    between atoms: C_2  and  C_3
REMARK    4  A    between atoms: C_2  and  C_12
REMARK    5  A    between atoms: C_3  and  O_4
REMARK    6  A    between atoms: C_3  and  C_6
REMARK    7  A    between atoms: C_6  and  O_7
REMARK    8  A    between atoms: C_6  and  C_9
REMARK    9  A    between atoms: C_9  and  O_10
REMARK   10  A    between atoms: C_12  and  O_13
REMARK   11  A    between atoms: C_12  and  C_15
REMARK   12  A    between atoms: C_15  and  O_16
REMARK   13  A    between atoms: C_18  and  C_20
REMARK   14  A    between atoms: C_19  and  C_22
REMARK   15  A    between atoms: C_22  and  C_23
REMARK   16  A    between atoms: C_23  and  C_24
REMARK                            x       y       z     vdW  Elec       q    Type
REMARK                         _______ _______ _______ _____ _____    ______ ____
ROOT
ATOM      1  O   UNL     1       2.417  -0.491   0.392  0.00  0.00    -0.346 OA
ENDROOT
BRANCH   1   2
ATOM      2  C   UNL     1       3.705  -0.478  -0.207  0.00  0.00    +0.174 C 
BRANCH   2   3
ATOM      3  C   UNL     1       4.476   0.751   0.301  0.00  0.00    +0.169 C 
BRANCH   3   4
ATOM      4  O   UNL     1       4.708   0.599   1.701  0.00  0.00    -0.379 OA
ATOM      5  H   UNL     1       5.162  -0.243   1.864  0.00  0.00    +0.211 HD
ENDBRANCH   3   4
BRANCH   3   6
ATOM      6  C   UNL     1       3.755   2.088   0.037  0.00  0.00    +0.169 C 
BRANCH   6   7
ATOM      7  O   UNL     1       3.637   2.259  -1.381  0.00  0.00    -0.379 OA
ATOM      8  H   UNL     1       3.174   1.497  -1.762  0.00  0.00    +0.211 HD
ENDBRANCH   6   7
BRANCH   6   9
ATOM      9  C   UNL     1       4.489   3.314   0.576  0.00  0.00    +0.169 C 
BRANCH   9  10
ATOM     10  O   UNL     1       3.740   4.480   0.241  0.00  0.00    -0.379 OA
ATOM     11  H   UNL     1       4.197   5.266   0.579  0.00  0.00    +0.211 HD
ENDBRANCH   9  10
ENDBRANCH   6   9
ENDBRANCH   3   6
ENDBRANCH   2   3
BRANCH   2  12
ATOM     12  C   UNL     1       4.420  -1.815   0.074  0.00  0.00    +0.169 C 
BRANCH  12  13
ATOM     13  O   UNL     1       4.641  -1.919   1.486  0.00  0.00    -0.379 OA
ATOM     14  H   UNL     1       3.794  -1.839   1.952  0.00  0.00    +0.211 HD
ENDBRANCH  12  13
BRANCH  12  15
ATOM     15  C   UNL     1       5.784  -1.948  -0.602  0.00  0.00    +0.169 C 
BRANCH  15  16
ATOM     16  O   UNL     1       6.168  -3.321  -0.644  0.00  0.00    -0.379 OA
ATOM     17  H   UNL     1       7.034  -3.401  -1.074  0.00  0.00    +0.211 HD
ENDBRANCH  15  16
ENDBRANCH  12  15
ENDBRANCH   2  12
ENDBRANCH   1   2
BRANCH   1  18
ATOM     18  C   UNL     1       1.498  -1.269  -0.366  0.00  0.00    +0.168 C 
BRANCH  18  20
ATOM     19  C   UNL     1      -0.831  -0.323  -0.795  0.00  0.00    -0.046 C 
ATOM     20  C   UNL     1       0.108  -0.861   0.008  0.00  0.00    -0.003 C 
ATOM     21  C   UNL     1      -0.533  -0.070  -2.250  0.00  0.00    +0.026 C 
BRANCH  19  22
ATOM     22  C   UNL     1      -2.228   0.043  -0.349  0.00  0.00    +0.022 C 
BRANCH  22  23
ATOM     23  C   UNL     1      -3.194  -1.109  -0.573  0.00  0.00    +0.008 C 
BRANCH  23  24
ATOM     24  C   UNL     1      -4.621  -0.715  -0.123  0.00  0.00    +0.015 C 
ATOM     25  C   UNL     1      -4.571  -0.338   1.406  0.00  0.00    +0.004 C 
ATOM     26  C   UNL     1      -5.846   0.399   1.848  0.00  0.00    +0.005 C 
ATOM     27  C   UNL     1      -5.127   0.479  -0.959  0.00  0.00    -0.049 C 
ATOM     28  C   UNL     1      -5.555  -1.918  -0.379  0.00  0.00    +0.004 C 
ATOM     29  C   UNL     1      -6.041   1.686   1.056  0.00  0.00    +0.025 C 
ATOM     30  C   UNL     1      -4.325  -1.517   2.358  0.00  0.00    +0.000 C 
ATOM     31  C   UNL     1      -5.747   1.536  -0.401  0.00  0.00    -0.035 C 
ATOM     32  C   UNL     1      -4.926   0.458  -2.454  0.00  0.00    +0.026 C 
ENDBRANCH  23  24
ENDBRANCH  22  23
ENDBRANCH  19  22
ENDBRANCH  18  20
ENDBRANCH   1  18
TORSDOF 16
