REMARK  Name = 127032789
REMARK  10 active torsions:
REMARK  status: ('A' for Active; 'I' for Inactive)
REMARK    1  A    between atoms: C_2  and  C_16
REMARK    2  A    between atoms: C_3  and  O_31
REMARK    3  A    between atoms: C_10  and  O_33
REMARK    4  A    between atoms: C_12  and  O_37
REMARK    5  A    between atoms: C_13  and  O_35
REMARK    6  A    between atoms: C_17  and  C_25
REMARK    7  A    between atoms: C_18  and  C_22
REMARK    8  A    between atoms: C_22  and  O_23
REMARK    9  A    between atoms: C_26  and  C_27
REMARK   10  A    between atoms: C_28  and  C_29
REMARK                            x       y       z     vdW  Elec       q    Type
REMARK                         _______ _______ _______ _____ _____    ______ ____
ROOT
ATOM      1  O   UNL     1       0.284   3.541  -1.790  0.00  0.00    -0.291 OA
ATOM      2  C   UNL     1       1.660   1.406   0.833  0.00  0.00    +0.093 C 
ATOM      3  C   UNL     1       0.402   1.267   1.732  0.00  0.00    +0.117 C 
ATOM      4  C   UNL     1       1.622   2.732   0.048  0.00  0.00    +0.072 C 
ATOM      5  C   UNL     1      -0.873   1.432   0.921  0.00  0.00    +0.042 C 
ATOM      6  C   UNL     1       0.337   2.864  -0.766  0.00  0.00    +0.173 C 
ATOM      7  C   UNL     1      -0.895   2.197  -0.259  0.00  0.00    +0.039 C 
ATOM      8  C   UNL     1       0.399   2.293   2.880  0.00  0.00    +0.034 C 
ATOM      9  C   UNL     1       2.854   2.922  -0.843  0.00  0.00    +0.009 C 
ATOM     10  C   UNL     1      -2.075   0.849   1.361  0.00  0.00    +0.169 C 
ATOM     11  C   UNL     1      -2.085   2.347  -0.986  0.00  0.00    +0.043 C 
ATOM     12  C   UNL     1      -3.258   1.003   0.636  0.00  0.00    +0.202 C 
ATOM     13  C   UNL     1      -3.261   1.749  -0.538  0.00  0.00    +0.175 C 
ENDROOT
BRANCH   2  16
ATOM     14  O   UNL     1       0.812   0.009  -0.990  0.00  0.00    -0.475 OA
ATOM     15  O   UNL     1       3.130  -2.555  -1.482  0.00  0.00    -0.287 OA
ATOM     16  C   UNL     1       1.841   0.207  -0.068  0.00  0.00    +0.128 C 
ATOM     17  C   UNL     1       1.161  -1.153  -1.764  0.00  0.00    +0.206 C 
ATOM     18  C   UNL     1       2.849  -0.665  -0.080  0.00  0.00    +0.144 C 
ATOM     19  C   UNL     1       2.467  -1.584  -1.150  0.00  0.00    +0.222 C 
ATOM     20  C   UNL     1       1.331  -0.754  -3.223  0.00  0.00    +0.056 C 
BRANCH  18  22
ATOM     21  O   UNL     1       4.087  -0.307   1.910  0.00  0.00    -0.245 OA
ATOM     22  C   UNL     1       4.038  -0.715   0.752  0.00  0.00    +0.347 C 
BRANCH  22  23
ATOM     23  O   UNL     1       5.056  -1.277   0.044  0.00  0.00    -0.441 OA
ATOM     24  C   UNL     1       6.306  -1.396   0.733  0.00  0.00    +0.256 C 
ENDBRANCH  22  23
ENDBRANCH  18  22
BRANCH  17  25
ATOM     25  C   UNL     1       0.139  -2.222  -1.566  0.00  0.00    +0.020 C 
ATOM     26  C   UNL     1      -0.672  -2.287  -0.499  0.00  0.00    -0.001 C 
BRANCH  26  27
ATOM     27  C   UNL     1      -1.658  -3.328  -0.319  0.00  0.00    -0.005 C 
ATOM     28  C   UNL     1      -2.468  -3.393   0.749  0.00  0.00    -0.026 C 
BRANCH  28  29
ATOM     29  C   UNL     1      -3.491  -4.473   0.951  0.00  0.00    +0.026 C 
ATOM     30  C   UNL     1      -4.831  -4.087   0.344  0.00  0.00    +0.005 C 
ENDBRANCH  28  29
ENDBRANCH  26  27
ENDBRANCH  17  25
ENDBRANCH   2  16
BRANCH   3  31
ATOM     31  O   UNL     1       0.431  -0.029   2.347  0.00  0.00    -0.382 OA
ATOM     32  H   UNL     1       0.434  -0.714   1.660  0.00  0.00    +0.211 HD
ENDBRANCH   3  31
BRANCH  10  33
ATOM     33  O   UNL     1      -2.136   0.137   2.526  0.00  0.00    -0.503 OA
ATOM     34  H   UNL     1      -1.362   0.012   3.040  0.00  0.00    +0.292 HD
ENDBRANCH  10  33
BRANCH  13  35
ATOM     35  O   UNL     1      -4.408   1.907  -1.256  0.00  0.00    -0.468 OA
ATOM     36  C   UNL     1      -4.681   0.936  -2.264  0.00  0.00    +0.253 C 
ENDBRANCH  13  35
BRANCH  12  37
ATOM     37  O   UNL     1      -4.413   0.429   1.078  0.00  0.00    -0.501 OA
ATOM     38  H   UNL     1      -4.413  -0.074   1.869  0.00  0.00    +0.292 HD
ENDBRANCH  12  37
TORSDOF 10
