REMARK  Name = 127025892
REMARK  3 active torsions:
REMARK  status: ('A' for Active; 'I' for Inactive)
REMARK    1  A    between atoms: C_8  and  O_34
REMARK    2  A    between atoms: C_10  and  O_36
REMARK    3  A    between atoms: C_11  and  O_38
REMARK                            x       y       z     vdW  Elec       q    Type
REMARK                         _______ _______ _______ _____ _____    ______ ____
ROOT
ATOM      1  O   UNL     1       4.862   1.367   2.152  0.00  0.00    -0.293 OA
ATOM      2  O   UNL     1      -3.180  -3.073  -2.224  0.00  0.00    -0.291 OA
ATOM      3  O   UNL     1      -4.927  -3.098   0.855  0.00  0.00    -0.275 OA
ATOM      4  N   UNL     1      -6.119  -1.156   0.929  0.00  0.00    -0.304 N 
ATOM      5  C   UNL     1       3.731  -0.104  -0.837  0.00  0.00    +0.045 C 
ATOM      6  C   UNL     1       2.289   0.444  -0.606  0.00  0.00    +0.033 C 
ATOM      7  C   UNL     1       4.778   0.869  -0.224  0.00  0.00    +0.084 C 
ATOM      8  C   UNL     1       3.905  -1.564  -0.336  0.00  0.00    +0.141 C 
ATOM      9  C   UNL     1       2.158   1.858  -1.289  0.00  0.00    +0.044 C 
ATOM     10  C   UNL     1       5.251  -1.805   0.355  0.00  0.00    +0.171 C 
ATOM     11  C   UNL     1       5.433  -0.882   1.559  0.00  0.00    +0.197 C 
ATOM     12  C   UNL     1       5.003   0.541   1.250  0.00  0.00    +0.183 C 
ATOM     13  C   UNL     1       4.440   2.325  -0.379  0.00  0.00    -0.023 C 
ATOM     14  C   UNL     1       3.272   2.777  -0.855  0.00  0.00    -0.026 C 
ATOM     15  C   UNL     1       1.194  -0.474  -1.130  0.00  0.00    -0.030 C 
ATOM     16  C   UNL     1       0.781   2.545  -1.194  0.00  0.00    -0.040 C 
ATOM     17  C   UNL     1       0.256  -1.108  -0.391  0.00  0.00    -0.026 C 
ATOM     18  C   UNL     1       0.428   3.354  -2.422  0.00  0.00    +0.027 C 
ATOM     19  C   UNL     1      -0.065   2.336  -0.164  0.00  0.00    -0.008 C 
ATOM     20  C   UNL     1       0.290  -1.203   1.115  0.00  0.00    +0.031 C 
ATOM     21  C   UNL     1      -0.904  -1.690  -1.068  0.00  0.00    -0.002 C 
ATOM     22  C   UNL     1      -1.474   2.675  -0.111  0.00  0.00    -0.001 C 
ATOM     23  C   UNL     1      -2.103  -1.854  -0.490  0.00  0.00    +0.038 C 
ATOM     24  C   UNL     1      -2.308   2.058   0.740  0.00  0.00    -0.000 C 
ATOM     25  C   UNL     1      -3.278  -2.262  -1.308  0.00  0.00    +0.182 C 
ATOM     26  C   UNL     1      -3.748   2.194   0.693  0.00  0.00    -0.005 C 
ATOM     27  C   UNL     1      -4.587  -1.580  -0.967  0.00  0.00    +0.154 C 
ATOM     28  C   UNL     1      -6.073   1.316   1.319  0.00  0.00    +0.042 C 
ATOM     29  C   UNL     1      -4.561   1.356   1.356  0.00  0.00    -0.025 C 
ATOM     30  C   UNL     1      -6.586   0.145   0.454  0.00  0.00    +0.094 C 
ATOM     31  C   UNL     1      -5.210  -2.012   0.343  0.00  0.00    +0.230 C 
ATOM     32  C   UNL     1      -6.732   2.621   0.859  0.00  0.00    +0.006 C 
ATOM     33  H   UNL     1      -6.504  -1.462   1.782  0.00  0.00    +0.149 HD
ENDROOT
BRANCH   8  34
ATOM     34  O   UNL     1       3.789  -2.451  -1.454  0.00  0.00    -0.382 OA
ATOM     35  H   UNL     1       2.939  -2.304  -1.896  0.00  0.00    +0.210 HD
ENDBRANCH   8  34
BRANCH  10  36
ATOM     36  O   UNL     1       5.337  -3.159   0.797  0.00  0.00    -0.379 OA
ATOM     37  H   UNL     1       5.223  -3.754   0.039  0.00  0.00    +0.211 HD
ENDBRANCH  10  36
BRANCH  11  38
ATOM     38  O   UNL     1       4.656  -1.308   2.671  0.00  0.00    -0.375 OA
ATOM     39  H   UNL     1       4.898  -2.217   2.905  0.00  0.00    +0.211 HD
ENDBRANCH  11  38
TORSDOF 3
