REMARK  Name = 127043
REMARK  3 active torsions:
REMARK  status: ('A' for Active; 'I' for Inactive)
REMARK    1  A    between atoms: C_4  and  S_10
REMARK    2  A    between atoms: C_8  and  N_17
REMARK    3  A    between atoms: S_10  and  N_13
REMARK                            x       y       z     vdW  Elec       q    Type
REMARK                         _______ _______ _______ _____ _____    ______ ____
ROOT
ATOM      1  O   UNL     1      -0.789   2.769  -0.330  0.00  0.00    -0.241 OA
ATOM      2  N   UNL     1       0.411   2.107  -0.134  0.00  0.00    -0.047 NA
ATOM      3  N   UNL     1      -1.877   1.954  -0.068  0.00  0.00    -0.047 NA
ATOM      4  C   UNL     1       0.922  -0.215   0.586  0.00  0.00    +0.145 C 
ATOM      5  C   UNL     1       0.086   0.867   0.255  0.00  0.00    +0.163 A 
ATOM      6  C   UNL     1       0.237  -1.386   0.956  0.00  0.00    +0.023 C 
ATOM      7  C   UNL     1      -1.368   0.770   0.297  0.00  0.00    +0.163 A 
ATOM      8  C   UNL     1      -2.033  -0.412   0.670  0.00  0.00    +0.113 C 
ATOM      9  C   UNL     1      -1.179  -1.481   0.997  0.00  0.00    +0.023 C 
ENDROOT
BRANCH   4  10
ATOM     10  S   UNL     1       2.662  -0.168   0.557  0.00  0.00    +0.065 S 
ATOM     11  O   UNL     1       3.089   1.216   0.741  0.00  0.00    -0.153 OA
ATOM     12  O   UNL     1       3.166  -1.176   1.487  0.00  0.00    -0.153 OA
BRANCH  10  13
ATOM     13  N   UNL     1       3.056  -0.658  -1.056  0.00  0.00    -0.153 NA
ATOM     14  C   UNL     1       2.605  -2.004  -1.493  0.00  0.00    +0.115 C 
ATOM     15  C   UNL     1       2.910   0.353  -2.134  0.00  0.00    +0.115 C 
ENDBRANCH  10  13
ENDBRANCH   4  10
BRANCH   8  17
ATOM     16  S   UNL     1      -4.572  -1.264  -1.701  0.00  0.00    +0.021 S 
ATOM     17  N   UNL     1      -3.421  -0.466   0.698  0.00  0.00    -0.194 NA
ATOM     18  C   UNL     1      -3.905  -0.807  -0.327  0.00  0.00    +0.042 C 
ENDBRANCH   8  17
TORSDOF 3
