REMARK  Name = 127047840
REMARK  19 active torsions:
REMARK  status: ('A' for Active; 'I' for Inactive)
REMARK    1  A    between atoms: C_1  and  C_3
REMARK    2  A    between atoms: C_1  and  C_21
REMARK    3  A    between atoms: C_3  and  C_4
REMARK    4  A    between atoms: C_4  and  C_6
REMARK    5  A    between atoms: C_6  and  O_7
REMARK    6  A    between atoms: C_6  and  C_9
REMARK    7  A    between atoms: C_9  and  C_11
REMARK    8  A    between atoms: C_11  and  C_12
REMARK    9  A    between atoms: C_17  and  N_18
REMARK   10  A    between atoms: C_21  and  O_22
REMARK   11  A    between atoms: C_21  and  C_24
REMARK   12  A    between atoms: C_24  and  C_26
REMARK   13  A    between atoms: C_27  and  C_28
REMARK   14  A    between atoms: C_29  and  C_30
REMARK   15  A    between atoms: C_31  and  C_32
REMARK   16  A    between atoms: C_32  and  O_33
REMARK   17  A    between atoms: C_32  and  C_35
REMARK   18  A    between atoms: C_35  and  C_37
REMARK   19  A    between atoms: C_37  and  O_38
REMARK                            x       y       z     vdW  Elec       q    Type
REMARK                         _______ _______ _______ _____ _____    ______ ____
ROOT
ATOM      1  C   UNL     1       4.348   2.345   0.612  0.00  0.00    +0.027 C 
ATOM      2  C   UNL     1       5.586   2.663   1.449  0.00  0.00    +0.002 C 
ENDROOT
BRANCH   1   3
ATOM      3  C   UNL     1       4.169   0.844   0.276  0.00  0.00    +0.005 C 
BRANCH   3   4
ATOM      4  C   UNL     1       4.188  -0.190   1.431  0.00  0.00    +0.027 C 
ATOM      5  C   UNL     1       3.281   0.252   2.590  0.00  0.00    +0.002 C 
BRANCH   4   6
ATOM      6  C   UNL     1       3.919  -1.667   1.046  0.00  0.00    +0.118 C 
BRANCH   6   7
ATOM      7  O   UNL     1       4.875  -2.023   0.036  0.00  0.00    -0.384 OA
ATOM      8  H   UNL     1       5.773  -1.877   0.374  0.00  0.00    +0.210 HD
ENDBRANCH   6   7
BRANCH   6   9
ATOM      9  C   UNL     1       2.516  -1.913   0.471  0.00  0.00    +0.098 C 
BRANCH   9  11
ATOM     10  O   UNL     1       2.886  -4.268   0.861  0.00  0.00    -0.291 OA
ATOM     11  C   UNL     1       2.140  -3.390   0.432  0.00  0.00    +0.175 C 
BRANCH  11  12
ATOM     12  C   UNL     1       0.814  -3.775  -0.132  0.00  0.00    +0.035 C 
ATOM     13  C   UNL     1      -0.052  -2.792  -0.610  0.00  0.00    +0.004 C 
ATOM     14  C   UNL     1       0.439  -5.118  -0.180  0.00  0.00    +0.004 C 
ATOM     15  C   UNL     1      -1.293  -3.151  -1.136  0.00  0.00    +0.014 C 
ATOM     16  C   UNL     1      -0.802  -5.477  -0.707  0.00  0.00    +0.014 C 
ATOM     17  C   UNL     1      -1.668  -4.494  -1.185  0.00  0.00    +0.042 C 
BRANCH  17  18
ATOM     18  N   UNL     1      -2.922  -4.858  -1.717  0.00  0.00    -0.357 N 
ATOM     19  H   UNL     1      -3.533  -4.165  -2.055  0.00  0.00    +0.142 HD
ATOM     20  H   UNL     1      -3.185  -5.806  -1.751  0.00  0.00    +0.142 HD
ENDBRANCH  17  18
ENDBRANCH  11  12
ENDBRANCH   9  11
ENDBRANCH   6   9
ENDBRANCH   4   6
ENDBRANCH   3   4
ENDBRANCH   1   3
BRANCH   1  21
ATOM     21  C   UNL     1       4.276   3.259  -0.651  0.00  0.00    +0.114 C 
BRANCH  21  22
ATOM     22  O   UNL     1       4.369   4.626  -0.246  0.00  0.00    -0.384 OA
ATOM     23  H   UNL     1       5.114   4.732   0.366  0.00  0.00    +0.210 HD
ENDBRANCH  21  22
BRANCH  21  24
ATOM     24  C   UNL     1       3.086   3.076  -1.632  0.00  0.00    +0.049 C 
ATOM     25  C   UNL     1       3.232   4.042  -2.819  0.00  0.00    +0.007 C 
BRANCH  24  26
ATOM     26  C   UNL     1       1.726   3.305  -1.014  0.00  0.00    -0.024 C 
ATOM     27  C   UNL     1       0.688   2.455  -0.940  0.00  0.00    -0.005 C 
BRANCH  27  28
ATOM     28  C   UNL     1      -0.603   2.707  -0.340  0.00  0.00    -0.000 C 
ATOM     29  C   UNL     1      -1.584   1.791  -0.314  0.00  0.00    -0.000 C 
BRANCH  29  30
ATOM     30  C   UNL     1      -2.872   2.035   0.298  0.00  0.00    -0.002 C 
ATOM     31  C   UNL     1      -3.856   1.122   0.327  0.00  0.00    +0.003 C 
BRANCH  31  32
ATOM     32  C   UNL     1      -5.226   1.304   0.933  0.00  0.00    +0.144 C 
BRANCH  32  33
ATOM     33  O   UNL     1      -5.430   0.391   2.009  0.00  0.00    -0.379 OA
ATOM     34  H   UNL     1      -4.741   0.522   2.679  0.00  0.00    +0.211 HD
ENDBRANCH  32  33
BRANCH  32  35
ATOM     35  C   UNL     1      -6.312   1.094  -0.121  0.00  0.00    +0.143 C 
BRANCH  35  37
ATOM     36  O   UNL     1      -7.943   1.930   1.454  0.00  0.00    -0.250 OA
ATOM     37  C   UNL     1      -7.605   1.757   0.290  0.00  0.00    +0.317 C 
BRANCH  37  38
ATOM     38  O   UNL     1      -8.370   2.117  -0.770  0.00  0.00    -0.480 OA
ATOM     39  H   UNL     1      -8.065   1.962  -1.643  0.00  0.00    +0.295 HD
ENDBRANCH  37  38
ENDBRANCH  35  37
ENDBRANCH  32  35
ENDBRANCH  31  32
ENDBRANCH  29  30
ENDBRANCH  27  28
ENDBRANCH  24  26
ENDBRANCH  21  24
ENDBRANCH   1  21
TORSDOF 19
