127083
  -OEChem-03292013323D

 36 39  0     0  0  0  0  0  0999 V2000
    0.6067   -3.5020    0.3481 S   0  0  0  0  0  0  0  0  0  0  0  0
   -1.0199    1.4181    1.1592 S   0  0  0  0  0  0  0  0  0  0  0  0
   -5.3657    0.0582   -0.5239 O   0  0  0  0  0  0  0  0  0  0  0  0
   -5.4215    2.2265    0.2187 O   0  0  0  0  0  0  0  0  0  0  0  0
    0.8532   -0.9392    0.2412 N   0  0  0  0  0  0  0  0  0  0  0  0
    1.6784    0.1186    0.0993 N   0  0  0  0  0  0  0  0  0  0  0  0
    2.8629   -1.8596    0.0269 N   0  0  0  0  0  0  0  0  0  0  0  0
   -2.7560   -0.1876    0.1151 N   0  0  0  0  0  0  0  0  0  0  0  0
   -0.5126   -1.1357    0.4075 C   0  0  0  0  0  0  0  0  0  0  0  0
    1.5920   -2.0893    0.1887 C   0  0  0  0  0  0  0  0  0  0  0  0
    2.8675   -0.4894   -0.0220 C   0  0  0  0  0  0  0  0  0  0  0  0
   -1.4904   -0.1026    0.4967 C   0  0  0  0  0  0  0  0  0  0  0  0
   -0.8100   -2.4500    0.4821 C   0  0  0  0  0  0  0  0  0  0  0  0
    4.0892    0.2451   -0.1978 C   0  0  0  0  0  0  0  0  0  0  0  0
   -3.3917    1.0144    0.3586 C   0  0  0  0  0  0  0  0  0  0  0  0
    4.0640    1.6388   -0.2473 C   0  0  0  0  0  0  0  0  0  0  0  0
    5.3007   -0.4353   -0.3188 C   0  0  0  0  0  0  0  0  0  0  0  0
   -2.6138    2.0045    0.9210 C   0  0  0  0  0  0  0  0  0  0  0  0
    5.2505    2.3523   -0.4179 C   0  0  0  0  0  0  0  0  0  0  0  0
    6.4872    0.2780   -0.4893 C   0  0  0  0  0  0  0  0  0  0  0  0
   -4.7797    1.1786    0.0304 C   0  0  0  0  0  0  0  0  0  0  0  0
    6.4620    1.6718   -0.5389 C   0  0  0  0  0  0  0  0  0  0  0  0
   -6.7508    0.1531   -0.8752 C   0  0  0  0  0  0  0  0  0  0  0  0
   -7.2022   -1.1674   -1.4621 C   0  0  0  0  0  0  0  0  0  0  0  0
   -1.7990   -2.8687    0.6140 H   0  0  0  0  0  0  0  0  0  0  0  0
    3.1395    2.2034   -0.1564 H   0  0  0  0  0  0  0  0  0  0  0  0
    5.3539   -1.5205   -0.2843 H   0  0  0  0  0  0  0  0  0  0  0  0
   -2.8876    3.0132    1.1974 H   0  0  0  0  0  0  0  0  0  0  0  0
    5.2313    3.4375   -0.4565 H   0  0  0  0  0  0  0  0  0  0  0  0
    7.4309   -0.2513   -0.5835 H   0  0  0  0  0  0  0  0  0  0  0  0
    7.3858    2.2272   -0.6717 H   0  0  0  0  0  0  0  0  0  0  0  0
   -7.3381    0.3814    0.0208 H   0  0  0  0  0  0  0  0  0  0  0  0
   -6.8848    0.9523   -1.6124 H   0  0  0  0  0  0  0  0  0  0  0  0
   -8.2586   -1.1301   -1.7423 H   0  0  0  0  0  0  0  0  0  0  0  0
   -6.6097   -1.4178   -2.3483 H   0  0  0  0  0  0  0  0  0  0  0  0
   -7.0555   -1.9792   -0.7421 H   0  0  0  0  0  0  0  0  0  0  0  0
  1 10  1  0  0  0  0
  1 13  1  0  0  0  0
  2 12  1  0  0  0  0
  2 18  1  0  0  0  0
  3 21  1  0  0  0  0
  3 23  1  0  0  0  0
  4 21  2  0  0  0  0
  5  6  1  0  0  0  0
  5  9  1  0  0  0  0
  5 10  1  0  0  0  0
  6 11  2  0  0  0  0
  7 10  2  0  0  0  0
  7 11  1  0  0  0  0
  8 12  2  0  0  0  0
  8 15  1  0  0  0  0
  9 12  1  0  0  0  0
  9 13  2  0  0  0  0
 11 14  1  0  0  0  0
 13 25  1  0  0  0  0
 14 16  2  0  0  0  0
 14 17  1  0  0  0  0
 15 18  2  0  0  0  0
 15 21  1  0  0  0  0
 16 19  1  0  0  0  0
 16 26  1  0  0  0  0
 17 20  2  0  0  0  0
 17 27  1  0  0  0  0
 18 28  1  0  0  0  0
 19 22  2  0  0  0  0
 19 29  1  0  0  0  0
 20 22  1  0  0  0  0
 20 30  1  0  0  0  0
 22 31  1  0  0  0  0
 23 24  1  0  0  0  0
 23 32  1  0  0  0  0
 23 33  1  0  0  0  0
 24 34  1  0  0  0  0
 24 35  1  0  0  0  0
 24 36  1  0  0  0  0
M  END
> <PUBCHEM_COMPOUND_CID>
127083

> <PUBCHEM_CONFORMER_RMSD>
0.8

> <PUBCHEM_CONFORMER_DIVERSEORDER>
1
10
9
18
15
12
7
8
13
4
17
14
11
19
5
16
2
3
6

> <PUBCHEM_MMFF94_PARTIAL_CHARGES>
30
1 -0.16
10 0.24
11 0.46
12 0.33
13 -0.05
14 0.05
15 0.14
16 -0.15
17 -0.15
18 -0.11
19 -0.15
2 -0.08
20 -0.15
21 0.81
22 -0.15
23 0.28
25 0.15
26 0.15
27 0.15
28 0.15
29 0.15
3 -0.43
30 0.15
31 0.15
4 -0.57
5 0.6
6 -0.71
7 -0.57
8 -0.57
9 0.01

> <PUBCHEM_EFFECTIVE_ROTOR_COUNT>
5

> <PUBCHEM_PHARMACOPHORE_FEATURES>
8
1 4 acceptor
1 8 acceptor
3 5 7 10 cation
3 6 7 11 cation
5 1 5 9 10 13 rings
5 2 8 12 15 18 rings
5 5 6 7 10 11 rings
6 14 16 17 19 20 22 rings

> <PUBCHEM_HEAVY_ATOM_COUNT>
24

> <PUBCHEM_ATOM_DEF_STEREO_COUNT>
0

> <PUBCHEM_ATOM_UDEF_STEREO_COUNT>
0

> <PUBCHEM_BOND_DEF_STEREO_COUNT>
0

> <PUBCHEM_BOND_UDEF_STEREO_COUNT>
0

> <PUBCHEM_ISOTOPIC_ATOM_COUNT>
0

> <PUBCHEM_COMPONENT_COUNT>
1

> <PUBCHEM_CACTVS_TAUTO_COUNT>
1

> <PUBCHEM_CONFORMER_ID>
0001F06B00000001

> <PUBCHEM_MMFF94_ENERGY>
49.6711

> <PUBCHEM_FEATURE_SELFOVERLAP>
43.663

> <PUBCHEM_SHAPE_FINGERPRINT>
10595046 47 18340765945397875369
10693767 8 17986399880575374974
11135609 187 18410008836776823913
11186622 174 18187642462940633338
11961588 58 18260544554184269603
11973863 73 12750699312919109678
12236239 1 18272932683027828549
12293681 160 18131636668683087992
12403260 363 18194398896930529634
12633257 1 14851897988319205424
12838862 33 18336532907262378780
13631057 29 18343298215472333871
13673619 4 13542463168299105955
13685833 64 11024108750196275820
14123256 10 18412824699008343133
14251764 30 14405181777146832213
14257110 125 18408605868180965262
14347424 109 10737286857240955974
14528608 73 18411982438219696701
14767858 380 18342731940738952431
14787075 74 18343301457655242689
14931854 50 18272657831223504372
15003188 100 18411138073720112228
15131766 46 16155979355623598012
15301273 46 13334731302671115466
16993438 75 18188496912304069835
18608769 82 18338521962456850467
20157964 124 18335139769836215394
20554085 129 18130773574247707394
20567600 254 17894348886464767754
20715895 44 18409732881107128616
21049683 118 18043511997481146026
21049683 271 18411697734403941249
21054139 6 18341609309165357687
21298829 104 18335709316522599044
21344244 246 17059510526214207958
21521239 73 17989211413147738718
23559900 14 18272085062790228528
23569917 315 18411140204014121002
23845131 108 17967254212948789962
2838139 119 18334576823977418300
3103668 31 18050287269563124927
312425 54 11963397383484152668
335352 9 18409172096196896558
3472631 163 18409736196657928980
4258327 124 17605010280239286236
4325135 7 18341892996334893677
474 4 18337114475544970562
484989 97 18194686088814958507
5104073 3 18041289772332381819
5207 217 18335701667659695347
53794403 172 18266460004331775024
59755656 520 18334290985314214558
6058803 2 17983012242146769971
6327066 14 18335142042100892052
6371009 1 18410291394122300776
67856867 119 18264764350989457419
7970288 3 9871465392315424228
8863177 126 12102975978041434173
9981440 41 18335427884837972626

> <PUBCHEM_SHAPE_MULTIPOLES>
469.95
17.37
3
0.93
7.84
1.67
-0.05
-8.56
-7.99
-0.71
0.48
0.96
-0.07
-1.4

> <PUBCHEM_SHAPE_SELFOVERLAP>
1012.707

> <PUBCHEM_SHAPE_VOLUME>
262.2

> <PUBCHEM_COORDINATE_TYPE>
2
5
10

$$$$
