REMARK  Name = 127007
REMARK  2 active torsions:
REMARK  status: ('A' for Active; 'I' for Inactive)
REMARK    1  A    between atoms: C_9  and  C_18
REMARK    2  A    between atoms: C_18  and  C_20
REMARK                            x       y       z     vdW  Elec       q    Type
REMARK                         _______ _______ _______ _____ _____    ______ ____
ROOT
ATOM      1  O   UNL     1       1.031  -1.669  -1.674  0.00  0.00    -0.272 OA
ATOM      2  O   UNL     1       3.326   1.834   0.353  0.00  0.00    -0.252 OA
ATOM      3  O   UNL     1      -3.593  -0.587  -1.030  0.00  0.00    -0.251 OA
ATOM      4  N   UNL     1      -1.315  -0.601  -0.901  0.00  0.00    -0.277 N 
ATOM      5  N   UNL     1       0.998   1.866   0.296  0.00  0.00    -0.227 N 
ATOM      6  N   UNL     1       2.227   0.027  -0.606  0.00  0.00    -0.210 N 
ATOM      7  N   UNL     1      -1.353   1.851   0.259  0.00  0.00    -0.161 NA
ATOM      8  N   UNL     1      -2.516   1.163   0.051  0.00  0.00    -0.162 N 
ATOM      9  C   UNL     1      -0.144  -0.259  -0.122  0.00  0.00    +0.185 C 
ATOM     10  C   UNL     1      -0.229   1.219   0.116  0.00  0.00    +0.158 C 
ATOM     11  C   UNL     1       1.068  -0.702  -0.912  0.00  0.00    +0.256 C 
ATOM     12  C   UNL     1       2.263   1.281   0.053  0.00  0.00    +0.318 C 
ATOM     13  C   UNL     1      -2.555  -0.049  -0.638  0.00  0.00    +0.324 C 
ATOM     14  C   UNL     1       0.967   3.252   0.763  0.00  0.00    +0.123 C 
ATOM     15  C   UNL     1       3.506  -0.556  -0.999  0.00  0.00    +0.124 C 
ATOM     16  C   UNL     1      -3.756   1.715   0.567  0.00  0.00    +0.144 C 
ATOM     17  H   UNL     1      -1.226  -1.246  -1.639  0.00  0.00    +0.152 HD
ENDROOT
BRANCH   9  18
ATOM     18  C   UNL     1      -0.144  -0.992   1.226  0.00  0.00    +0.099 C 
BRANCH  18  20
ATOM     19  O   UNL     1      -0.885  -3.159   0.449  0.00  0.00    -0.296 OA
ATOM     20  C   UNL     1      -0.050  -2.491   1.058  0.00  0.00    +0.154 C 
ATOM     21  C   UNL     1       1.153  -3.142   1.691  0.00  0.00    +0.072 C 
ENDBRANCH  18  20
ENDBRANCH   9  18
TORSDOF 2
