127027
  -OEChem-03292013323D

 37 37  0     1  0  0  0  0  0999 V2000
    0.3877    0.8810   -0.1775 O   0  0  0  0  0  0  0  0  0  0  0  0
   -1.4787   -0.5171   -0.2534 O   0  0  0  0  0  0  0  0  0  0  0  0
    2.9426   -2.2828   -0.7515 O   0  0  0  0  0  0  0  0  0  0  0  0
    3.9641    0.2246    0.2609 O   0  0  0  0  0  0  0  0  0  0  0  0
    0.1995   -2.7463    0.2186 O   0  0  0  0  0  0  0  0  0  0  0  0
    1.2023    3.4233    0.4774 O   0  0  0  0  0  0  0  0  0  0  0  0
   -4.3050   -0.4979   -0.7686 O   0  0  0  0  0  0  0  0  0  0  0  0
    2.1677   -1.3643    0.0206 C   0  0  1  0  0  0  0  0  0  0  0  0
    2.6615    0.0488   -0.2901 C   0  0  1  0  0  0  0  0  0  0  0  0
    0.6889   -1.5238   -0.3322 C   0  0  2  0  0  0  0  0  0  0  0  0
    1.7161    1.0969    0.3017 C   0  0  1  0  0  0  0  0  0  0  0  0
   -0.1452   -0.3753    0.2353 C   0  0  1  0  0  0  0  0  0  0  0  0
    2.1235    2.5126   -0.0941 C   0  0  0  0  0  0  0  0  0  0  0  0
   -2.4236    0.0079    0.6659 C   0  0  1  0  0  0  0  0  0  0  0  0
   -3.6449    0.5626   -0.0805 C   0  0  1  0  0  0  0  0  0  0  0  0
   -2.7898   -1.0888    1.6591 C   0  0  0  0  0  0  0  0  0  0  0  0
   -3.2667    1.6386   -1.0918 C   0  0  0  0  0  0  0  0  0  0  0  0
    2.3430   -1.6197    1.0729 H   0  0  0  0  0  0  0  0  0  0  0  0
    2.7453    0.1748   -1.3765 H   0  0  0  0  0  0  0  0  0  0  0  0
    0.5630   -1.5929   -1.4192 H   0  0  0  0  0  0  0  0  0  0  0  0
    1.7042    1.0426    1.3989 H   0  0  0  0  0  0  0  0  0  0  0  0
   -0.1315   -0.4298    1.3323 H   0  0  0  0  0  0  0  0  0  0  0  0
    2.0971    2.6483   -1.1804 H   0  0  0  0  0  0  0  0  0  0  0  0
    3.1248    2.7622    0.2682 H   0  0  0  0  0  0  0  0  0  0  0  0
   -1.9859    0.8512    1.2188 H   0  0  0  0  0  0  0  0  0  0  0  0
   -4.3579    0.9885    0.6353 H   0  0  0  0  0  0  0  0  0  0  0  0
    3.8761   -2.1472   -0.5145 H   0  0  0  0  0  0  0  0  0  0  0  0
    3.8984    0.1217    1.2257 H   0  0  0  0  0  0  0  0  0  0  0  0
    0.2989   -2.7033    1.1850 H   0  0  0  0  0  0  0  0  0  0  0  0
   -3.5928   -0.7645    2.3284 H   0  0  0  0  0  0  0  0  0  0  0  0
   -3.1047   -2.0036    1.1456 H   0  0  0  0  0  0  0  0  0  0  0  0
   -1.9306   -1.3675    2.2776 H   0  0  0  0  0  0  0  0  0  0  0  0
   -2.6316    1.2335   -1.8870 H   0  0  0  0  0  0  0  0  0  0  0  0
   -2.7439    2.4707   -0.6109 H   0  0  0  0  0  0  0  0  0  0  0  0
   -4.1655    2.0283   -1.5821 H   0  0  0  0  0  0  0  0  0  0  0  0
    0.3162    3.1885    0.1525 H   0  0  0  0  0  0  0  0  0  0  0  0
   -4.7402   -1.0580   -0.1041 H   0  0  0  0  0  0  0  0  0  0  0  0
  1 11  1  0  0  0  0
  1 12  1  0  0  0  0
  2 12  1  0  0  0  0
  2 14  1  0  0  0  0
  3  8  1  0  0  0  0
  3 27  1  0  0  0  0
  4  9  1  0  0  0  0
  4 28  1  0  0  0  0
  5 10  1  0  0  0  0
  5 29  1  0  0  0  0
  6 13  1  0  0  0  0
  6 36  1  0  0  0  0
  7 15  1  0  0  0  0
  7 37  1  0  0  0  0
  8  9  1  0  0  0  0
  8 10  1  0  0  0  0
  8 18  1  0  0  0  0
  9 11  1  0  0  0  0
  9 19  1  0  0  0  0
 10 12  1  0  0  0  0
 10 20  1  0  0  0  0
 11 13  1  0  0  0  0
 11 21  1  0  0  0  0
 12 22  1  0  0  0  0
 13 23  1  0  0  0  0
 13 24  1  0  0  0  0
 14 15  1  0  0  0  0
 14 16  1  0  0  0  0
 14 25  1  0  0  0  0
 15 17  1  0  0  0  0
 15 26  1  0  0  0  0
 16 30  1  0  0  0  0
 16 31  1  0  0  0  0
 16 32  1  0  0  0  0
 17 33  1  0  0  0  0
 17 34  1  0  0  0  0
 17 35  1  0  0  0  0
M  END
> <PUBCHEM_COMPOUND_CID>
127027

> <PUBCHEM_CONFORMER_RMSD>
0.6

> <PUBCHEM_CONFORMER_DIVERSEORDER>
3
329
296
302
81
193
230
324
351
91
260
222
315
122
319
345
310
316
19
109
209
279
332
93
361
32
307
185
253
201
295
358
107
196
223
120
270
334
276
321
37
180
80
22
15
336
353
104
348
83
41
331
322
30
278
174
151
137
267
101
232
33
229
63
347
183
155
341
138
325
357
94
82
339
306
78
350
51
305
139
153
116
283
225
79
243
160
111
157
346
320
290
29
231
246
356
21
318
349
233
54
207
333
52
287
204
176
281
338
58
45
27
23
282
365
129
261
10
198
363
212
312
168
72
214
202
53
308
227
205
70
35
291
34
130
105
285
40
249
238
164
25
206
106
156
301
252
268
24
119
362
132
150
217
179
314
224
254
144
31
17
88
8
146
244
288
215
127
286
184
170
166
211
50
218
61
250
135
12
237
89
84
309
242
359
257
354
110
60
323
5
126
190
264
148
241
181
113
326
7
187
216
20
77
220
327
337
208
248
355
85
149
199
330
221
195
1
121
342
245
294
344
114
203
191
100
57
159
96
274
186
189
343
112
228
289
239
2
143
292
335
141
297
263
182
328
4
145
247
28
300
161
14
280
284
133
136
167
240
271
258
9
74
43
175
340
188
200
178
177
69
134
39
311
352
38
210
171
364
140
6
251
75
226
266
98
304
13
65
265
59
262
234
152
259
108
73
158
272
118
44
66
36
97
95
67
303
255
169
48
298
165
273
236
92
11
124
62
192
142
213
313
47
256
173
86
16
87
235
317
275
117
269
76
102
194
99
162
18
68
49
55
71
26
64
277
46
131
125
163
128
147
299
90
103
56
42
154
219
360
293
197
123
115
172

> <PUBCHEM_MMFF94_PARTIAL_CHARGES>
20
1 -0.56
10 0.28
11 0.28
12 0.56
13 0.28
14 0.28
15 0.28
2 -0.56
27 0.4
28 0.4
29 0.4
3 -0.68
36 0.4
37 0.4
4 -0.68
5 -0.68
6 -0.68
7 -0.68
8 0.28
9 0.28

> <PUBCHEM_EFFECTIVE_ROTOR_COUNT>
5.2

> <PUBCHEM_PHARMACOPHORE_FEATURES>
13
1 1 acceptor
1 2 acceptor
1 3 acceptor
1 3 donor
1 4 acceptor
1 4 donor
1 5 acceptor
1 5 donor
1 6 acceptor
1 6 donor
1 7 acceptor
1 7 donor
6 1 8 9 10 11 12 rings

> <PUBCHEM_HEAVY_ATOM_COUNT>
17

> <PUBCHEM_ATOM_DEF_STEREO_COUNT>
5

> <PUBCHEM_ATOM_UDEF_STEREO_COUNT>
2

> <PUBCHEM_BOND_DEF_STEREO_COUNT>
0

> <PUBCHEM_BOND_UDEF_STEREO_COUNT>
0

> <PUBCHEM_ISOTOPIC_ATOM_COUNT>
0

> <PUBCHEM_COMPONENT_COUNT>
1

> <PUBCHEM_CACTVS_TAUTO_COUNT>
1

> <PUBCHEM_CONFORMER_ID>
0001F03300000003

> <PUBCHEM_MMFF94_ENERGY>
43.2824

> <PUBCHEM_FEATURE_SELFOVERLAP>
66.039

> <PUBCHEM_SHAPE_FINGERPRINT>
10608611 8 18334294284080777349
10967382 1 18411700989170915400
10980938 120 18412262822359077758
11471102 20 18410853226745258991
11578080 2 13120234373583327343
116883 192 17766280868970125676
12403259 226 18334574633765344623
124424 183 18040994029373904362
12654215 9 18335138631558943398
13140716 1 18051979409451330496
13294875 104 17533752954630787609
13922767 16 18409163324786916440
14026960 21 18118409685482186585
14251717 144 18412259528018993503
14648413 74 18335421287525254841
15219456 202 18334019371740177107
16945 1 18341060704339251922
17041 50 18337955575806366383
17802600 8 18335413591139091149
18186145 218 18201169830988576810
18219364 16 18337401512351270857
19049666 15 18114466647985528659
200 152 18131626786469682711
20233049 118 18261112972084979348
20606313 2 18411697656170779254
20645477 70 18199749154665700423
20671657 53 18127697032431691183
21501502 16 17980203307443647786
21524375 3 18196369440594395592
21639500 275 18341604958189361517
22096605 113 18340763866359520937
221490 88 18410298046667673111
22892500 29 18336538352784421253
2334 1 17691972982847185960
23402539 116 18271515413088394422
23402655 69 18341041914115905565
23526113 38 18334858273110323123
23557571 272 17604154843503532835
23558518 356 17900818567723269298
25 1 18189896426953287119
2748010 2 18261962954428212717
3060560 45 18342735200165826382
350125 39 17835247014420830696
6049 1 18114198444526366849
6438718 38 17197128561967496829
7364860 26 18413107290112425020
77492 1 17346323682757420067
81228 2 17690288105720959696
9709674 26 18408041818974593371

> <PUBCHEM_SHAPE_MULTIPOLES>
308.77
6.62
2.87
0.96
3.74
1.19
-0.16
0.39
0.76
-1.99
-0.05
0.78
-0.1
1.1

> <PUBCHEM_SHAPE_SELFOVERLAP>
609.849

> <PUBCHEM_SHAPE_VOLUME>
182.7

> <PUBCHEM_COORDINATE_TYPE>
2
5
10

$$$$
