REMARK  Name = 1270513
REMARK  2 active torsions:
REMARK  status: ('A' for Active; 'I' for Inactive)
REMARK    1  A    between atoms: C_6  and  C_10
REMARK    2  A    between atoms: C_11  and  O_16
REMARK                            x       y       z     vdW  Elec       q    Type
REMARK                         _______ _______ _______ _____ _____    ______ ____
ROOT
ATOM      1  S   UNL     1      -1.311  -1.248  -0.033  0.00  0.00    -0.061 S 
ATOM      2  S   UNL     1      -4.151  -2.315  -0.248  0.00  0.00    -0.027 S 
ATOM      3  O   UNL     1      -2.481   2.376   0.330  0.00  0.00    -0.269 OA
ATOM      4  N   UNL     1      -3.384   0.247   0.062  0.00  0.00    -0.270 N 
ATOM      5  C   UNL     1      -1.065   0.446   0.164  0.00  0.00    +0.085 C 
ATOM      6  C   UNL     1       0.130   1.058   0.273  0.00  0.00    +0.014 C 
ATOM      7  C   UNL     1      -2.360   1.167   0.199  0.00  0.00    +0.256 C 
ATOM      8  C   UNL     1      -3.056  -1.079  -0.074  0.00  0.00    +0.118 C 
ATOM      9  H   UNL     1      -4.325   0.537   0.061  0.00  0.00    +0.156 HD
ENDROOT
BRANCH   6  10
ATOM     10  C   UNL     1       1.435   0.412   0.246  0.00  0.00    +0.034 C 
ATOM     11  C   UNL     1       2.111   0.205  -0.957  0.00  0.00    +0.134 C 
ATOM     12  C   UNL     1       2.009  -0.001   1.448  0.00  0.00    +0.003 C 
ATOM     13  C   UNL     1       3.360  -0.416  -0.957  0.00  0.00    +0.037 C 
ATOM     14  C   UNL     1       3.258  -0.622   1.448  0.00  0.00    +0.000 C 
ATOM     15  C   UNL     1       3.933  -0.830   0.246  0.00  0.00    +0.003 C 
BRANCH  11  16
ATOM     16  O   UNL     1       1.573   0.599  -2.146  0.00  0.00    -0.506 OA
ATOM     17  H   UNL     1       0.735   1.018  -2.166  0.00  0.00    +0.292 HD
ENDBRANCH  11  16
ENDBRANCH   6  10
TORSDOF 2
