127070
  -OEChem-03292013323D

 36 40  0     1  0  0  0  0  0999 V2000
    3.2948    1.8613   -0.3309 O   0  0  0  0  0  0  0  0  0  0  0  0
    5.2274    0.9812    0.7553 O   0  0  0  0  0  0  0  0  0  0  0  0
    4.0476   -1.3165   -1.4689 O   0  0  0  0  0  0  0  0  0  0  0  0
    1.3457   -2.3776   -0.1681 O   0  0  0  0  0  0  0  0  0  0  0  0
   -1.2013   -2.5261   -0.0182 O   0  0  0  0  0  0  0  0  0  0  0  0
   -1.6948    2.7967   -0.0662 O   0  0  0  0  0  0  0  0  0  0  0  0
   -3.7334   -2.8580    0.1382 O   0  0  0  0  0  0  0  0  0  0  0  0
   -4.2667    2.6314    0.0881 O   0  0  0  0  0  0  0  0  0  0  0  0
    3.6934   -0.5604   -0.3272 C   0  0  1  0  0  0  0  0  0  0  0  0
    4.3318    0.8472   -0.3762 C   0  0  1  0  0  0  0  0  0  0  0  0
    2.2564   -0.2038   -0.2486 C   0  0  0  0  0  0  0  0  0  0  0  0
    2.1128    1.1732   -0.2603 C   0  0  0  0  0  0  0  0  0  0  0  0
    4.2987   -1.1228    0.8979 C   0  0  0  0  0  0  0  0  0  0  0  0
    1.1479   -1.0316   -0.1735 C   0  0  0  0  0  0  0  0  0  0  0  0
   -0.1227   -0.4415   -0.1091 C   0  0  0  0  0  0  0  0  0  0  0  0
   -0.2598    0.9569   -0.1215 C   0  0  0  0  0  0  0  0  0  0  0  0
    0.8719    1.7798   -0.1980 C   0  0  0  0  0  0  0  0  0  0  0  0
    5.1230   -0.2212    1.4175 C   0  0  0  0  0  0  0  0  0  0  0  0
   -1.3173   -1.3073   -0.0272 C   0  0  0  0  0  0  0  0  0  0  0  0
   -1.5997    1.5757   -0.0529 C   0  0  0  0  0  0  0  0  0  0  0  0
   -2.6542   -0.6836    0.0421 C   0  0  0  0  0  0  0  0  0  0  0  0
   -2.7903    0.7059    0.0295 C   0  0  0  0  0  0  0  0  0  0  0  0
   -3.7920   -1.4957    0.1211 C   0  0  0  0  0  0  0  0  0  0  0  0
   -4.0643    1.2831    0.0958 C   0  0  0  0  0  0  0  0  0  0  0  0
   -5.0595   -0.9164    0.1871 C   0  0  0  0  0  0  0  0  0  0  0  0
   -5.1954    0.4702    0.1743 C   0  0  0  0  0  0  0  0  0  0  0  0
    4.9194    1.0119   -1.2883 H   0  0  0  0  0  0  0  0  0  0  0  0
    4.1187   -2.1075    1.3018 H   0  0  0  0  0  0  0  0  0  0  0  0
    0.7973    2.8624   -0.2076 H   0  0  0  0  0  0  0  0  0  0  0  0
    5.7290   -0.3047    2.3018 H   0  0  0  0  0  0  0  0  0  0  0  0
    5.0164   -1.3995   -1.4957 H   0  0  0  0  0  0  0  0  0  0  0  0
    2.2848   -2.5801   -0.3105 H   0  0  0  0  0  0  0  0  0  0  0  0
   -5.9472   -1.5406    0.2487 H   0  0  0  0  0  0  0  0  0  0  0  0
   -6.1916    0.9019    0.2265 H   0  0  0  0  0  0  0  0  0  0  0  0
   -2.8157   -3.1641    0.0914 H   0  0  0  0  0  0  0  0  0  0  0  0
   -5.2194    2.8187    0.1413 H   0  0  0  0  0  0  0  0  0  0  0  0
  1 10  1  0  0  0  0
  1 12  1  0  0  0  0
  2 10  1  0  0  0  0
  2 18  1  0  0  0  0
  3  9  1  0  0  0  0
  3 31  1  0  0  0  0
  4 14  1  0  0  0  0
  4 32  1  0  0  0  0
  5 19  2  0  0  0  0
  6 20  2  0  0  0  0
  7 23  1  0  0  0  0
  7 35  1  0  0  0  0
  8 24  1  0  0  0  0
  8 36  1  0  0  0  0
  9 10  1  0  0  0  0
  9 11  1  0  0  0  0
  9 13  1  0  0  0  0
 10 27  1  0  0  0  0
 11 12  2  0  0  0  0
 11 14  1  0  0  0  0
 12 17  1  0  0  0  0
 13 18  2  0  0  0  0
 13 28  1  0  0  0  0
 14 15  2  0  0  0  0
 15 16  1  0  0  0  0
 15 19  1  0  0  0  0
 16 17  2  0  0  0  0
 16 20  1  0  0  0  0
 17 29  1  0  0  0  0
 18 30  1  0  0  0  0
 19 21  1  0  0  0  0
 20 22  1  0  0  0  0
 21 22  1  0  0  0  0
 21 23  2  0  0  0  0
 22 24  2  0  0  0  0
 23 25  1  0  0  0  0
 24 26  1  0  0  0  0
 25 26  2  0  0  0  0
 25 33  1  0  0  0  0
 26 34  1  0  0  0  0
M  END
> <PUBCHEM_COMPOUND_CID>
127070

> <PUBCHEM_CONFORMER_RMSD>
0.6

> <PUBCHEM_CONFORMER_DIVERSEORDER>
1

> <PUBCHEM_MMFF94_PARTIAL_CHARGES>
35
1 -0.36
10 0.56
11 -0.14
12 0.08
13 -0.29
14 0.08
15 0.09
16 0.09
17 -0.15
18 -0.07
19 0.4
2 -0.36
20 0.4
21 0.09
22 0.09
23 0.08
24 0.08
25 -0.15
26 -0.15
28 0.15
29 0.15
3 -0.68
30 0.15
31 0.4
32 0.45
33 0.15
34 0.15
35 0.45
36 0.45
4 -0.53
5 -0.57
6 -0.57
7 -0.53
8 -0.53
9 0.56

> <PUBCHEM_EFFECTIVE_ROTOR_COUNT>
0.4

> <PUBCHEM_PHARMACOPHORE_FEATURES>
14
1 1 acceptor
1 2 acceptor
1 3 acceptor
1 3 donor
1 4 donor
1 5 acceptor
1 6 acceptor
1 7 donor
1 8 donor
5 1 9 10 11 12 rings
5 2 9 10 13 18 rings
6 11 12 14 15 16 17 rings
6 15 16 19 20 21 22 rings
6 21 22 23 24 25 26 rings

> <PUBCHEM_HEAVY_ATOM_COUNT>
26

> <PUBCHEM_ATOM_DEF_STEREO_COUNT>
2

> <PUBCHEM_ATOM_UDEF_STEREO_COUNT>
0

> <PUBCHEM_BOND_DEF_STEREO_COUNT>
0

> <PUBCHEM_BOND_UDEF_STEREO_COUNT>
0

> <PUBCHEM_ISOTOPIC_ATOM_COUNT>
0

> <PUBCHEM_COMPONENT_COUNT>
1

> <PUBCHEM_CACTVS_TAUTO_COUNT>
67

> <PUBCHEM_CONFORMER_ID>
0001F05E00000001

> <PUBCHEM_MMFF94_ENERGY>
89.3136

> <PUBCHEM_FEATURE_SELFOVERLAP>
71.744

> <PUBCHEM_SHAPE_FINGERPRINT>
10062212 137 18409162242518487287
10319926 262 18268973346790023226
10411042 1 17906453582486594351
10616163 171 18411141346458597039
10967382 1 18410296878715675781
11578080 2 13469035535523191017
12107183 9 17902222313216584960
12236239 1 17748825219709208985
12403260 363 18337104674265992623
12403814 3 17676485030088051021
12838862 33 18338218403027218257
12839892 36 18338222791740042098
13140716 1 18338232798744316112
13224815 77 18411139138454750308
13583140 156 17203319048380153190
13675066 3 18131631188225559734
13862211 1 18409444812917651703
14790565 3 18410018757613005908
15196674 1 18410576184180033500
15788980 27 16515682230153771167
17349148 13 17967538968910352269
17492 89 18409168813956256426
17857418 61 18334569161644648233
1813 80 17240486900864543700
18681886 176 18340491166507625748
19591789 44 18410857706744438143
200 152 18060136553105495053
20028762 73 18271803566175443447
20511986 3 18188191174301670473
20715895 44 18191862319516608813
21033648 29 17560786728363414546
21267235 1 18409459097936647711
21279426 13 18267869388942420743
21421861 104 17751634356133746242
21859007 373 17751616811245628773
23366157 5 17825671315820250588
23402539 116 18340761628628831999
23557571 272 18200889404010280021
23559900 14 18271250404926613094
3004659 81 18261116279209699932
335352 9 18337955588685954919
34797466 226 16773521074063873164
34934 24 18410569561910383063
350125 39 18410293652662941157
3680242 22 18335141929914537570
3886686 26 17038356824201338362
4214541 1 18409730651480953789
5104073 3 18410294734999722033
59755656 215 18341618062588502942
67856867 119 18189616214750430308
6823239 73 18200887180045694606
9709674 26 18341057345411309983

> <PUBCHEM_SHAPE_MULTIPOLES>
488.11
11.46
2.64
0.82
1.59
0.04
-0.05
0.07
-1.97
-1.98
0.09
0.96
0.12
0.01

> <PUBCHEM_SHAPE_SELFOVERLAP>
1141.308

> <PUBCHEM_SHAPE_VOLUME>
244.3

> <PUBCHEM_COORDINATE_TYPE>
2
5
10

$$$$
