REMARK  Name = 127027
REMARK  9 active torsions:
REMARK  status: ('A' for Active; 'I' for Inactive)
REMARK    1  A    between atoms: C_2  and  O_7
REMARK    2  A    between atoms: C_3  and  O_9
REMARK    3  A    between atoms: C_4  and  O_11
REMARK    4  A    between atoms: C_5  and  C_20
REMARK    5  A    between atoms: C_6  and  O_13
REMARK    6  A    between atoms: O_13  and  C_14
REMARK    7  A    between atoms: C_14  and  C_16
REMARK    8  A    between atoms: C_16  and  O_18
REMARK    9  A    between atoms: C_20  and  O_21
REMARK                            x       y       z     vdW  Elec       q    Type
REMARK                         _______ _______ _______ _____ _____    ______ ____
ROOT
ATOM      1  O   UNL     1       0.388   0.881  -0.177  0.00  0.00    -0.326 OA
ATOM      2  C   UNL     1       2.168  -1.364   0.021  0.00  0.00    +0.172 C 
ATOM      3  C   UNL     1       2.662   0.049  -0.290  0.00  0.00    +0.169 C 
ATOM      4  C   UNL     1       0.689  -1.524  -0.332  0.00  0.00    +0.196 C 
ATOM      5  C   UNL     1       1.716   1.097   0.302  0.00  0.00    +0.176 C 
ATOM      6  C   UNL     1      -0.145  -0.375   0.235  0.00  0.00    +0.266 C 
ENDROOT
BRANCH   2   7
ATOM      7  O   UNL     1       2.943  -2.283  -0.751  0.00  0.00    -0.379 OA
ATOM      8  H   UNL     1       3.881  -2.182  -0.528  0.00  0.00    +0.211 HD
ENDBRANCH   2   7
BRANCH   3   9
ATOM      9  O   UNL     1       3.964   0.225   0.261  0.00  0.00    -0.379 OA
ATOM     10  H   UNL     1       4.565  -0.439  -0.113  0.00  0.00    +0.211 HD
ENDBRANCH   3   9
BRANCH   4  11
ATOM     11  O   UNL     1       0.200  -2.746   0.219  0.00  0.00    -0.378 OA
ATOM     12  H   UNL     1       0.717  -3.488  -0.130  0.00  0.00    +0.211 HD
ENDBRANCH   4  11
BRANCH   6  13
ATOM     13  O   UNL     1      -1.479  -0.517  -0.253  0.00  0.00    -0.329 OA
BRANCH  13  14
ATOM     14  C   UNL     1      -2.424   0.008   0.666  0.00  0.00    +0.145 C 
ATOM     15  C   UNL     1      -2.790  -1.089   1.659  0.00  0.00    +0.035 C 
BRANCH  14  16
ATOM     16  C   UNL     1      -3.645   0.563  -0.081  0.00  0.00    +0.138 C 
ATOM     17  C   UNL     1      -3.267   1.639  -1.092  0.00  0.00    +0.034 C 
BRANCH  16  18
ATOM     18  O   UNL     1      -4.305  -0.498  -0.769  0.00  0.00    -0.382 OA
ATOM     19  H   UNL     1      -4.551  -1.190  -0.135  0.00  0.00    +0.210 HD
ENDBRANCH  16  18
ENDBRANCH  14  16
ENDBRANCH  13  14
ENDBRANCH   6  13
BRANCH   5  20
ATOM     20  C   UNL     1       2.123   2.513  -0.094  0.00  0.00    +0.169 C 
BRANCH  20  21
ATOM     21  O   UNL     1       1.202   3.423   0.477  0.00  0.00    -0.379 OA
ATOM     22  H   UNL     1       1.449   4.329   0.234  0.00  0.00    +0.211 HD
ENDBRANCH  20  21
ENDBRANCH   5  20
TORSDOF 9
