REMARK  Name = 127083
REMARK  5 active torsions:
REMARK  status: ('A' for Active; 'I' for Inactive)
REMARK    1  A    between atoms: C_5  and  C_17
REMARK    2  A    between atoms: C_7  and  C_9
REMARK    3  A    between atoms: C_18  and  C_21
REMARK    4  A    between atoms: C_21  and  O_22
REMARK    5  A    between atoms: O_22  and  C_23
REMARK                            x       y       z     vdW  Elec       q    Type
REMARK                         _______ _______ _______ _____ _____    ______ ____
ROOT
ATOM      1  S   UNL     1       0.607  -3.502   0.348  0.00  0.00    -0.035 S 
ATOM      2  N   UNL     1       0.853  -0.939   0.241  0.00  0.00    -0.144 N 
ATOM      3  N   UNL     1       1.678   0.119   0.099  0.00  0.00    -0.105 NA
ATOM      4  N   UNL     1       2.863  -1.860   0.027  0.00  0.00    -0.325 NA
ATOM      5  C   UNL     1      -0.513  -1.136   0.407  0.00  0.00    +0.120 C 
ATOM      6  C   UNL     1       1.592  -2.089   0.189  0.00  0.00    +0.249 C 
ATOM      7  C   UNL     1       2.868  -0.489  -0.022  0.00  0.00    +0.105 C 
ATOM      8  C   UNL     1      -0.810  -2.450   0.482  0.00  0.00    +0.059 C 
ENDROOT
BRANCH   7   9
ATOM      9  C   UNL     1       4.089   0.245  -0.198  0.00  0.00    +0.075 C 
ATOM     10  C   UNL     1       4.064   1.639  -0.247  0.00  0.00    +0.011 C 
ATOM     11  C   UNL     1       5.301  -0.435  -0.319  0.00  0.00    +0.011 C 
ATOM     12  C   UNL     1       5.250   2.352  -0.418  0.00  0.00    +0.001 C 
ATOM     13  C   UNL     1       6.487   0.278  -0.489  0.00  0.00    +0.001 C 
ATOM     14  C   UNL     1       6.462   1.672  -0.539  0.00  0.00    +0.000 C 
ENDBRANCH   7   9
BRANCH   5  17
ATOM     15  S   UNL     1      -1.020   1.418   1.159  0.00  0.00    -0.073 S 
ATOM     16  N   UNL     1      -2.756  -0.188   0.115  0.00  0.00    -0.391 NA
ATOM     17  C   UNL     1      -1.490  -0.103   0.497  0.00  0.00    +0.173 C 
ATOM     18  C   UNL     1      -3.392   1.014   0.359  0.00  0.00    +0.196 C 
ATOM     19  C   UNL     1      -2.614   2.005   0.921  0.00  0.00    +0.130 C 
BRANCH  18  21
ATOM     20  O   UNL     1      -5.421   2.227   0.219  0.00  0.00    -0.242 OA
ATOM     21  C   UNL     1      -4.780   1.179   0.030  0.00  0.00    +0.368 C 
BRANCH  21  22
ATOM     22  O   UNL     1      -5.366   0.058  -0.524  0.00  0.00    -0.444 OA
BRANCH  22  23
ATOM     23  C   UNL     1      -6.751   0.153  -0.875  0.00  0.00    +0.209 C 
ATOM     24  C   UNL     1      -7.202  -1.167  -1.462  0.00  0.00    +0.051 C 
ENDBRANCH  22  23
ENDBRANCH  21  22
ENDBRANCH  18  21
ENDBRANCH   5  17
TORSDOF 5
