127032789
  -OEChem-03292013293D

 65 67  0     1  0  0  0  0  0999 V2000
    0.8124    0.0092   -0.9901 O   0  0  0  0  0  0  0  0  0  0  0  0
    0.4310   -0.0294    2.3474 O   0  0  0  0  0  0  0  0  0  0  0  0
    0.2840    3.5411   -1.7896 O   0  0  0  0  0  0  0  0  0  0  0  0
   -2.1359    0.1366    2.5258 O   0  0  0  0  0  0  0  0  0  0  0  0
    3.1300   -2.5548   -1.4825 O   0  0  0  0  0  0  0  0  0  0  0  0
   -4.4077    1.9075   -1.2559 O   0  0  0  0  0  0  0  0  0  0  0  0
   -4.4130    0.4293    1.0783 O   0  0  0  0  0  0  0  0  0  0  0  0
    5.0565   -1.2766    0.0440 O   0  0  0  0  0  0  0  0  0  0  0  0
    4.0873   -0.3073    1.9096 O   0  0  0  0  0  0  0  0  0  0  0  0
    1.6597    1.4057    0.8330 C   0  0  2  0  0  0  0  0  0  0  0  0
    0.4018    1.2667    1.7323 C   0  0  1  0  0  0  0  0  0  0  0  0
    1.6216    2.7315    0.0476 C   0  0  2  0  0  0  0  0  0  0  0  0
   -0.8733    1.4320    0.9212 C   0  0  0  0  0  0  0  0  0  0  0  0
    1.8411    0.2068   -0.0684 C   0  0  0  0  0  0  0  0  0  0  0  0
    0.3371    2.8641   -0.7656 C   0  0  0  0  0  0  0  0  0  0  0  0
   -0.8947    2.1968   -0.2594 C   0  0  0  0  0  0  0  0  0  0  0  0
    0.3993    2.2928    2.8796 C   0  0  0  0  0  0  0  0  0  0  0  0
    2.8537    2.9224   -0.8427 C   0  0  0  0  0  0  0  0  0  0  0  0
    1.1608   -1.1530   -1.7641 C   0  0  2  0  0  0  0  0  0  0  0  0
    2.8492   -0.6651   -0.0795 C   0  0  0  0  0  0  0  0  0  0  0  0
   -2.0755    0.8489    1.3607 C   0  0  0  0  0  0  0  0  0  0  0  0
    2.4675   -1.5837   -1.1503 C   0  0  0  0  0  0  0  0  0  0  0  0
   -2.0848    2.3469   -0.9861 C   0  0  0  0  0  0  0  0  0  0  0  0
   -3.2576    1.0031    0.6356 C   0  0  0  0  0  0  0  0  0  0  0  0
    1.3306   -0.7537   -3.2229 C   0  0  0  0  0  0  0  0  0  0  0  0
   -3.2610    1.7488   -0.5380 C   0  0  0  0  0  0  0  0  0  0  0  0
    0.1385   -2.2217   -1.5662 C   0  0  0  0  0  0  0  0  0  0  0  0
    4.0376   -0.7153    0.7517 C   0  0  0  0  0  0  0  0  0  0  0  0
   -0.6717   -2.2874   -0.4994 C   0  0  0  0  0  0  0  0  0  0  0  0
   -4.6811    0.9358   -2.2636 C   0  0  0  0  0  0  0  0  0  0  0  0
   -1.6580   -3.3282   -0.3186 C   0  0  0  0  0  0  0  0  0  0  0  0
    6.3056   -1.3964    0.7330 C   0  0  0  0  0  0  0  0  0  0  0  0
   -2.4682   -3.3934    0.7485 C   0  0  0  0  0  0  0  0  0  0  0  0
   -3.4915   -4.4725    0.9509 C   0  0  0  0  0  0  0  0  0  0  0  0
   -4.8313   -4.0874    0.3435 C   0  0  0  0  0  0  0  0  0  0  0  0
    2.5273    1.4628    1.5007 H   0  0  0  0  0  0  0  0  0  0  0  0
    1.6175    3.5689    0.7568 H   0  0  0  0  0  0  0  0  0  0  0  0
    1.3325    2.2374    3.4519 H   0  0  0  0  0  0  0  0  0  0  0  0
   -0.4064    2.0844    3.5940 H   0  0  0  0  0  0  0  0  0  0  0  0
    0.2694    3.3214    2.5287 H   0  0  0  0  0  0  0  0  0  0  0  0
    2.8555    2.2333   -1.6939 H   0  0  0  0  0  0  0  0  0  0  0  0
    3.7766    2.7753   -0.2722 H   0  0  0  0  0  0  0  0  0  0  0  0
    2.8764    3.9380   -1.2537 H   0  0  0  0  0  0  0  0  0  0  0  0
    1.2517   -0.0966    2.8649 H   0  0  0  0  0  0  0  0  0  0  0  0
   -2.1100    2.9314   -1.9027 H   0  0  0  0  0  0  0  0  0  0  0  0
    2.0887    0.0315   -3.3283 H   0  0  0  0  0  0  0  0  0  0  0  0
    0.3979   -0.3436   -3.6272 H   0  0  0  0  0  0  0  0  0  0  0  0
    1.6382   -1.6012   -3.8451 H   0  0  0  0  0  0  0  0  0  0  0  0
    0.0784   -2.9949   -2.3299 H   0  0  0  0  0  0  0  0  0  0  0  0
   -3.0465   -0.1816    2.6520 H   0  0  0  0  0  0  0  0  0  0  0  0
   -0.6100   -1.5473    0.2894 H   0  0  0  0  0  0  0  0  0  0  0  0
   -5.1347    0.6768    0.4752 H   0  0  0  0  0  0  0  0  0  0  0  0
   -5.6472    1.1743   -2.7166 H   0  0  0  0  0  0  0  0  0  0  0  0
   -4.7354   -0.0686   -1.8315 H   0  0  0  0  0  0  0  0  0  0  0  0
   -3.9120    0.9674   -3.0418 H   0  0  0  0  0  0  0  0  0  0  0  0
   -1.7297   -4.0904   -1.0905 H   0  0  0  0  0  0  0  0  0  0  0  0
    6.1914   -2.0361    1.6132 H   0  0  0  0  0  0  0  0  0  0  0  0
    6.6752   -0.4072    1.0193 H   0  0  0  0  0  0  0  0  0  0  0  0
    7.0263   -1.8584    0.0531 H   0  0  0  0  0  0  0  0  0  0  0  0
   -2.4125   -2.6311    1.5219 H   0  0  0  0  0  0  0  0  0  0  0  0
   -3.1471   -5.4131    0.5046 H   0  0  0  0  0  0  0  0  0  0  0  0
   -3.6061   -4.6596    2.0246 H   0  0  0  0  0  0  0  0  0  0  0  0
   -5.2158   -3.1627    0.7874 H   0  0  0  0  0  0  0  0  0  0  0  0
   -5.5671   -4.8785    0.5201 H   0  0  0  0  0  0  0  0  0  0  0  0
   -4.7500   -3.9378   -0.7385 H   0  0  0  0  0  0  0  0  0  0  0  0
  1 14  1  0  0  0  0
  1 19  1  0  0  0  0
  2 11  1  0  0  0  0
  2 44  1  0  0  0  0
  3 15  2  0  0  0  0
  4 21  1  0  0  0  0
  4 50  1  0  0  0  0
  5 22  2  0  0  0  0
  6 26  1  0  0  0  0
  6 30  1  0  0  0  0
  7 24  1  0  0  0  0
  7 52  1  0  0  0  0
  8 28  1  0  0  0  0
  8 32  1  0  0  0  0
  9 28  2  0  0  0  0
 10 11  1  0  0  0  0
 10 12  1  0  0  0  0
 10 14  1  0  0  0  0
 10 36  1  0  0  0  0
 11 13  1  0  0  0  0
 11 17  1  0  0  0  0
 12 15  1  0  0  0  0
 12 18  1  0  0  0  0
 12 37  1  0  0  0  0
 13 16  1  0  0  0  0
 13 21  2  0  0  0  0
 14 20  2  0  0  0  0
 15 16  1  0  0  0  0
 16 23  2  0  0  0  0
 17 38  1  0  0  0  0
 17 39  1  0  0  0  0
 17 40  1  0  0  0  0
 18 41  1  0  0  0  0
 18 42  1  0  0  0  0
 18 43  1  0  0  0  0
 19 22  1  0  0  0  0
 19 25  1  0  0  0  0
 19 27  1  0  0  0  0
 20 22  1  0  0  0  0
 20 28  1  0  0  0  0
 21 24  1  0  0  0  0
 23 26  1  0  0  0  0
 23 45  1  0  0  0  0
 24 26  2  0  0  0  0
 25 46  1  0  0  0  0
 25 47  1  0  0  0  0
 25 48  1  0  0  0  0
 27 29  2  0  0  0  0
 27 49  1  0  0  0  0
 29 31  1  0  0  0  0
 29 51  1  0  0  0  0
 30 53  1  0  0  0  0
 30 54  1  0  0  0  0
 30 55  1  0  0  0  0
 31 33  2  0  0  0  0
 31 56  1  0  0  0  0
 32 57  1  0  0  0  0
 32 58  1  0  0  0  0
 32 59  1  0  0  0  0
 33 34  1  0  0  0  0
 33 60  1  0  0  0  0
 34 35  1  0  0  0  0
 34 61  1  0  0  0  0
 34 62  1  0  0  0  0
 35 63  1  0  0  0  0
 35 64  1  0  0  0  0
 35 65  1  0  0  0  0
M  END
> <PUBCHEM_COMPOUND_CID>
127032789

> <PUBCHEM_CONFORMER_RMSD>
1

> <PUBCHEM_CONFORMER_DIVERSEORDER>
1
14
8
13
10
9
3
15
6
12
7
5
11
2
4

> <PUBCHEM_MMFF94_PARTIAL_CHARGES>
39
1 -0.36
10 0.14
11 0.42
12 0.06
13 -0.14
14 -0.06
15 0.42
16 0.09
19 0.48
2 -0.68
20 0.03
21 0.08
22 0.49
23 -0.15
24 0.08
26 0.08
27 -0.29
28 0.71
29 -0.15
3 -0.57
30 0.28
31 -0.15
32 0.28
33 -0.29
34 0.14
4 -0.53
44 0.4
45 0.15
49 0.15
5 -0.57
50 0.45
51 0.15
52 0.45
56 0.15
6 -0.36
60 0.15
7 -0.53
8 -0.43
9 -0.57

> <PUBCHEM_EFFECTIVE_ROTOR_COUNT>
8

> <PUBCHEM_PHARMACOPHORE_FEATURES>
14
1 1 acceptor
1 2 acceptor
1 2 donor
1 20 anion
1 3 acceptor
1 35 hydrophobe
1 4 donor
1 5 acceptor
1 6 acceptor
1 7 donor
1 9 acceptor
5 1 14 19 20 22 rings
6 10 11 12 13 15 16 rings
6 13 16 21 23 24 26 rings

> <PUBCHEM_HEAVY_ATOM_COUNT>
35

> <PUBCHEM_ATOM_DEF_STEREO_COUNT>
4

> <PUBCHEM_ATOM_UDEF_STEREO_COUNT>
0

> <PUBCHEM_BOND_DEF_STEREO_COUNT>
2

> <PUBCHEM_BOND_UDEF_STEREO_COUNT>
0

> <PUBCHEM_ISOTOPIC_ATOM_COUNT>
0

> <PUBCHEM_COMPONENT_COUNT>
1

> <PUBCHEM_CACTVS_TAUTO_COUNT>
213

> <PUBCHEM_CONFORMER_ID>
07925DD500000001

> <PUBCHEM_MMFF94_ENERGY>
93.9318

> <PUBCHEM_FEATURE_SELFOVERLAP>
71.088

> <PUBCHEM_SHAPE_FINGERPRINT>
10930396 42 17977626937579087576
11135609 12 18191577760815923091
11607047 403 10509481370954756637
12156800 1 17898256572639533139
12422481 6 18057889232690103275
13140716 1 18342741857612729944
13965767 371 17054155083309102707
14787075 74 17631717275996843312
20600515 1 18270977751327314564
20691752 17 18124884447306690989
20764821 26 18267594674972708287
20905425 154 17910971449277092142
21421861 104 18051151463847236635
23419403 2 17986943231843145443
23559900 14 17530971246464333268
25223398 141 17967811648775391895
3380486 145 17632855343351299022
392239 28 17060043818700524458
469060 322 18052222195526442164
57527293 21 18338253617010047370
66674814 147 18267281215252673239

> <PUBCHEM_SHAPE_MULTIPOLES>
667.46
8.56
5.06
2.47
1.5
2.75
0.08
5.93
-0.96
-4.13
0.4
-0.09
-0.57
1.52

> <PUBCHEM_SHAPE_SELFOVERLAP>
1434.623

> <PUBCHEM_SHAPE_VOLUME>
366.3

> <PUBCHEM_COORDINATE_TYPE>
2
5
10

$$$$
