127029612
  -OEChem-03292013293D

 37 37  0     1  0  0  0  0  0999 V2000
   -2.9452   -0.2221    1.6170 O   0  0  0  0  0  0  0  0  0  0  0  0
   -2.4915   -2.4559   -1.1370 O   0  0  0  0  0  0  0  0  0  0  0  0
    1.2601    1.9972    0.1544 O   0  0  0  0  0  0  0  0  0  0  0  0
   -3.4957   -2.6311    0.8765 O   0  0  0  0  0  0  0  0  0  0  0  0
   -2.2352    2.5293   -1.6146 O   0  0  0  0  0  0  0  0  0  0  0  0
   -2.2624    2.3664    0.6563 O   0  0  0  0  0  0  0  0  0  0  0  0
    3.3535    1.0424    0.3871 N   0  0  0  0  0  0  0  0  0  0  0  0
   -2.3622   -0.5393    0.3391 C   0  0  2  0  0  0  0  0  0  0  0  0
   -0.8392   -0.4973    0.5688 C   0  0  0  0  0  0  0  0  0  0  0  0
    0.0318   -0.4468   -0.6902 C   0  0  0  0  0  0  0  0  0  0  0  0
   -2.9098    0.4574   -0.6919 C   0  0  0  0  0  0  0  0  0  0  0  0
    1.4952   -0.3220   -0.3411 C   0  0  0  0  0  0  0  0  0  0  0  0
   -2.8403   -1.9689    0.0793 C   0  0  0  0  0  0  0  0  0  0  0  0
    2.3309   -1.4303   -0.4216 C   0  0  0  0  0  0  0  0  0  0  0  0
    2.0504    0.8808    0.0649 C   0  0  0  0  0  0  0  0  0  0  0  0
   -2.4456    1.8728   -0.4474 C   0  0  0  0  0  0  0  0  0  0  0  0
    3.6773   -1.3038   -0.0983 C   0  0  0  0  0  0  0  0  0  0  0  0
    4.1350   -0.0571    0.2967 C   0  0  0  0  0  0  0  0  0  0  0  0
    4.5980   -2.4694   -0.1752 C   0  0  0  0  0  0  0  0  0  0  0  0
    1.8951    3.1979    0.5772 C   0  0  0  0  0  0  0  0  0  0  0  0
   -0.5430   -1.3723    1.1661 H   0  0  0  0  0  0  0  0  0  0  0  0
   -0.6006    0.3586    1.2146 H   0  0  0  0  0  0  0  0  0  0  0  0
   -0.1266   -1.3478   -1.2937 H   0  0  0  0  0  0  0  0  0  0  0  0
   -0.2391    0.3953   -1.3357 H   0  0  0  0  0  0  0  0  0  0  0  0
   -4.0062    0.4730   -0.6664 H   0  0  0  0  0  0  0  0  0  0  0  0
   -2.6105    0.1530   -1.7017 H   0  0  0  0  0  0  0  0  0  0  0  0
   -2.5499   -0.8057    2.2875 H   0  0  0  0  0  0  0  0  0  0  0  0
    1.9357   -2.3933   -0.7354 H   0  0  0  0  0  0  0  0  0  0  0  0
    5.1756    0.1057    0.5600 H   0  0  0  0  0  0  0  0  0  0  0  0
   -2.8195   -3.3702   -1.2735 H   0  0  0  0  0  0  0  0  0  0  0  0
    5.0037   -2.5628   -1.1874 H   0  0  0  0  0  0  0  0  0  0  0  0
    5.4319   -2.3631    0.5268 H   0  0  0  0  0  0  0  0  0  0  0  0
    4.0781   -3.3984    0.0824 H   0  0  0  0  0  0  0  0  0  0  0  0
   -1.9217    3.4470   -1.4671 H   0  0  0  0  0  0  0  0  0  0  0  0
    1.1382    3.9877    0.5980 H   0  0  0  0  0  0  0  0  0  0  0  0
    2.6766    3.4994   -0.1282 H   0  0  0  0  0  0  0  0  0  0  0  0
    2.3000    3.0935    1.5894 H   0  0  0  0  0  0  0  0  0  0  0  0
  1  8  1  0  0  0  0
  1 27  1  0  0  0  0
  2 13  1  0  0  0  0
  2 30  1  0  0  0  0
  3 15  1  0  0  0  0
  3 20  1  0  0  0  0
  4 13  2  0  0  0  0
  5 16  1  0  0  0  0
  5 34  1  0  0  0  0
  6 16  2  0  0  0  0
  7 15  1  0  0  0  0
  7 18  2  0  0  0  0
  8  9  1  0  0  0  0
  8 11  1  0  0  0  0
  8 13  1  0  0  0  0
  9 10  1  0  0  0  0
  9 21  1  0  0  0  0
  9 22  1  0  0  0  0
 10 12  1  0  0  0  0
 10 23  1  0  0  0  0
 10 24  1  0  0  0  0
 11 16  1  0  0  0  0
 11 25  1  0  0  0  0
 11 26  1  0  0  0  0
 12 14  1  0  0  0  0
 12 15  2  0  0  0  0
 14 17  2  0  0  0  0
 14 28  1  0  0  0  0
 17 18  1  0  0  0  0
 17 19  1  0  0  0  0
 18 29  1  0  0  0  0
 19 31  1  0  0  0  0
 19 32  1  0  0  0  0
 19 33  1  0  0  0  0
 20 35  1  0  0  0  0
 20 36  1  0  0  0  0
 20 37  1  0  0  0  0
M  END
> <PUBCHEM_COMPOUND_CID>
127029612

> <PUBCHEM_CONFORMER_RMSD>
0.8

> <PUBCHEM_CONFORMER_DIVERSEORDER>
1
59
128
52
38
147
72
99
167
142
145
47
85
71
26
143
162
73
123
124
174
171
43
93
39
164
58
54
92
138
101
55
89
121
97
116
135
65
74
33
66
146
102
96
118
141
158
23
170
94
90
57
64
152
69
83
144
105
100
129
125
122
41
91
8
156
51
79
132
60
78
157
148
30
10
149
154
34
115
13
153
104
61
130
5
42
46
106
80
126
48
50
49
151
114
56
16
24
127
98
28
169
165
6
111
27
36
76
109
134
25
103
87
108
75
77
68
29
113
175
45
119
168
19
159
136
166
17
67
81
150
37
155
107
86
117
82
139
44
88
12
161
32
137
172
110
20
140
112
40
14
7
15
53
133
95
21
4
160
176
2
173
11
131
120
70
31
22
18
163
62
3
9
35
84
63

> <PUBCHEM_MMFF94_PARTIAL_CHARGES>
24
1 -0.68
10 0.14
11 0.06
12 -0.14
13 0.66
14 -0.15
15 0.39
16 0.66
17 -0.14
18 0.16
19 0.14
2 -0.65
20 0.28
27 0.4
28 0.15
29 0.15
3 -0.36
30 0.5
34 0.5
4 -0.57
5 -0.65
6 -0.57
7 -0.62
8 0.34

> <PUBCHEM_EFFECTIVE_ROTOR_COUNT>
7

> <PUBCHEM_PHARMACOPHORE_FEATURES>
11
1 1 acceptor
1 1 donor
1 2 acceptor
1 3 acceptor
1 4 acceptor
1 5 acceptor
1 6 acceptor
1 7 acceptor
3 2 4 13 anion
3 5 6 16 anion
6 7 12 14 15 17 18 rings

> <PUBCHEM_HEAVY_ATOM_COUNT>
20

> <PUBCHEM_ATOM_DEF_STEREO_COUNT>
0

> <PUBCHEM_ATOM_UDEF_STEREO_COUNT>
1

> <PUBCHEM_BOND_DEF_STEREO_COUNT>
0

> <PUBCHEM_BOND_UDEF_STEREO_COUNT>
0

> <PUBCHEM_ISOTOPIC_ATOM_COUNT>
0

> <PUBCHEM_COMPONENT_COUNT>
1

> <PUBCHEM_CACTVS_TAUTO_COUNT>
6

> <PUBCHEM_CONFORMER_ID>
0792516C00000001

> <PUBCHEM_MMFF94_ENERGY>
45.9266

> <PUBCHEM_FEATURE_SELFOVERLAP>
56.008

> <PUBCHEM_SHAPE_FINGERPRINT>
10366900 7 18117285959008130954
10608611 8 18410288129540415076
1100329 8 15817913094650787550
11578080 2 17201332278593489793
12403259 226 18409729603250399322
12500047 106 18044371630352460454
12633257 1 18200330843850999737
12916754 54 18340771541265846299
13140716 1 18340769226599869994
13296908 3 18410856530060529546
13583140 156 17916568926073183938
14223421 5 18338233894082386656
14289901 80 18335422395895738514
14965852 173 18409168792143134222
15375462 6 18194400219600997916
15442244 35 18413108334153182474
15653759 3 18335424560258497432
17492 89 18339360867816248346
18186145 218 18202572761071939842
200 152 17917702535409510207
20600515 1 18127137373072026108
20681677 274 18336827618584172650
20681677 76 18411410747986631636
21339142 51 18266740190637980916
21524375 3 17972036934216039149
221490 88 18410577318610588274
2306618 200 18202284680398338739
23557571 272 17969213602808616075
23559900 14 18410846681241402074
2748010 2 18342736278587427460
3084891 72 17835232346764798788
5104073 3 18412822457072578994
58051976 100 18411141316167122071
6049 1 18409449206352586980
6438718 38 16557633993153982273
74978 22 18410852127244102600
81228 2 18113903805612284265
8809292 202 18265052431794407612
9709674 26 18411130346704200893

> <PUBCHEM_SHAPE_MULTIPOLES>
371.39
7.9
3.39
1.03
4.35
1.1
-0.03
-3.62
0.4
-0.76
-0.01
-0.87
0.09
1.05

> <PUBCHEM_SHAPE_SELFOVERLAP>
764.491

> <PUBCHEM_SHAPE_VOLUME>
211.6

> <PUBCHEM_COORDINATE_TYPE>
2
5
10

$$$$
