REMARK  Name = 127025611
REMARK  4 active torsions:
REMARK  status: ('A' for Active; 'I' for Inactive)
REMARK    1  A    between atoms: C_6  and  O_33
REMARK    2  A    between atoms: C_21  and  O_35
REMARK    3  A    between atoms: C_22  and  O_37
REMARK    4  A    between atoms: C_23  and  O_39
REMARK                            x       y       z     vdW  Elec       q    Type
REMARK                         _______ _______ _______ _____ _____    ______ ____
ROOT
ATOM      1  O   UNL     1       5.095   2.324  -1.102  0.00  0.00    -0.274 OA
ATOM      2  O   UNL     1       2.991   3.847  -0.122  0.00  0.00    -0.291 OA
ATOM      3  O   UNL     1      -6.379  -2.826   0.004  0.00  0.00    -0.289 OA
ATOM      4  N   UNL     1       5.222   0.174  -0.257  0.00  0.00    -0.275 N 
ATOM      5  C   UNL     1       7.132  -1.013   0.431  0.00  0.00    +0.049 C 
ATOM      6  C   UNL     1       5.930  -1.954   0.557  0.00  0.00    +0.134 C 
ATOM      7  C   UNL     1       4.723  -1.003   0.488  0.00  0.00    +0.124 C 
ATOM      8  C   UNL     1       6.636   0.018  -0.575  0.00  0.00    +0.096 C 
ATOM      9  C   UNL     1       8.404  -1.718  -0.010  0.00  0.00    +0.004 C 
ATOM     10  C   UNL     1       3.568  -1.655  -0.229  0.00  0.00    -0.004 C 
ATOM     11  C   UNL     1       4.563   1.375  -0.524  0.00  0.00    +0.234 C 
ATOM     12  C   UNL     1       3.111   1.432  -0.099  0.00  0.00    +0.154 C 
ATOM     13  C   UNL     1       2.368  -1.838   0.345  0.00  0.00    -0.003 C 
ATOM     14  C   UNL     1       2.405   2.770  -0.163  0.00  0.00    +0.182 C 
ATOM     15  C   UNL     1       1.208  -2.319  -0.377  0.00  0.00    -0.005 C 
ATOM     16  C   UNL     1      -0.074  -2.326   0.049  0.00  0.00    -0.022 C 
ATOM     17  C   UNL     1       0.916   2.678  -0.229  0.00  0.00    +0.038 C 
ATOM     18  C   UNL     1      -0.523  -1.870   1.416  0.00  0.00    +0.031 C 
ATOM     19  C   UNL     1       0.124   3.758  -0.175  0.00  0.00    -0.001 C 
ATOM     20  C   UNL     1      -1.117  -2.759  -0.887  0.00  0.00    -0.004 C 
ATOM     21  C   UNL     1      -5.691  -0.280   1.061  0.00  0.00    +0.176 C 
ATOM     22  C   UNL     1      -5.449   1.215   1.380  0.00  0.00    +0.162 C 
ATOM     23  C   UNL     1      -5.189  -0.736  -0.321  0.00  0.00    +0.202 C 
ATOM     24  C   UNL     1      -1.335   3.684  -0.240  0.00  0.00    -0.022 C 
ATOM     25  C   UNL     1      -2.444  -2.697  -0.688  0.00  0.00    -0.000 C 
ATOM     26  C   UNL     1      -3.989   1.599   1.307  0.00  0.00    +0.005 C 
ATOM     27  C   UNL     1      -5.487  -2.213  -0.581  0.00  0.00    +0.202 C 
ATOM     28  C   UNL     1      -2.012   2.783   0.502  0.00  0.00    -0.005 C 
ATOM     29  C   UNL     1      -3.439   2.536   0.517  0.00  0.00    -0.002 C 
ATOM     30  C   UNL     1      -1.946   4.698  -1.168  0.00  0.00    +0.031 C 
ATOM     31  C   UNL     1      -3.408  -3.088  -1.695  0.00  0.00    +0.003 C 
ATOM     32  C   UNL     1      -4.735  -2.906  -1.663  0.00  0.00    +0.040 C 
ENDROOT
BRANCH   6  33
ATOM     33  O   UNL     1       5.977  -2.637   1.799  0.00  0.00    -0.382 OA
ATOM     34  H   UNL     1       6.746  -3.228   1.814  0.00  0.00    +0.210 HD
ENDBRANCH   6  33
BRANCH  21  35
ATOM     35  O   UNL     1      -5.058  -1.077   2.063  0.00  0.00    -0.379 OA
ATOM     36  H   UNL     1      -5.366  -0.800   2.940  0.00  0.00    +0.211 HD
ENDBRANCH  21  35
BRANCH  22  37
ATOM     37  O   UNL     1      -6.242   2.035   0.529  0.00  0.00    -0.377 OA
ATOM     38  H   UNL     1      -7.172   1.767   0.596  0.00  0.00    +0.211 HD
ENDBRANCH  22  37
BRANCH  23  39
ATOM     39  O   UNL     1      -5.857  -0.012  -1.343  0.00  0.00    -0.375 OA
ATOM     40  H   UNL     1      -5.698   0.938  -1.223  0.00  0.00    +0.211 HD
ENDBRANCH  23  39
TORSDOF 4
