REMARK  Name = 127070
REMARK  4 active torsions:
REMARK  status: ('A' for Active; 'I' for Inactive)
REMARK    1  A    between atoms: C_5  and  O_23
REMARK    2  A    between atoms: C_10  and  O_25
REMARK    3  A    between atoms: C_19  and  O_27
REMARK    4  A    between atoms: C_20  and  O_29
REMARK                            x       y       z     vdW  Elec       q    Type
REMARK                         _______ _______ _______ _____ _____    ______ ____
ROOT
ATOM      1  O   UNL     1       3.295   1.861  -0.331  0.00  0.00    -0.441 OA
ATOM      2  O   UNL     1       5.227   0.981   0.755  0.00  0.00    -0.438 OA
ATOM      3  O   UNL     1      -1.201  -2.526  -0.018  0.00  0.00    -0.286 OA
ATOM      4  O   UNL     1      -1.695   2.797  -0.066  0.00  0.00    -0.286 OA
ATOM      5  C   UNL     1       3.693  -0.560  -0.327  0.00  0.00    +0.212 C 
ATOM      6  C   UNL     1       4.332   0.847  -0.376  0.00  0.00    +0.375 C 
ATOM      7  C   UNL     1       2.256  -0.204  -0.249  0.00  0.00    +0.081 C 
ATOM      8  C   UNL     1       2.113   1.173  -0.260  0.00  0.00    +0.144 C 
ATOM      9  C   UNL     1       4.299  -1.123   0.898  0.00  0.00    +0.052 C 
ATOM     10  C   UNL     1       1.148  -1.032  -0.173  0.00  0.00    +0.138 C 
ATOM     11  C   UNL     1      -0.123  -0.442  -0.109  0.00  0.00    +0.076 C 
ATOM     12  C   UNL     1      -0.260   0.957  -0.121  0.00  0.00    +0.048 C 
ATOM     13  C   UNL     1       0.872   1.780  -0.198  0.00  0.00    +0.040 C 
ATOM     14  C   UNL     1       5.123  -0.221   1.417  0.00  0.00    +0.175 C 
ATOM     15  C   UNL     1      -1.317  -1.307  -0.027  0.00  0.00    +0.202 C 
ATOM     16  C   UNL     1      -1.600   1.576  -0.053  0.00  0.00    +0.199 C 
ATOM     17  C   UNL     1      -2.654  -0.684   0.042  0.00  0.00    +0.079 C 
ATOM     18  C   UNL     1      -2.790   0.706   0.029  0.00  0.00    +0.079 C 
ATOM     19  C   UNL     1      -3.792  -1.496   0.121  0.00  0.00    +0.137 C 
ATOM     20  C   UNL     1      -4.064   1.283   0.096  0.00  0.00    +0.137 C 
ATOM     21  C   UNL     1      -5.059  -0.916   0.187  0.00  0.00    +0.040 C 
ATOM     22  C   UNL     1      -5.195   0.470   0.174  0.00  0.00    +0.040 C 
ENDROOT
BRANCH   5  23
ATOM     23  O   UNL     1       4.048  -1.317  -1.469  0.00  0.00    -0.372 OA
ATOM     24  H   UNL     1       3.637  -0.925  -2.256  0.00  0.00    +0.211 HD
ENDBRANCH   5  23
BRANCH  10  25
ATOM     25  O   UNL     1       1.346  -2.378  -0.168  0.00  0.00    -0.506 OA
ATOM     26  H   UNL     1       2.215  -2.724  -0.213  0.00  0.00    +0.292 HD
ENDBRANCH  10  25
BRANCH  19  27
ATOM     27  O   UNL     1      -3.733  -2.858   0.138  0.00  0.00    -0.505 OA
ATOM     28  H   UNL     1      -2.904  -3.292   0.096  0.00  0.00    +0.292 HD
ENDBRANCH  19  27
BRANCH  20  29
ATOM     29  O   UNL     1      -4.267   2.631   0.088  0.00  0.00    -0.505 OA
ATOM     30  H   UNL     1      -3.535   3.215   0.036  0.00  0.00    +0.292 HD
ENDBRANCH  20  29
TORSDOF 4
