REMARK  Name = 127028675
REMARK  12 active torsions:
REMARK  status: ('A' for Active; 'I' for Inactive)
REMARK    1  A    between atoms: C_7  and  C_19
REMARK    2  A    between atoms: C_17  and  C_29
REMARK    3  A    between atoms: C_19  and  C_20
REMARK    4  A    between atoms: C_20  and  C_21
REMARK    5  A    between atoms: C_21  and  C_22
REMARK    6  A    between atoms: C_22  and  C_23
REMARK    7  A    between atoms: C_23  and  C_24
REMARK    8  A    between atoms: C_24  and  C_25
REMARK    9  A    between atoms: C_25  and  C_26
REMARK   10  A    between atoms: C_26  and  C_27
REMARK   11  A    between atoms: C_29  and  C_30
REMARK   12  A    between atoms: C_30  and  O_32
REMARK                            x       y       z     vdW  Elec       q    Type
REMARK                         _______ _______ _______ _____ _____    ______ ____
ROOT
ATOM      1  O   UNL     1       2.062   2.116   1.462  0.00  0.00    -0.333 OA
ATOM      2  O   UNL     1       2.152   3.507  -0.873  0.00  0.00    -0.444 OA
ATOM      3  O   UNL     1       0.217   4.461  -0.023  0.00  0.00    -0.247 OA
ATOM      4  O   UNL     1       1.923  -2.352   0.696  0.00  0.00    -0.475 OA
ATOM      5  O   UNL     1       4.949   2.854  -1.120  0.00  0.00    -0.292 OA
ATOM      6  C   UNL     1       2.019   1.410   0.190  0.00  0.00    +0.190 C 
ATOM      7  C   UNL     1       0.931   2.277   0.634  0.00  0.00    +0.262 C 
ATOM      8  C   UNL     1       2.630   2.159  -0.964  0.00  0.00    +0.215 C 
ATOM      9  C   UNL     1       2.323  -0.016   0.256  0.00  0.00    +0.027 C 
ATOM     10  C   UNL     1       0.999   3.529  -0.117  0.00  0.00    +0.352 C 
ATOM     11  C   UNL     1       4.141   1.965  -0.874  0.00  0.00    +0.194 C 
ATOM     12  C   UNL     1       2.150   1.639  -2.331  0.00  0.00    +0.054 C 
ATOM     13  C   UNL     1       3.737  -0.344  -0.032  0.00  0.00    -0.014 C 
ATOM     14  C   UNL     1       4.603   0.581  -0.505  0.00  0.00    +0.094 C 
ATOM     15  C   UNL     1       1.513  -1.035   0.583  0.00  0.00    +0.229 C 
ATOM     16  C   UNL     1       4.187  -1.708   0.210  0.00  0.00    +0.028 C 
ATOM     17  C   UNL     1       3.281  -2.644   0.549  0.00  0.00    +0.119 C 
ENDROOT
BRANCH   7  19
ATOM     18  O   UNL     1      -0.393   1.553   2.443  0.00  0.00    -0.293 OA
ATOM     19  C   UNL     1      -0.323   1.735   1.235  0.00  0.00    +0.188 C 
BRANCH  19  20
ATOM     20  C   UNL     1      -1.439   1.451   0.254  0.00  0.00    +0.068 C 
BRANCH  20  21
ATOM     21  C   UNL     1      -2.675   0.868   0.938  0.00  0.00    +0.008 C 
BRANCH  21  22
ATOM     22  C   UNL     1      -3.775   0.554  -0.078  0.00  0.00    +0.000 C 
BRANCH  22  23
ATOM     23  C   UNL     1      -5.065   0.034   0.563  0.00  0.00    +0.000 C 
BRANCH  23  24
ATOM     24  C   UNL     1      -6.188  -0.209  -0.448  0.00  0.00    +0.000 C 
BRANCH  24  25
ATOM     25  C   UNL     1      -7.497  -0.673   0.201  0.00  0.00    +0.000 C 
BRANCH  25  26
ATOM     26  C   UNL     1      -8.643  -0.845  -0.798  0.00  0.00    +0.000 C 
BRANCH  26  27
ATOM     27  C   UNL     1      -9.940  -1.238  -0.090  0.00  0.00    +0.000 C 
ATOM     28  C   UNL     1     -11.075  -1.441  -1.081  0.00  0.00    +0.000 C 
ENDBRANCH  26  27
ENDBRANCH  25  26
ENDBRANCH  24  25
ENDBRANCH  23  24
ENDBRANCH  22  23
ENDBRANCH  21  22
ENDBRANCH  20  21
ENDBRANCH  19  20
ENDBRANCH   7  19
BRANCH  17  29
ATOM     29  C   UNL     1       3.630  -4.076   0.794  0.00  0.00    +0.093 C 
BRANCH  29  30
ATOM     30  C   UNL     1       2.928  -5.009  -0.194  0.00  0.00    +0.118 C 
ATOM     31  C   UNL     1       3.333  -6.459   0.041  0.00  0.00    +0.032 C 
BRANCH  30  32
ATOM     32  O   UNL     1       3.304  -4.643  -1.520  0.00  0.00    -0.384 OA
ATOM     33  H   UNL     1       3.053  -3.721  -1.685  0.00  0.00    +0.210 HD
ENDBRANCH  30  32
ENDBRANCH  29  30
ENDBRANCH  17  29
TORSDOF 12
