REMARK  Name = 127187
REMARK  7 active torsions:
REMARK  status: ('A' for Active; 'I' for Inactive)
REMARK    1  A    between atoms: N_1  and  C1*_12
REMARK    2  A    between atoms: C2*_11  and  O2*_15
REMARK    3  A    between atoms: C3*_13  and  O3*_17
REMARK    4  A    between atoms: C4*_14  and  C5*_19
REMARK    5  A    between atoms: C5*_19  and  O5*_20
REMARK    6  A    between atoms: N_22  and  C_24
REMARK    7  A    between atoms: C_24  and  O_25
REMARK                            x       y       z     vdW  Elec       q    Type
REMARK                         _______ _______ _______ _____ _____    ______ ____
ROOT
ATOM      1  N   UNL     1       0.322  -0.002  -0.224  0.00  0.00    -0.247 N 
ATOM      2  N   UNL     1      -1.213  -1.491   0.415  0.00  0.00    -0.242 NA
ATOM      3  N   UNL     1      -1.127   1.852  -0.828  0.00  0.00    -0.228 NA
ATOM      4  N   UNL     1      -3.478   1.291  -0.485  0.00  0.00    -0.228 NA
ATOM      5  C   UNL     1      -0.891   0.610  -0.381  0.00  0.00    +0.152 C 
ATOM      6  C   UNL     1       0.074  -1.262   0.257  0.00  0.00    +0.223 C 
ATOM      7  C   UNL     1      -1.828  -0.329   0.021  0.00  0.00    +0.140 C 
ATOM      8  C   UNL     1      -3.165   0.049  -0.043  0.00  0.00    +0.148 C 
ATOM      9  C   UNL     1      -2.454   2.103  -0.845  0.00  0.00    +0.253 C 
ATOM     10  N   UNL     1      -4.182  -0.839   0.347  0.00  0.00    -0.293 N 
ATOM     11  H   UNL     1      -3.925  -1.735   0.665  0.00  0.00    +0.150 HD
ENDROOT
BRANCH   1  14
ATOM     12  O4* UNL     1       2.520  -0.471  -0.986  0.00  0.00    -0.333 OA
ATOM     13  C2* UNL     1       2.303   1.218   0.705  0.00  0.00    +0.187 C 
ATOM     14  C1* UNL     1       1.639   0.569  -0.510  0.00  0.00    +0.225 C 
ATOM     15  C3* UNL     1       3.335   0.185   1.117  0.00  0.00    +0.171 C 
ATOM     16  C4* UNL     1       3.733  -0.423  -0.217  0.00  0.00    +0.175 C 
BRANCH  13  17
ATOM     17  O2* UNL     1       2.924   2.438   0.305  0.00  0.00    -0.378 OA
ATOM     18  H2* UNL     1       2.243   3.079   0.048  0.00  0.00    +0.211 HD
ENDBRANCH  13  17
BRANCH  15  19
ATOM     19  O3* UNL     1       4.440   0.736   1.801  0.00  0.00    -0.379 OA
ATOM     20  H3* UNL     1       4.144   1.112   2.644  0.00  0.00    +0.211 HD
ENDBRANCH  15  19
BRANCH  16  21
ATOM     21  C5* UNL     1       4.320  -1.817  -0.095  0.00  0.00    +0.169 C 
BRANCH  21  22
ATOM     22  O5* UNL     1       4.643  -2.288  -1.392  0.00  0.00    -0.379 OA
ATOM     23  H5* UNL     1       5.020  -3.180  -1.328  0.00  0.00    +0.211 HD
ENDBRANCH  21  22
ENDBRANCH  16  21
ENDBRANCH   1  14
BRANCH  10  24
ATOM     24  C   UNL     1      -5.575  -0.505   0.303  0.00  0.00    +0.234 C 
BRANCH  24  25
ATOM     25  O   UNL     1      -6.342  -1.622   0.736  0.00  0.00    -0.364 OA
ATOM     26  H   UNL     1      -7.285  -1.397   0.707  0.00  0.00    +0.212 HD
ENDBRANCH  24  25
ENDBRANCH  10  24
TORSDOF 7
