REMARK  Name = 127132
REMARK  10 active torsions:
REMARK  status: ('A' for Active; 'I' for Inactive)
REMARK    1  A    between atoms: C_2  and  O_12
REMARK    2  A    between atoms: C_3  and  N_8
REMARK    3  A    between atoms: C_4  and  O_16
REMARK    4  A    between atoms: C_5  and  C_24
REMARK    5  A    between atoms: C_6  and  O_20
REMARK    6  A    between atoms: O_12  and  C_14
REMARK    7  A    between atoms: O_16  and  C_18
REMARK    8  A    between atoms: O_20  and  C_22
REMARK    9  A    between atoms: C_24  and  O_25
REMARK   10  A    between atoms: O_25  and  C_27
REMARK                            x       y       z     vdW  Elec       q    Type
REMARK                         _______ _______ _______ _____ _____    ______ ____
ROOT
ATOM      1  O   UNL     1      -0.832   1.083   0.274  0.00  0.00    -0.314 OA
ATOM      2  C   UNL     1       1.280  -0.841  -0.017  0.00  0.00    +0.235 C 
ATOM      3  C   UNL     1       1.543   0.666  -0.103  0.00  0.00    +0.187 C 
ATOM      4  C   UNL     1       0.029  -1.142   0.811  0.00  0.00    +0.241 C 
ATOM      5  C   UNL     1      -1.156  -0.310   0.300  0.00  0.00    +0.206 C 
ATOM      6  C   UNL     1       0.285   1.411  -0.558  0.00  0.00    +0.312 C 
ENDROOT
BRANCH   3   8
ATOM      7  O   UNL     1       3.381   2.873   0.322  0.00  0.00    -0.275 OA
ATOM      8  N   UNL     1       2.003   1.197   1.164  0.00  0.00    -0.297 N 
ATOM      9  C   UNL     1       2.885   2.258   1.262  0.00  0.00    +0.223 C 
ATOM     10  C   UNL     1       3.175   2.624   2.692  0.00  0.00    +0.095 C 
ATOM     11  H   UNL     1       1.672   0.784   1.994  0.00  0.00    +0.150 HD
ENDBRANCH   3   8
BRANCH   2  12
ATOM     12  O   UNL     1       2.416  -1.496   0.540  0.00  0.00    -0.446 OA
BRANCH  12  14
ATOM     13  O   UNL     1       3.706  -1.150  -1.344  0.00  0.00    -0.250 OA
ATOM     14  C   UNL     1       3.588  -1.326  -0.139  0.00  0.00    +0.318 C 
ATOM     15  C   UNL     1       4.740  -1.387   0.818  0.00  0.00    +0.121 C 
ENDBRANCH  12  14
ENDBRANCH   2  12
BRANCH   4  16
ATOM     16  O   UNL     1      -0.257  -2.533   0.691  0.00  0.00    -0.446 OA
BRANCH  16  18
ATOM     17  O   UNL     1      -0.544  -2.292  -1.589  0.00  0.00    -0.250 OA
ATOM     18  C   UNL     1      -0.526  -2.974  -0.573  0.00  0.00    +0.318 C 
ATOM     19  C   UNL     1      -0.805  -4.447  -0.546  0.00  0.00    +0.121 C 
ENDBRANCH  16  18
ENDBRANCH   4  16
BRANCH   6  20
ATOM     20  O   UNL     1       0.038   1.130  -1.934  0.00  0.00    -0.422 OA
BRANCH  20  22
ATOM     21  O   UNL     1      -1.821   2.502  -1.895  0.00  0.00    -0.250 OA
ATOM     22  C   UNL     1      -1.054   1.746  -2.477  0.00  0.00    +0.319 C 
ATOM     23  C   UNL     1      -1.188   1.361  -3.919  0.00  0.00    +0.121 C 
ENDBRANCH  20  22
ENDBRANCH   6  20
BRANCH   5  24
ATOM     24  C   UNL     1      -2.388  -0.465   1.188  0.00  0.00    +0.242 C 
BRANCH  24  25
ATOM     25  O   UNL     1      -3.428   0.337   0.659  0.00  0.00    -0.446 OA
BRANCH  25  27
ATOM     26  O   UNL     1      -4.843  -0.337   2.357  0.00  0.00    -0.250 OA
ATOM     27  C   UNL     1      -4.614   0.311   1.344  0.00  0.00    +0.318 C 
ATOM     28  C   UNL     1      -5.615   1.202   0.674  0.00  0.00    +0.121 C 
ENDBRANCH  25  27
ENDBRANCH  24  25
ENDBRANCH   5  24
TORSDOF 10
