REMARK  Name = 127134
REMARK  15 active torsions:
REMARK  status: ('A' for Active; 'I' for Inactive)
REMARK    1  A    between atoms: CA_1  and  C_4
REMARK    2  A    between atoms: CA_1  and  N_22
REMARK    3  A    between atoms: CA_1  and  CB_38
REMARK    4  A    between atoms: N_3  and  CA_6
REMARK    5  A    between atoms: CA_6  and  C_8
REMARK    6  A    between atoms: CA_6  and  CB_11
REMARK    7  A    between atoms: C_8  and  O_9
REMARK    8  A    between atoms: CB_11  and  CG_13
REMARK    9  A    between atoms: N_22  and  CA_25
REMARK   10  A    between atoms: CA_25  and  C_27
REMARK   11  A    between atoms: CA_25  and  C_30
REMARK   12  A    between atoms: C_27  and  O_28
REMARK   13  A    between atoms: C_30  and  C_31
REMARK   14  A    between atoms: C_31  and  C_32
REMARK   15  A    between atoms: CB_38  and  CG1_40
REMARK                            x       y       z     vdW  Elec       q    Type
REMARK                         _______ _______ _______ _____ _____    ______ ____
ROOT
ATOM      1  CA  UNL     1      -1.675   2.105  -0.137  0.00  0.00    +0.018 C 
ENDROOT
BRANCH   1   4
ATOM      2  O   UNL     1      -1.583   0.356  -1.822  0.00  0.00    -0.277 OA
ATOM      3  N   UNL     1      -2.927   0.040   0.043  0.00  0.00    -0.298 N 
ATOM      4  C   ACE A   1      -2.038   0.752  -0.750  0.00  0.00    +0.203 C 
ATOM      5  H   UNL     1      -3.233   0.447   0.886  0.00  0.00    +0.150 HD
BRANCH   3   6
ATOM      6  CA  UNL     1      -3.426  -1.270  -0.308  0.00  0.00    +0.176 C 
BRANCH   6   8
ATOM      7  OXT UNL     1      -5.568  -2.210  -0.926  0.00  0.00    -0.248 OA
ATOM      8  C   UNL     1      -4.930  -1.238  -0.536  0.00  0.00    +0.332 C 
BRANCH   8   9
ATOM      9  O   UNL     1      -5.519  -0.044  -0.282  0.00  0.00    -0.479 OA
ATOM     10  H   UNL     1      -5.002   0.679   0.015  0.00  0.00    +0.295 HD
ENDBRANCH   8   9
ENDBRANCH   6   8
BRANCH   6  11
ATOM     11  CB  UNL     1      -3.080  -2.308   0.769  0.00  0.00    +0.059 C 
BRANCH  11  13
ATOM     12  NE1 UNL     1       0.421  -2.102   1.873  0.00  0.00    -0.312 N 
ATOM     13  CG  UNL     1      -1.604  -2.429   1.024  0.00  0.00    -0.004 C 
ATOM     14  CD2 UNL     1      -0.698  -3.305   0.364  0.00  0.00    +0.011 C 
ATOM     15  CE2 UNL     1       0.565  -3.080   0.915  0.00  0.00    +0.048 C 
ATOM     16  CD1 UNL     1      -0.886  -1.702   1.946  0.00  0.00    +0.058 C 
ATOM     17  CE3 UNL     1      -0.832  -4.271  -0.653  0.00  0.00    +0.001 C 
ATOM     18  CZ2 UNL     1       1.706  -3.776   0.499  0.00  0.00    +0.015 C 
ATOM     19  CZ3 UNL     1       0.300  -4.975  -1.079  0.00  0.00    +0.000 C 
ATOM     20  CH2 UNL     1       1.549  -4.730  -0.511  0.00  0.00    +0.001 C 
ATOM     21  HE1 UNL     1       1.152  -1.743   2.426  0.00  0.00    +0.152 HD
ENDBRANCH  11  13
ENDBRANCH   6  11
ENDBRANCH   3   6
ENDBRANCH   1   4
BRANCH   1  22
ATOM     22  N   UNL     1      -0.280   2.393  -0.471  0.00  0.00    +0.399 N 
ATOM     23  H1  UNL     1      -0.115   3.396  -0.384  0.00  0.00    -0.083 HD
ATOM     24  H2  UNL     1      -0.102   2.086  -1.427  0.00  0.00    -0.083 HD
BRANCH  22  25
ATOM     25  CA  UNL     1       0.621   1.682   0.423  0.00  0.00    +0.041 C 
BRANCH  25  27
ATOM     26  OXT UNL     1       0.606   3.699   1.788  0.00  0.00    -0.253 OA
ATOM     27  C   UNL     1       0.681   2.478   1.715  0.00  0.00    +0.293 C 
BRANCH  27  28
ATOM     28  O   UNL     1       0.805   1.685   2.809  0.00  0.00    -0.482 OA
ATOM     29  H   UNL     1       0.860   0.755   2.710  0.00  0.00    +0.295 HD
ENDBRANCH  27  28
ENDBRANCH  25  27
BRANCH  25  30
ATOM     30  C   UNL     1       2.006   1.581  -0.230  0.00  0.00    -0.006 C 
BRANCH  30  31
ATOM     31  C   UNL     1       3.052   0.829   0.608  0.00  0.00    +0.025 C 
BRANCH  31  32
ATOM     32  C   UNL     1       4.392   0.662  -0.066  0.00  0.00    -0.022 C 
ATOM     33  C   UNL     1       4.640  -0.461  -0.856  0.00  0.00    -0.004 C 
ATOM     34  C   UNL     1       5.381   1.631   0.100  0.00  0.00    -0.004 C 
ATOM     35  C   UNL     1       5.879  -0.615  -1.479  0.00  0.00    -0.000 C 
ATOM     36  C   UNL     1       6.620   1.477  -0.524  0.00  0.00    -0.000 C 
ATOM     37  C   UNL     1       6.868   0.354  -1.313  0.00  0.00    -0.000 C 
ENDBRANCH  31  32
ENDBRANCH  30  31
ENDBRANCH  25  30
ENDBRANCH  22  25
ENDBRANCH   1  22
BRANCH   1  38
ATOM     38  CB  UNL     1      -2.657   3.220  -0.588  0.00  0.00    -0.011 C 
ATOM     39  CG2 UNL     1      -2.698   3.315  -2.120  0.00  0.00    -0.002 C 
BRANCH  38  40
ATOM     40  CG1 UNL     1      -2.336   4.589   0.054  0.00  0.00    -0.002 C 
ATOM     41  CD1 UNL     1      -3.356   5.670  -0.281  0.00  0.00    -0.000 C 
ENDBRANCH  38  40
ENDBRANCH   1  38
TORSDOF 15
