127139
  -OEChem-03292013323D

 37 38  0     0  0  0  0  0  0999 V2000
   -6.2197   -0.2547    0.0687 S   0  0  0  0  0  0  0  0  0  0  0  0
   -0.3422   -0.3579   -0.3983 O   0  0  0  0  0  0  0  0  0  0  0  0
   -6.7835   -0.0941   -1.2642 O   0  0  0  0  0  0  0  0  0  0  0  0
   -6.6374   -1.3745    0.9006 O   0  0  0  0  0  0  0  0  0  0  0  0
   -0.2865    1.6446    0.7945 O   0  0  0  0  0  0  0  0  0  0  0  0
   -6.4510    1.1946    0.9435 N   0  0  0  0  0  0  0  0  0  0  0  0
    5.8948    0.3611   -0.3969 N   0  0  0  0  0  0  0  0  0  0  0  0
    7.8821   -0.8097   -0.0284 N   0  0  0  0  0  0  0  0  0  0  0  0
    5.9608   -1.7475    0.7697 N   0  0  0  0  0  0  0  0  0  0  0  0
   -4.4793   -0.2855   -0.0695 C   0  0  0  0  0  0  0  0  0  0  0  0
   -1.7351   -0.3340   -0.2880 C   0  0  0  0  0  0  0  0  0  0  0  0
   -3.8558    0.3170   -1.1622 C   0  0  0  0  0  0  0  0  0  0  0  0
   -3.7126   -0.9126    0.9125 C   0  0  0  0  0  0  0  0  0  0  0  0
   -2.4655    0.2924   -1.2728 C   0  0  0  0  0  0  0  0  0  0  0  0
   -2.3223   -0.9372    0.8019 C   0  0  0  0  0  0  0  0  0  0  0  0
    1.7390    0.6333    0.0458 C   0  0  0  0  0  0  0  0  0  0  0  0
    0.2959    0.7261    0.2006 C   0  0  0  0  0  0  0  0  0  0  0  0
    2.5806    1.1712    1.0194 C   0  0  0  0  0  0  0  0  0  0  0  0
    2.2815    0.0045   -1.0749 C   0  0  0  0  0  0  0  0  0  0  0  0
    4.5072    0.4514   -0.2484 C   0  0  0  0  0  0  0  0  0  0  0  0
    3.9648    1.0803    0.8723 C   0  0  0  0  0  0  0  0  0  0  0  0
    3.6656   -0.0865   -1.2219 C   0  0  0  0  0  0  0  0  0  0  0  0
    6.5187   -0.6825    0.0959 C   0  0  0  0  0  0  0  0  0  0  0  0
   -4.4326    0.8167   -1.9354 H   0  0  0  0  0  0  0  0  0  0  0  0
   -4.1765   -1.3826    1.7751 H   0  0  0  0  0  0  0  0  0  0  0  0
   -1.9797    0.7619   -2.1224 H   0  0  0  0  0  0  0  0  0  0  0  0
   -1.7250   -1.4241    1.5664 H   0  0  0  0  0  0  0  0  0  0  0  0
    2.1744    1.6615    1.9003 H   0  0  0  0  0  0  0  0  0  0  0  0
    1.6514   -0.4125   -1.8561 H   0  0  0  0  0  0  0  0  0  0  0  0
    4.6124    1.5024    1.6364 H   0  0  0  0  0  0  0  0  0  0  0  0
    4.0790   -0.5754   -2.1002 H   0  0  0  0  0  0  0  0  0  0  0  0
   -6.8582    1.9940    0.4429 H   0  0  0  0  0  0  0  0  0  0  0  0
   -6.7560    1.1177    1.9215 H   0  0  0  0  0  0  0  0  0  0  0  0
    8.4330   -0.1023   -0.5025 H   0  0  0  0  0  0  0  0  0  0  0  0
    8.3763   -1.6117    0.3471 H   0  0  0  0  0  0  0  0  0  0  0  0
    6.5364   -2.5094    1.1115 H   0  0  0  0  0  0  0  0  0  0  0  0
    4.9646   -1.8114    0.9474 H   0  0  0  0  0  0  0  0  0  0  0  0
  1  3  2  0  0  0  0
  1  4  2  0  0  0  0
  1  6  1  0  0  0  0
  1 10  1  0  0  0  0
  2 11  1  0  0  0  0
  2 17  1  0  0  0  0
  5 17  2  0  0  0  0
  6 32  1  0  0  0  0
  6 33  1  0  0  0  0
  7 20  1  0  0  0  0
  7 23  2  0  0  0  0
  8 23  1  0  0  0  0
  8 34  1  0  0  0  0
  8 35  1  0  0  0  0
  9 23  1  0  0  0  0
  9 36  1  0  0  0  0
  9 37  1  0  0  0  0
 10 12  2  0  0  0  0
 10 13  1  0  0  0  0
 11 14  2  0  0  0  0
 11 15  1  0  0  0  0
 12 14  1  0  0  0  0
 12 24  1  0  0  0  0
 13 15  2  0  0  0  0
 13 25  1  0  0  0  0
 14 26  1  0  0  0  0
 15 27  1  0  0  0  0
 16 17  1  0  0  0  0
 16 18  2  0  0  0  0
 16 19  1  0  0  0  0
 18 21  1  0  0  0  0
 18 28  1  0  0  0  0
 19 22  2  0  0  0  0
 19 29  1  0  0  0  0
 20 21  2  0  0  0  0
 20 22  1  0  0  0  0
 21 30  1  0  0  0  0
 22 31  1  0  0  0  0
M  END
> <PUBCHEM_COMPOUND_CID>
127139

> <PUBCHEM_CONFORMER_RMSD>
0.8

> <PUBCHEM_CONFORMER_DIVERSEORDER>
1
60
46
61
29
8
55
32
12
62
6
52
43
11
41
54
56
2
36
3
57
33
59
10
35
53
22
38
20
65
4
64
37
25
50
30
5
39
9
63
23
7
49
27
24
42
45
14
48
40
28
31
44
19
47
16
58
18
51
13
34
21
15
26
17

> <PUBCHEM_MMFF94_PARTIAL_CHARGES>
37
1 1.45
10 -0.01
11 0.08
12 -0.15
13 -0.15
14 -0.15
15 -0.15
16 0.09
17 0.63
18 -0.15
19 -0.15
2 -0.23
20 0.18
21 -0.15
22 -0.15
23 0.55
24 0.15
25 0.15
26 0.15
27 0.15
28 0.15
29 0.15
3 -0.65
30 0.15
31 0.15
32 0.42
33 0.42
34 0.4
35 0.4
36 0.4
37 0.4
4 -0.65
5 -0.57
6 -0.98
7 -0.63
8 -0.85
9 -0.85

> <PUBCHEM_EFFECTIVE_ROTOR_COUNT>
5

> <PUBCHEM_PHARMACOPHORE_FEATURES>
9
1 3 acceptor
1 4 acceptor
1 5 acceptor
1 6 donor
1 8 donor
1 9 donor
4 7 8 9 23 cation
6 10 11 12 13 14 15 rings
6 16 18 19 20 21 22 rings

> <PUBCHEM_HEAVY_ATOM_COUNT>
23

> <PUBCHEM_ATOM_DEF_STEREO_COUNT>
0

> <PUBCHEM_ATOM_UDEF_STEREO_COUNT>
0

> <PUBCHEM_BOND_DEF_STEREO_COUNT>
0

> <PUBCHEM_BOND_UDEF_STEREO_COUNT>
0

> <PUBCHEM_ISOTOPIC_ATOM_COUNT>
0

> <PUBCHEM_COMPONENT_COUNT>
1

> <PUBCHEM_CACTVS_TAUTO_COUNT>
3

> <PUBCHEM_CONFORMER_ID>
0001F0A300000001

> <PUBCHEM_MMFF94_ENERGY>
61.6015

> <PUBCHEM_FEATURE_SELFOVERLAP>
45.744

> <PUBCHEM_SHAPE_FINGERPRINT>
10 15 12103837969888511310
10299344 5 18040719164404739642
106641 1 12391506499413277382
10968037 39 13406792233961825033
11089746 13 15339116849189263689
11315181 36 18113904879280274701
11524674 6 18272090526163013959
11719270 70 17131835352716105966
11796584 16 18260269659783784586
12091667 2 17847063290328826975
12166972 35 17967535687782783180
12236239 1 15357690903612555045
125118 31 12823301208120696770
12516196 113 15123510311031264987
12616971 3 17417804084577710804
13073987 5 13758090570806757239
13533116 47 18411697648114114514
13668630 136 18259988150452447586
13685833 64 18412263943561728874
13885169 127 18260829271856253861
13914758 101 17775007851921480729
14123256 10 13406794424131440950
14251752 14 18187079525096497845
14251764 18 17632295696396097664
14251764 46 18186518804468285100
15183329 4 16805601452308597154
17093844 174 13973969805719344835
18006028 8 18202845456993027392
18681886 176 16950281849390685548
19489759 90 18413110572311243729
20511986 3 15339115693848245157
21150785 3 16587746434900702702
21267235 1 16371012914430438245
21315759 40 18333454261703023087
221357 26 15213014956090452358
22224240 67 15985100813097560502
2297311 6 17530962484213545989
23035841 295 17603302656907984024
23402539 116 13183027311379178561
23536379 177 17675924287837366972
23559900 14 17895193375861886444
26918003 58 17846219985578258514
28498 318 18408319956297407110
3004659 81 17240199945889416276
34797466 226 17313388954846527956
3545911 37 13695870341609531816
4073 2 18129378361946807086
4325135 7 8358253739579264696
465052 167 18342739616304654030
5104073 3 17059485391179198354
59755656 215 17386001750020893714
59755656 520 18412539938382255423
67856867 119 15123215693438772168

> <PUBCHEM_SHAPE_MULTIPOLES>
433.78
20.16
1.24
1.19
3.19
0.05
0.15
5.38
-0.97
0.44
-0.43
-0.59
-0.08
0.31

> <PUBCHEM_SHAPE_SELFOVERLAP>
918.991

> <PUBCHEM_SHAPE_VOLUME>
244.5

> <PUBCHEM_COORDINATE_TYPE>
2
5
10

$$$$
