REMARK  Name = 127111
REMARK  6 active torsions:
REMARK  status: ('A' for Active; 'I' for Inactive)
REMARK    1  A    between atoms: C_2  and  N_21
REMARK    2  A    between atoms: C_11  and  N_15
REMARK    3  A    between atoms: C_12  and  N_18
REMARK    4  A    between atoms: N_21  and  C_23
REMARK    5  A    between atoms: C_26  and  N_29
REMARK    6  A    between atoms: N_29  and  S_31
REMARK                            x       y       z     vdW  Elec       q    Type
REMARK                         _______ _______ _______ _____ _____    ______ ____
ROOT
ATOM      1  N   UNL     1       3.828  -0.453   0.595  0.00  0.00    -0.405 NA
ATOM      2  C   UNL     1       1.414   0.024  -0.676  0.00  0.00    +0.038 C 
ATOM      3  C   UNL     1       1.803  -1.290  -0.398  0.00  0.00    +0.110 C 
ATOM      4  C   UNL     1       2.233   1.099  -0.318  0.00  0.00    +0.040 C 
ATOM      5  C   UNL     1       3.036  -1.485   0.248  0.00  0.00    +0.119 C 
ATOM      6  C   UNL     1       3.448   0.811   0.325  0.00  0.00    +0.133 C 
ATOM      7  C   UNL     1       1.000  -2.390  -0.747  0.00  0.00    -0.012 C 
ATOM      8  C   UNL     1       1.866   2.430  -0.585  0.00  0.00    +0.005 C 
ATOM      9  C   UNL     1       3.429  -2.791   0.527  0.00  0.00    +0.042 C 
ATOM     10  C   UNL     1       4.268   1.878   0.684  0.00  0.00    +0.046 C 
ATOM     11  C   UNL     1       2.633  -3.886   0.182  0.00  0.00    +0.043 C 
ATOM     12  C   UNL     1       3.907   3.201   0.420  0.00  0.00    +0.044 C 
ATOM     13  C   UNL     1       1.417  -3.686  -0.457  0.00  0.00    +0.010 C 
ATOM     14  C   UNL     1       2.704   3.478  -0.216  0.00  0.00    +0.014 C 
ENDROOT
BRANCH  11  15
ATOM     15  N   UNL     1       3.067  -5.195   0.482  0.00  0.00    -0.357 N 
ATOM     16  H   UNL     1       3.930  -5.336   0.935  0.00  0.00    +0.142 HD
ATOM     17  H   UNL     1       2.507  -5.967   0.238  0.00  0.00    +0.142 HD
ENDBRANCH  11  15
BRANCH  12  18
ATOM     18  N   UNL     1       4.764   4.255   0.800  0.00  0.00    -0.357 N 
ATOM     19  H   UNL     1       5.617   4.058   1.250  0.00  0.00    +0.142 HD
ATOM     20  H   UNL     1       4.510   5.188   0.614  0.00  0.00    +0.142 HD
ENDBRANCH  12  18
BRANCH   2  21
ATOM     21  N   UNL     1       0.175   0.268  -1.329  0.00  0.00    -0.315 N 
ATOM     22  H   UNL     1       0.240   0.289  -2.311  0.00  0.00    +0.152 HD
BRANCH  21  23
ATOM     23  C   UNL     1      -1.121   0.485  -0.843  0.00  0.00    +0.048 C 
ATOM     24  C   UNL     1      -2.181   0.706  -1.728  0.00  0.00    +0.016 C 
ATOM     25  C   UNL     1      -1.367   0.484   0.535  0.00  0.00    +0.016 C 
ATOM     26  C   UNL     1      -3.708   0.922   0.131  0.00  0.00    +0.065 C 
ATOM     27  C   UNL     1      -3.471   0.924  -1.244  0.00  0.00    +0.017 C 
ATOM     28  C   UNL     1      -2.657   0.702   1.020  0.00  0.00    +0.017 C 
BRANCH  26  29
ATOM     29  N   UNL     1      -5.028   1.143   0.628  0.00  0.00    -0.219 N 
ATOM     30  H   UNL     1      -5.260   1.980   1.093  0.00  0.00    +0.173 HD
BRANCH  29  31
ATOM     31  S   UNL     1      -6.205  -0.093   0.394  0.00  0.00    +0.056 S 
ATOM     32  O   UNL     1      -7.508   0.445   0.736  0.00  0.00    -0.154 OA
ATOM     33  O   UNL     1      -5.996  -0.774  -0.868  0.00  0.00    -0.154 OA
ATOM     34  C   UNL     1      -5.749  -1.211   1.700  0.00  0.00    +0.200 C 
ENDBRANCH  29  31
ENDBRANCH  26  29
ENDBRANCH  21  23
ENDBRANCH   2  21
TORSDOF 6
