REMARK  Name = 127100
REMARK  12 active torsions:
REMARK  status: ('A' for Active; 'I' for Inactive)
REMARK    1  A    between atoms: N_2  and  CA_5
REMARK    2  A    between atoms: C_3  and  C_16
REMARK    3  A    between atoms: CA_5  and  C_7
REMARK    4  A    between atoms: CA_5  and  CB_10
REMARK    5  A    between atoms: C_7  and  O_8
REMARK    6  A    between atoms: CB_10  and  CG_11
REMARK    7  A    between atoms: CG_11  and  CD_13
REMARK    8  A    between atoms: CD_13  and  OE1_14
REMARK    9  A    between atoms: C_16  and  C_17
REMARK   10  A    between atoms: C_17  and  S_18
REMARK   11  A    between atoms: S_18  and  S_19
REMARK   12  A    between atoms: S_19  and  C_21
REMARK                            x       y       z     vdW  Elec       q    Type
REMARK                         _______ _______ _______ _____ _____    ______ ____
ROOT
ATOM      1  O   UNK A   0       1.065  -3.022   0.675  0.00  0.00    -0.275 OA
ATOM      2  N   GLU A   1      -0.190  -1.296  -0.240  0.00  0.00    -0.297 N 
ATOM      3  C   UNK A   0       0.938  -2.098  -0.123  0.00  0.00    +0.224 C 
ATOM      4  H   GLU A   1      -0.190  -0.579  -0.915  0.00  0.00    +0.150 HD
ENDROOT
BRANCH   2   5
ATOM      5  CA  GLU A   1      -1.360  -1.466   0.584  0.00  0.00    +0.172 C 
BRANCH   5   7
ATOM      6  OXT GLU A   1      -2.382  -2.672  -1.268  0.00  0.00    -0.248 OA
ATOM      7  C   GLU A   1      -2.226  -2.528  -0.062  0.00  0.00    +0.332 C 
BRANCH   7   8
ATOM      8  O   GLU A   1      -2.794  -3.349   0.859  0.00  0.00    -0.479 OA
ATOM      9  H   GLU A   1      -2.647  -3.201   1.772  0.00  0.00    +0.295 HD
ENDBRANCH   7   8
ENDBRANCH   5   7
BRANCH   5  10
ATOM     10  CB  GLU A   1      -2.095  -0.146   0.850  0.00  0.00    +0.043 C 
BRANCH  10  11
ATOM     11  CG  GLU A   1      -2.661   0.564  -0.386  0.00  0.00    +0.112 C 
BRANCH  11  13
ATOM     12  OE2 GLU A   1      -3.489   2.356   1.042  0.00  0.00    -0.250 OA
ATOM     13  CD  GLU A   1      -3.365   1.866  -0.072  0.00  0.00    +0.314 C 
BRANCH  13  14
ATOM     14  OE1 GLU A   1      -3.895   2.430  -1.190  0.00  0.00    -0.480 OA
ATOM     15  HE1 GLU A   1      -3.775   2.020  -2.023  0.00  0.00    +0.295 HD
ENDBRANCH  13  14
ENDBRANCH  11  13
ENDBRANCH  10  11
ENDBRANCH   5  10
ENDBRANCH   2   5
BRANCH   3  16
ATOM     16  C   UNK A   0       2.008  -1.717  -1.135  0.00  0.00    +0.098 C 
BRANCH  16  17
ATOM     17  C   UNK A   0       3.434  -1.981  -0.667  0.00  0.00    +0.079 C 
BRANCH  17  18
ATOM     18  S   UNK A   0       3.853  -1.013   0.816  0.00  0.00    -0.076 S 
BRANCH  18  19
ATOM     19  S   UNK A   0       4.279   0.823  -0.003  0.00  0.00    -0.036 S 
BRANCH  19  21
ATOM     20  N   UNK A   0       2.100   1.766   1.232  0.00  0.00    -0.237 NA
ATOM     21  C   UNK A   0       2.681   1.616   0.021  0.00  0.00    +0.116 C 
ATOM     22  C   UNK A   0       2.112   2.035  -1.171  0.00  0.00    +0.026 C 
ATOM     23  C   UNK A   0       0.865   2.647  -1.116  0.00  0.00    +0.004 C 
ATOM     24  C   UNK A   0       0.234   2.820   0.111  0.00  0.00    +0.021 C 
ATOM     25  C   UNK A   0       0.888   2.366   1.245  0.00  0.00    +0.099 C 
ENDBRANCH  19  21
ENDBRANCH  18  19
ENDBRANCH  17  18
ENDBRANCH  16  17
ENDBRANCH   3  16
TORSDOF 12
