REMARK  Name = 127154
REMARK  6 active torsions:
REMARK  status: ('A' for Active; 'I' for Inactive)
REMARK    1  A    between atoms: N_2  and  C_12
REMARK    2  A    between atoms: C_7  and  C_23
REMARK    3  A    between atoms: C_11  and  O_17
REMARK    4  A    between atoms: O_17  and  C_18
REMARK    5  A    between atoms: C_18  and  C_20
REMARK    6  A    between atoms: C_23  and  O_24
REMARK                            x       y       z     vdW  Elec       q    Type
REMARK                         _______ _______ _______ _____ _____    ______ ____
ROOT
ATOM      1  O   UNL     1      -3.774   2.115  -1.034  0.00  0.00    -0.269 OA
ATOM      2  N   UNL     1       0.366   0.024  -0.742  0.00  0.00    -0.283 N 
ATOM      3  N   UNL     1      -1.730   1.050  -0.872  0.00  0.00    -0.254 N 
ATOM      4  N   UNL     1      -1.495  -1.012   0.238  0.00  0.00    -0.215 NA
ATOM      5  C   UNL     1      -0.967  -0.025  -0.430  0.00  0.00    +0.192 C 
ATOM      6  C   UNL     1      -3.089   1.173  -0.651  0.00  0.00    +0.259 C 
ATOM      7  C   UNL     1      -3.666   0.040   0.110  0.00  0.00    +0.148 C 
ATOM      8  C   UNL     1      -2.842  -0.947   0.489  0.00  0.00    +0.113 C 
ATOM      9  H   UNL     1       0.661   0.815  -1.249  0.00  0.00    +0.155 HD
ATOM     10  H   UNL     1      -1.275   1.767  -1.372  0.00  0.00    +0.158 HD
ENDROOT
BRANCH   2  12
ATOM     11  C   UNL     1       2.692  -0.508  -0.238  0.00  0.00    +0.152 C 
ATOM     12  C   UNL     1       1.361  -0.906  -0.431  0.00  0.00    +0.085 C 
ATOM     13  C   UNL     1       3.675  -1.448   0.073  0.00  0.00    +0.038 C 
ATOM     14  C   UNL     1       1.034  -2.264  -0.306  0.00  0.00    +0.018 C 
ATOM     15  C   UNL     1       3.337  -2.796   0.194  0.00  0.00    +0.003 C 
ATOM     16  C   UNL     1       2.017  -3.204   0.004  0.00  0.00    +0.001 C 
BRANCH  11  17
ATOM     17  O   UNL     1       3.042   0.804  -0.352  0.00  0.00    -0.478 OA
BRANCH  17  18
ATOM     18  C   UNL     1       3.613   1.424   0.799  0.00  0.00    +0.166 C 
ATOM     19  C   UNL     1       2.492   2.005   1.651  0.00  0.00    +0.047 C 
BRANCH  18  20
ATOM     20  C   UNL     1       4.589   2.514   0.349  0.00  0.00    +0.044 C 
ATOM     21  C   UNL     1       5.698   1.964  -0.538  0.00  0.00    +0.004 C 
ENDBRANCH  18  20
ENDBRANCH  17  18
ENDBRANCH  11  17
ENDBRANCH   2  12
BRANCH   7  23
ATOM     22  O   UNL     1      -5.669  -1.123   0.594  0.00  0.00    -0.245 OA
ATOM     23  C   UNL     1      -5.082  -0.056   0.467  0.00  0.00    +0.344 C 
BRANCH  23  24
ATOM     24  O   UNL     1      -5.600   1.175   0.628  0.00  0.00    -0.477 OA
ATOM     25  H   UNL     1      -5.060   1.931   0.505  0.00  0.00    +0.295 HD
ENDBRANCH  23  24
ENDBRANCH   7  23
TORSDOF 6
