127105
  -OEChem-03292013323D

 65 71  0     1  0  0  0  0  0999 V2000
   -4.3370   -1.5459    0.3722 O   0  0  0  0  0  0  0  0  0  0  0  0
   -4.8828    0.7207    0.8596 O   0  0  0  0  0  0  0  0  0  0  0  0
   -5.5944   -0.2492   -1.1830 O   0  0  0  0  0  0  0  0  0  0  0  0
    2.1377   -1.5549    0.0756 O   0  0  0  0  0  0  0  0  0  0  0  0
   -1.2347    2.8986    0.3682 O   0  0  0  0  0  0  0  0  0  0  0  0
    1.2673    3.1232   -0.1958 O   0  0  0  0  0  0  0  0  0  0  0  0
   -2.7814   -1.1523    2.5521 O   0  0  0  0  0  0  0  0  0  0  0  0
    5.8350   -1.5971   -0.4738 O   0  0  0  0  0  0  0  0  0  0  0  0
    7.8361   -1.6087    0.6048 O   0  0  0  0  0  0  0  0  0  0  0  0
   -2.5496    0.1155    0.4984 C   0  0  2  0  0  0  0  0  0  0  0  0
   -1.0995    0.4774   -0.0041 C   0  0  2  0  0  0  0  0  0  0  0  0
   -0.1328   -0.7399    0.1575 C   0  0  2  0  0  0  0  0  0  0  0  0
   -3.0730   -1.1738   -0.2166 C   0  0  1  0  0  0  0  0  0  0  0  0
    1.3175   -0.4416   -0.3180 C   0  0  1  0  0  0  0  0  0  0  0  0
    1.9384    0.8432    0.2841 C   0  0  1  0  0  0  0  0  0  0  0  0
   -3.6454    1.2027    0.2860 C   0  0  1  0  0  0  0  0  0  0  0  0
   -0.6941   -2.0130   -0.5157 C   0  0  0  0  0  0  0  0  0  0  0  0
   -2.1095   -2.3529   -0.0662 C   0  0  0  0  0  0  0  0  0  0  0  0
   -0.4886    1.7270    0.6636 C   0  0  1  0  0  0  0  0  0  0  0  0
   -3.3595   -0.9126   -1.7221 C   0  0  0  0  0  0  0  0  0  0  0  0
   -4.4073    0.1917   -1.8566 C   0  0  2  0  0  0  0  0  0  0  0  0
    1.4736   -0.2460   -1.8409 C   0  0  0  0  0  0  0  0  0  0  0  0
    3.1578    1.1131   -0.6502 C   0  0  2  0  0  0  0  0  0  0  0  0
   -3.9240    1.4844   -1.1954 C   0  0  0  0  0  0  0  0  0  0  0  0
    0.9297    1.9995    0.1824 C   0  0  0  0  0  0  0  0  0  0  0  0
    2.6362    0.7339   -2.0451 C   0  0  0  0  0  0  0  0  0  0  0  0
   -5.2958   -0.4867    0.2023 C   0  0  1  0  0  0  0  0  0  0  0  0
   -2.4804   -0.0972    2.0040 C   0  0  0  0  0  0  0  0  0  0  0  0
    2.3349    0.7267    1.7646 C   0  0  0  0  0  0  0  0  0  0  0  0
    4.4113    0.3497   -0.3292 C   0  0  0  0  0  0  0  0  0  0  0  0
   -6.5860   -0.9424    0.8681 C   0  0  0  0  0  0  0  0  0  0  0  0
    5.4033    0.9763    0.5053 C   0  0  0  0  0  0  0  0  0  0  0  0
    4.6646   -0.8855   -0.7736 C   0  0  0  0  0  0  0  0  0  0  0  0
    6.5358    0.3404    0.8205 C   0  0  0  0  0  0  0  0  0  0  0  0
    6.7965   -1.0244    0.3170 C   0  0  0  0  0  0  0  0  0  0  0  0
   -1.1767    0.7061   -1.0731 H   0  0  0  0  0  0  0  0  0  0  0  0
   -0.0657   -0.9752    1.2296 H   0  0  0  0  0  0  0  0  0  0  0  0
   -3.4171    2.1291    0.8180 H   0  0  0  0  0  0  0  0  0  0  0  0
   -0.0591   -2.8759   -0.2854 H   0  0  0  0  0  0  0  0  0  0  0  0
   -0.6766   -1.9038   -1.6056 H   0  0  0  0  0  0  0  0  0  0  0  0
   -2.4781   -3.2084   -0.6481 H   0  0  0  0  0  0  0  0  0  0  0  0
   -2.0858   -2.7261    0.9628 H   0  0  0  0  0  0  0  0  0  0  0  0
   -0.4430    1.6267    1.7509 H   0  0  0  0  0  0  0  0  0  0  0  0
   -3.7695   -1.8282   -2.1687 H   0  0  0  0  0  0  0  0  0  0  0  0
   -2.4581   -0.6459   -2.2813 H   0  0  0  0  0  0  0  0  0  0  0  0
   -4.6559    0.3647   -2.9081 H   0  0  0  0  0  0  0  0  0  0  0  0
    0.5762    0.1813   -2.2995 H   0  0  0  0  0  0  0  0  0  0  0  0
    1.6843   -1.1892   -2.3572 H   0  0  0  0  0  0  0  0  0  0  0  0
    3.4191    2.1793   -0.6755 H   0  0  0  0  0  0  0  0  0  0  0  0
   -3.0414    1.8836   -1.7039 H   0  0  0  0  0  0  0  0  0  0  0  0
   -4.7237    2.2322   -1.2653 H   0  0  0  0  0  0  0  0  0  0  0  0
    3.3917    0.3448   -2.7362 H   0  0  0  0  0  0  0  0  0  0  0  0
    2.2390    1.6351   -2.5320 H   0  0  0  0  0  0  0  0  0  0  0  0
   -2.1894    0.7729    2.6145 H   0  0  0  0  0  0  0  0  0  0  0  0
    1.4634    0.5422    2.4017 H   0  0  0  0  0  0  0  0  0  0  0  0
    3.0360   -0.0911    1.9561 H   0  0  0  0  0  0  0  0  0  0  0  0
    2.7943    1.6571    2.1183 H   0  0  0  0  0  0  0  0  0  0  0  0
    1.9414   -2.3076   -0.5060 H   0  0  0  0  0  0  0  0  0  0  0  0
   -0.8812    3.6198    0.9165 H   0  0  0  0  0  0  0  0  0  0  0  0
   -6.4288   -1.1380    1.9344 H   0  0  0  0  0  0  0  0  0  0  0  0
   -7.3661   -0.1787    0.7772 H   0  0  0  0  0  0  0  0  0  0  0  0
   -6.9607   -1.8634    0.4084 H   0  0  0  0  0  0  0  0  0  0  0  0
    5.2214    1.9777    0.8809 H   0  0  0  0  0  0  0  0  0  0  0  0
    4.0573   -1.4924   -1.4278 H   0  0  0  0  0  0  0  0  0  0  0  0
    7.2870    0.8050    1.4486 H   0  0  0  0  0  0  0  0  0  0  0  0
  1 13  1  0  0  0  0
  1 27  1  0  0  0  0
  2 16  1  0  0  0  0
  2 27  1  0  0  0  0
  3 21  1  0  0  0  0
  3 27  1  0  0  0  0
  4 14  1  0  0  0  0
  4 58  1  0  0  0  0
  5 19  1  0  0  0  0
  5 59  1  0  0  0  0
  6 25  2  0  0  0  0
  7 28  2  0  0  0  0
  8 33  1  0  0  0  0
  8 35  1  0  0  0  0
  9 35  2  0  0  0  0
 10 11  1  0  0  0  0
 10 13  1  0  0  0  0
 10 16  1  0  0  0  0
 10 28  1  0  0  0  0
 11 12  1  0  0  0  0
 11 19  1  0  0  0  0
 11 36  1  0  0  0  0
 12 14  1  0  0  0  0
 12 17  1  0  0  0  0
 12 37  1  0  0  0  0
 13 18  1  0  0  0  0
 13 20  1  0  0  0  0
 14 15  1  0  0  0  0
 14 22  1  0  0  0  0
 15 23  1  0  0  0  0
 15 25  1  0  0  0  0
 15 29  1  0  0  0  0
 16 24  1  0  0  0  0
 16 38  1  0  0  0  0
 17 18  1  0  0  0  0
 17 39  1  0  0  0  0
 17 40  1  0  0  0  0
 18 41  1  0  0  0  0
 18 42  1  0  0  0  0
 19 25  1  0  0  0  0
 19 43  1  0  0  0  0
 20 21  1  0  0  0  0
 20 44  1  0  0  0  0
 20 45  1  0  0  0  0
 21 24  1  0  0  0  0
 21 46  1  0  0  0  0
 22 26  1  0  0  0  0
 22 47  1  0  0  0  0
 22 48  1  0  0  0  0
 23 26  1  0  0  0  0
 23 30  1  0  0  0  0
 23 49  1  0  0  0  0
 24 50  1  0  0  0  0
 24 51  1  0  0  0  0
 26 52  1  0  0  0  0
 26 53  1  0  0  0  0
 27 31  1  0  0  0  0
 28 54  1  0  0  0  0
 29 55  1  0  0  0  0
 29 56  1  0  0  0  0
 29 57  1  0  0  0  0
 30 32  1  0  0  0  0
 30 33  2  0  0  0  0
 31 60  1  0  0  0  0
 31 61  1  0  0  0  0
 31 62  1  0  0  0  0
 32 34  2  0  0  0  0
 32 63  1  0  0  0  0
 33 64  1  0  0  0  0
 34 35  1  0  0  0  0
 34 65  1  0  0  0  0
M  END
> <PUBCHEM_COMPOUND_CID>
127105

> <PUBCHEM_CONFORMER_RMSD>
0.8

> <PUBCHEM_CONFORMER_DIVERSEORDER>
1
3
2
4

> <PUBCHEM_MMFF94_PARTIAL_CHARGES>
31
1 -0.56
10 0.06
13 0.28
14 0.28
15 0.06
16 0.28
19 0.34
2 -0.56
21 0.28
23 0.14
25 0.45
27 0.84
28 0.45
3 -0.56
30 -0.14
32 -0.15
33 -0.07
34 -0.14
35 0.71
4 -0.68
5 -0.68
54 0.06
58 0.4
59 0.4
6 -0.57
63 0.15
64 0.15
65 0.15
7 -0.57
8 -0.23
9 -0.57

> <PUBCHEM_EFFECTIVE_ROTOR_COUNT>
4.2

> <PUBCHEM_PHARMACOPHORE_FEATURES>
18
1 1 acceptor
1 2 acceptor
1 3 acceptor
1 4 acceptor
1 4 donor
1 5 acceptor
1 5 donor
1 6 acceptor
1 7 acceptor
1 9 acceptor
5 14 15 22 23 26 rings
6 1 2 10 13 16 27 rings
6 1 3 13 20 21 27 rings
6 10 11 12 13 17 18 rings
6 10 13 16 20 21 24 rings
6 11 12 14 15 19 25 rings
6 2 3 16 21 24 27 rings
6 8 30 32 33 34 35 rings

> <PUBCHEM_HEAVY_ATOM_COUNT>
35

> <PUBCHEM_ATOM_DEF_STEREO_COUNT>
8

> <PUBCHEM_ATOM_UDEF_STEREO_COUNT>
3

> <PUBCHEM_BOND_DEF_STEREO_COUNT>
0

> <PUBCHEM_BOND_UDEF_STEREO_COUNT>
0

> <PUBCHEM_ISOTOPIC_ATOM_COUNT>
0

> <PUBCHEM_COMPONENT_COUNT>
1

> <PUBCHEM_CACTVS_TAUTO_COUNT>
4

> <PUBCHEM_CONFORMER_ID>
0001F08100000001

> <PUBCHEM_MMFF94_ENERGY>
131.4764

> <PUBCHEM_FEATURE_SELFOVERLAP>
105.579

> <PUBCHEM_SHAPE_FINGERPRINT>
10165383 225 17023181579679227301
10675989 125 16826147737781534069
10906281 52 18059029374734456972
10930396 42 18195217058927236768
11315181 36 18261112980432073812
11456790 92 18340218440236619769
11578080 2 16517069737436823263
11796584 16 17385443250207063490
12107698 1 15195564606487149338
12166972 35 17967536800084081444
12236239 1 17966971629969930860
12422481 6 17489588931481764476
12516196 113 18342737425375493272
12788726 201 17386552562365328236
13140716 1 18198626737897921032
13224815 77 17632863053043850525
13782708 43 17677060164821785619
13811026 1 18343862195199398678
14068700 675 16702009924736403497
14394314 77 18270685259659776512
14849402 71 15266482067829670178
14856354 85 15574720196378372610
15131766 46 15049729873706726954
15183329 4 15068340099453053464
15788980 27 18333736831643089124
17349148 13 17846782931183939045
17980427 23 17132124562506910168
18608769 82 18334577997078867083
19377110 9 15913613856550884590
20511986 3 17561074783198419030
21033648 29 18336250306339332009
21236236 1 18272651199408767088
21267235 1 18410299115850395994
23198884 109 16081088181827277343
23402539 116 18272649034982315036
23559900 14 18340477992946188728
23569917 315 18411423929142342135
3004659 81 18186239537711413092
3178227 256 18339093665421427555
335352 9 18411981372983320709
3383291 50 18335703862045846443
392239 28 17132399419313174576
4015057 19 18270109240215773201
4340502 62 14979959164453133100
5265222 85 16371021744941591698
59755656 215 18336826399589031006
7226269 152 18410008836575785420

> <PUBCHEM_SHAPE_MULTIPOLES>
667.46
15.44
2.2
1.63
14.17
0.66
0
-5.31
1.64
0.21
0.03
-1.01
-0.05
0.25

> <PUBCHEM_SHAPE_SELFOVERLAP>
1505.096

> <PUBCHEM_SHAPE_VOLUME>
339.7

> <PUBCHEM_COORDINATE_TYPE>
2
5
10

$$$$
