REMARK  Name = 127103
REMARK  9 active torsions:
REMARK  status: ('A' for Active; 'I' for Inactive)
REMARK    1  A    between atoms: C_1  and  C_2
REMARK    2  A    between atoms: C_1  and  C_10
REMARK    3  A    between atoms: C_1  and  S_20
REMARK    4  A    between atoms: N_9  and  CA_12
REMARK    5  A    between atoms: CA_12  and  C_14
REMARK    6  A    between atoms: CA_12  and  CB_17
REMARK    7  A    between atoms: C_14  and  O_15
REMARK    8  A    between atoms: CB_17  and  SG_18
REMARK    9  A    between atoms: S_20  and  C_24
REMARK                            x       y       z     vdW  Elec       q    Type
REMARK                         _______ _______ _______ _____ _____    ______ ____
ROOT
ATOM      1  C   UNL     1       1.556  -1.018  -0.267  0.00  0.00    +0.153 C 
ENDROOT
BRANCH   1   2
ATOM      2  C   UNL     1       3.063  -1.125  -0.368  0.00  0.00    -0.003 C 
ATOM      3  C   UNL     1       3.632  -1.555  -1.554  0.00  0.00    -0.003 C 
ATOM      4  C   UNL     1       3.839  -0.790   0.728  0.00  0.00    -0.003 C 
ATOM      5  C   UNL     1       5.020  -1.654  -1.647  0.00  0.00    -0.000 C 
ATOM      6  C   UNL     1       5.227  -0.888   0.635  0.00  0.00    -0.000 C 
ATOM      7  C   UNL     1       5.817  -1.321  -0.552  0.00  0.00    -0.000 C 
ENDBRANCH   1   2
BRANCH   1  10
ATOM      8  O   UNL     1       0.936  -0.115   1.900  0.00  0.00    -0.274 OA
ATOM      9  N   UNL     1       0.921   1.294   0.057  0.00  0.00    -0.295 N 
ATOM     10  C   ACE A   0       1.115   0.077   0.699  0.00  0.00    +0.237 C 
ATOM     11  H   UNL     1       1.092   1.345  -0.911  0.00  0.00    +0.150 HD
BRANCH   9  12
ATOM     12  CA  UNL     1       0.479   2.487   0.742  0.00  0.00    +0.182 C 
BRANCH  12  14
ATOM     13  OXT UNL     1      -1.010   4.341   0.269  0.00  0.00    -0.248 OA
ATOM     14  C   UNL     1      -0.431   3.337  -0.128  0.00  0.00    +0.333 C 
BRANCH  14  15
ATOM     15  O   UNL     1      -0.555   2.866  -1.393  0.00  0.00    -0.479 OA
ATOM     16  H   UNL     1      -0.093   2.094  -1.652  0.00  0.00    +0.295 HD
ENDBRANCH  14  15
ENDBRANCH  12  14
BRANCH  12  17
ATOM     17  CB  UNL     1       1.653   3.287   1.313  0.00  0.00    +0.084 C 
BRANCH  17  18
ATOM     18  SG  UNL     1       2.728   4.025   0.038  0.00  0.00    -0.166 S 
ATOM     19  HG  UNL     1       3.737   4.712   0.639  0.00  0.00    +0.102 HD
ENDBRANCH  17  18
ENDBRANCH  12  17
ENDBRANCH   9  12
ENDBRANCH   1  10
BRANCH   1  20
ATOM     20  S   UNL     1       0.786  -2.584   0.216  0.00  0.00    -0.063 S 
BRANCH  20  24
ATOM     21 CL   UNL     1      -5.934   1.097  -1.500  0.00  0.00    -0.086 Cl
ATOM     22  S   UNL     1      -2.041  -2.854   1.281  0.00  0.00    -0.047 S 
ATOM     23  N   UNL     1      -1.357  -1.180  -0.557  0.00  0.00    -0.392 NA
ATOM     24  C   UNL     1      -0.902  -2.120   0.238  0.00  0.00    +0.187 C 
ATOM     25  C   UNL     1      -2.716  -1.007  -0.342  0.00  0.00    +0.122 C 
ATOM     26  C   UNL     1      -3.275  -1.839   0.633  0.00  0.00    +0.058 C 
ATOM     27  C   UNL     1      -3.555  -0.087  -1.009  0.00  0.00    +0.097 C 
ATOM     28  C   UNL     1      -4.638  -1.783   0.964  0.00  0.00    +0.009 C 
ATOM     29  C   UNL     1      -4.913  -0.026  -0.684  0.00  0.00    +0.043 C 
ATOM     30  C   UNL     1      -5.446  -0.864   0.289  0.00  0.00    +0.008 C 
ENDBRANCH  20  24
ENDBRANCH   1  20
TORSDOF 9
