127173
  -OEChem-03292013323D

 34 36  0     0  0  0  0  0  0999 V2000
    3.0685   -2.3494   -0.0779 O   0  0  0  0  0  0  0  0  0  0  0  0
    0.5343   -2.7571    0.0025 O   0  0  0  0  0  0  0  0  0  0  0  0
   -0.4363    2.4968    0.1013 O   0  0  0  0  0  0  0  0  0  0  0  0
   -2.9748    2.0876    0.1887 O   0  0  0  0  0  0  0  0  0  0  0  0
   -5.0013    0.2638    0.2374 O   0  0  0  0  0  0  0  0  0  0  0  0
    4.5523    2.1760   -0.0708 O   0  0  0  0  0  0  0  0  0  0  0  0
    1.4324   -0.5696   -0.0005 C   0  0  0  0  0  0  0  0  0  0  0  0
    1.1640    0.8005    0.0260 C   0  0  0  0  0  0  0  0  0  0  0  0
   -1.3331    0.3096    0.1066 C   0  0  0  0  0  0  0  0  0  0  0  0
   -1.0646   -1.0605    0.0798 C   0  0  0  0  0  0  0  0  0  0  0  0
    0.3280   -1.5502    0.0245 C   0  0  0  0  0  0  0  0  0  0  0  0
   -0.2286    1.2901    0.0805 C   0  0  0  0  0  0  0  0  0  0  0  0
    2.7568   -1.0207   -0.0510 C   0  0  0  0  0  0  0  0  0  0  0  0
    3.8060   -0.1014   -0.0743 C   0  0  0  0  0  0  0  0  0  0  0  0
    2.2198    1.7195    0.0020 C   0  0  0  0  0  0  0  0  0  0  0  0
   -2.6574    0.7606    0.1598 C   0  0  0  0  0  0  0  0  0  0  0  0
    3.5381    1.2657   -0.0480 C   0  0  0  0  0  0  0  0  0  0  0  0
   -2.1202   -1.9795    0.1057 C   0  0  0  0  0  0  0  0  0  0  0  0
   -3.7065   -0.1587    0.1856 C   0  0  0  0  0  0  0  0  0  0  0  0
   -3.4385   -1.5259    0.1587 C   0  0  0  0  0  0  0  0  0  0  0  0
    5.2230   -0.5779   -0.1288 C   0  0  0  0  0  0  0  0  0  0  0  0
   -5.6618    0.4806   -1.0076 C   0  0  0  0  0  0  0  0  0  0  0  0
    2.0239    2.7889    0.0223 H   0  0  0  0  0  0  0  0  0  0  0  0
   -1.9397   -3.0508    0.0860 H   0  0  0  0  0  0  0  0  0  0  0  0
   -4.2522   -2.2459    0.1795 H   0  0  0  0  0  0  0  0  0  0  0  0
    5.9503    0.2385   -0.0783 H   0  0  0  0  0  0  0  0  0  0  0  0
    5.4419   -1.2355    0.7197 H   0  0  0  0  0  0  0  0  0  0  0  0
    5.4122   -1.1103   -1.0673 H   0  0  0  0  0  0  0  0  0  0  0  0
    4.0118   -2.5053   -0.2331 H   0  0  0  0  0  0  0  0  0  0  0  0
   -3.9380    2.1822    0.2841 H   0  0  0  0  0  0  0  0  0  0  0  0
    4.1768    3.0727   -0.0467 H   0  0  0  0  0  0  0  0  0  0  0  0
   -5.7536   -0.4607   -1.5588 H   0  0  0  0  0  0  0  0  0  0  0  0
   -5.1238    1.2175   -1.6123 H   0  0  0  0  0  0  0  0  0  0  0  0
   -6.6649    0.8635   -0.8011 H   0  0  0  0  0  0  0  0  0  0  0  0
  1 13  1  0  0  0  0
  1 29  1  0  0  0  0
  2 11  2  0  0  0  0
  3 12  2  0  0  0  0
  4 16  1  0  0  0  0
  4 30  1  0  0  0  0
  5 19  1  0  0  0  0
  5 22  1  0  0  0  0
  6 17  1  0  0  0  0
  6 31  1  0  0  0  0
  7  8  1  0  0  0  0
  7 11  1  0  0  0  0
  7 13  2  0  0  0  0
  8 12  1  0  0  0  0
  8 15  2  0  0  0  0
  9 10  2  0  0  0  0
  9 12  1  0  0  0  0
  9 16  1  0  0  0  0
 10 11  1  0  0  0  0
 10 18  1  0  0  0  0
 13 14  1  0  0  0  0
 14 17  2  0  0  0  0
 14 21  1  0  0  0  0
 15 17  1  0  0  0  0
 15 23  1  0  0  0  0
 16 19  2  0  0  0  0
 18 20  2  0  0  0  0
 18 24  1  0  0  0  0
 19 20  1  0  0  0  0
 20 25  1  0  0  0  0
 21 26  1  0  0  0  0
 21 27  1  0  0  0  0
 21 28  1  0  0  0  0
 22 32  1  0  0  0  0
 22 33  1  0  0  0  0
 22 34  1  0  0  0  0
M  END
> <PUBCHEM_COMPOUND_CID>
127173

> <PUBCHEM_CONFORMER_RMSD>
0.6

> <PUBCHEM_CONFORMER_DIVERSEORDER>
1

> <PUBCHEM_MMFF94_PARTIAL_CHARGES>
28
1 -0.53
10 0.09
11 0.4
12 0.4
13 0.08
14 -0.14
15 -0.15
16 0.08
17 0.08
18 -0.15
19 0.08
2 -0.57
20 -0.15
21 0.14
22 0.28
23 0.15
24 0.15
25 0.15
29 0.45
3 -0.57
30 0.45
31 0.45
4 -0.53
5 -0.36
6 -0.53
7 0.09
8 0.09
9 0.09

> <PUBCHEM_EFFECTIVE_ROTOR_COUNT>
1

> <PUBCHEM_PHARMACOPHORE_FEATURES>
9
1 1 donor
1 2 acceptor
1 3 acceptor
1 4 donor
1 5 acceptor
1 6 donor
6 7 8 13 14 15 17 rings
6 7 8 9 10 11 12 rings
6 9 10 16 18 19 20 rings

> <PUBCHEM_HEAVY_ATOM_COUNT>
22

> <PUBCHEM_ATOM_DEF_STEREO_COUNT>
0

> <PUBCHEM_ATOM_UDEF_STEREO_COUNT>
0

> <PUBCHEM_BOND_DEF_STEREO_COUNT>
0

> <PUBCHEM_BOND_UDEF_STEREO_COUNT>
0

> <PUBCHEM_ISOTOPIC_ATOM_COUNT>
0

> <PUBCHEM_COMPONENT_COUNT>
1

> <PUBCHEM_CACTVS_TAUTO_COUNT>
60

> <PUBCHEM_CONFORMER_ID>
0001F0C500000001

> <PUBCHEM_MMFF94_ENERGY>
81.4108

> <PUBCHEM_FEATURE_SELFOVERLAP>
45.714

> <PUBCHEM_SHAPE_FINGERPRINT>
10411042 1 17906171746395111650
10498660 4 18410014368108521372
10616163 171 18412267246006834406
10967382 1 18410857650709299290
11132069 177 18410290345548166249
11471102 20 18411135835603807255
11578080 2 16807846529945076950
12011746 2 18410575067493798543
12236239 1 17775284967596095317
12838862 33 18338779179109859928
13140716 1 18410017597966191258
138480 1 17762057636113174667
13862211 1 18411413986302522802
14790565 3 18196379126490057505
15196674 1 18338518641750395266
15442244 35 18266742385556257706
15536298 74 18342178886263586706
16945 1 18194968439379045090
19591789 44 18411420656645274330
200 152 17988921176474192685
20510252 161 18271531982576350496
20645477 70 18341895173356090839
21029758 11 18343298176326985497
21267235 1 18411147921705393490
21421861 104 18041552525810542474
2334 1 18339082695547315498
23402539 116 18343295998245608734
23463225 33 18409451392469698714
23559900 14 18341048618465136224
2748010 2 18410860996404485294
2871803 45 18409446951378569196
3004659 81 18260546723638645140
335352 9 18410575081027696406
34934 24 18411132580013497442
350125 39 18409450272084842052
3545911 37 18408324397525569687
4214541 1 18410857637676899225
474 4 17677338337147765916
495365 180 17489013968277839280
5104073 3 18410294756548294714
59755656 215 18409450246061947974
69090 78 18342455950192989295
7364860 26 18341334396745869750
9709674 26 18341338786096970870
9981440 41 17398392417496437536

> <PUBCHEM_SHAPE_MULTIPOLES>
417.53
9.89
2.54
0.65
2.35
0.23
-0.05
-1.5
-1.3
-0.79
0.06
0.29
-0.02
0.17

> <PUBCHEM_SHAPE_SELFOVERLAP>
941.03

> <PUBCHEM_SHAPE_VOLUME>
218.9

> <PUBCHEM_COORDINATE_TYPE>
2
5
10

$$$$
