REMARK  Name = 127163
REMARK  14 active torsions:
REMARK  status: ('A' for Active; 'I' for Inactive)
REMARK    1  A    between atoms: C_3  and  C_10
REMARK    2  A    between atoms: C_7  and  C_28
REMARK    3  A    between atoms: N_9  and  C_12
REMARK    4  A    between atoms: C_12  and  C_14
REMARK    5  A    between atoms: C_12  and  C_17
REMARK    6  A    between atoms: C_14  and  C_16
REMARK    7  A    between atoms: C_17  and  C_18
REMARK    8  A    between atoms: C_18  and  C_19
REMARK    9  A    between atoms: C_19  and  N_20
REMARK   10  A    between atoms: N_20  and  C_23
REMARK   11  A    between atoms: C_28  and  N_29
REMARK   12  A    between atoms: C_28  and  C_33
REMARK   13  A    between atoms: C_33  and  C_34
REMARK   14  A    between atoms: C_39  and  O_40
REMARK                            x       y       z     vdW  Elec       q    Type
REMARK                         _______ _______ _______ _____ _____    ______ ____
ROOT
ATOM      1  O   UNL     1      -1.075   1.192  -1.280  0.00  0.00    -0.277 OA
ATOM      2  N   UNL     1      -1.723  -0.890  -0.504  0.00  0.00    -0.275 N 
ATOM      3  C   UNL     1      -0.669  -1.032   0.492  0.00  0.00    +0.152 C 
ATOM      4  C   UNL     1      -1.128  -2.181   1.382  0.00  0.00    +0.031 C 
ATOM      5  C   UNL     1      -1.970  -3.042   0.443  0.00  0.00    +0.024 C 
ATOM      6  C   UNL     1      -2.648  -2.019  -0.455  0.00  0.00    +0.094 C 
ATOM      7  C   UNL     1      -1.879   0.258  -1.265  0.00  0.00    +0.206 C 
ENDROOT
BRANCH   3  10
ATOM      8  O   UNL     1       0.579  -1.990  -1.303  0.00  0.00    -0.273 OA
ATOM      9  N   UNL     1       1.728  -0.920   0.416  0.00  0.00    -0.298 N 
ATOM     10  C   UNL     1       0.593  -1.368  -0.245  0.00  0.00    +0.241 C 
ATOM     11  H   UNL     1       1.613  -0.429   1.262  0.00  0.00    +0.150 HD
BRANCH   9  12
ATOM     12  C   UNL     1       3.065  -1.136  -0.071  0.00  0.00    +0.131 C 
BRANCH  12  14
ATOM     13  O   UNL     1       3.128  -2.924   1.540  0.00  0.00    -0.293 OA
ATOM     14  C   UNL     1       3.507  -2.499   0.448  0.00  0.00    +0.185 C 
BRANCH  14  16
ATOM     15 CL   UNL     1       4.847  -4.842   0.250  0.00  0.00    -0.105 Cl
ATOM     16  C   UNL     1       4.394  -3.296  -0.484  0.00  0.00    +0.161 C 
ENDBRANCH  14  16
ENDBRANCH  12  14
BRANCH  12  17
ATOM     17  C   UNL     1       4.042  -0.053   0.389  0.00  0.00    +0.029 C 
BRANCH  17  18
ATOM     18  C   UNL     1       3.607   1.348  -0.058  0.00  0.00    +0.029 C 
BRANCH  18  19
ATOM     19  C   UNL     1       4.546   2.438   0.449  0.00  0.00    +0.129 C 
BRANCH  19  20
ATOM     20  N   UNL     1       5.890   2.225  -0.089  0.00  0.00    -0.240 NA
BRANCH  20  23
ATOM     21  N   UNL     1       6.638   4.228   1.006  0.00  0.00    -0.370 N 
ATOM     22  N   UNL     1       8.078   2.976  -0.242  0.00  0.00    -0.370 N 
ATOM     23  C   UNL     1       6.790   3.105   0.223  0.00  0.00    +0.189 C 
ATOM     24  H   UNL     1       5.762   4.436   1.403  0.00  0.00    +0.159 HD
ATOM     25  H   UNL     1       7.407   4.821   1.169  0.00  0.00    +0.159 HD
ATOM     26  H   UNL     1       8.320   2.213  -0.816  0.00  0.00    +0.159 HD
ATOM     27  H   UNL     1       8.757   3.647  -0.003  0.00  0.00    +0.159 HD
ENDBRANCH  20  23
ENDBRANCH  19  20
ENDBRANCH  18  19
ENDBRANCH  17  18
ENDBRANCH  12  17
ENDBRANCH   9  12
ENDBRANCH   3  10
BRANCH   7  28
ATOM     28  C   UNL     1      -3.121   0.308  -2.118  0.00  0.00    +0.018 C 
BRANCH  28  29
ATOM     29  N   UNL     1      -2.643   0.332  -3.494  0.00  0.00    +0.388 N 
ATOM     30  H   UNL     1      -2.088  -0.505  -3.676  0.00  0.00    -0.089 HD
ATOM     31  H   UNL     1      -2.065   1.160  -3.639  0.00  0.00    -0.089 HD
ATOM     32  H   UNL     1      -3.439   0.357  -4.131  0.00  0.00    -0.089 HD
ENDBRANCH  28  29
BRANCH  28  33
ATOM     33  C   UNL     1      -3.958   1.547  -1.800  0.00  0.00    +0.013 C 
BRANCH  33  34
ATOM     34  C   UNL     1      -4.803   1.377  -0.559  0.00  0.00    -0.024 C 
ATOM     35  C   UNL     1      -6.095   0.861  -0.659  0.00  0.00    -0.001 C 
ATOM     36  C   UNL     1      -4.290   1.736   0.687  0.00  0.00    -0.001 C 
ATOM     37  C   UNL     1      -6.875   0.705   0.487  0.00  0.00    +0.036 C 
ATOM     38  C   UNL     1      -5.070   1.580   1.833  0.00  0.00    +0.036 C 
ATOM     39  C   UNL     1      -6.362   1.064   1.733  0.00  0.00    +0.134 C 
BRANCH  39  40
ATOM     40  O   UNL     1      -7.122   0.911   2.852  0.00  0.00    -0.506 OA
ATOM     41  H   UNL     1      -7.990   0.564   2.784  0.00  0.00    +0.292 HD
ENDBRANCH  39  40
ENDBRANCH  33  34
ENDBRANCH  28  33
ENDBRANCH   7  28
TORSDOF 14
