REMARK  Name = 127139
REMARK  7 active torsions:
REMARK  status: ('A' for Active; 'I' for Inactive)
REMARK    1  A    between atoms: C_2  and  C_3
REMARK    2  A    between atoms: C_2  and  O_17
REMARK    3  A    between atoms: C_6  and  N_9
REMARK    4  A    between atoms: N_9  and  C_12
REMARK    5  A    between atoms: O_17  and  C_19
REMARK    6  A    between atoms: C_18  and  S_24
REMARK    7  A    between atoms: S_24  and  N_27
REMARK                            x       y       z     vdW  Elec       q    Type
REMARK                         _______ _______ _______ _____ _____    ______ ____
ROOT
ATOM      1  O   UNL     1      -0.286   1.645   0.794  0.00  0.00    -0.244 OA
ATOM      2  C   UNL     1       0.296   0.726   0.201  0.00  0.00    +0.346 C 
ENDROOT
BRANCH   2   3
ATOM      3  C   UNL     1       1.739   0.633   0.046  0.00  0.00    +0.076 C 
ATOM      4  C   UNL     1       2.581   1.171   1.019  0.00  0.00    +0.008 C 
ATOM      5  C   UNL     1       2.281   0.004  -1.075  0.00  0.00    +0.008 C 
ATOM      6  C   UNL     1       4.507   0.451  -0.248  0.00  0.00    +0.084 C 
ATOM      7  C   UNL     1       3.965   1.080   0.872  0.00  0.00    +0.019 C 
ATOM      8  C   UNL     1       3.666  -0.086  -1.222  0.00  0.00    +0.019 C 
BRANCH   6   9
ATOM      9  N   UNL     1       5.895   0.361  -0.397  0.00  0.00    -0.214 NA
BRANCH   9  12
ATOM     10  N   UNL     1       7.882  -0.810  -0.028  0.00  0.00    -0.370 N 
ATOM     11  N   UNL     1       5.961  -1.748   0.770  0.00  0.00    -0.370 N 
ATOM     12  C   UNL     1       6.519  -0.682   0.096  0.00  0.00    +0.193 C 
ATOM     13  H   UNL     1       8.401  -0.113  -0.491  0.00  0.00    +0.159 HD
ATOM     14  H   UNL     1       8.339  -1.597   0.345  0.00  0.00    +0.159 HD
ATOM     15  H   UNL     1       4.989  -1.777   0.925  0.00  0.00    +0.159 HD
ATOM     16  H   UNL     1       6.534  -2.479   1.095  0.00  0.00    +0.159 HD
ENDBRANCH   9  12
ENDBRANCH   6   9
ENDBRANCH   2   3
BRANCH   2  17
ATOM     17  O   UNL     1      -0.342  -0.358  -0.398  0.00  0.00    -0.421 OA
BRANCH  17  19
ATOM     18  C   UNL     1      -4.479  -0.285  -0.070  0.00  0.00    +0.122 C 
ATOM     19  C   UNL     1      -1.735  -0.334  -0.288  0.00  0.00    +0.149 C 
ATOM     20  C   UNL     1      -3.856   0.317  -1.162  0.00  0.00    +0.023 C 
ATOM     21  C   UNL     1      -3.713  -0.913   0.912  0.00  0.00    +0.023 C 
ATOM     22  C   UNL     1      -2.466   0.292  -1.273  0.00  0.00    +0.039 C 
ATOM     23  C   UNL     1      -2.322  -0.937   0.802  0.00  0.00    +0.039 C 
BRANCH  18  24
ATOM     24  S   UNL     1      -6.220  -0.255   0.069  0.00  0.00    +0.057 S 
ATOM     25  O   UNL     1      -6.784  -0.094  -1.264  0.00  0.00    -0.153 OA
ATOM     26  O   UNL     1      -6.637  -1.375   0.901  0.00  0.00    -0.153 OA
BRANCH  24  27
ATOM     27  N   UNL     1      -6.451   1.195   0.944  0.00  0.00    -0.203 NA
ATOM     28  H   UNL     1      -7.448   1.342   1.100  0.00  0.00    +0.144 HD
ATOM     29  H   UNL     1      -6.071   1.977   0.411  0.00  0.00    +0.144 HD
ENDBRANCH  24  27
ENDBRANCH  18  24
ENDBRANCH  17  19
ENDBRANCH   2  17
TORSDOF 7
