REMARK  Name = 127138
REMARK  3 active torsions:
REMARK  status: ('A' for Active; 'I' for Inactive)
REMARK    1  A    between atoms: P_1  and  O_22
REMARK    2  A    between atoms: C_8  and  O_20
REMARK    3  A    between atoms: C_9  and  N_11
REMARK                            x       y       z     vdW  Elec       q    Type
REMARK                         _______ _______ _______ _____ _____    ______ ____
ROOT
ATOM      1  P   UNL     1       3.308   1.161  -0.496  0.00  0.00    +0.476 P 
ATOM      2  O   UNL     1       0.907  -0.863   1.429  0.00  0.00    -0.333 OA
ATOM      3  O   UNL     1       2.088   0.253  -1.038  0.00  0.00    -0.271 OA
ATOM      4  O   UNL     1       3.307   0.854   1.091  0.00  0.00    -0.271 OA
ATOM      5  O   UNL     1       3.217   2.617  -0.848  0.00  0.00    -0.227 OA
ATOM      6  C   UNL     1       1.997  -1.109  -0.637  0.00  0.00    +0.186 C 
ATOM      7  C   UNL     1       2.164  -1.283   0.869  0.00  0.00    +0.177 C 
ATOM      8  C   UNL     1       0.562  -1.555  -0.842  0.00  0.00    +0.188 C 
ATOM      9  C   UNL     1      -0.126  -1.181   0.476  0.00  0.00    +0.224 C 
ATOM     10  C   UNL     1       3.303  -0.504   1.509  0.00  0.00    +0.186 C 
ENDROOT
BRANCH   9  11
ATOM     11  N   UNL     1      -1.052  -0.053   0.353  0.00  0.00    -0.262 N 
ATOM     12  N   UNL     1      -1.759   2.055   0.303  0.00  0.00    -0.251 NA
ATOM     13  C   UNL     1      -2.403  -0.124   0.119  0.00  0.00    +0.065 C 
ATOM     14  C   UNL     1      -0.717   1.269   0.455  0.00  0.00    +0.221 C 
ATOM     15  C   UNL     1      -2.820   1.204   0.092  0.00  0.00    +0.073 C 
ATOM     16  C   UNL     1      -3.268  -1.203  -0.066  0.00  0.00    +0.015 C 
ATOM     17  C   UNL     1      -4.177   1.491  -0.131  0.00  0.00    +0.073 C 
ATOM     18  C   UNL     1      -4.615  -0.899  -0.287  0.00  0.00    -0.003 C 
ATOM     19  C   UNL     1      -5.064   0.423  -0.319  0.00  0.00    -0.020 C 
ENDBRANCH   9  11
BRANCH   8  20
ATOM     20  O   UNL     1       0.512  -2.972  -0.987  0.00  0.00    -0.378 OA
ATOM     21  H   UNL     1       0.943  -3.228  -1.817  0.00  0.00    +0.211 HD
ENDBRANCH   8  20
BRANCH   1  22
ATOM     22  O   UNL     1       4.636   0.418  -1.046  0.00  0.00    -0.302 OA
ATOM     23  H   UNL     1       4.619  -0.514  -0.779  0.00  0.00    +0.222 HD
ENDBRANCH   1  22
TORSDOF 3
