REMARK  Name = 127173
REMARK  4 active torsions:
REMARK  status: ('A' for Active; 'I' for Inactive)
REMARK    1  A    between atoms: C_9  and  O_18
REMARK    2  A    between atoms: C_12  and  O_20
REMARK    3  A    between atoms: C_13  and  O_24
REMARK    4  A    between atoms: C_15  and  O_22
REMARK                            x       y       z     vdW  Elec       q    Type
REMARK                         _______ _______ _______ _____ _____    ______ ____
ROOT
ATOM      1  O   UNL     1       0.534  -2.757   0.003  0.00  0.00    -0.286 OA
ATOM      2  O   UNL     1      -0.436   2.497   0.101  0.00  0.00    -0.286 OA
ATOM      3  C   UNL     1       1.432  -0.570  -0.001  0.00  0.00    +0.076 C 
ATOM      4  C   UNL     1       1.164   0.800   0.026  0.00  0.00    +0.048 C 
ATOM      5  C   UNL     1      -1.333   0.310   0.107  0.00  0.00    +0.079 C 
ATOM      6  C   UNL     1      -1.065  -1.060   0.080  0.00  0.00    +0.045 C 
ATOM      7  C   UNL     1       0.328  -1.550   0.025  0.00  0.00    +0.199 C 
ATOM      8  C   UNL     1      -0.229   1.290   0.081  0.00  0.00    +0.199 C 
ATOM      9  C   UNL     1       2.757  -1.021  -0.051  0.00  0.00    +0.136 C 
ATOM     10  C   UNL     1       3.806  -0.101  -0.074  0.00  0.00    +0.046 C 
ATOM     11  C   UNL     1       2.220   1.720   0.002  0.00  0.00    +0.040 C 
ATOM     12  C   UNL     1      -2.657   0.761   0.160  0.00  0.00    +0.171 C 
ATOM     13  C   UNL     1       3.538   1.266  -0.048  0.00  0.00    +0.133 C 
ATOM     14  C   UNL     1      -2.120  -1.980   0.106  0.00  0.00    +0.007 C 
ATOM     15  C   UNL     1      -3.707  -0.159   0.186  0.00  0.00    +0.172 C 
ATOM     16  C   UNL     1      -3.438  -1.526   0.159  0.00  0.00    +0.040 C 
ATOM     17  C   UNL     1       5.223  -0.578  -0.129  0.00  0.00    +0.037 C 
ENDROOT
BRANCH   9  18
ATOM     18  O   UNL     1       3.068  -2.349  -0.078  0.00  0.00    -0.506 OA
ATOM     19  H   UNL     1       2.386  -2.991  -0.063  0.00  0.00    +0.292 HD
ENDBRANCH   9  18
BRANCH  12  20
ATOM     20  O   UNL     1      -2.975   2.088   0.189  0.00  0.00    -0.503 OA
ATOM     21  H   UNL     1      -2.295   2.732   0.173  0.00  0.00    +0.292 HD
ENDBRANCH  12  20
BRANCH  15  22
ATOM     22  O   UNL     1      -5.001   0.264   0.237  0.00  0.00    -0.468 OA
ATOM     23  C   UNL     1      -5.662   0.481  -1.008  0.00  0.00    +0.253 C 
ENDBRANCH  15  22
BRANCH  13  24
ATOM     24  O   UNL     1       4.552   2.176  -0.071  0.00  0.00    -0.506 OA
ATOM     25  H   UNL     1       5.442   1.885  -0.104  0.00  0.00    +0.292 HD
ENDBRANCH  13  24
TORSDOF 4
