REMARK  Name = 127119
REMARK  13 active torsions:
REMARK  status: ('A' for Active; 'I' for Inactive)
REMARK    1  A    between atoms: C_1  and  O_2
REMARK    2  A    between atoms: C_1  and  C_4
REMARK    3  A    between atoms: C_1  and  C_18
REMARK    4  A    between atoms: C_4  and  O_5
REMARK    5  A    between atoms: C_4  and  C_7
REMARK    6  A    between atoms: C_7  and  N_9
REMARK    7  A    between atoms: N_10  and  N_14
REMARK    8  A    between atoms: N_10  and  C_15
REMARK    9  A    between atoms: C_15  and  C_17
REMARK   10  A    between atoms: C_18  and  N_20
REMARK   11  A    between atoms: N_20  and  N_25
REMARK   12  A    between atoms: N_21  and  C_26
REMARK   13  A    between atoms: C_26  and  C_28
REMARK                            x       y       z     vdW  Elec       q    Type
REMARK                         _______ _______ _______ _____ _____    ______ ____
ROOT
ATOM      1  C   UNL     1       1.075  -0.658  -0.150  0.00  0.00    +0.160 C 
ENDROOT
BRANCH   1   2
ATOM      2  O   UNL     1       1.606  -1.330  -1.290  0.00  0.00    -0.380 OA
ATOM      3  H   UNL     1       1.035  -1.165  -2.057  0.00  0.00    +0.211 HD
ENDBRANCH   1   2
BRANCH   1   4
ATOM      4  C   UNL     1      -0.356  -1.162   0.097  0.00  0.00    +0.158 C 
BRANCH   4   5
ATOM      5  O   UNL     1      -0.312  -2.549   0.427  0.00  0.00    -0.380 OA
ATOM      6  H   UNL     1       0.289  -2.683   1.176  0.00  0.00    +0.211 HD
ENDBRANCH   4   5
BRANCH   4   7
ATOM      7  C   UNL     1      -1.307  -0.953  -1.086  0.00  0.00    +0.123 C 
BRANCH   7   9
ATOM      8  O   UNL     1      -2.880   1.233  -0.260  0.00  0.00    -0.251 OA
ATOM      9  N   UNL     1      -2.693  -1.015  -0.706  0.00  0.00    -0.285 N 
ATOM     10  N   UNL     1      -4.751  -0.102   0.032  0.00  0.00    -0.163 N 
ATOM     11  C   UNL     1      -3.407   0.117  -0.307  0.00  0.00    +0.320 C 
ATOM     12  H   UNL     1      -3.153  -1.885  -0.728  0.00  0.00    +0.151 HD
BRANCH  10  14
ATOM     13  O   UNL     1      -6.522  -1.527   0.275  0.00  0.00    -0.078 OA
ATOM     14  N   UNL     1      -5.331  -1.473  -0.050  0.00  0.00    +0.054 NA
ENDBRANCH  10  14
BRANCH  10  15
ATOM     15  C   UNL     1      -5.613   0.992   0.463  0.00  0.00    +0.134 C 
BRANCH  15  17
ATOM     16 CL   UNL     1      -7.369   2.995  -0.132  0.00  0.00    -0.112 Cl
ATOM     17  C   UNL     1      -6.331   1.662  -0.696  0.00  0.00    +0.118 C 
ENDBRANCH  15  17
ENDBRANCH  10  15
ENDBRANCH   7   9
ENDBRANCH   4   7
ENDBRANCH   1   4
BRANCH   1  18
ATOM     18  C   UNL     1       1.984  -0.927   1.052  0.00  0.00    +0.149 C 
BRANCH  18  20
ATOM     19  O   UNL     1       4.467  -1.513  -0.189  0.00  0.00    -0.251 OA
ATOM     20  N   UNL     1       3.138  -0.066   1.042  0.00  0.00    -0.162 N 
ATOM     21  N   UNL     1       5.379   0.492   0.468  0.00  0.00    -0.286 N 
ATOM     22  C   UNL     1       4.341  -0.434   0.399  0.00  0.00    +0.320 C 
ATOM     23  H   UNL     1       5.232   1.339   0.948  0.00  0.00    +0.151 HD
BRANCH  20  25
ATOM     24  O   UNL     1       1.965   1.470   2.263  0.00  0.00    -0.078 OA
ATOM     25  N   UNL     1       3.064   1.260   1.739  0.00  0.00    +0.054 NA
ENDBRANCH  20  25
BRANCH  21  26
ATOM     26  C   UNL     1       6.666   0.247  -0.143  0.00  0.00    +0.108 C 
BRANCH  26  28
ATOM     27 CL   UNL     1       6.448   2.498  -1.671  0.00  0.00    -0.112 Cl
ATOM     28  C   UNL     1       6.734   0.743  -1.578  0.00  0.00    +0.116 C 
ENDBRANCH  26  28
ENDBRANCH  21  26
ENDBRANCH  18  20
ENDBRANCH   1  18
TORSDOF 13
