REMARK  Name = 127198
REMARK  7 active torsions:
REMARK  status: ('A' for Active; 'I' for Inactive)
REMARK    1  A    between atoms: C_1  and  N_2
REMARK    2  A    between atoms: C_1  and  C_6
REMARK    3  A    between atoms: C_1  and  C_12
REMARK    4  A    between atoms: C_6  and  S_7
REMARK    5  A    between atoms: S_7  and  S_8
REMARK    6  A    between atoms: C_12  and  S_13
REMARK    7  A    between atoms: S_13  and  S_14
REMARK                            x       y       z     vdW  Elec       q    Type
REMARK                         _______ _______ _______ _____ _____    ______ ____
ROOT
ATOM      1  C   UNL     1      -0.013   1.499   0.532  0.00  0.00    -0.033 C 
ENDROOT
BRANCH   1   2
ATOM      2  N   UNL     1      -0.427   2.603  -0.345  0.00  0.00    +0.387 N 
ATOM      3  C   UNL     1       0.676   3.542  -0.529  0.00  0.00    -0.101 C 
ATOM      4  C   UNL     1      -1.594   3.280   0.213  0.00  0.00    -0.101 C 
ATOM      5  H   UNL     1      -0.681   2.223  -1.257  0.00  0.00    -0.080 HD
ENDBRANCH   1   2
BRANCH   1   6
ATOM      6  C   UNL     1       1.249   0.833  -0.046  0.00  0.00    +0.062 C 
BRANCH   6   7
ATOM      7  S   UNL     1       1.984  -0.462   1.003  0.00  0.00    +0.012 S 
BRANCH   7   8
ATOM      8  S   UNL     1       3.628  -1.076  -0.138  0.00  0.00    +0.066 S 
ATOM      9  O   UNL     1       4.323  -2.242   0.764  0.00  0.00    -0.059 OA
ATOM     10  O   UNL     1       3.114  -1.693  -1.346  0.00  0.00    -0.059 OA
ATOM     11  O   UNL     1       4.550   0.042  -0.210  0.00  0.00    -0.059 OA
ENDBRANCH   7   8
ENDBRANCH   6   7
ENDBRANCH   1   6
BRANCH   1  12
ATOM     12  C   UNL     1      -1.216   0.571   0.779  0.00  0.00    +0.062 C 
BRANCH  12  13
ATOM     13  S   UNL     1      -1.795  -0.265  -0.730  0.00  0.00    +0.012 S 
BRANCH  13  14
ATOM     14  S   UNL     1      -3.397  -1.409  -0.016  0.00  0.00    +0.066 S 
ATOM     15  O   UNL     1      -3.426  -2.708  -1.000  0.00  0.00    -0.059 OA
ATOM     16  O   UNL     1      -3.046  -1.865   1.315  0.00  0.00    -0.059 OA
ATOM     17  O   UNL     1      -4.610  -0.649  -0.245  0.00  0.00    -0.059 OA
ENDBRANCH  13  14
ENDBRANCH  12  13
ENDBRANCH   1  12
TORSDOF 7
