REMARK  Name = 127249
REMARK  7 active torsions:
REMARK  status: ('A' for Active; 'I' for Inactive)
REMARK    1  A    between atoms: N_2  and  N_5
REMARK    2  A    between atoms: N_2  and  C_15
REMARK    3  A    between atoms: C_3  and  C_6
REMARK    4  A    between atoms: C_6  and  N_8
REMARK    5  A    between atoms: C_6  and  C_12
REMARK    6  A    between atoms: C_15  and  C_17
REMARK    7  A    between atoms: C_17  and  O_18
REMARK                            x       y       z     vdW  Elec       q    Type
REMARK                         _______ _______ _______ _____ _____    ______ ____
ROOT
ATOM      1  O   UNL     1       0.020  -0.132  -1.710  0.00  0.00    -0.272 OA
ATOM      2  N   UNL     1       1.137  -0.630   0.250  0.00  0.00    -0.167 N 
ATOM      3  C   UNL     1       0.040  -0.162  -0.475  0.00  0.00    +0.260 C 
ENDROOT
BRANCH   2   5
ATOM      4  O   UNL     1       2.154  -1.086   2.244  0.00  0.00    -0.079 OA
ATOM      5  N   UNL     1       1.116  -0.647   1.738  0.00  0.00    +0.053 NA
ENDBRANCH   2   5
BRANCH   3   6
ATOM      6  C   UNL     1      -1.152   0.378   0.329  0.00  0.00    +0.150 C 
BRANCH   6   8
ATOM      7  O   UNL     1      -2.649  -2.104   0.484  0.00  0.00    -0.275 OA
ATOM      8  N   UNL     1      -2.350   0.030  -0.397  0.00  0.00    -0.298 N 
ATOM      9  C   UNL     1      -2.997  -1.187  -0.255  0.00  0.00    +0.223 C 
ATOM     10  C   UNL     1      -4.234  -1.280  -1.108  0.00  0.00    +0.095 C 
ATOM     11  H   UNL     1      -2.727   0.689  -1.024  0.00  0.00    +0.150 HD
ENDBRANCH   6   8
BRANCH   6  12
ATOM     12  C   UNL     1      -1.033   1.893   0.611  0.00  0.00    +0.027 C 
ATOM     13  C   UNL     1      -2.203   2.382   1.472  0.00  0.00    +0.002 C 
ATOM     14  C   UNL     1      -0.927   2.750  -0.655  0.00  0.00    +0.002 C 
ENDBRANCH   6  12
ENDBRANCH   3   6
BRANCH   2  15
ATOM     15  C   UNL     1       2.331  -1.113  -0.433  0.00  0.00    +0.224 C 
BRANCH  15  17
ATOM     16  O   UNL     1       2.904   1.202  -0.783  0.00  0.00    -0.248 OA
ATOM     17  C   UNL     1       3.271   0.043  -0.635  0.00  0.00    +0.336 C 
BRANCH  17  18
ATOM     18  O   UNL     1       4.573  -0.336  -0.678  0.00  0.00    -0.479 OA
ATOM     19  H   UNL     1       4.804  -1.236  -0.559  0.00  0.00    +0.295 HD
ENDBRANCH  17  18
ENDBRANCH  15  17
ENDBRANCH   2  15
TORSDOF 7
