127239
  -OEChem-03292013323D

 35 35  0     1  0  0  0  0  0999 V2000
    0.0293    0.2092   -0.4176 S   0  0  0  0  0  0  0  0  0  0  0  0
   -2.6182    1.0433   -1.9025 O   0  0  0  0  0  0  0  0  0  0  0  0
   -4.2793   -0.1608    2.2208 O   0  0  0  0  0  0  0  0  0  0  0  0
    2.9915   -1.2267    1.3067 O   0  0  0  0  0  0  0  0  0  0  0  0
    5.1105    2.2960    1.0482 O   0  0  0  0  0  0  0  0  0  0  0  0
    3.4947    2.2710   -0.5490 O   0  0  0  0  0  0  0  0  0  0  0  0
   -3.8461    0.5532    0.0291 N   0  0  0  0  0  0  0  0  0  0  0  0
    2.0528   -3.3308   -0.4496 N   0  0  0  0  0  0  0  0  0  0  0  0
    3.7347   -0.4508   -0.7495 N   0  0  0  0  0  0  0  0  0  0  0  0
    1.7994   -1.9083   -0.6909 C   0  0  1  0  0  0  0  0  0  0  0  0
    0.3879   -1.5642   -0.2085 C   0  0  0  0  0  0  0  0  0  0  0  0
   -1.6047    0.2346    0.1143 C   0  0  0  0  0  0  0  0  0  0  0  0
   -5.1836    0.8757   -0.4267 C   0  0  0  0  0  0  0  0  0  0  0  0
   -2.7204    0.6695   -0.7463 C   0  0  0  0  0  0  0  0  0  0  0  0
   -3.5434    0.0794    1.2785 C   0  0  0  0  0  0  0  0  0  0  0  0
   -2.0837   -0.1137    1.3081 C   0  0  0  0  0  0  0  0  0  0  0  0
    2.8845   -1.1642    0.0834 C   0  0  0  0  0  0  0  0  0  0  0  0
   -5.8569   -0.3226   -1.0634 C   0  0  0  0  0  0  0  0  0  0  0  0
    4.8556    0.3053   -0.2429 C   0  0  0  0  0  0  0  0  0  0  0  0
    4.3953    1.7049    0.0576 C   0  0  0  0  0  0  0  0  0  0  0  0
    1.8812   -1.7176   -1.7672 H   0  0  0  0  0  0  0  0  0  0  0  0
    0.2778   -1.8159    0.8531 H   0  0  0  0  0  0  0  0  0  0  0  0
   -0.3536   -2.1433   -0.7714 H   0  0  0  0  0  0  0  0  0  0  0  0
   -5.7746    1.2157    0.4305 H   0  0  0  0  0  0  0  0  0  0  0  0
   -5.1210    1.6914   -1.1549 H   0  0  0  0  0  0  0  0  0  0  0  0
   -1.5411   -0.4745    2.1662 H   0  0  0  0  0  0  0  0  0  0  0  0
   -5.2889   -0.6802   -1.9287 H   0  0  0  0  0  0  0  0  0  0  0  0
   -5.9377   -1.1524   -0.3533 H   0  0  0  0  0  0  0  0  0  0  0  0
   -6.8646   -0.0610   -1.4001 H   0  0  0  0  0  0  0  0  0  0  0  0
    2.9498   -3.5919   -0.8581 H   0  0  0  0  0  0  0  0  0  0  0  0
    1.3498   -3.8899   -0.9318 H   0  0  0  0  0  0  0  0  0  0  0  0
    3.5704   -0.4389   -1.7516 H   0  0  0  0  0  0  0  0  0  0  0  0
    5.6368    0.3339   -1.0065 H   0  0  0  0  0  0  0  0  0  0  0  0
    5.2335   -0.1687    0.6678 H   0  0  0  0  0  0  0  0  0  0  0  0
    4.8096    3.2140    1.2191 H   0  0  0  0  0  0  0  0  0  0  0  0
  1 11  1  0  0  0  0
  1 12  1  0  0  0  0
  2 14  2  0  0  0  0
  3 15  2  0  0  0  0
  4 17  2  0  0  0  0
  5 20  1  0  0  0  0
  5 35  1  0  0  0  0
  6 20  2  0  0  0  0
  7 13  1  0  0  0  0
  7 14  1  0  0  0  0
  7 15  1  0  0  0  0
  8 10  1  0  0  0  0
  8 30  1  0  0  0  0
  8 31  1  0  0  0  0
  9 17  1  0  0  0  0
  9 19  1  0  0  0  0
  9 32  1  0  0  0  0
 10 11  1  0  0  0  0
 10 17  1  0  0  0  0
 10 21  1  0  0  0  0
 11 22  1  0  0  0  0
 11 23  1  0  0  0  0
 12 14  1  0  0  0  0
 12 16  2  0  0  0  0
 13 18  1  0  0  0  0
 13 24  1  0  0  0  0
 13 25  1  0  0  0  0
 15 16  1  0  0  0  0
 16 26  1  0  0  0  0
 18 27  1  0  0  0  0
 18 28  1  0  0  0  0
 18 29  1  0  0  0  0
 19 20  1  0  0  0  0
 19 33  1  0  0  0  0
 19 34  1  0  0  0  0
M  END
> <PUBCHEM_COMPOUND_CID>
127239

> <PUBCHEM_CONFORMER_RMSD>
0.8

> <PUBCHEM_CONFORMER_DIVERSEORDER>
1
120
215
298
252
270
19
240
207
117
307
14
220
24
65
249
202
259
34
55
127
118
18
20
196
256
95
70
177
7
183
324
222
69
364
347
258
75
348
122
104
94
134
30
293
42
81
315
203
5
13
219
254
40
269
200
299
160
146
149
263
158
358
77
322
103
46
125
289
310
138
119
186
297
27
327
6
54
178
49
221
312
9
320
72
343
319
79
243
277
214
192
131
332
282
271
363
102
336
266
88
168
143
164
333
53
108
71
292
136
57
159
351
218
290
137
276
291
247
260
16
205
340
114
22
360
29
162
229
359
106
35
48
90
224
257
208
32
239
308
300
242
50
85
309
268
325
126
33
101
176
313
283
306
2
36
262
184
145
21
314
91
357
156
365
353
61
92
37
67
273
334
97
281
331
10
330
147
232
228
166
261
105
25
45
142
211
100
107
66
204
128
154
86
267
279
124
59
295
209
344
231
285
31
316
193
185
150
189
11
112
311
342
74
3
144
212
175
278
116
140
89
321
182
238
43
265
250
227
338
188
272
8
195
121
350
190
280
356
133
217
326
23
155
99
241
328
275
226
26
161
233
303
341
213
288
274
151
148
173
361
284
110
287
223
198
248
367
199
366
130
346
230
172
165
132
78
84
93
39
179
68
305
362
246
323
141
12
64
225
235
174
355
62
41
153
123
4
38
63
337
349
98
296
194
15
317
352
56
245
187
197
80
237
28
264
129
345
180
255
318
354
111
167
236
96
157
201
83
73
244
304
170
181
51
191
163
135
294
171
87
253
76
60
82
302
301
58
251
52
169
210
234
206
152
216
115
44
335
139
286
17
109
339
113
329
47

> <PUBCHEM_MMFF94_PARTIAL_CHARGES>
24
1 -0.33
10 0.33
11 0.23
12 0.12
13 0.3
14 0.62
15 0.62
16 -0.14
17 0.57
19 0.36
2 -0.57
20 0.66
26 0.15
3 -0.57
30 0.36
31 0.36
32 0.37
35 0.5
4 -0.57
5 -0.65
6 -0.57
7 -0.42
8 -0.99
9 -0.73

> <PUBCHEM_EFFECTIVE_ROTOR_COUNT>
8.2

> <PUBCHEM_PHARMACOPHORE_FEATURES>
10
1 2 acceptor
1 3 acceptor
1 4 acceptor
1 5 acceptor
1 6 acceptor
1 8 cation
1 8 donor
1 9 donor
3 5 6 20 anion
5 7 12 14 15 16 rings

> <PUBCHEM_HEAVY_ATOM_COUNT>
20

> <PUBCHEM_ATOM_DEF_STEREO_COUNT>
1

> <PUBCHEM_ATOM_UDEF_STEREO_COUNT>
0

> <PUBCHEM_BOND_DEF_STEREO_COUNT>
0

> <PUBCHEM_BOND_UDEF_STEREO_COUNT>
0

> <PUBCHEM_ISOTOPIC_ATOM_COUNT>
0

> <PUBCHEM_COMPONENT_COUNT>
1

> <PUBCHEM_CACTVS_TAUTO_COUNT>
2

> <PUBCHEM_CONFORMER_ID>
0001F10700000001

> <PUBCHEM_MMFF94_ENERGY>
21.1592

> <PUBCHEM_FEATURE_SELFOVERLAP>
50.805

> <PUBCHEM_SHAPE_FINGERPRINT>
10319926 262 17313379003217308240
11045977 3 17822015306808756242
11128504 68 17274822471541414612
12236239 1 17561365067422131085
12596602 18 17632577179983881045
12633257 1 16370723768489429028
13533116 47 17096075871289141107
13583140 156 17749100080631703090
13631057 29 17987229118379594791
13955234 65 18340772533725428546
14251732 14 15267062600820115349
14251758 9 12757414043241005427
14528608 73 18343863324807458957
15375358 24 17967819331759643163
17834072 33 18202279208615154863
17844677 252 18270687437466105877
204376 136 18413392059476790294
20626108 58 14057297457237371210
20645477 70 18337104566860408662
21065201 7 16443636679120128442
21728266 224 15285646550921858369
23402539 116 16370729240483537759
23532345 1 18411139099816096374
23557571 272 17386007200275980685
23559900 14 17168434752898361690
312423 11 17273983440979689991
4325135 7 18343578560402913951
474 4 18343865532821432556
5104073 3 18041001674811629457
5283173 99 17604138221859122917
633830 44 17846227643821374150

> <PUBCHEM_SHAPE_MULTIPOLES>
371.15
12.74
2.25
1.41
2.65
0.83
0.42
-5.21
-0.07
-4.06
-0.25
1.58
-0.1
0.64

> <PUBCHEM_SHAPE_SELFOVERLAP>
743.861

> <PUBCHEM_SHAPE_VOLUME>
220.5

> <PUBCHEM_COORDINATE_TYPE>
2
5
10

$$$$
