127249
  -OEChem-03292013323D

 32 31  0     1  0  0  0  0  0999 V2000
    0.0203   -0.1322   -1.7101 O   0  0  0  0  0  0  0  0  0  0  0  0
   -2.6487   -2.1045    0.4839 O   0  0  0  0  0  0  0  0  0  0  0  0
    4.5734   -0.3359   -0.6782 O   0  0  0  0  0  0  0  0  0  0  0  0
    2.1535   -1.0864    2.2445 O   0  0  0  0  0  0  0  0  0  0  0  0
    2.9038    1.2015   -0.7834 O   0  0  0  0  0  0  0  0  0  0  0  0
   -2.3504    0.0298   -0.3968 N   0  0  0  0  0  0  0  0  0  0  0  0
    1.1373   -0.6300    0.2503 N   0  0  0  0  0  0  0  0  0  0  0  0
    1.1157   -0.6468    1.7380 N   0  0  0  0  0  0  0  0  0  0  0  0
   -1.0331    1.8933    0.6113 C   0  0  0  0  0  0  0  0  0  0  0  0
   -1.1524    0.3784    0.3292 C   0  0  2  0  0  0  0  0  0  0  0  0
   -2.2028    2.3824    1.4715 C   0  0  0  0  0  0  0  0  0  0  0  0
   -0.9272    2.7499   -0.6552 C   0  0  0  0  0  0  0  0  0  0  0  0
    0.0397   -0.1617   -0.4747 C   0  0  0  0  0  0  0  0  0  0  0  0
   -2.9967   -1.1871   -0.2549 C   0  0  0  0  0  0  0  0  0  0  0  0
    2.3306   -1.1134   -0.4327 C   0  0  0  0  0  0  0  0  0  0  0  0
   -4.2335   -1.2799   -1.1077 C   0  0  0  0  0  0  0  0  0  0  0  0
    3.2706    0.0426   -0.6352 C   0  0  0  0  0  0  0  0  0  0  0  0
   -0.1113    2.0580    1.1846 H   0  0  0  0  0  0  0  0  0  0  0  0
   -1.2192   -0.1501    1.2856 H   0  0  0  0  0  0  0  0  0  0  0  0
   -2.0605    3.4308    1.7552 H   0  0  0  0  0  0  0  0  0  0  0  0
   -2.2790    1.7970    2.3938 H   0  0  0  0  0  0  0  0  0  0  0  0
   -3.1570    2.3077    0.9395 H   0  0  0  0  0  0  0  0  0  0  0  0
   -0.8267    3.8086   -0.3906 H   0  0  0  0  0  0  0  0  0  0  0  0
   -1.8117    2.6542   -1.2921 H   0  0  0  0  0  0  0  0  0  0  0  0
   -0.0462    2.4835   -1.2465 H   0  0  0  0  0  0  0  0  0  0  0  0
   -2.7014    0.6833   -1.0904 H   0  0  0  0  0  0  0  0  0  0  0  0
    2.0657   -1.5085   -1.4189 H   0  0  0  0  0  0  0  0  0  0  0  0
    2.8082   -1.9141    0.1397 H   0  0  0  0  0  0  0  0  0  0  0  0
   -4.6585   -2.2846   -1.0341 H   0  0  0  0  0  0  0  0  0  0  0  0
   -4.9730   -0.5519   -0.7629 H   0  0  0  0  0  0  0  0  0  0  0  0
   -3.9830   -1.0790   -2.1532 H   0  0  0  0  0  0  0  0  0  0  0  0
    5.1713    0.4270   -0.8290 H   0  0  0  0  0  0  0  0  0  0  0  0
  1 13  2  0  0  0  0
  2 14  2  0  0  0  0
  3 17  1  0  0  0  0
  3 32  1  0  0  0  0
  4  8  2  0  0  0  0
  5 17  2  0  0  0  0
  6 10  1  0  0  0  0
  6 14  1  0  0  0  0
  6 26  1  0  0  0  0
  7  8  1  0  0  0  0
  7 13  1  0  0  0  0
  7 15  1  0  0  0  0
  9 10  1  0  0  0  0
  9 11  1  0  0  0  0
  9 12  1  0  0  0  0
  9 18  1  0  0  0  0
 10 13  1  0  0  0  0
 10 19  1  0  0  0  0
 11 20  1  0  0  0  0
 11 21  1  0  0  0  0
 11 22  1  0  0  0  0
 12 23  1  0  0  0  0
 12 24  1  0  0  0  0
 12 25  1  0  0  0  0
 14 16  1  0  0  0  0
 15 17  1  0  0  0  0
 15 27  1  0  0  0  0
 15 28  1  0  0  0  0
 16 29  1  0  0  0  0
 16 30  1  0  0  0  0
 16 31  1  0  0  0  0
M  END
> <PUBCHEM_COMPOUND_CID>
127249

> <PUBCHEM_CONFORMER_RMSD>
0.8

> <PUBCHEM_CONFORMER_DIVERSEORDER>
1
32
68
21
82
56
93
71
53
102
27
72
96
9
79
64
19
2
89
70
10
73
45
47
107
41
39
103
69
87
108
13
77
100
44
35
90
48
15
51
84
16
83
75
78
80
97
55
23
58
63
14
111
66
99
12
50
18
37
24
33
28
40
59
92
81
62
61
42
20
11
98
94
86
4
57
74
25
46
88
112
17
110
8
26
6
29
91
52
5
67
85
95
36
30
65
105
101
3
34
109
60
31
49
104
43
54
38
7
106
76
22

> <PUBCHEM_MMFF94_PARTIAL_CHARGES>
16
1 -0.57
10 0.36
13 0.57
14 0.57
15 0.36
16 0.06
17 0.66
2 -0.57
26 0.37
3 -0.65
32 0.5
4 -0.16
5 -0.57
6 -0.73
7 -0.18
8 -0.02

> <PUBCHEM_EFFECTIVE_ROTOR_COUNT>
8

> <PUBCHEM_PHARMACOPHORE_FEATURES>
7
1 1 acceptor
1 2 acceptor
1 3 acceptor
1 5 acceptor
1 6 donor
3 3 5 17 anion
3 9 11 12 hydrophobe

> <PUBCHEM_HEAVY_ATOM_COUNT>
17

> <PUBCHEM_ATOM_DEF_STEREO_COUNT>
1

> <PUBCHEM_ATOM_UDEF_STEREO_COUNT>
0

> <PUBCHEM_BOND_DEF_STEREO_COUNT>
0

> <PUBCHEM_BOND_UDEF_STEREO_COUNT>
0

> <PUBCHEM_ISOTOPIC_ATOM_COUNT>
0

> <PUBCHEM_COMPONENT_COUNT>
1

> <PUBCHEM_CACTVS_TAUTO_COUNT>
2

> <PUBCHEM_CONFORMER_ID>
0001F11100000001

> <PUBCHEM_MMFF94_ENERGY>
33.8023

> <PUBCHEM_FEATURE_SELFOVERLAP>
35.58

> <PUBCHEM_SHAPE_FINGERPRINT>
12423570 1 11736562310687318929
13538477 17 18264201413809940472
14787075 74 17612600324800966286
15207287 21 14418124162470829230
15375462 189 18114748234758288555
16945 1 18120372047249347252
17844478 74 17489585671005337850
18222031 100 17845640586459490615
200 152 18261108595091240246
20600515 1 18126256831529521059
20711985 344 18342173324365425617
20871999 31 18410003326480865725
21501502 16 18198348351087202574
228727 97 18187367640044980450
23236772 104 18114475478085062657
23402539 116 18341895198951678495
23419403 2 17102026685832228529
23557571 272 17988374675945107844
23559900 14 18270392772576458910
23598291 2 17970061132947784570
23598294 1 18339083679289946977
2748010 2 16701436984420065664
31174 14 16486677169142276282
3286 77 15913328039198908751
6049 1 17060047129977761570
7364860 26 17767680929877704029
7615 1 17969774186055729064
81228 2 18341889633280529321
88987 49 18124861379011178520

> <PUBCHEM_SHAPE_MULTIPOLES>
305.56
6.38
2.4
1.52
2.52
1.66
0.68
-2.86
-1.46
-2.45
0.18
0.51
-0.06
-0.9

> <PUBCHEM_SHAPE_SELFOVERLAP>
590.878

> <PUBCHEM_SHAPE_VOLUME>
183.5

> <PUBCHEM_COORDINATE_TYPE>
2
5
10

$$$$
