REMARK  Name = 127239
REMARK  9 active torsions:
REMARK  status: ('A' for Active; 'I' for Inactive)
REMARK    1  A    between atoms: C_1  and  C_4
REMARK    2  A    between atoms: C_1  and  N_11
REMARK    3  A    between atoms: C_1  and  C_15
REMARK    4  A    between atoms: N_3  and  CA_6
REMARK    5  A    between atoms: CA_6  and  C_8
REMARK    6  A    between atoms: C_8  and  O_9
REMARK    7  A    between atoms: C_15  and  S_16
REMARK    8  A    between atoms: S_16  and  C_20
REMARK    9  A    between atoms: N_19  and  C_24
REMARK                            x       y       z     vdW  Elec       q    Type
REMARK                         _______ _______ _______ _____ _____    ______ ____
ROOT
ATOM      1  C   UNK A   1       1.799  -1.908  -0.691  0.00  0.00    +0.024 C 
ENDROOT
BRANCH   1   4
ATOM      2  O   UNK A   1       2.991  -1.227   1.307  0.00  0.00    -0.277 OA
ATOM      3  N   GLY A   2       3.735  -0.451  -0.750  0.00  0.00    -0.297 N 
ATOM      4  C   UNK A   1       2.885  -1.164   0.083  0.00  0.00    +0.203 C 
ATOM      5  H   GLY A   2       3.568  -0.461  -1.720  0.00  0.00    +0.150 HD
BRANCH   3   6
ATOM      6  CA  GLY A   2       4.856   0.305  -0.243  0.00  0.00    +0.200 C 
BRANCH   6   8
ATOM      7  OXT GLY A   2       3.495   2.271  -0.549  0.00  0.00    -0.248 OA
ATOM      8  C   GLY A   2       4.395   1.705   0.058  0.00  0.00    +0.334 C 
BRANCH   8   9
ATOM      9  O   GLY A   2       5.111   2.296   1.048  0.00  0.00    -0.479 OA
ATOM     10  H   GLY A   2       5.791   1.820   1.483  0.00  0.00    +0.295 HD
ENDBRANCH   8   9
ENDBRANCH   6   8
ENDBRANCH   3   6
ENDBRANCH   1   4
BRANCH   1  11
ATOM     11  N   UNK A   1       2.053  -3.331  -0.450  0.00  0.00    +0.388 N 
ATOM     12  H   UNK A   1       1.356  -3.889  -0.944  0.00  0.00    -0.089 HD
ATOM     13  H   UNK A   1       1.994  -3.522   0.551  0.00  0.00    -0.089 HD
ATOM     14  H   UNK A   1       2.984  -3.572  -0.788  0.00  0.00    -0.089 HD
ENDBRANCH   1  11
BRANCH   1  15
ATOM     15  C   UNK A   1       0.388  -1.564  -0.208  0.00  0.00    +0.049 C 
BRANCH  15  16
ATOM     16  S   UNK A   1       0.029   0.209  -0.418  0.00  0.00    -0.111 S 
BRANCH  16  20
ATOM     17  O   UNK A   1      -2.618   1.043  -1.903  0.00  0.00    -0.269 OA
ATOM     18  O   UNK A   1      -4.279  -0.161   2.221  0.00  0.00    -0.269 OA
ATOM     19  N   UNK A   1      -3.846   0.553   0.029  0.00  0.00    -0.222 N 
ATOM     20  C   UNK A   1      -1.605   0.235   0.114  0.00  0.00    +0.084 C 
ATOM     21  C   UNK A   1      -2.720   0.669  -0.746  0.00  0.00    +0.261 C 
ATOM     22  C   UNK A   1      -3.543   0.079   1.278  0.00  0.00    +0.256 C 
ATOM     23  C   UNK A   1      -2.084  -0.114   1.308  0.00  0.00    +0.069 C 
BRANCH  19  24
ATOM     24  C   UNK A   1      -5.184   0.876  -0.427  0.00  0.00    +0.102 C 
ATOM     25  C   UNK A   1      -5.857  -0.323  -1.063  0.00  0.00    +0.024 C 
ENDBRANCH  19  24
ENDBRANCH  16  20
ENDBRANCH  15  16
ENDBRANCH   1  15
TORSDOF 9
