REMARK  Name = 127259
REMARK  11 active torsions:
REMARK  status: ('A' for Active; 'I' for Inactive)
REMARK    1  A    between atoms: C_1  and  O_2
REMARK    2  A    between atoms: C_1  and  C_4
REMARK    3  A    between atoms: C_1  and  C_12
REMARK    4  A    between atoms: C_4  and  O_5
REMARK    5  A    between atoms: C_4  and  C_7
REMARK    6  A    between atoms: C_7  and  O_8
REMARK    7  A    between atoms: C_7  and  C_11
REMARK    8  A    between atoms: C_12  and  O_13
REMARK    9  A    between atoms: C_12  and  C_15
REMARK   10  A    between atoms: C_15  and  O_16
REMARK   11  A    between atoms: O_16  and  S_17
REMARK                            x       y       z     vdW  Elec       q    Type
REMARK                         _______ _______ _______ _____ _____    ______ ____
ROOT
ATOM      1  C   UNL     1      -0.843   0.453   0.065  0.00  0.00    +0.169 C 
ENDROOT
BRANCH   1   2
ATOM      2  O   UNL     1      -0.845   0.052   1.439  0.00  0.00    -0.379 OA
ATOM      3  H   UNL     1      -1.496  -0.657   1.567  0.00  0.00    +0.211 HD
ENDBRANCH   1   2
BRANCH   1   4
ATOM      4  C   UNL     1      -2.270   0.818  -0.379  0.00  0.00    +0.174 C 
BRANCH   4   5
ATOM      5  O   UNL     1      -2.634   2.022   0.308  0.00  0.00    -0.379 OA
ATOM      6  H   UNL     1      -1.945   2.691   0.174  0.00  0.00    +0.211 HD
ENDBRANCH   4   5
BRANCH   4   7
ATOM      7  C   UNL     1      -3.357  -0.245  -0.169  0.00  0.00    +0.205 C 
BRANCH   7   8
ATOM      8  O   UNL     1      -3.366  -0.596   1.211  0.00  0.00    -0.375 OA
ATOM      9  H   UNL     1      -3.507   0.201   1.746  0.00  0.00    +0.211 HD
ENDBRANCH   7   8
BRANCH   7  11
ATOM     10  O   UNL     1      -2.921  -2.615  -0.464  0.00  0.00    -0.286 OA
ATOM     11  C   UNL     1      -3.134  -1.515  -0.964  0.00  0.00    +0.239 C 
ENDBRANCH   7  11
ENDBRANCH   4   7
ENDBRANCH   1   4
BRANCH   1  12
ATOM     12  C   UNL     1       0.200   1.571  -0.081  0.00  0.00    +0.172 C 
BRANCH  12  13
ATOM     13  O   UNL     1       0.345   1.859  -1.479  0.00  0.00    -0.379 OA
ATOM     14  H   UNL     1      -0.518   2.099  -1.851  0.00  0.00    +0.211 HD
ENDBRANCH  12  13
BRANCH  12  15
ATOM     15  C   UNL     1       1.584   1.203   0.444  0.00  0.00    +0.208 C 
BRANCH  15  16
ATOM     16  O   UNL     1       2.050   0.052  -0.256  0.00  0.00    -0.198 OA
BRANCH  16  17
ATOM     17  S   UNL     1       3.516  -0.572   0.102  0.00  0.00    +0.239 S 
ATOM     18  O   UNL     1       3.722  -1.736  -1.022  0.00  0.00    -0.116 OA
ATOM     19  O   UNL     1       4.502   0.462  -0.154  0.00  0.00    -0.116 OA
ATOM     20  O   UNL     1       3.453  -1.213   1.402  0.00  0.00    -0.022 OA
ENDBRANCH  16  17
ENDBRANCH  15  16
ENDBRANCH  12  15
ENDBRANCH   1  12
TORSDOF 11
