REMARK  Name = 127299
REMARK  6 active torsions:
REMARK  status: ('A' for Active; 'I' for Inactive)
REMARK    1  A    between atoms: C_1  and  C_8
REMARK    2  A    between atoms: C_1  and  N_15
REMARK    3  A    between atoms: C_1  and  C_25
REMARK    4  A    between atoms: C_4  and  C_11
REMARK    5  A    between atoms: C_16  and  C_19
REMARK    6  A    between atoms: C_25  and  C_28
REMARK                            x       y       z     vdW  Elec       q    Type
REMARK                         _______ _______ _______ _____ _____    ______ ____
ROOT
ATOM      1  C   UNL     1       0.370   0.622   0.331  0.00  0.00    +0.154 C 
ENDROOT
BRANCH   1   8
ATOM      2  O   UNL     1       1.294  -1.191   1.566  0.00  0.00    -0.273 OA
ATOM      3  N   UNL     1       2.359  -0.603  -0.403  0.00  0.00    -0.272 N 
ATOM      4  C   UNL     1       3.307  -1.710  -0.417  0.00  0.00    +0.152 C 
ATOM      5  C   UNL     1       3.868  -1.721  -1.834  0.00  0.00    +0.031 C 
ATOM      6  C   UNL     1       2.491   0.218  -1.604  0.00  0.00    +0.094 C 
ATOM      7  C   UNL     1       3.775  -0.260  -2.265  0.00  0.00    +0.024 C 
ATOM      8  C   UNL     1       1.374  -0.478   0.564  0.00  0.00    +0.244 C 
BRANCH   4  11
ATOM      9  O   UNL     1       4.351  -0.362   1.258  0.00  0.00    -0.274 OA
ATOM     10  N   UNL     1       5.340  -2.362   0.697  0.00  0.00    -0.327 N 
ATOM     11  C   UNL     1       4.365  -1.398   0.598  0.00  0.00    +0.237 C 
ATOM     12  H   UNL     1       6.080  -2.250   1.336  0.00  0.00    +0.145 HD
ATOM     13  H   UNL     1       5.298  -3.165   0.128  0.00  0.00    +0.145 HD
ENDBRANCH   4  11
ENDBRANCH   1   8
BRANCH   1  15
ATOM     14  O   UNL     1      -2.029  -0.045  -1.161  0.00  0.00    -0.275 OA
ATOM     15  N   UNL     1      -0.852   0.075   0.845  0.00  0.00    -0.298 N 
ATOM     16  C   UNL     1      -1.957  -0.215   0.053  0.00  0.00    +0.223 C 
ATOM     17  H   UNL     1      -0.912  -0.104   1.811  0.00  0.00    +0.150 HD
BRANCH  16  19
ATOM     18  O   UNL     1      -5.609  -1.708  -1.501  0.00  0.00    -0.296 OA
ATOM     19  C   UNL     1      -3.093  -0.802   0.840  0.00  0.00    +0.084 C 
ATOM     20  C   UNL     1      -3.093  -2.335   0.895  0.00  0.00    +0.016 C 
ATOM     21  C   UNL     1      -4.422  -0.438   0.175  0.00  0.00    +0.074 C 
ATOM     22  C   UNL     1      -3.738  -2.778  -0.419  0.00  0.00    +0.065 C 
ATOM     23  C   UNL     1      -4.703  -1.651  -0.679  0.00  0.00    +0.151 C 
ATOM     24  C   UNL     1      -1.734  -2.975   1.135  0.00  0.00    +0.001 C 
ENDBRANCH  16  19
ENDBRANCH   1  15
BRANCH   1  25
ATOM     25  C   UNL     1       0.809   1.897   1.042  0.00  0.00    +0.071 C 
BRANCH  25  28
ATOM     26  N   UNL     1      -1.240   3.255   0.461  0.00  0.00    -0.319 N 
ATOM     27  N   UNL     1      -0.428   5.108  -0.455  0.00  0.00    -0.315 N 
ATOM     28  C   UNL     1       0.119   3.117   0.480  0.00  0.00    +0.040 C 
ATOM     29  C   UNL     1       0.599   4.273  -0.090  0.00  0.00    +0.069 C 
ATOM     30  C   UNL     1      -1.521   4.465  -0.109  0.00  0.00    +0.182 C 
ATOM     31  H   UNL     1      -1.897   2.602   0.796  0.00  0.00    +0.148 HD
ATOM     32  H   UNL     1      -0.360   5.993  -0.880  0.00  0.00    +0.148 HD
ENDBRANCH  25  28
ENDBRANCH   1  25
TORSDOF 6
