REMARK  Name = 127383
REMARK  11 active torsions:
REMARK  status: ('A' for Active; 'I' for Inactive)
REMARK    1  A    between atoms: N_2  and  C_16
REMARK    2  A    between atoms: C_3  and  C_5
REMARK    3  A    between atoms: C_5  and  C_6
REMARK    4  A    between atoms: C_6  and  CA_7
REMARK    5  A    between atoms: CA_7  and  N_8
REMARK    6  A    between atoms: CA_7  and  C_13
REMARK    7  A    between atoms: C_13  and  O_14
REMARK    8  A    between atoms: C_16  and  C_17
REMARK    9  A    between atoms: C_17  and  C_18
REMARK   10  A    between atoms: C_17  and  O_26
REMARK   11  A    between atoms: C_23  and  O_24
REMARK                            x       y       z     vdW  Elec       q    Type
REMARK                         _______ _______ _______ _____ _____    ______ ____
ROOT
ATOM      1  O   UNL     1      -1.135  -1.394  -0.651  0.00  0.00    -0.275 OA
ATOM      2  N   UNL     1      -0.489   0.785  -0.173  0.00  0.00    -0.302 N 
ATOM      3  C   UNL     1      -1.398  -0.259  -0.265  0.00  0.00    +0.222 C 
ATOM      4  H   UNL     1      -0.806   1.659   0.150  0.00  0.00    +0.150 HD
ENDROOT
BRANCH   3   5
ATOM      5  C   UNL     1      -2.789   0.173   0.169  0.00  0.00    +0.083 C 
BRANCH   5   6
ATOM      6  C   UNL     1      -3.808  -0.965   0.076  0.00  0.00    -0.001 C 
BRANCH   6   7
ATOM      7  CA  UNL     1      -5.198  -0.561   0.579  0.00  0.00    +0.036 C 
BRANCH   7   8
ATOM      8  N   UNL     1      -6.112  -1.699   0.458  0.00  0.00    +0.389 N 
ATOM      9  H1  UNL     1      -5.757  -2.481   1.008  0.00  0.00    -0.088 HD
ATOM     10  H2  UNL     1      -6.181  -1.977  -0.521  0.00  0.00    -0.088 HD
ATOM     11  H3  UNL     1      -7.035  -1.433   0.801  0.00  0.00    -0.088 HD
ENDBRANCH   7   8
BRANCH   7  13
ATOM     12  OXT UNL     1      -6.419   0.405  -1.296  0.00  0.00    -0.253 OA
ATOM     13  C   UNL     1      -5.785   0.560  -0.260  0.00  0.00    +0.293 C 
BRANCH  13  14
ATOM     14  O   UNL     1      -5.506   1.787   0.253  0.00  0.00    -0.482 OA
ATOM     15  H   UNL     1      -5.018   1.862   1.049  0.00  0.00    +0.295 HD
ENDBRANCH  13  14
ENDBRANCH   7  13
ENDBRANCH   6   7
ENDBRANCH   5   6
ENDBRANCH   3   5
BRANCH   2  16
ATOM     16  C   UNL     1       0.903   0.646  -0.533  0.00  0.00    +0.123 C 
BRANCH  16  17
ATOM     17  C   UNL     1       1.738   0.206   0.676  0.00  0.00    +0.152 C 
BRANCH  17  18
ATOM     18  C   UNL     1       3.199   0.055   0.315  0.00  0.00    +0.006 C 
ATOM     19  C   UNL     1       3.822  -1.165   0.516  0.00  0.00    +0.001 C 
ATOM     20  C   UNL     1       3.882   1.139  -0.209  0.00  0.00    +0.001 C 
ATOM     21  C   UNL     1       5.170  -1.304   0.183  0.00  0.00    +0.036 C 
ATOM     22  C   UNL     1       5.229   1.000  -0.542  0.00  0.00    +0.036 C 
ATOM     23  C   UNL     1       5.873  -0.222  -0.346  0.00  0.00    +0.134 C 
BRANCH  23  24
ATOM     24  O   UNL     1       7.188  -0.358  -0.671  0.00  0.00    -0.506 OA
ATOM     25  H   UNL     1       7.620  -1.178  -0.540  0.00  0.00    +0.292 HD
ENDBRANCH  23  24
ENDBRANCH  17  18
BRANCH  17  26
ATOM     26  O   UNL     1       1.635   1.169   1.724  0.00  0.00    -0.378 OA
ATOM     27  H   UNL     1       0.703   1.281   1.970  0.00  0.00    +0.211 HD
ENDBRANCH  17  26
ENDBRANCH  16  17
ENDBRANCH   2  16
TORSDOF 11
