REMARK  Name = 127332
REMARK  9 active torsions:
REMARK  status: ('A' for Active; 'I' for Inactive)
REMARK    1  A    between atoms: C_1  and  C_9
REMARK    2  A    between atoms: C_1  and  N_11
REMARK    3  A    between atoms: C_1  and  C_27
REMARK    4  A    between atoms: C_12  and  C_14
REMARK    5  A    between atoms: C_14  and  N_15
REMARK    6  A    between atoms: N_15  and  S_17
REMARK    7  A    between atoms: S_17  and  C_20
REMARK    8  A    between atoms: C_27  and  C_28
REMARK    9  A    between atoms: C_33  and  C_36
REMARK                            x       y       z     vdW  Elec       q    Type
REMARK                         _______ _______ _______ _____ _____    ______ ____
ROOT
ATOM      1  C   UNL     1      -2.053  -0.044   0.535  0.00  0.00    +0.153 C 
ENDROOT
BRANCH   1   9
ATOM      2  O   UNL     1      -3.523   1.281   1.839  0.00  0.00    -0.273 OA
ATOM      3  N   UNL     1      -4.293   0.636  -0.257  0.00  0.00    -0.278 N 
ATOM      4  C   UNL     1      -5.579   1.318  -0.101  0.00  0.00    +0.093 C 
ATOM      5  C   UNL     1      -4.100  -0.025  -1.553  0.00  0.00    +0.093 C 
ATOM      6  C   UNL     1      -6.739   0.359  -0.352  0.00  0.00    +0.022 C 
ATOM      7  C   UNL     1      -5.233  -1.010  -1.833  0.00  0.00    +0.022 C 
ATOM      8  C   UNL     1      -6.598  -0.337  -1.704  0.00  0.00    +0.004 C 
ATOM      9  C   UNL     1      -3.351   0.686   0.771  0.00  0.00    +0.244 C 
ENDBRANCH   1   9
BRANCH   1  11
ATOM     10  O   UNL     1      -0.709   2.285  -0.542  0.00  0.00    -0.274 OA
ATOM     11  N   UNL     1      -1.080   0.781   1.192  0.00  0.00    -0.297 N 
ATOM     12  C   UNL     1      -0.480   1.889   0.598  0.00  0.00    +0.241 C 
ATOM     13  H   UNL     1      -0.822   0.551   2.114  0.00  0.00    +0.150 HD
BRANCH  12  14
ATOM     14  C   UNL     1       0.499   2.560   1.527  0.00  0.00    +0.176 C 
BRANCH  14  15
ATOM     15  N   UNL     1       1.101   3.721   0.855  0.00  0.00    -0.170 NA
ATOM     16  H   UNL     1       0.669   3.783  -0.067  0.00  0.00    +0.149 HD
BRANCH  15  17
ATOM     17  S   UNL     1       2.786   3.793   0.614  0.00  0.00    +0.061 S 
ATOM     18  O   UNL     1       3.459   3.602   1.884  0.00  0.00    -0.153 OA
ATOM     19  O   UNL     1       3.100   4.943  -0.212  0.00  0.00    -0.153 OA
BRANCH  17  20
ATOM     20  C   UNL     1       3.070   2.356  -0.375  0.00  0.00    +0.122 C 
ATOM     21  C   UNL     1       3.007   2.460  -1.754  0.00  0.00    +0.020 C 
ATOM     22  C   UNL     1       3.349   1.152   0.248  0.00  0.00    +0.020 C 
ATOM     23  C   UNL     1       3.514   0.104  -1.923  0.00  0.00    -0.022 C 
ATOM     24  C   UNL     1       3.231   1.326  -2.534  0.00  0.00    -0.003 C 
ATOM     25  C   UNL     1       3.574   0.017  -0.532  0.00  0.00    -0.003 C 
ATOM     26  C   UNL     1       3.755  -1.108  -2.757  0.00  0.00    +0.031 C 
ENDBRANCH  17  20
ENDBRANCH  15  17
ENDBRANCH  14  15
ENDBRANCH  12  14
ENDBRANCH   1  11
BRANCH   1  27
ATOM     27  C   UNL     1      -2.132  -1.454   1.105  0.00  0.00    +0.055 C 
BRANCH  27  28
ATOM     28  C   UNL     1      -0.845  -2.218   0.910  0.00  0.00    -0.020 C 
ATOM     29  C   UNL     1       0.137  -2.155   1.886  0.00  0.00    -0.004 C 
ATOM     30  C   UNL     1      -0.668  -2.969  -0.241  0.00  0.00    -0.004 C 
ATOM     31  C   UNL     1       1.327  -2.861   1.705  0.00  0.00    +0.002 C 
ATOM     32  C   UNL     1       0.521  -3.674  -0.422  0.00  0.00    +0.002 C 
ATOM     33  C   UNL     1       1.519  -3.621   0.551  0.00  0.00    +0.031 C 
BRANCH  33  36
ATOM     34  N   UNL     1       2.979  -5.127  -0.777  0.00  0.00    -0.343 N 
ATOM     35  N   UNL     1       3.700  -4.308   1.290  0.00  0.00    -0.285 NA
ATOM     36  C   UNL     1       2.758  -4.358   0.364  0.00  0.00    +0.117 C 
ATOM     37  H   UNL     1       3.826  -5.618  -0.883  0.00  0.00    +0.144 HD
ATOM     38  H   UNL     1       2.289  -5.179  -1.477  0.00  0.00    +0.144 HD
ATOM     39  H   UNL     1       4.539  -4.806   1.165  0.00  0.00    +0.188 HD
ENDBRANCH  33  36
ENDBRANCH  27  28
ENDBRANCH   1  27
TORSDOF 9
