127324
  -OEChem-03292013323D

 43 44  0     0  0  0  0  0  0999 V2000
    5.9622   -1.8652   -0.2594 O   0  0  0  0  0  0  0  0  0  0  0  0
   -2.5441    3.6011   -0.7578 O   0  0  0  0  0  0  0  0  0  0  0  0
   -4.0723   -3.1094   -0.1603 O   0  0  0  0  0  0  0  0  0  0  0  0
    6.4995    2.4367    0.6909 O   0  0  0  0  0  0  0  0  0  0  0  0
    5.0391    1.1263    1.8330 O   0  0  0  0  0  0  0  0  0  0  0  0
   -4.5627    3.3092    0.3096 O   0  0  0  0  0  0  0  0  0  0  0  0
   -5.7262   -1.8041    0.7669 O   0  0  0  0  0  0  0  0  0  0  0  0
    0.5623   -0.6557   -0.6896 N   0  0  0  0  0  0  0  0  0  0  0  0
    0.0779   -0.4442    0.4469 N   0  0  0  0  0  0  0  0  0  0  0  0
    4.2282   -0.2319   -0.5245 C   0  0  0  0  0  0  0  0  0  0  0  0
    5.2273    0.8761   -0.5820 C   0  0  0  0  0  0  0  0  0  0  0  0
    2.8701    0.0679   -0.6321 C   0  0  0  0  0  0  0  0  0  0  0  0
    4.6399   -1.5551   -0.3656 C   0  0  0  0  0  0  0  0  0  0  0  0
    1.9306   -0.9570   -0.5801 C   0  0  0  0  0  0  0  0  0  0  0  0
   -1.2840   -0.1440    0.3373 C   0  0  0  0  0  0  0  0  0  0  0  0
   -3.0540    1.4786    0.0698 C   0  0  0  0  0  0  0  0  0  0  0  0
   -3.5881   -0.8683    0.2795 C   0  0  0  0  0  0  0  0  0  0  0  0
    3.6936   -2.5784   -0.3142 C   0  0  0  0  0  0  0  0  0  0  0  0
    2.3356   -2.2787   -0.4218 C   0  0  0  0  0  0  0  0  0  0  0  0
   -2.2301   -1.1677    0.3880 C   0  0  0  0  0  0  0  0  0  0  0  0
   -1.6959    1.1791    0.1783 C   0  0  0  0  0  0  0  0  0  0  0  0
   -4.0001    0.4548    0.1204 C   0  0  0  0  0  0  0  0  0  0  0  0
    5.5527    1.4653    0.7757 C   0  0  0  0  0  0  0  0  0  0  0  0
   -3.4833    2.8580   -0.0962 C   0  0  0  0  0  0  0  0  0  0  0  0
   -4.5744   -1.9358    0.3323 C   0  0  0  0  0  0  0  0  0  0  0  0
   -2.8516    4.9812   -0.9822 C   0  0  0  0  0  0  0  0  0  0  0  0
   -4.9520   -4.2389   -0.1629 C   0  0  0  0  0  0  0  0  0  0  0  0
    4.8455    1.6856   -1.2166 H   0  0  0  0  0  0  0  0  0  0  0  0
    6.1597    0.5284   -1.0420 H   0  0  0  0  0  0  0  0  0  0  0  0
    2.5433    1.0979   -0.7548 H   0  0  0  0  0  0  0  0  0  0  0  0
    4.0001   -3.6138   -0.1909 H   0  0  0  0  0  0  0  0  0  0  0  0
   -1.8896   -2.1915    0.5259 H   0  0  0  0  0  0  0  0  0  0  0  0
   -0.9435    1.9644    0.1546 H   0  0  0  0  0  0  0  0  0  0  0  0
    1.6049   -3.0821   -0.3817 H   0  0  0  0  0  0  0  0  0  0  0  0
   -5.0588    0.6877    0.0297 H   0  0  0  0  0  0  0  0  0  0  0  0
    6.0552   -2.8277   -0.1552 H   0  0  0  0  0  0  0  0  0  0  0  0
    6.7101    2.8191    1.5694 H   0  0  0  0  0  0  0  0  0  0  0  0
   -2.0124    5.4345   -1.5163 H   0  0  0  0  0  0  0  0  0  0  0  0
   -2.9825    5.4983   -0.0270 H   0  0  0  0  0  0  0  0  0  0  0  0
   -3.7517    5.0716   -1.5974 H   0  0  0  0  0  0  0  0  0  0  0  0
   -5.2557   -4.4822    0.8595 H   0  0  0  0  0  0  0  0  0  0  0  0
   -4.4107   -5.0911   -0.5821 H   0  0  0  0  0  0  0  0  0  0  0  0
   -5.8264   -4.0342   -0.7877 H   0  0  0  0  0  0  0  0  0  0  0  0
  1 13  1  0  0  0  0
  1 36  1  0  0  0  0
  2 24  1  0  0  0  0
  2 26  1  0  0  0  0
  3 25  1  0  0  0  0
  3 27  1  0  0  0  0
  4 23  1  0  0  0  0
  4 37  1  0  0  0  0
  5 23  2  0  0  0  0
  6 24  2  0  0  0  0
  7 25  2  0  0  0  0
  8  9  2  0  0  0  0
  8 14  1  0  0  0  0
  9 15  1  0  0  0  0
 10 11  1  0  0  0  0
 10 12  1  0  0  0  0
 10 13  2  0  0  0  0
 11 23  1  0  0  0  0
 11 28  1  0  0  0  0
 11 29  1  0  0  0  0
 12 14  2  0  0  0  0
 12 30  1  0  0  0  0
 13 18  1  0  0  0  0
 14 19  1  0  0  0  0
 15 20  2  0  0  0  0
 15 21  1  0  0  0  0
 16 21  2  0  0  0  0
 16 22  1  0  0  0  0
 16 24  1  0  0  0  0
 17 20  1  0  0  0  0
 17 22  2  0  0  0  0
 17 25  1  0  0  0  0
 18 19  2  0  0  0  0
 18 31  1  0  0  0  0
 19 34  1  0  0  0  0
 20 32  1  0  0  0  0
 21 33  1  0  0  0  0
 22 35  1  0  0  0  0
 26 38  1  0  0  0  0
 26 39  1  0  0  0  0
 26 40  1  0  0  0  0
 27 41  1  0  0  0  0
 27 42  1  0  0  0  0
 27 43  1  0  0  0  0
M  END
> <PUBCHEM_COMPOUND_CID>
127324

> <PUBCHEM_CONFORMER_RMSD>
1

> <PUBCHEM_CONFORMER_DIVERSEORDER>
1
18
20
10
2
6
16
12
5
14
17
11
7
13
9
19
4
8
15
3

> <PUBCHEM_MMFF94_PARTIAL_CHARGES>
35
1 -0.53
10 -0.14
11 0.2
12 -0.15
13 0.08
14 0.18
15 0.18
16 0.09
17 0.09
18 -0.15
19 -0.15
2 -0.43
20 -0.15
21 -0.15
22 -0.15
23 0.66
24 0.63
25 0.63
26 0.28
27 0.28
3 -0.43
30 0.15
31 0.15
32 0.15
33 0.15
34 0.15
35 0.15
36 0.45
37 0.5
4 -0.65
5 -0.57
6 -0.57
7 -0.57
8 -0.18
9 -0.18

> <PUBCHEM_EFFECTIVE_ROTOR_COUNT>
8

> <PUBCHEM_PHARMACOPHORE_FEATURES>
8
1 1 donor
1 4 acceptor
1 5 acceptor
1 6 acceptor
1 7 acceptor
3 4 5 23 anion
6 10 12 13 14 18 19 rings
6 15 16 17 20 21 22 rings

> <PUBCHEM_HEAVY_ATOM_COUNT>
27

> <PUBCHEM_ATOM_DEF_STEREO_COUNT>
0

> <PUBCHEM_ATOM_UDEF_STEREO_COUNT>
0

> <PUBCHEM_BOND_DEF_STEREO_COUNT>
0

> <PUBCHEM_BOND_UDEF_STEREO_COUNT>
0

> <PUBCHEM_ISOTOPIC_ATOM_COUNT>
0

> <PUBCHEM_COMPONENT_COUNT>
1

> <PUBCHEM_CACTVS_TAUTO_COUNT>
4

> <PUBCHEM_CONFORMER_ID>
0001F15C00000001

> <PUBCHEM_MMFF94_ENERGY>
75.5747

> <PUBCHEM_FEATURE_SELFOVERLAP>
40.655

> <PUBCHEM_SHAPE_FINGERPRINT>
10319688 140 17185599560429276183
10319926 262 18338224965468085346
10411042 1 18337116791213299099
10595046 47 18335425681514396302
11405975 8 18191587458651890194
11488393 25 17180541793860789987
12107183 9 17612024880904310650
12403259 415 18343308046214143812
12788726 201 18260827077866749803
13583140 156 18130782309346069062
13911987 19 17060617797834802884
14068700 686 18413390959954671574
14508225 48 18411129273970004221
14790565 3 17692539914399808769
15463212 79 18042123168319130083
16087824 20 18336549314907608137
16992779 147 16614216867828855473
17844677 252 18411709759568090846
18608769 82 18127973216609995442
20691028 202 18124598574516877257
21033648 144 18340764823921411796
21065198 57 18265337201027008118
21315763 129 18409448068808557354
2132832 1 17895762914585277901
22393880 68 18340215081277138838
23559900 14 18055072047845454702
255183 313 18197520449993218969
34797466 226 17775013379407260110
4073 2 18114756957969118738
4214541 1 18337678498876296743
497634 4 17846233154195992795
5104073 3 18338238167754350826
5283173 99 18337673001513460168
550186 72 18339643450915191917
5969126 39 18342450483221887351
6700243 42 17840909314509540837

> <PUBCHEM_SHAPE_MULTIPOLES>
504.6
15.71
5.2
0.91
13.69
3.3
0.15
-1.22
2.22
-8.54
-1.13
0.7
0.36
2.08

> <PUBCHEM_SHAPE_SELFOVERLAP>
1079.38

> <PUBCHEM_SHAPE_VOLUME>
280.6

> <PUBCHEM_COORDINATE_TYPE>
2
5
10

$$$$
