REMARK  Name = 127324
REMARK  11 active torsions:
REMARK  status: ('A' for Active; 'I' for Inactive)
REMARK    1  A    between atoms: N_1  and  N_2
REMARK    2  A    between atoms: N_1  and  C_6
REMARK    3  A    between atoms: N_2  and  C_16
REMARK    4  A    between atoms: C_3  and  C_11
REMARK    5  A    between atoms: C_5  and  O_9
REMARK    6  A    between atoms: C_11  and  C_13
REMARK    7  A    between atoms: C_13  and  O_14
REMARK    8  A    between atoms: C_17  and  C_23
REMARK    9  A    between atoms: C_18  and  C_27
REMARK   10  A    between atoms: C_23  and  O_24
REMARK   11  A    between atoms: C_27  and  O_28
REMARK                            x       y       z     vdW  Elec       q    Type
REMARK                         _______ _______ _______ _____ _____    ______ ____
ROOT
ATOM      1  N   UNL     1       0.078  -0.444   0.447  0.00  0.00    -0.128 NA
ENDROOT
BRANCH   1   2
ATOM      2  C   UNL     1      -1.284  -0.144   0.337  0.00  0.00    +0.090 C 
ATOM      3  C   UNL     1      -3.054   1.479   0.070  0.00  0.00    +0.077 C 
ATOM      4  C   UNL     1      -3.588  -0.868   0.280  0.00  0.00    +0.077 C 
ATOM      5  C   UNL     1      -2.230  -1.168   0.388  0.00  0.00    +0.024 C 
ATOM      6  C   UNL     1      -1.696   1.179   0.178  0.00  0.00    +0.024 C 
ATOM      7  C   UNL     1      -4.000   0.455   0.120  0.00  0.00    +0.013 C 
BRANCH   3   9
ATOM      8  O   UNL     1      -4.563   3.309   0.310  0.00  0.00    -0.245 OA
ATOM      9  C   UNL     1      -3.483   2.858  -0.096  0.00  0.00    +0.341 C 
BRANCH   9  10
ATOM     10  O   UNL     1      -2.544   3.601  -0.758  0.00  0.00    -0.441 OA
ATOM     11  C   UNL     1      -2.852   4.981  -0.982  0.00  0.00    +0.256 C 
ENDBRANCH   9  10
ENDBRANCH   3   9
BRANCH   4  13
ATOM     12  O   UNL     1      -5.726  -1.804   0.767  0.00  0.00    -0.245 OA
ATOM     13  C   UNL     1      -4.574  -1.936   0.332  0.00  0.00    +0.341 C 
BRANCH  13  14
ATOM     14  O   UNL     1      -4.072  -3.109  -0.160  0.00  0.00    -0.441 OA
ATOM     15  C   UNL     1      -4.952  -4.239  -0.163  0.00  0.00    +0.256 C 
ENDBRANCH  13  14
ENDBRANCH   4  13
ENDBRANCH   1   2
BRANCH   1  16
ATOM     16  N   UNL     1       0.562  -0.656  -0.690  0.00  0.00    -0.128 NA
BRANCH  16  20
ATOM     17  C   UNL     1       4.228  -0.232  -0.524  0.00  0.00    +0.024 C 
ATOM     18  C   UNL     1       2.870   0.068  -0.632  0.00  0.00    +0.017 C 
ATOM     19  C   UNL     1       4.640  -1.555  -0.366  0.00  0.00    +0.130 C 
ATOM     20  C   UNL     1       1.931  -0.957  -0.580  0.00  0.00    +0.089 C 
ATOM     21  C   UNL     1       3.694  -2.578  -0.314  0.00  0.00    +0.038 C 
ATOM     22  C   UNL     1       2.336  -2.279  -0.422  0.00  0.00    +0.021 C 
BRANCH  19  23
ATOM     23  O   UNL     1       5.962  -1.865  -0.259  0.00  0.00    -0.506 OA
ATOM     24  H   UNL     1       6.607  -1.186  -0.293  0.00  0.00    +0.292 HD
ENDBRANCH  19  23
BRANCH  17  25
ATOM     25  C   UNL     1       5.227   0.876  -0.582  0.00  0.00    +0.139 C 
BRANCH  25  27
ATOM     26  O   UNL     1       5.039   1.126   1.833  0.00  0.00    -0.250 OA
ATOM     27  C   UNL     1       5.553   1.465   0.776  0.00  0.00    +0.318 C 
BRANCH  27  28
ATOM     28  O   UNL     1       6.500   2.437   0.691  0.00  0.00    -0.480 OA
ATOM     29  H   UNL     1       6.865   2.663  -0.142  0.00  0.00    +0.295 HD
ENDBRANCH  27  28
ENDBRANCH  25  27
ENDBRANCH  17  25
ENDBRANCH  16  20
ENDBRANCH   1  16
TORSDOF 11
