REMARK  Name = 127336
REMARK  8 active torsions:
REMARK  status: ('A' for Active; 'I' for Inactive)
REMARK    1  A    between atoms: C_1  and  O_2
REMARK    2  A    between atoms: C_1  and  C_4
REMARK    3  A    between atoms: C_1  and  C_13
REMARK    4  A    between atoms: C_4  and  N_7
REMARK    5  A    between atoms: C_13  and  N_14
REMARK    6  A    between atoms: N_14  and  C_17
REMARK    7  A    between atoms: C_17  and  C_18
REMARK    8  A    between atoms: C_18  and  O_19
REMARK                            x       y       z     vdW  Elec       q    Type
REMARK                         _______ _______ _______ _____ _____    ______ ____
ROOT
ATOM      1  C   UNL     1       0.373   1.223   0.608  0.00  0.00    +0.110 C 
ENDROOT
BRANCH   1   2
ATOM      2  O   UNL     1      -0.184   2.501   0.922  0.00  0.00    -0.385 OA
ATOM      3  H   UNL     1      -1.143   2.415   1.040  0.00  0.00    +0.210 HD
ENDBRANCH   1   2
BRANCH   1   4
ATOM      4  C   UNL     1      -0.311   0.700  -0.661  0.00  0.00    +0.125 C 
BRANCH   4   7
ATOM      5  O   UNL     1      -2.369  -2.878   0.130  0.00  0.00    -0.123 OA
ATOM      6  O   UNL     1      -0.592  -1.754   0.776  0.00  0.00    -0.123 OA
ATOM      7  N   UNL     1      -1.755   0.536  -0.487  0.00  0.00    -0.249 N 
ATOM      8  N   UNL     1      -3.692  -0.403  -0.018  0.00  0.00    -0.207 NA
ATOM      9  N   UNL     1      -1.761  -1.782   0.295  0.00  0.00    +0.091 N 
ATOM     10  C   UNL     1      -2.390  -0.583  -0.059  0.00  0.00    +0.284 C 
ATOM     11  C   UNL     1      -2.680   1.493  -0.739  0.00  0.00    +0.089 C 
ATOM     12  C   UNL     1      -3.879   0.889  -0.441  0.00  0.00    +0.118 C 
ENDBRANCH   4   7
ENDBRANCH   1   4
BRANCH   1  13
ATOM     13  C   UNL     1       1.885   1.399   0.430  0.00  0.00    -0.050 C 
BRANCH  13  14
ATOM     14  N   UNL     1       2.552   0.140   0.126  0.00  0.00    +0.387 N 
ATOM     15  H   UNL     1       2.183  -0.225  -0.752  0.00  0.00    -0.084 HD
ATOM     16  H   UNL     1       2.375  -0.504   0.897  0.00  0.00    -0.084 HD
BRANCH  14  17
ATOM     17  C   UNL     1       4.015   0.305  -0.004  0.00  0.00    -0.049 C 
BRANCH  17  18
ATOM     18  C   UNL     1       4.694  -1.002  -0.366  0.00  0.00    +0.114 C 
BRANCH  18  19
ATOM     19  O   UNL     1       6.091  -0.784  -0.514  0.00  0.00    -0.384 OA
ATOM     20  H   UNL     1       6.527  -1.619  -0.746  0.00  0.00    +0.210 HD
ENDBRANCH  18  19
ENDBRANCH  17  18
ENDBRANCH  14  17
ENDBRANCH  13  14
ENDBRANCH   1  13
TORSDOF 8
