REMARK  Name = 127396
REMARK  11 active torsions:
REMARK  status: ('A' for Active; 'I' for Inactive)
REMARK    1  A    between atoms: C_1  and  O_2
REMARK    2  A    between atoms: C_1  and  C_19
REMARK    3  A    between atoms: O_2  and  C_3
REMARK    4  A    between atoms: C_6  and  N_10
REMARK    5  A    between atoms: C_11  and  C_17
REMARK    6  A    between atoms: C_19  and  C_20
REMARK    7  A    between atoms: C_20  and  O_21
REMARK    8  A    between atoms: O_21  and  C_23
REMARK    9  A    between atoms: C_22  and  C_31
REMARK   10  A    between atoms: C_24  and  O_34
REMARK   11  A    between atoms: C_25  and  C_29
REMARK                            x       y       z     vdW  Elec       q    Type
REMARK                         _______ _______ _______ _____ _____    ______ ____
ROOT
ATOM      1  C   UNL     1      -1.635  -3.851   0.114  0.00  0.00    +0.209 C 
ENDROOT
BRANCH   1   2
ATOM      2  O   UNL     1      -1.085  -3.345  -1.094  0.00  0.00    -0.475 OA
BRANCH   2   3
ATOM      3  C   UNL     1       0.042  -2.572  -0.986  0.00  0.00    +0.139 C 
ATOM      4  C   UNL     1       0.940  -2.792   0.059  0.00  0.00    +0.038 C 
ATOM      5  C   UNL     1       0.291  -1.566  -1.919  0.00  0.00    +0.038 C 
ATOM      6  C   UNL     1       2.336  -1.000  -0.764  0.00  0.00    +0.051 C 
ATOM      7  C   UNL     1       2.087  -2.006   0.170  0.00  0.00    +0.018 C 
ATOM      8  C   UNL     1       1.438  -0.780  -1.808  0.00  0.00    +0.018 C 
BRANCH   6  10
ATOM      9  O   UNL     1       4.520  -1.079   1.256  0.00  0.00    -0.258 OA
ATOM     10  N   UNL     1       3.483  -0.214  -0.652  0.00  0.00    -0.272 N 
ATOM     11  C   UNL     1       4.495  -0.283   0.321  0.00  0.00    +0.316 C 
ATOM     12  H   UNL     1       3.598   0.478  -1.344  0.00  0.00    +0.156 HD
BRANCH  11  17
ATOM     13  N   UNL     1       6.642   0.732   0.971  0.00  0.00    -0.105 NA
ATOM     14  N   UNL     1       5.665   1.559  -0.897  0.00  0.00    -0.082 NA
ATOM     15  N   UNL     1       7.336   1.716   0.381  0.00  0.00    -0.140 N 
ATOM     16  N   UNL     1       6.795   2.236  -0.729  0.00  0.00    -0.022 NA
ATOM     17  C   UNL     1       5.603   0.669   0.134  0.00  0.00    +0.128 C 
ATOM     18  H   UNL     1       8.193   2.038   0.743  0.00  0.00    +0.197 HD
ENDBRANCH  11  17
ENDBRANCH   6  10
ENDBRANCH   2   3
ENDBRANCH   1   2
BRANCH   1  19
ATOM     19  C   UNL     1      -3.135  -4.020  -0.061  0.00  0.00    +0.095 C 
BRANCH  19  20
ATOM     20  C   UNL     1      -3.820  -2.707  -0.406  0.00  0.00    +0.209 C 
BRANCH  20  21
ATOM     21  O   UNL     1      -3.619  -1.768   0.643  0.00  0.00    -0.476 OA
BRANCH  21  23
ATOM     22  C   UNL     1      -2.794   0.459   1.021  0.00  0.00    +0.045 C 
ATOM     23  C   UNL     1      -3.560  -0.446   0.286  0.00  0.00    +0.137 C 
ATOM     24  C   UNL     1      -2.746   1.801   0.642  0.00  0.00    +0.135 C 
ATOM     25  C   UNL     1      -3.465   2.237  -0.471  0.00  0.00    +0.068 C 
ATOM     26  C   UNL     1      -4.279  -0.010  -0.827  0.00  0.00    +0.037 C 
ATOM     27  C   UNL     1      -4.231   1.332  -1.206  0.00  0.00    +0.009 C 
BRANCH  25  29
ATOM     28  O   UNL     1      -3.267   4.551  -0.061  0.00  0.00    -0.291 OA
ATOM     29  C   UNL     1      -3.429   3.632  -0.887  0.00  0.00    +0.176 C 
ATOM     30  C   UNL     1      -3.592   3.999  -2.357  0.00  0.00    +0.077 C 
ENDBRANCH  25  29
BRANCH  22  31
ATOM     31  C   UNL     1      -2.024  -0.011   2.213  0.00  0.00    +0.028 C 
ATOM     32  C   UNL     1      -2.492   0.663   3.515  0.00  0.00    +0.005 C 
ATOM     33  C   UNL     1      -0.506   0.178   2.040  0.00  0.00    +0.005 C 
ENDBRANCH  22  31
BRANCH  24  34
ATOM     34  O   UNL     1      -1.995   2.685   1.360  0.00  0.00    -0.506 OA
ATOM     35  H   UNL     1      -1.513   2.391   2.107  0.00  0.00    +0.292 HD
ENDBRANCH  24  34
ENDBRANCH  21  23
ENDBRANCH  20  21
ENDBRANCH  19  20
ENDBRANCH   1  19
TORSDOF 11
