REMARK  Name = 127360
REMARK  11 active torsions:
REMARK  status: ('A' for Active; 'I' for Inactive)
REMARK    1  A    between atoms: N_1  and  C_4
REMARK    2  A    between atoms: N_1  and  C_20
REMARK    3  A    between atoms: C_4  and  C_7
REMARK    4  A    between atoms: C_7  and  C_9
REMARK    5  A    between atoms: C_15  and  O_18
REMARK    6  A    between atoms: C_20  and  C_21
REMARK    7  A    between atoms: C_21  and  O_22
REMARK    8  A    between atoms: C_21  and  C_24
REMARK    9  A    between atoms: C_24  and  O_25
REMARK   10  A    between atoms: O_25  and  C_26
REMARK   11  A    between atoms: C_27  and  C_33
REMARK                            x       y       z     vdW  Elec       q    Type
REMARK                         _______ _______ _______ _____ _____    ______ ____
ROOT
ATOM      1  N   UNL     1      -0.518  -2.199  -0.569  0.00  0.00    +0.388 N 
ATOM      2  H   UNL     1       0.005  -2.619  -1.337  0.00  0.00    -0.084 HD
ATOM      3  H   UNL     1      -0.225  -1.232  -0.434  0.00  0.00    -0.084 HD
ENDROOT
BRANCH   1   4
ATOM      4  C   UNL     1      -0.256  -2.957   0.668  0.00  0.00    -0.042 C 
ATOM      5  C   UNL     1      -1.114  -2.326   1.774  0.00  0.00    -0.021 C 
ATOM      6  C   UNL     1      -0.710  -4.401   0.418  0.00  0.00    -0.021 C 
BRANCH   4   7
ATOM      7  C   UNL     1       1.272  -2.872   0.995  0.00  0.00    +0.008 C 
BRANCH   7   9
ATOM      8  N   UNL     1       2.477   0.316   2.305  0.00  0.00    -0.312 N 
ATOM      9  C   UNL     1       1.826  -1.528   1.255  0.00  0.00    -0.008 C 
ATOM     10  C   UNL     1       2.377  -0.638   0.291  0.00  0.00    +0.014 C 
ATOM     11  C   UNL     1       1.902  -0.914   2.484  0.00  0.00    +0.058 C 
ATOM     12  C   UNL     1       2.777   0.511   0.976  0.00  0.00    +0.048 C 
ATOM     13  C   UNL     1       2.574  -0.700  -1.103  0.00  0.00    +0.038 C 
ATOM     14  C   UNL     1       3.367   1.606   0.335  0.00  0.00    +0.018 C 
ATOM     15  C   UNL     1       3.162   0.388  -1.758  0.00  0.00    +0.134 C 
ATOM     16  C   UNL     1       3.552   1.522  -1.049  0.00  0.00    +0.038 C 
ATOM     17  H   UNL     1       2.650   0.966   3.024  0.00  0.00    +0.152 HD
BRANCH  15  18
ATOM     18  O   UNL     1       3.355   0.336  -3.107  0.00  0.00    -0.506 OA
ATOM     19  H   UNL     1       3.094  -0.425  -3.588  0.00  0.00    +0.292 HD
ENDBRANCH  15  18
ENDBRANCH   7   9
ENDBRANCH   4   7
ENDBRANCH   1   4
BRANCH   1  20
ATOM     20  C   UNL     1      -1.934  -2.224  -0.884  0.00  0.00    -0.048 C 
BRANCH  20  21
ATOM     21  C   UNL     1      -2.250  -1.460  -2.172  0.00  0.00    +0.133 C 
BRANCH  21  22
ATOM     22  O   UNL     1      -3.664  -1.505  -2.382  0.00  0.00    -0.383 OA
ATOM     23  H   UNL     1      -3.958  -2.429  -2.410  0.00  0.00    +0.210 HD
ENDBRANCH  21  22
BRANCH  21  24
ATOM     24  C   UNL     1      -1.810   0.002  -2.132  0.00  0.00    +0.232 C 
BRANCH  24  25
ATOM     25  O   UNL     1      -2.507   0.663  -1.081  0.00  0.00    -0.472 OA
BRANCH  25  26
ATOM     26  C   UNL     1      -1.855   1.697  -0.464  0.00  0.00    +0.148 C 
ATOM     27  C   UNL     1      -2.093   2.001   0.873  0.00  0.00    +0.102 C 
ATOM     28  C   UNL     1      -0.942   2.443  -1.204  0.00  0.00    +0.038 C 
ATOM     29  C   UNL     1      -1.413   3.059   1.475  0.00  0.00    +0.013 C 
ATOM     30  C   UNL     1      -0.262   3.502  -0.602  0.00  0.00    +0.003 C 
ATOM     31  C   UNL     1      -0.498   3.810   0.738  0.00  0.00    +0.001 C 
BRANCH  27  33
ATOM     32  N   UNL     1      -3.786   0.628   2.273  0.00  0.00    -0.191 NA
ATOM     33  C   UNL     1      -3.029   1.243   1.646  0.00  0.00    +0.103 C 
ENDBRANCH  27  33
ENDBRANCH  25  26
ENDBRANCH  24  25
ENDBRANCH  21  24
ENDBRANCH  20  21
ENDBRANCH   1  20
TORSDOF 11
