127370
  -OEChem-03292013323D

 32 31  0     1  0  0  0  0  0999 V2000
   -2.4369   -3.0417    0.5121 O   0  0  0  0  0  0  0  0  0  0  0  0
   -1.3465   -2.5690   -1.4211 O   0  0  0  0  0  0  0  0  0  0  0  0
    0.9052   -1.0824    1.5036 O   0  0  0  0  0  0  0  0  0  0  0  0
    5.5743    0.5709    0.4669 O   0  0  0  0  0  0  0  0  0  0  0  0
    4.3224    1.3566   -1.2576 O   0  0  0  0  0  0  0  0  0  0  0  0
   -0.4153   -0.2619   -0.2245 N   0  0  0  0  0  0  0  0  0  0  0  0
   -3.9096    3.6655    0.2608 N   0  0  0  0  0  0  0  0  0  0  0  0
   -2.8635    0.0375   -0.2449 C   0  0  0  0  0  0  0  0  0  0  0  0
   -1.6742   -0.8012    0.2232 C   0  0  1  0  0  0  0  0  0  0  0  0
   -2.7970    1.4813    0.2641 C   0  0  0  0  0  0  0  0  0  0  0  0
   -3.9793    2.3017   -0.2503 C   0  0  0  0  0  0  0  0  0  0  0  0
   -1.7702   -2.2094   -0.3302 C   0  0  0  0  0  0  0  0  0  0  0  0
    0.7800   -0.4490    0.4590 C   0  0  0  0  0  0  0  0  0  0  0  0
    1.9405    0.2333   -0.2428 C   0  0  0  0  0  0  0  0  0  0  0  0
    3.2624    0.0391    0.4929 C   0  0  0  0  0  0  0  0  0  0  0  0
    4.4075    0.7287   -0.2113 C   0  0  0  0  0  0  0  0  0  0  0  0
   -2.9029    0.0438   -1.3424 H   0  0  0  0  0  0  0  0  0  0  0  0
   -3.7965   -0.4297    0.0951 H   0  0  0  0  0  0  0  0  0  0  0  0
   -1.6501   -0.8580    1.3181 H   0  0  0  0  0  0  0  0  0  0  0  0
   -2.7919    1.4771    1.3614 H   0  0  0  0  0  0  0  0  0  0  0  0
   -1.8622    1.9537   -0.0613 H   0  0  0  0  0  0  0  0  0  0  0  0
   -0.3950    0.2211   -1.1185 H   0  0  0  0  0  0  0  0  0  0  0  0
   -3.9783    2.3288   -1.3452 H   0  0  0  0  0  0  0  0  0  0  0  0
   -4.9249    1.8494    0.0670 H   0  0  0  0  0  0  0  0  0  0  0  0
    2.0136   -0.1704   -1.2602 H   0  0  0  0  0  0  0  0  0  0  0  0
    1.7105    1.3025   -0.3285 H   0  0  0  0  0  0  0  0  0  0  0  0
    3.4972   -1.0290    0.5636 H   0  0  0  0  0  0  0  0  0  0  0  0
    3.1876    0.4487    1.5067 H   0  0  0  0  0  0  0  0  0  0  0  0
   -3.0274    4.0920   -0.0205 H   0  0  0  0  0  0  0  0  0  0  0  0
   -3.8994    3.6492    1.2801 H   0  0  0  0  0  0  0  0  0  0  0  0
   -2.5180   -3.9469    0.1429 H   0  0  0  0  0  0  0  0  0  0  0  0
    6.3224    1.0170    0.0156 H   0  0  0  0  0  0  0  0  0  0  0  0
  1 12  1  0  0  0  0
  1 31  1  0  0  0  0
  2 12  2  0  0  0  0
  3 13  2  0  0  0  0
  4 16  1  0  0  0  0
  4 32  1  0  0  0  0
  5 16  2  0  0  0  0
  6  9  1  0  0  0  0
  6 13  1  0  0  0  0
  6 22  1  0  0  0  0
  7 11  1  0  0  0  0
  7 29  1  0  0  0  0
  7 30  1  0  0  0  0
  8  9  1  0  0  0  0
  8 10  1  0  0  0  0
  8 17  1  0  0  0  0
  8 18  1  0  0  0  0
  9 12  1  0  0  0  0
  9 19  1  0  0  0  0
 10 11  1  0  0  0  0
 10 20  1  0  0  0  0
 10 21  1  0  0  0  0
 11 23  1  0  0  0  0
 11 24  1  0  0  0  0
 13 14  1  0  0  0  0
 14 15  1  0  0  0  0
 14 25  1  0  0  0  0
 14 26  1  0  0  0  0
 15 16  1  0  0  0  0
 15 27  1  0  0  0  0
 15 28  1  0  0  0  0
M  END
> <PUBCHEM_COMPOUND_CID>
127370

> <PUBCHEM_CONFORMER_RMSD>
0.8

> <PUBCHEM_CONFORMER_DIVERSEORDER>
1
21
74
47
69
121
24
136
128
101
16
41
31
92
87
119
62
3
7
118
84
63
85
107
30
89
43
111
20
57
122
4
137
34
67
127
126
68
144
56
78
100
76
25
26
86
32
44
116
37
61
120
123
39
14
129
64
114
97
66
117
8
112
131
81
73
110
72
11
71
10
98
140
51
99
18
35
139
12
130
15
135
28
13
90
27
17
113
80
83
77
103
142
132
82
106
141
88
125
95
70
133
91
29
96
53
65
60
59
79
93
9
102
109
42
23
5
134
138
48
22
124
75
49
54
40
143
19
52
58
2
33
45
115
104
38
50
6
105
46
55
36
108
94

> <PUBCHEM_MMFF94_PARTIAL_CHARGES>
19
1 -0.65
11 0.27
12 0.66
13 0.57
14 0.06
15 0.06
16 0.66
2 -0.57
22 0.37
29 0.36
3 -0.57
30 0.36
31 0.5
32 0.5
4 -0.65
5 -0.57
6 -0.73
7 -0.99
9 0.36

> <PUBCHEM_EFFECTIVE_ROTOR_COUNT>
9

> <PUBCHEM_PHARMACOPHORE_FEATURES>
10
1 1 acceptor
1 2 acceptor
1 3 acceptor
1 4 acceptor
1 5 acceptor
1 6 donor
1 7 cation
1 7 donor
3 1 2 12 anion
3 4 5 16 anion

> <PUBCHEM_HEAVY_ATOM_COUNT>
16

> <PUBCHEM_ATOM_DEF_STEREO_COUNT>
1

> <PUBCHEM_ATOM_UDEF_STEREO_COUNT>
0

> <PUBCHEM_BOND_DEF_STEREO_COUNT>
0

> <PUBCHEM_BOND_UDEF_STEREO_COUNT>
0

> <PUBCHEM_ISOTOPIC_ATOM_COUNT>
0

> <PUBCHEM_COMPONENT_COUNT>
1

> <PUBCHEM_CACTVS_TAUTO_COUNT>
2

> <PUBCHEM_CONFORMER_ID>
0001F18A00000001

> <PUBCHEM_MMFF94_ENERGY>
13.4223

> <PUBCHEM_FEATURE_SELFOVERLAP>
50.864

> <PUBCHEM_SHAPE_FINGERPRINT>
10680689 15 18270123547183975858
12173636 292 18411973689302866671
12390115 104 18199764565593849329
12500047 106 18272646848859661966
14123255 52 18337673001508237241
15534591 1 18333449845996724931
167882 2 18055636118400264294
1741750 31 18412544275792315273
17539 30 18057591265286752807
17834072 32 18339081475935391561
18785283 64 17904204733056394131
20645476 183 18411694357857519985
20645477 56 18272940439648938489
20645477 70 16415211048668643460
20871999 31 18130779075530938261
21426921 1 18339360884789772015
21524375 3 18267853987780508027
23402539 116 18270673277381034863
23402655 69 18335140904150641356
23557571 272 18272377502907635604
23559900 14 17989209227415105146
23598291 2 18188754085727578082
4175511 318 18131072666230537414
573450 72 18335408102492523594
6049 1 17559389365164666130
633830 44 17821452374446679874
77188 2 17689999355513105311

> <PUBCHEM_SHAPE_MULTIPOLES>
289.96
9.49
3.25
0.97
10.75
0.09
-0.05
8.01
-0.47
-5.81
-0.24
0.37
-0.29
-0.71

> <PUBCHEM_SHAPE_SELFOVERLAP>
556.794

> <PUBCHEM_SHAPE_VOLUME>
175.3

> <PUBCHEM_COORDINATE_TYPE>
2
5
10

$$$$
