REMARK  Name = 127384
REMARK  5 active torsions:
REMARK  status: ('A' for Active; 'I' for Inactive)
REMARK    1  A    between atoms: C_4  and  C_15
REMARK    2  A    between atoms: C_5  and  C_26
REMARK    3  A    between atoms: C_16  and  C_23
REMARK    4  A    between atoms: C_23  and  O_24
REMARK    5  A    between atoms: C_26  and  O_27
REMARK                            x       y       z     vdW  Elec       q    Type
REMARK                         _______ _______ _______ _____ _____    ______ ____
ROOT
ATOM      1  O   UNL     1      -1.520  -0.687  -1.585  0.00  0.00    -0.452 OA
ATOM      2  O   UNL     1       0.246  -1.939  -1.025  0.00  0.00    -0.252 OA
ATOM      3  N   UNL     1      -1.703   0.394   1.008  0.00  0.00    +0.399 N 
ATOM      4  C   UNL     1      -0.551  -0.451   0.689  0.00  0.00    +0.040 C 
ATOM      5  C   UNL     1      -2.898   0.250   0.190  0.00  0.00    +0.024 C 
ATOM      6  C   UNL     1      -0.423  -1.561   1.747  0.00  0.00    -0.012 C 
ATOM      7  C   UNL     1      -0.579  -1.085  -0.699  0.00  0.00    +0.297 C 
ATOM      8  C   UNL     1      -2.439   0.359  -1.254  0.00  0.00    +0.191 C 
ATOM      9  C   UNL     1      -3.831   1.426   0.520  0.00  0.00    -0.015 C 
ATOM     10  H   UNL     1      -1.398   1.364   0.933  0.00  0.00    -0.083 HD
ATOM     11  H   UNL     1      -1.992   0.094   1.939  0.00  0.00    -0.083 HD
ENDROOT
BRANCH   4  15
ATOM     12  O   UNL     1       1.343   1.455  -1.420  0.00  0.00    -0.452 OA
ATOM     13  O   UNL     1      -0.304   2.406  -0.245  0.00  0.00    -0.252 OA
ATOM     14  N   UNL     1       1.851  -0.420   0.618  0.00  0.00    +0.399 N 
ATOM     15  C   UNL     1       0.686   0.457   0.757  0.00  0.00    +0.040 C 
ATOM     16  C   UNL     1       2.927   0.015  -0.260  0.00  0.00    +0.024 C 
ATOM     17  C   UNL     1       0.730   1.151   2.129  0.00  0.00    -0.012 C 
ATOM     18  C   UNL     1       0.539   1.513  -0.334  0.00  0.00    +0.297 C 
ATOM     19  C   UNL     1       2.274   0.380  -1.583  0.00  0.00    +0.191 C 
ATOM     20  C   UNL     1       3.733   1.179   0.336  0.00  0.00    -0.015 C 
ATOM     21  H   UNL     1       1.516  -1.317   0.267  0.00  0.00    -0.083 HD
ATOM     22  H   UNL     1       2.270  -0.439   1.547  0.00  0.00    -0.083 HD
BRANCH  16  23
ATOM     23  C   UNL     1       3.869  -1.182  -0.469  0.00  0.00    +0.121 C 
BRANCH  23  24
ATOM     24  O   UNL     1       4.470  -1.493   0.772  0.00  0.00    -0.384 OA
ATOM     25  H   UNL     1       5.069  -2.247   0.661  0.00  0.00    +0.210 HD
ENDBRANCH  23  24
ENDBRANCH  16  23
ENDBRANCH   4  15
BRANCH   5  26
ATOM     26  C   UNL     1      -3.643  -1.064   0.470  0.00  0.00    +0.121 C 
BRANCH  26  27
ATOM     27  O   UNL     1      -4.780  -1.104  -0.363  0.00  0.00    -0.384 OA
ATOM     28  H   UNL     1      -5.268  -1.927  -0.205  0.00  0.00    +0.210 HD
ENDBRANCH  26  27
ENDBRANCH   5  26
TORSDOF 5
