127336
  -OEChem-03292013323D

 30 30  0     1  0  0  0  0  0999 V2000
   -0.1844    2.5011    0.9218 O   0  0  0  0  0  0  0  0  0  0  0  0
    6.0915   -0.7838   -0.5136 O   0  0  0  0  0  0  0  0  0  0  0  0
   -2.3686   -2.8777    0.1300 O   0  5  0  0  0  0  0  0  0  0  0  0
   -0.5918   -1.7538    0.7760 O   0  0  0  0  0  0  0  0  0  0  0  0
   -1.7548    0.5356   -0.4868 N   0  0  0  0  0  0  0  0  0  0  0  0
    2.5521    0.1399    0.1263 N   0  0  0  0  0  0  0  0  0  0  0  0
   -3.6915   -0.4029   -0.0182 N   0  0  0  0  0  0  0  0  0  0  0  0
   -1.7607   -1.7819    0.2954 N   0  3  0  0  0  0  0  0  0  0  0  0
    0.3732    1.2227    0.6084 C   0  0  1  0  0  0  0  0  0  0  0  0
   -0.3107    0.6997   -0.6610 C   0  0  0  0  0  0  0  0  0  0  0  0
    1.8853    1.3988    0.4303 C   0  0  0  0  0  0  0  0  0  0  0  0
    4.0150    0.3055   -0.0035 C   0  0  0  0  0  0  0  0  0  0  0  0
   -2.3900   -0.5830   -0.0590 C   0  0  0  0  0  0  0  0  0  0  0  0
   -2.6801    1.4932   -0.7386 C   0  0  0  0  0  0  0  0  0  0  0  0
    4.6944   -1.0023   -0.3664 C   0  0  0  0  0  0  0  0  0  0  0  0
   -3.8790    0.8892   -0.4411 C   0  0  0  0  0  0  0  0  0  0  0  0
    0.1711    0.5739    1.4664 H   0  0  0  0  0  0  0  0  0  0  0  0
    0.0933   -0.2485   -1.0252 H   0  0  0  0  0  0  0  0  0  0  0  0
   -0.1910    1.4235   -1.4783 H   0  0  0  0  0  0  0  0  0  0  0  0
    2.0771    2.1339   -0.3623 H   0  0  0  0  0  0  0  0  0  0  0  0
    2.2944    1.8306    1.3527 H   0  0  0  0  0  0  0  0  0  0  0  0
    2.1918   -0.2458   -0.7452 H   0  0  0  0  0  0  0  0  0  0  0  0
    4.4351    0.6807    0.9378 H   0  0  0  0  0  0  0  0  0  0  0  0
    4.2443    1.0551   -0.7713 H   0  0  0  0  0  0  0  0  0  0  0  0
   -2.4319    2.4836   -1.0942 H   0  0  0  0  0  0  0  0  0  0  0  0
   -0.0034    3.0993    0.1767 H   0  0  0  0  0  0  0  0  0  0  0  0
    4.3078   -1.3957   -1.3126 H   0  0  0  0  0  0  0  0  0  0  0  0
    4.5411   -1.7532    0.4159 H   0  0  0  0  0  0  0  0  0  0  0  0
   -4.8676    1.3191   -0.5099 H   0  0  0  0  0  0  0  0  0  0  0  0
    6.4912   -1.6397   -0.7444 H   0  0  0  0  0  0  0  0  0  0  0  0
  1  9  1  0  0  0  0
  1 26  1  0  0  0  0
  2 15  1  0  0  0  0
  2 30  1  0  0  0  0
  3  8  1  0  0  0  0
  4  8  2  0  0  0  0
  5 10  1  0  0  0  0
  5 13  1  0  0  0  0
  5 14  1  0  0  0  0
  6 11  1  0  0  0  0
  6 12  1  0  0  0  0
  6 22  1  0  0  0  0
  7 13  2  0  0  0  0
  7 16  1  0  0  0  0
  8 13  1  0  0  0  0
  9 10  1  0  0  0  0
  9 11  1  0  0  0  0
  9 17  1  0  0  0  0
 10 18  1  0  0  0  0
 10 19  1  0  0  0  0
 11 20  1  0  0  0  0
 11 21  1  0  0  0  0
 12 15  1  0  0  0  0
 12 23  1  0  0  0  0
 12 24  1  0  0  0  0
 14 16  2  0  0  0  0
 14 25  1  0  0  0  0
 15 27  1  0  0  0  0
 15 28  1  0  0  0  0
 16 29  1  0  0  0  0
M  CHG  2   3  -1   8   1
M  END
> <PUBCHEM_COMPOUND_CID>
127336

> <PUBCHEM_CONFORMER_RMSD>
0.8

> <PUBCHEM_CONFORMER_DIVERSEORDER>
1
66
92
129
96
48
65
130
135
99
14
5
136
106
112
71
56
107
95
102
23
27
11
18
8
108
83
137
85
89
82
138
90
141
124
20
75
88
113
140
64
119
134
114
94
61
73
80
120
101
77
98
43
17
79
54
21
133
62
53
9
127
126
19
16
116
100
78
115
35
38
76
2
139
33
105
128
122
57
58
91
10
39
111
29
118
36
74
132
6
87
32
30
45
72
81
26
109
93
46
25
15
28
70
69
60
44
86
117
24
52
42
123
84
110
31
41
37
103
47
12
49
13
125
67
97
63
4
22
104
51
131
50
3
121
40
7
34
59
68
55

> <PUBCHEM_MMFF94_PARTIAL_CHARGES>
21
1 -0.68
10 0.26
11 0.27
12 0.27
13 0.27
14 -0.3
15 0.28
16 0.08
2 -0.68
22 0.36
25 0.15
26 0.4
29 0.15
3 -0.52
30 0.4
4 -0.52
5 0.05
6 -0.9
7 -0.57
8 0.96
9 0.28

> <PUBCHEM_EFFECTIVE_ROTOR_COUNT>
7

> <PUBCHEM_PHARMACOPHORE_FEATURES>
10
1 1 acceptor
1 1 donor
1 2 acceptor
1 2 donor
1 3 acceptor
1 4 acceptor
1 6 cation
1 6 donor
4 5 7 8 13 cation
5 5 7 13 14 16 rings

> <PUBCHEM_HEAVY_ATOM_COUNT>
16

> <PUBCHEM_ATOM_DEF_STEREO_COUNT>
0

> <PUBCHEM_ATOM_UDEF_STEREO_COUNT>
1

> <PUBCHEM_BOND_DEF_STEREO_COUNT>
0

> <PUBCHEM_BOND_UDEF_STEREO_COUNT>
0

> <PUBCHEM_ISOTOPIC_ATOM_COUNT>
0

> <PUBCHEM_COMPONENT_COUNT>
1

> <PUBCHEM_CACTVS_TAUTO_COUNT>
1

> <PUBCHEM_CONFORMER_ID>
0001F16800000001

> <PUBCHEM_MMFF94_ENERGY>
19.9315

> <PUBCHEM_FEATURE_SELFOVERLAP>
50.827

> <PUBCHEM_SHAPE_FINGERPRINT>
10803635 8 18114174178050782812
11458722 379 18335419054226708858
124424 183 18202279208246272949
12507560 18 18273496750089686497
12555020 224 18410564076952322975
12596602 18 13829835908391356326
14115302 16 18334300868234071884
14251731 8 18409166585020346804
14386348 63 18273218586664519142
15880784 105 16343407480376569222
17804303 29 18409167748729734413
17870717 6 18340218401302364718
20325693 3 18040434373839870637
20645476 183 17240482502870903163
221490 88 18265338481338562968
23175994 123 18060138738774902536
23402539 116 18271801285431218804
23403322 49 18342176657191527358
23526113 38 17986935522298000777
23559900 14 18413101784708332176
4921388 177 16805615801583538210
58051976 100 17967531285213898844
8809292 202 18410574011063751248
9709674 26 18193833962591291466

> <PUBCHEM_SHAPE_MULTIPOLES>
285.87
9.26
2.3
0.81
14.11
0.9
-0.01
2.57
2.23
-1.47
-0.51
-0.02
-0.17
0.78

> <PUBCHEM_SHAPE_SELFOVERLAP>
570.844

> <PUBCHEM_SHAPE_VOLUME>
169.1

> <PUBCHEM_COORDINATE_TYPE>
2
5
10

$$$$
