127360
  -OEChem-03292013323D

 53 55  0     1  0  0  0  0  0999 V2000
   -3.6641   -1.5049   -2.3822 O   0  0  0  0  0  0  0  0  0  0  0  0
   -2.5074    0.6628   -1.0805 O   0  0  0  0  0  0  0  0  0  0  0  0
    3.3547    0.3357   -3.1065 O   0  0  0  0  0  0  0  0  0  0  0  0
   -0.5180   -2.1993   -0.5687 N   0  0  0  0  0  0  0  0  0  0  0  0
    2.4769    0.3155    2.3053 N   0  0  0  0  0  0  0  0  0  0  0  0
   -3.7864    0.6281    2.2733 N   0  0  0  0  0  0  0  0  0  0  0  0
   -0.2559   -2.9565    0.6681 C   0  0  0  0  0  0  0  0  0  0  0  0
    1.2717   -2.8722    0.9947 C   0  0  0  0  0  0  0  0  0  0  0  0
    1.8263   -1.5285    1.2548 C   0  0  0  0  0  0  0  0  0  0  0  0
   -1.1141   -2.3265    1.7739 C   0  0  0  0  0  0  0  0  0  0  0  0
   -0.7097   -4.4013    0.4182 C   0  0  0  0  0  0  0  0  0  0  0  0
   -1.9338   -2.2241   -0.8839 C   0  0  0  0  0  0  0  0  0  0  0  0
    2.3769   -0.6381    0.2910 C   0  0  0  0  0  0  0  0  0  0  0  0
   -2.2499   -1.4603   -2.1720 C   0  0  2  0  0  0  0  0  0  0  0  0
    1.9023   -0.9143    2.4837 C   0  0  0  0  0  0  0  0  0  0  0  0
    2.7773    0.5111    0.9761 C   0  0  0  0  0  0  0  0  0  0  0  0
   -1.8102    0.0015   -2.1317 C   0  0  0  0  0  0  0  0  0  0  0  0
    2.5735   -0.6997   -1.1029 C   0  0  0  0  0  0  0  0  0  0  0  0
    3.3668    1.6061    0.3345 C   0  0  0  0  0  0  0  0  0  0  0  0
    3.1620    0.3880   -1.7581 C   0  0  0  0  0  0  0  0  0  0  0  0
    3.5518    1.5222   -1.0486 C   0  0  0  0  0  0  0  0  0  0  0  0
   -1.8547    1.6968   -0.4644 C   0  0  0  0  0  0  0  0  0  0  0  0
   -2.0932    2.0009    0.8728 C   0  0  0  0  0  0  0  0  0  0  0  0
   -0.9415    2.4431   -1.2043 C   0  0  0  0  0  0  0  0  0  0  0  0
   -1.4134    3.0595    1.4752 C   0  0  0  0  0  0  0  0  0  0  0  0
   -0.2617    3.5018   -0.6020 C   0  0  0  0  0  0  0  0  0  0  0  0
   -0.4977    3.8100    0.7378 C   0  0  0  0  0  0  0  0  0  0  0  0
   -3.0285    1.2427    1.6463 C   0  0  0  0  0  0  0  0  0  0  0  0
    1.4686   -3.5047    1.8722 H   0  0  0  0  0  0  0  0  0  0  0  0
    1.8363   -3.3438    0.1779 H   0  0  0  0  0  0  0  0  0  0  0  0
    0.0157   -2.5974   -1.3410 H   0  0  0  0  0  0  0  0  0  0  0  0
   -1.0494   -1.2324    1.7824 H   0  0  0  0  0  0  0  0  0  0  0  0
   -2.1711   -2.6114    1.7314 H   0  0  0  0  0  0  0  0  0  0  0  0
   -0.7637   -2.6716    2.7550 H   0  0  0  0  0  0  0  0  0  0  0  0
   -0.3235   -5.0495    1.2150 H   0  0  0  0  0  0  0  0  0  0  0  0
   -1.7955   -4.5407    0.4311 H   0  0  0  0  0  0  0  0  0  0  0  0
   -0.3140   -4.7987   -0.5242 H   0  0  0  0  0  0  0  0  0  0  0  0
   -2.3194   -3.2356   -1.0474 H   0  0  0  0  0  0  0  0  0  0  0  0
   -2.5557   -1.7772   -0.1024 H   0  0  0  0  0  0  0  0  0  0  0  0
   -1.7774   -1.9577   -3.0267 H   0  0  0  0  0  0  0  0  0  0  0  0
    1.5995   -1.2397    3.4693 H   0  0  0  0  0  0  0  0  0  0  0  0
    2.6548    0.9839    3.0422 H   0  0  0  0  0  0  0  0  0  0  0  0
   -0.7206    0.0372   -2.0109 H   0  0  0  0  0  0  0  0  0  0  0  0
   -2.0865    0.4872   -3.0752 H   0  0  0  0  0  0  0  0  0  0  0  0
    2.2761   -1.5829   -1.6612 H   0  0  0  0  0  0  0  0  0  0  0  0
    3.6693    2.4900    0.8858 H   0  0  0  0  0  0  0  0  0  0  0  0
    4.0067    2.3599   -1.5721 H   0  0  0  0  0  0  0  0  0  0  0  0
   -4.0879   -1.0117   -1.6588 H   0  0  0  0  0  0  0  0  0  0  0  0
    3.0263   -0.5171   -3.4393 H   0  0  0  0  0  0  0  0  0  0  0  0
   -0.7499    2.2637   -2.2577 H   0  0  0  0  0  0  0  0  0  0  0  0
   -1.5854    3.3125    2.5188 H   0  0  0  0  0  0  0  0  0  0  0  0
    0.4468    4.0904   -1.1775 H   0  0  0  0  0  0  0  0  0  0  0  0
    0.0313    4.6348    1.2063 H   0  0  0  0  0  0  0  0  0  0  0  0
  1 14  1  0  0  0  0
  1 48  1  0  0  0  0
  2 17  1  0  0  0  0
  2 22  1  0  0  0  0
  3 20  1  0  0  0  0
  3 49  1  0  0  0  0
  4  7  1  0  0  0  0
  4 12  1  0  0  0  0
  4 31  1  0  0  0  0
  5 15  1  0  0  0  0
  5 16  1  0  0  0  0
  5 42  1  0  0  0  0
  6 28  3  0  0  0  0
  7  8  1  0  0  0  0
  7 10  1  0  0  0  0
  7 11  1  0  0  0  0
  8  9  1  0  0  0  0
  8 29  1  0  0  0  0
  8 30  1  0  0  0  0
  9 13  1  0  0  0  0
  9 15  2  0  0  0  0
 10 32  1  0  0  0  0
 10 33  1  0  0  0  0
 10 34  1  0  0  0  0
 11 35  1  0  0  0  0
 11 36  1  0  0  0  0
 11 37  1  0  0  0  0
 12 14  1  0  0  0  0
 12 38  1  0  0  0  0
 12 39  1  0  0  0  0
 13 16  2  0  0  0  0
 13 18  1  0  0  0  0
 14 17  1  0  0  0  0
 14 40  1  0  0  0  0
 15 41  1  0  0  0  0
 16 19  1  0  0  0  0
 17 43  1  0  0  0  0
 17 44  1  0  0  0  0
 18 20  2  0  0  0  0
 18 45  1  0  0  0  0
 19 21  2  0  0  0  0
 19 46  1  0  0  0  0
 20 21  1  0  0  0  0
 21 47  1  0  0  0  0
 22 23  1  0  0  0  0
 22 24  2  0  0  0  0
 23 25  2  0  0  0  0
 23 28  1  0  0  0  0
 24 26  1  0  0  0  0
 24 50  1  0  0  0  0
 25 27  1  0  0  0  0
 25 51  1  0  0  0  0
 26 27  2  0  0  0  0
 26 52  1  0  0  0  0
 27 53  1  0  0  0  0
M  END
> <PUBCHEM_COMPOUND_CID>
127360

> <PUBCHEM_CONFORMER_RMSD>
1.2

> <PUBCHEM_CONFORMER_DIVERSEORDER>
65
438
381
94
376
19
157
306
126
41
213
15
90
32
560
544
238
519
114
47
225
9
283
83
354
558
51
144
135
264
352
116
552
578
423
182
398
91
559
184
20
321
206
400
3
87
95
605
523
241
214
13
545
643
178
121
279
377
212
143
532
128
627
547
42
30
16
498
389
478
1
425
287
577
600
89
641
245
181
63
102
526
516
12
284
191
500
67
7
138
298
273
325
150
202
165
11
265
366
332
460
146
120
163
21
39
655
5
159
252
190
313
291
406
205
141
106
237
534
101
651
140
424
18
608
652
25
155
494
637
26
147
442
29
468
31
169
497
74
340
103
23
311
469
317
612
414
401
54
451
167
258
295
100
318
239
480
28
72
271
130
249
129
551
463
179
444
166
632
136
2
27
148
71
24
8
118
81
40
64
6
331
35
50
482
37
122
402
174
589
14
52
263
53
474
186
185
228
288
622
506
571
230
378
466
656
232
372
36
253
467
405
183
255
416
345
22
393
160
489
80
269
227

> <PUBCHEM_MMFF94_PARTIAL_CHARGES>
37
1 -0.68
12 0.27
14 0.28
15 -0.3
16 -0.15
17 0.28
18 -0.15
19 -0.15
2 -0.36
20 0.08
21 -0.15
22 0.08
23 0.07
24 -0.15
25 -0.15
26 -0.15
27 -0.15
28 0.48
3 -0.53
31 0.36
4 -0.9
41 0.15
42 0.27
45 0.15
46 0.15
47 0.15
48 0.4
49 0.45
5 0.03
50 0.15
51 0.15
52 0.15
53 0.15
6 -0.56
7 0.27
8 0.18
9 -0.18

> <PUBCHEM_EFFECTIVE_ROTOR_COUNT>
8

> <PUBCHEM_PHARMACOPHORE_FEATURES>
13
1 1 acceptor
1 1 donor
1 2 acceptor
1 3 donor
1 4 cation
1 4 donor
1 5 cation
1 5 donor
1 6 acceptor
3 7 10 11 hydrophobe
5 5 9 13 15 16 rings
6 13 16 18 19 20 21 rings
6 22 23 24 25 26 27 rings

> <PUBCHEM_HEAVY_ATOM_COUNT>
28

> <PUBCHEM_ATOM_DEF_STEREO_COUNT>
0

> <PUBCHEM_ATOM_UDEF_STEREO_COUNT>
1

> <PUBCHEM_BOND_DEF_STEREO_COUNT>
0

> <PUBCHEM_BOND_UDEF_STEREO_COUNT>
0

> <PUBCHEM_ISOTOPIC_ATOM_COUNT>
0

> <PUBCHEM_COMPONENT_COUNT>
1

> <PUBCHEM_CACTVS_TAUTO_COUNT>
8

> <PUBCHEM_CONFORMER_ID>
0001F18000000041

> <PUBCHEM_MMFF94_ENERGY>
64.3438

> <PUBCHEM_FEATURE_SELFOVERLAP>
66.067

> <PUBCHEM_SHAPE_FINGERPRINT>
10119406 146 9722221146169481946
10708813 3 17116874091352898990
11112662 9 16378955764474874380
12156800 1 16244431633428693689
12422481 6 16894243813537394434
128993 33 18127697015262429992
13402501 40 16533130719583197780
13965767 371 16108070966151771707
14713325 29 18120969254611255150
20600515 1 17835482249426445224
20715895 44 17250284516205143045
23419403 2 17400637619907189117
238 59 18045213839105802385
2818148 4 18340218388006434479
35225 105 18129112138382893345
3797600 57 17604736420081393792
469060 322 16083634801081120366
513532 50 11175273187160715515
6287921 2 17684399176971328329
81228 2 18200866378817154359

> <PUBCHEM_SHAPE_MULTIPOLES>
543.68
5.69
4.94
2.76
1.23
1.19
0.61
-1.74
0.92
-1.97
-0.93
-0.22
0.25
-1.93

> <PUBCHEM_SHAPE_SELFOVERLAP>
1164.111

> <PUBCHEM_SHAPE_VOLUME>
300.4

> <PUBCHEM_COORDINATE_TYPE>
2
5
10

$$$$
