REMARK  Name = 127485
REMARK  4 active torsions:
REMARK  status: ('A' for Active; 'I' for Inactive)
REMARK    1  A    between atoms: C_18  and  C_31
REMARK    2  A    between atoms: C_21  and  O_26
REMARK    3  A    between atoms: C_22  and  O_28
REMARK    4  A    between atoms: C_31  and  O_32
REMARK                            x       y       z     vdW  Elec       q    Type
REMARK                         _______ _______ _______ _____ _____    ______ ____
ROOT
ATOM      1  O   UNL     1      -0.300  -0.002   2.378  0.00  0.00    -0.440 OA
ATOM      2  O   UNL     1       2.353   0.002  -0.717  0.00  0.00    -0.454 OA
ATOM      3  O   UNL     1      -2.113  -0.005   3.817  0.00  0.00    -0.245 OA
ATOM      4  C   UNL     1      -0.056  -0.001   0.935  0.00  0.00    +0.198 C 
ATOM      5  C   UNL     1       0.712   1.259   0.586  0.00  0.00    +0.056 C 
ATOM      6  C   UNL     1       0.713  -1.259   0.585  0.00  0.00    +0.056 C 
ATOM      7  C   UNL     1      -1.450  -0.001   0.395  0.00  0.00    +0.028 C 
ATOM      8  C   UNL     1       1.849   1.182  -0.227  0.00  0.00    +0.144 C 
ATOM      9  C   UNL     1       1.850  -1.180  -0.228  0.00  0.00    +0.144 C 
ATOM     10  C   UNL     1      -2.357  -0.003   1.440  0.00  0.00    +0.076 C 
ATOM     11  C   UNL     1      -1.633  -0.003   2.701  0.00  0.00    +0.342 C 
ATOM     12  C   UNL     1      -1.898   0.000  -0.916  0.00  0.00    +0.006 C 
ATOM     13  C   UNL     1       0.296   2.525   1.033  0.00  0.00    +0.006 C 
ATOM     14  C   UNL     1       0.299  -2.526   1.030  0.00  0.00    +0.006 C 
ATOM     15  C   UNL     1       2.546   2.338  -0.593  0.00  0.00    +0.046 C 
ATOM     16  C   UNL     1       2.550  -2.334  -0.594  0.00  0.00    +0.046 C 
ATOM     17  C   UNL     1      -3.725  -0.003   1.242  0.00  0.00    +0.006 C 
ATOM     18  C   UNL     1      -3.277  -0.001  -1.148  0.00  0.00    +0.075 C 
ATOM     19  C   UNL     1       0.997   3.678   0.673  0.00  0.00    +0.036 C 
ATOM     20  C   UNL     1       1.001  -3.678   0.670  0.00  0.00    +0.036 C 
ATOM     21  C   UNL     1       2.121   3.584  -0.141  0.00  0.00    +0.133 C 
ATOM     22  C   UNL     1       2.126  -3.582  -0.144  0.00  0.00    +0.133 C 
ATOM     23  C   UNL     1      -4.184  -0.002  -0.076  0.00  0.00    +0.007 C 
ATOM     24  C   UNL     1       3.757   2.245  -1.468  0.00  0.00    +0.037 C 
ATOM     25  C   UNL     1       3.761  -2.239  -1.468  0.00  0.00    +0.037 C 
ENDROOT
BRANCH  21  26
ATOM     26  O   UNL     1       2.789   4.720  -0.486  0.00  0.00    -0.506 OA
ATOM     27  H   UNL     1       3.548   4.669  -1.034  0.00  0.00    +0.292 HD
ENDBRANCH  21  26
BRANCH  22  28
ATOM     28  O   UNL     1       2.796  -4.716  -0.489  0.00  0.00    -0.506 OA
ATOM     29  H   UNL     1       3.554  -4.664  -1.037  0.00  0.00    +0.292 HD
ENDBRANCH  22  28
BRANCH  18  31
ATOM     30  O   UNL     1      -4.969  -0.001  -2.840  0.00  0.00    -0.245 OA
ATOM     31  C   UNL     1      -3.777   0.000  -2.514  0.00  0.00    +0.338 C 
BRANCH  31  32
ATOM     32  O   UNL     1      -2.776   0.003  -3.435  0.00  0.00    -0.477 OA
ATOM     33  H   UNL     1      -1.881   0.003  -3.155  0.00  0.00    +0.295 HD
ENDBRANCH  31  32
ENDBRANCH  18  31
TORSDOF 4
