127446
  -OEChem-03292013323D

 35 38  0     1  0  0  0  0  0999 V2000
   -1.4740   -1.1832    0.5976 O   0  0  0  0  0  0  0  0  0  0  0  0
   -4.2352    0.8643   -0.4118 O   0  0  0  0  0  0  0  0  0  0  0  0
   -2.7474   -3.2618   -0.8153 O   0  0  0  0  0  0  0  0  0  0  0  0
    0.2172    0.4234    0.4444 N   0  0  0  0  0  0  0  0  0  0  0  0
    1.7033    1.6357   -0.6851 N   0  0  0  0  0  0  0  0  0  0  0  0
    1.5952   -1.5090    1.0002 N   0  0  0  0  0  0  0  0  0  0  0  0
    3.8489   -1.2716    0.0984 N   0  0  0  0  0  0  0  0  0  0  0  0
    4.5367    0.6509   -1.1476 N   0  0  0  0  0  0  0  0  0  0  0  0
   -2.1631    1.0871    0.8555 C   0  0  2  0  0  0  0  0  0  0  0  0
   -1.0306    0.0876    1.1057 C   0  0  1  0  0  0  0  0  0  0  0  0
   -2.8809    0.4655   -0.3326 C   0  0  1  0  0  0  0  0  0  0  0  0
   -1.6768    2.5239    0.6546 C   0  0  0  0  0  0  0  0  0  0  0  0
   -2.7653   -1.0142   -0.0064 C   0  0  1  0  0  0  0  0  0  0  0  0
   -0.5833    2.6371   -0.4078 C   0  0  0  0  0  0  0  0  0  0  0  0
    0.4652    1.5967   -0.2299 C   0  0  0  0  0  0  0  0  0  0  0  0
   -2.8788   -1.9108   -1.2263 C   0  0  0  0  0  0  0  0  0  0  0  0
    1.3708   -0.3086    0.4413 C   0  0  0  0  0  0  0  0  0  0  0  0
    2.2774    0.4599   -0.2722 C   0  0  0  0  0  0  0  0  0  0  0  0
    3.5561   -0.0629   -0.4373 C   0  0  0  0  0  0  0  0  0  0  0  0
    2.8646   -1.9099    0.7748 C   0  0  0  0  0  0  0  0  0  0  0  0
   -2.8495    1.0795    1.7139 H   0  0  0  0  0  0  0  0  0  0  0  0
   -0.8076   -0.0071    2.1744 H   0  0  0  0  0  0  0  0  0  0  0  0
   -2.3839    0.7037   -1.2789 H   0  0  0  0  0  0  0  0  0  0  0  0
   -1.2796    2.8904    1.6106 H   0  0  0  0  0  0  0  0  0  0  0  0
   -2.5160    3.1776    0.3903 H   0  0  0  0  0  0  0  0  0  0  0  0
   -3.5130   -1.3190    0.7374 H   0  0  0  0  0  0  0  0  0  0  0  0
   -0.1281    3.6327   -0.3548 H   0  0  0  0  0  0  0  0  0  0  0  0
   -1.0151    2.5401   -1.4102 H   0  0  0  0  0  0  0  0  0  0  0  0
   -2.0838   -1.7055   -1.9508 H   0  0  0  0  0  0  0  0  0  0  0  0
   -3.8469   -1.7936   -1.7213 H   0  0  0  0  0  0  0  0  0  0  0  0
   -4.6433    0.3784   -1.1483 H   0  0  0  0  0  0  0  0  0  0  0  0
   -1.8855   -3.3514   -0.3739 H   0  0  0  0  0  0  0  0  0  0  0  0
    3.1337   -2.8746    1.1916 H   0  0  0  0  0  0  0  0  0  0  0  0
    4.3213    1.5538   -1.5486 H   0  0  0  0  0  0  0  0  0  0  0  0
    5.4587    0.2505   -1.2540 H   0  0  0  0  0  0  0  0  0  0  0  0
  1 10  1  0  0  0  0
  1 13  1  0  0  0  0
  2 11  1  0  0  0  0
  2 31  1  0  0  0  0
  3 16  1  0  0  0  0
  3 32  1  0  0  0  0
  4 10  1  0  0  0  0
  4 15  1  0  0  0  0
  4 17  1  0  0  0  0
  5 15  2  0  0  0  0
  5 18  1  0  0  0  0
  6 17  2  0  0  0  0
  6 20  1  0  0  0  0
  7 19  1  0  0  0  0
  7 20  2  0  0  0  0
  8 19  1  0  0  0  0
  8 34  1  0  0  0  0
  8 35  1  0  0  0  0
  9 10  1  0  0  0  0
  9 11  1  0  0  0  0
  9 12  1  0  0  0  0
  9 21  1  0  0  0  0
 10 22  1  0  0  0  0
 11 13  1  0  0  0  0
 11 23  1  0  0  0  0
 12 14  1  0  0  0  0
 12 24  1  0  0  0  0
 12 25  1  0  0  0  0
 13 16  1  0  0  0  0
 13 26  1  0  0  0  0
 14 15  1  0  0  0  0
 14 27  1  0  0  0  0
 14 28  1  0  0  0  0
 16 29  1  0  0  0  0
 16 30  1  0  0  0  0
 17 18  1  0  0  0  0
 18 19  2  0  0  0  0
 20 33  1  0  0  0  0
M  END
> <PUBCHEM_COMPOUND_CID>
127446

> <PUBCHEM_CONFORMER_RMSD>
0.6

> <PUBCHEM_CONFORMER_DIVERSEORDER>
1
4
3
2

> <PUBCHEM_MMFF94_PARTIAL_CHARGES>
23
1 -0.56
10 0.54
11 0.28
13 0.28
14 0.18
15 0.01
16 0.28
17 0.11
18 0.23
19 0.41
2 -0.68
20 0.47
3 -0.68
31 0.4
32 0.4
33 0.15
34 0.4
35 0.4
4 0.05
5 -0.57
6 -0.57
7 -0.62
8 -0.9

> <PUBCHEM_EFFECTIVE_ROTOR_COUNT>
2

> <PUBCHEM_PHARMACOPHORE_FEATURES>
14
1 1 acceptor
1 2 acceptor
1 2 donor
1 3 acceptor
1 3 donor
1 8 cation
1 8 donor
3 4 5 15 cation
3 4 6 17 cation
3 6 7 20 cation
5 1 9 10 11 13 rings
5 4 5 15 17 18 rings
6 4 9 10 12 14 15 rings
6 6 7 17 18 19 20 rings

> <PUBCHEM_HEAVY_ATOM_COUNT>
20

> <PUBCHEM_ATOM_DEF_STEREO_COUNT>
4

> <PUBCHEM_ATOM_UDEF_STEREO_COUNT>
0

> <PUBCHEM_BOND_DEF_STEREO_COUNT>
0

> <PUBCHEM_BOND_UDEF_STEREO_COUNT>
0

> <PUBCHEM_ISOTOPIC_ATOM_COUNT>
0

> <PUBCHEM_COMPONENT_COUNT>
1

> <PUBCHEM_CACTVS_TAUTO_COUNT>
3

> <PUBCHEM_CONFORMER_ID>
0001F1D600000001

> <PUBCHEM_MMFF94_ENERGY>
45.3433

> <PUBCHEM_FEATURE_SELFOVERLAP>
71.956

> <PUBCHEM_SHAPE_FINGERPRINT>
10062212 137 18334008384865804434
10616163 171 18341334405272630918
11578080 2 18194373702589898840
12173636 292 17911231724369615425
12202030 40 16773251599410164044
12403259 327 14044638805974837079
12553582 1 18340484590269325163
12788726 201 18130509617915387681
14081887 123 18270944809186740992
14289901 80 15913606164216887312
14576447 43 18266737059580753766
14787075 74 17841148067774111512
14790565 3 18195816163372484201
15415430 112 18413111675194789646
15669948 3 18340206297641237130
16752209 62 18196638610943769777
16945 1 18340767052877257681
18186145 218 16153709808435403826
19862831 5 17967531250885724464
200 152 18408319964955945788
20291156 8 18341330114689745583
21267235 1 18190192195512782258
21452121 199 17913191342153177747
21501502 16 18190464857432944144
21634736 98 18338519767269093500
23379529 103 17769105879525853590
23402539 116 18333732438302989054
23402655 69 18260830362772678908
23419403 2 16967100034767425481
23557571 272 17986937721505489395
23559900 14 18201711865010780440
238 59 14671134230500971366
2748010 2 16031281765288663193
34934 24 18408321081673907456
57096353 35 18261121789663069406
603831 33 18334577932358256610
6338986 31 18338786896780748235
90525 40 18194964032916750683

> <PUBCHEM_SHAPE_MULTIPOLES>
369.08
6.83
2.83
1.05
3.23
0.53
0
2.04
1.73
-1.8
0.4
-0.03
0.17
-1.4

> <PUBCHEM_SHAPE_SELFOVERLAP>
818.405

> <PUBCHEM_SHAPE_VOLUME>
193.4

> <PUBCHEM_COORDINATE_TYPE>
2
5
10

$$$$
