127448
  -OEChem-03292013323D

 46 46  0     1  0  0  0  0  0999 V2000
    2.0767   -0.6456    0.2145 O   0  0  0  0  0  0  0  0  0  0  0  0
    0.2786    0.8354    0.3437 O   0  0  0  0  0  0  0  0  0  0  0  0
    4.7958    2.4119    0.5758 O   0  0  0  0  0  0  0  0  0  0  0  0
    2.0246    2.9779   -0.2447 O   0  0  0  0  0  0  0  0  0  0  0  0
    5.6335   -0.1605   -0.4868 O   0  0  0  0  0  0  0  0  0  0  0  0
    4.8561   -2.7354   -0.2686 O   0  0  0  0  0  0  0  0  0  0  0  0
    2.9460   -2.9277    0.9604 O   0  0  0  0  0  0  0  0  0  0  0  0
   -0.6339   -0.4941   -1.3056 O   0  0  0  0  0  0  0  0  0  0  0  0
    3.9395    1.5142   -0.1322 C   0  0  2  0  0  0  0  0  0  0  0  0
    2.4908    1.7433    0.2995 C   0  0  2  0  0  0  0  0  0  0  0  0
    4.3938    0.0868    0.1745 C   0  0  1  0  0  0  0  0  0  0  0  0
    1.5796    0.6233   -0.2033 C   0  0  1  0  0  0  0  0  0  0  0  0
    3.3663   -0.9246   -0.3183 C   0  0  1  0  0  0  0  0  0  0  0  0
    3.6665   -2.2914    0.2058 C   0  0  0  0  0  0  0  0  0  0  0  0
   -3.2680   -0.0668   -0.3084 C   0  0  0  0  0  0  0  0  0  0  0  0
   -4.5853    0.3568    0.3492 C   0  0  0  0  0  0  0  0  0  0  0  0
   -2.0497    0.5631    0.3665 C   0  0  0  0  0  0  0  0  0  0  0  0
   -5.7833   -0.3110   -0.3290 C   0  0  0  0  0  0  0  0  0  0  0  0
   -0.7444    0.2121   -0.3128 C   0  0  0  0  0  0  0  0  0  0  0  0
   -7.0970    0.0846    0.3471 C   0  0  0  0  0  0  0  0  0  0  0  0
   -8.2908   -0.6083   -0.3091 C   0  0  0  0  0  0  0  0  0  0  0  0
   -9.5953   -0.2439    0.3816 C   0  0  0  0  0  0  0  0  0  0  0  0
    4.0699    1.7452   -1.1960 H   0  0  0  0  0  0  0  0  0  0  0  0
    2.4240    1.8325    1.3902 H   0  0  0  0  0  0  0  0  0  0  0  0
    4.5727   -0.0288    1.2506 H   0  0  0  0  0  0  0  0  0  0  0  0
    1.5230    0.6592   -1.3005 H   0  0  0  0  0  0  0  0  0  0  0  0
    3.3091   -0.9836   -1.4123 H   0  0  0  0  0  0  0  0  0  0  0  0
    4.6867    2.2462    1.5277 H   0  0  0  0  0  0  0  0  0  0  0  0
   -3.1740   -1.1596   -0.2773 H   0  0  0  0  0  0  0  0  0  0  0  0
   -3.2846    0.2140   -1.3691 H   0  0  0  0  0  0  0  0  0  0  0  0
   -4.6898    1.4470    0.2942 H   0  0  0  0  0  0  0  0  0  0  0  0
   -4.5653    0.0859    1.4118 H   0  0  0  0  0  0  0  0  0  0  0  0
    2.0748    2.9185   -1.2140 H   0  0  0  0  0  0  0  0  0  0  0  0
    5.4883   -0.0690   -1.4439 H   0  0  0  0  0  0  0  0  0  0  0  0
   -2.1512    1.6544    0.3539 H   0  0  0  0  0  0  0  0  0  0  0  0
   -1.9933    0.2252    1.4074 H   0  0  0  0  0  0  0  0  0  0  0  0
   -5.8133   -0.0263   -1.3878 H   0  0  0  0  0  0  0  0  0  0  0  0
   -5.6651   -1.4008   -0.2903 H   0  0  0  0  0  0  0  0  0  0  0  0
   -7.0572   -0.1833    1.4101 H   0  0  0  0  0  0  0  0  0  0  0  0
   -7.2263    1.1724    0.2930 H   0  0  0  0  0  0  0  0  0  0  0  0
   -8.3507   -0.3249   -1.3662 H   0  0  0  0  0  0  0  0  0  0  0  0
   -8.1577   -1.6958   -0.2716 H   0  0  0  0  0  0  0  0  0  0  0  0
    5.0724   -3.6318    0.0659 H   0  0  0  0  0  0  0  0  0  0  0  0
  -10.4356   -0.7492   -0.1046 H   0  0  0  0  0  0  0  0  0  0  0  0
   -9.5801   -0.5458    1.4338 H   0  0  0  0  0  0  0  0  0  0  0  0
   -9.7750    0.8350    0.3360 H   0  0  0  0  0  0  0  0  0  0  0  0
  1 12  1  0  0  0  0
  1 13  1  0  0  0  0
  2 12  1  0  0  0  0
  2 19  1  0  0  0  0
  3  9  1  0  0  0  0
  3 28  1  0  0  0  0
  4 10  1  0  0  0  0
  4 33  1  0  0  0  0
  5 11  1  0  0  0  0
  5 34  1  0  0  0  0
  6 14  1  0  0  0  0
  6 43  1  0  0  0  0
  7 14  2  0  0  0  0
  8 19  2  0  0  0  0
  9 10  1  0  0  0  0
  9 11  1  0  0  0  0
  9 23  1  0  0  0  0
 10 12  1  0  0  0  0
 10 24  1  0  0  0  0
 11 13  1  0  0  0  0
 11 25  1  0  0  0  0
 12 26  1  0  0  0  0
 13 14  1  0  0  0  0
 13 27  1  0  0  0  0
 15 16  1  0  0  0  0
 15 17  1  0  0  0  0
 15 29  1  0  0  0  0
 15 30  1  0  0  0  0
 16 18  1  0  0  0  0
 16 31  1  0  0  0  0
 16 32  1  0  0  0  0
 17 19  1  0  0  0  0
 17 35  1  0  0  0  0
 17 36  1  0  0  0  0
 18 20  1  0  0  0  0
 18 37  1  0  0  0  0
 18 38  1  0  0  0  0
 20 21  1  0  0  0  0
 20 39  1  0  0  0  0
 20 40  1  0  0  0  0
 21 22  1  0  0  0  0
 21 41  1  0  0  0  0
 21 42  1  0  0  0  0
 22 44  1  0  0  0  0
 22 45  1  0  0  0  0
 22 46  1  0  0  0  0
M  END
> <PUBCHEM_COMPOUND_CID>
127448

> <PUBCHEM_CONFORMER_RMSD>
1

> <PUBCHEM_CONFORMER_DIVERSEORDER>
1
49
133
138
80
38
52
128
73
39
11
86
154
130
43
109
36
104
6
42
14
66
12
95
82
132
51
7
111
115
27
84
61
93
126
105
102
156
28
110
114
79
47
131
55
117
90
23
139
48
53
58
158
21
108
103
94
30
152
142
88
15
18
125
107
127
144
96
97
19
91
99
78
143
33
146
135
20
41
134
101
70
26
85
46
25
129
92
13
37
122
100
74
81
151
121
106
148
34
157
44
155
71
89
141
76
98
120
4
137
118
45
31
60
116
8
119
153
69
57
147
140
136
83
145
9
87
123
17
40
149
2
32
75
113
35
124
63
65
64
77
22
59
54
68
62
67
10
3
112
50
16
5
29
56
150
72
24

> <PUBCHEM_MMFF94_PARTIAL_CHARGES>
20
1 -0.56
10 0.28
11 0.28
12 0.56
13 0.34
14 0.66
17 0.06
19 0.66
2 -0.43
28 0.4
3 -0.68
33 0.4
34 0.4
4 -0.68
43 0.5
5 -0.68
6 -0.65
7 -0.57
8 -0.57
9 0.28

> <PUBCHEM_EFFECTIVE_ROTOR_COUNT>
10.2

> <PUBCHEM_PHARMACOPHORE_FEATURES>
15
1 1 acceptor
1 22 hydrophobe
1 3 acceptor
1 3 donor
1 4 acceptor
1 4 donor
1 5 acceptor
1 5 donor
1 6 acceptor
1 7 acceptor
1 8 acceptor
3 15 16 17 hydrophobe
3 18 20 21 hydrophobe
3 6 7 14 anion
6 1 9 10 11 12 13 rings

> <PUBCHEM_HEAVY_ATOM_COUNT>
22

> <PUBCHEM_ATOM_DEF_STEREO_COUNT>
5

> <PUBCHEM_ATOM_UDEF_STEREO_COUNT>
0

> <PUBCHEM_BOND_DEF_STEREO_COUNT>
0

> <PUBCHEM_BOND_UDEF_STEREO_COUNT>
0

> <PUBCHEM_ISOTOPIC_ATOM_COUNT>
0

> <PUBCHEM_COMPONENT_COUNT>
1

> <PUBCHEM_CACTVS_TAUTO_COUNT>
1

> <PUBCHEM_CONFORMER_ID>
0001F1D800000001

> <PUBCHEM_MMFF94_ENERGY>
29.7264

> <PUBCHEM_FEATURE_SELFOVERLAP>
76.221

> <PUBCHEM_SHAPE_FINGERPRINT>
10299344 5 18202565086571731535
10411042 1 18194965128972642326
11719270 70 17489871519092550615
12107183 9 17837497349577062417
12236239 1 17917712426713898421
12616971 3 17846207857297386509
12730499 353 18260830414618001090
13073987 5 18341331115776049113
13167372 99 18202007586700129409
13533116 47 18413106160868043465
13617811 41 15791732984438881087
13685833 64 18333452028451969259
13785724 45 17696764259078880423
14170010 4 18334576866995715037
14251764 18 17988926682981072825
14933364 13 18334857208855329653
15419008 47 17603859019284440309
15483637 11 18120094137507943083
17844677 252 18410296870136706413
19427546 62 18191024710709702664
20157964 124 18410293640147031633
20645477 70 18411699851099709558
21150785 3 16153431653885105351
21267235 1 18343305830042641822
21315763 28 18413108360740774161
21344244 78 18129930201014837880
220451 1 18202280338539680943
221357 26 18333731290998458469
23081809 10 17917990586529588573
23559900 14 18261393390362435817
3014965 18 18409443657877183495
4073 2 18188493605030811419
42630746 31 18411134745299253626
4340502 62 18260544554126480818
46194498 28 17531249473960030684
465052 167 18343022159905542151
59755656 215 17167860842990001323
6025842 7 18409169935079123748

> <PUBCHEM_SHAPE_MULTIPOLES>
405.8
21.67
2.4
0.77
60.01
0.5
-0.04
4.21
1.21
-6.15
0.35
0.05
0.1
-0.17

> <PUBCHEM_SHAPE_SELFOVERLAP>
803.383

> <PUBCHEM_SHAPE_VOLUME>
237.9

> <PUBCHEM_COORDINATE_TYPE>
2
5
10

$$$$
