REMARK  Name = 127484
REMARK  4 active torsions:
REMARK  status: ('A' for Active; 'I' for Inactive)
REMARK    1  A    between atoms: C_20  and  O_26
REMARK    2  A    between atoms: C_21  and  O_28
REMARK    3  A    between atoms: C_23  and  C_31
REMARK    4  A    between atoms: C_31  and  O_32
REMARK                            x       y       z     vdW  Elec       q    Type
REMARK                         _______ _______ _______ _____ _____    ______ ____
ROOT
ATOM      1  O   UNL     1      -0.339  -0.001   2.092  0.00  0.00    -0.440 OA
ATOM      2  O   UNL     1       2.672   0.000  -0.655  0.00  0.00    -0.454 OA
ATOM      3  O   UNL     1      -2.314  -0.001   3.299  0.00  0.00    -0.245 OA
ATOM      4  C   UNL     1       0.079   0.000   0.691  0.00  0.00    +0.198 C 
ATOM      5  C   UNL     1       0.885   1.259   0.438  0.00  0.00    +0.056 C 
ATOM      6  C   UNL     1       0.885  -1.259   0.437  0.00  0.00    +0.056 C 
ATOM      7  C   UNL     1      -1.238   0.000  -0.015  0.00  0.00    +0.028 C 
ATOM      8  C   UNL     1       2.113   1.181  -0.230  0.00  0.00    +0.144 C 
ATOM      9  C   UNL     1       2.113  -1.181  -0.230  0.00  0.00    +0.144 C 
ATOM     10  C   UNL     1      -2.266  -0.001   0.910  0.00  0.00    +0.076 C 
ATOM     11  C   UNL     1      -1.701  -0.001   2.251  0.00  0.00    +0.342 C 
ATOM     12  C   UNL     1       0.419   2.526   0.830  0.00  0.00    +0.006 C 
ATOM     13  C   UNL     1       0.419  -2.526   0.829  0.00  0.00    +0.006 C 
ATOM     14  C   UNL     1      -1.523   0.001  -1.372  0.00  0.00    +0.000 C 
ATOM     15  C   UNL     1       2.851   2.336  -0.508  0.00  0.00    +0.046 C 
ATOM     16  C   UNL     1       2.852  -2.336  -0.509  0.00  0.00    +0.046 C 
ATOM     17  C   UNL     1      -3.600   0.000   0.547  0.00  0.00    +0.013 C 
ATOM     18  C   UNL     1       1.159   3.678   0.558  0.00  0.00    +0.036 C 
ATOM     19  C   UNL     1       1.159  -3.678   0.557  0.00  0.00    +0.036 C 
ATOM     20  C   UNL     1       2.374   3.583  -0.113  0.00  0.00    +0.133 C 
ATOM     21  C   UNL     1       2.375  -3.583  -0.113  0.00  0.00    +0.133 C 
ATOM     22  C   UNL     1      -2.863   0.001  -1.770  0.00  0.00    +0.006 C 
ATOM     23  C   UNL     1      -3.894   0.000  -0.817  0.00  0.00    +0.076 C 
ATOM     24  C   UNL     1       4.159   2.242  -1.229  0.00  0.00    +0.037 C 
ATOM     25  C   UNL     1       4.160  -2.241  -1.228  0.00  0.00    +0.037 C 
ENDROOT
BRANCH  20  26
ATOM     26  O   UNL     1       3.080   4.718  -0.373  0.00  0.00    -0.506 OA
ATOM     27  H   UNL     1       3.900   4.667  -0.824  0.00  0.00    +0.292 HD
ENDBRANCH  20  26
BRANCH  21  28
ATOM     28  O   UNL     1       3.082  -4.718  -0.374  0.00  0.00    -0.506 OA
ATOM     29  H   UNL     1       3.901  -4.666  -0.824  0.00  0.00    +0.292 HD
ENDBRANCH  21  28
BRANCH  23  31
ATOM     30  O   UNL     1      -5.659   0.001  -2.432  0.00  0.00    -0.245 OA
ATOM     31  C   UNL     1      -5.281   0.000  -1.256  0.00  0.00    +0.338 C 
BRANCH  31  32
ATOM     32  O   UNL     1      -6.157  -0.002  -0.214  0.00  0.00    -0.477 OA
ATOM     33  H   UNL     1      -5.837  -0.002   0.667  0.00  0.00    +0.295 HD
ENDBRANCH  31  32
ENDBRANCH  23  31
TORSDOF 4
