REMARK  Name = 127434
REMARK  14 active torsions:
REMARK  status: ('A' for Active; 'I' for Inactive)
REMARK    1  A    between atoms: N_2  and  C_5
REMARK    2  A    between atoms: C_3  and  C_23
REMARK    3  A    between atoms: C_5  and  C_6
REMARK    4  A    between atoms: C_6  and  C_7
REMARK    5  A    between atoms: C_7  and  C_10
REMARK    6  A    between atoms: N_9  and  CA_12
REMARK    7  A    between atoms: CA_12  and  CB_13
REMARK    8  A    between atoms: CA_12  and  C_20
REMARK    9  A    between atoms: CB_13  and  CG_14
REMARK   10  A    between atoms: C_20  and  O_21
REMARK   11  A    between atoms: C_23  and  N_24
REMARK   12  A    between atoms: C_23  and  C_28
REMARK   13  A    between atoms: C_28  and  C_29
REMARK   14  A    between atoms: C_34  and  O_35
REMARK                            x       y       z     vdW  Elec       q    Type
REMARK                         _______ _______ _______ _____ _____    ______ ____
ROOT
ATOM      1  O   UNL     1       4.046   1.335   1.059  0.00  0.00    -0.277 OA
ATOM      2  N   UNL     1       3.147   1.932  -0.990  0.00  0.00    -0.279 N 
ATOM      3  C   UNL     1       3.806   1.057  -0.121  0.00  0.00    +0.205 C 
ATOM      4  C   UNL     1       2.872   1.587  -2.381  0.00  0.00    +0.115 C 
ENDROOT
BRANCH   2   5
ATOM      5  C   UNL     1       2.691   3.250  -0.568  0.00  0.00    +0.094 C 
BRANCH   5   6
ATOM      6  C   UNL     1       1.180   3.418  -0.715  0.00  0.00    +0.031 C 
BRANCH   6   7
ATOM      7  C   UNL     1       0.365   2.395   0.080  0.00  0.00    +0.087 C 
BRANCH   7  10
ATOM      8  O   UNL     1      -1.653   3.506  -0.668  0.00  0.00    -0.275 OA
ATOM      9  N   UNL     1      -1.833   1.647   0.710  0.00  0.00    -0.303 N 
ATOM     10  C   ACE A   0      -1.138   2.596  -0.025  0.00  0.00    +0.223 C 
ATOM     11  H   UNL     1      -1.323   0.956   1.191  0.00  0.00    +0.149 HD
BRANCH   9  12
ATOM     12  CA  UNL     1      -3.275   1.629   0.798  0.00  0.00    +0.105 C 
BRANCH  12  13
ATOM     13  CB  UNL     1      -3.794   0.196   0.991  0.00  0.00    +0.048 C 
BRANCH  13  14
ATOM     14  CG  UNL     1      -3.782  -0.614  -0.284  0.00  0.00    -0.020 C 
ATOM     15  CD1 UNL     1      -4.899  -0.615  -1.120  0.00  0.00    -0.004 C 
ATOM     16  CD2 UNL     1      -2.655  -1.361  -0.626  0.00  0.00    -0.004 C 
ATOM     17  CE1 UNL     1      -4.889  -1.363  -2.297  0.00  0.00    -0.000 C 
ATOM     18  CE2 UNL     1      -2.644  -2.109  -1.804  0.00  0.00    -0.000 C 
ATOM     19  CZ  UNL     1      -3.762  -2.110  -2.639  0.00  0.00    -0.000 C 
ENDBRANCH  13  14
ENDBRANCH  12  13
BRANCH  12  20
ATOM     20  C   UNL     1      -3.733   2.526   1.950  0.00  0.00    +0.157 C 
BRANCH  20  21
ATOM     21  O   UNL     1      -3.257   1.995   3.181  0.00  0.00    -0.380 OA
ATOM     22  H   UNL     1      -3.546   2.563   3.912  0.00  0.00    +0.211 HD
ENDBRANCH  20  21
ENDBRANCH  12  20
ENDBRANCH   9  12
ENDBRANCH   7  10
ENDBRANCH   6   7
ENDBRANCH   5   6
ENDBRANCH   2   5
BRANCH   3  23
ATOM     23  C   UNL     1       4.222  -0.307  -0.683  0.00  0.00    +0.018 C 
BRANCH  23  24
ATOM     24  N   UNL     1       5.570  -0.123  -1.221  0.00  0.00    +0.388 N 
ATOM     25  H   UNL     1       5.551   0.592  -1.948  0.00  0.00    -0.089 HD
ATOM     26  H   UNL     1       5.901  -1.002  -1.618  0.00  0.00    -0.089 HD
ATOM     27  H   UNL     1       6.198   0.170  -0.473  0.00  0.00    -0.089 HD
ENDBRANCH  23  24
BRANCH  23  28
ATOM     28  C   UNL     1       4.268  -1.389   0.413  0.00  0.00    +0.013 C 
BRANCH  28  29
ATOM     29  C   UNL     1       2.911  -2.000   0.679  0.00  0.00    -0.024 C 
ATOM     30  C   UNL     1       2.071  -1.442   1.643  0.00  0.00    -0.001 C 
ATOM     31  C   UNL     1       2.500  -3.124  -0.038  0.00  0.00    -0.001 C 
ATOM     32  C   UNL     1       0.820  -2.008   1.889  0.00  0.00    +0.036 C 
ATOM     33  C   UNL     1       1.249  -3.689   0.208  0.00  0.00    +0.036 C 
ATOM     34  C   UNL     1       0.409  -3.131   1.171  0.00  0.00    +0.134 C 
BRANCH  34  35
ATOM     35  O   UNL     1      -0.812  -3.683   1.412  0.00  0.00    -0.506 OA
ATOM     36  H   UNL     1      -1.376  -3.308   2.059  0.00  0.00    +0.292 HD
ENDBRANCH  34  35
ENDBRANCH  28  29
ENDBRANCH  23  28
ENDBRANCH   3  23
TORSDOF 14
