REMARK  Name = 127425
REMARK  11 active torsions:
REMARK  status: ('A' for Active; 'I' for Inactive)
REMARK    1  A    between atoms: C_1  and  O_2
REMARK    2  A    between atoms: C_1  and  C_4
REMARK    3  A    between atoms: C_1  and  C_14
REMARK    4  A    between atoms: C_4  and  O_5
REMARK    5  A    between atoms: C_4  and  C_7
REMARK    6  A    between atoms: C_7  and  C_9
REMARK    7  A    between atoms: C_9  and  C_11
REMARK    8  A    between atoms: C_11  and  O_12
REMARK    9  A    between atoms: C_14  and  O_15
REMARK   10  A    between atoms: C_14  and  C_18
REMARK   11  A    between atoms: C_18  and  O_19
REMARK                            x       y       z     vdW  Elec       q    Type
REMARK                         _______ _______ _______ _____ _____    ______ ____
ROOT
ATOM      1  C   UNL     1       1.479   0.892   0.642  0.00  0.00    +0.175 C 
ENDROOT
BRANCH   1   2
ATOM      2  O   UNL     1       2.347   1.833  -0.007  0.00  0.00    -0.379 OA
ATOM      3  H   UNL     1       1.890   2.684  -0.099  0.00  0.00    +0.211 HD
ENDBRANCH   1   2
BRANCH   1   4
ATOM      4  C   UNL     1       0.164   0.878  -0.155  0.00  0.00    +0.148 C 
BRANCH   4   5
ATOM      5  O   UNL     1      -0.316   2.230  -0.217  0.00  0.00    -0.381 OA
ATOM      6  H   UNL     1       0.361   2.794  -0.622  0.00  0.00    +0.210 HD
ENDBRANCH   4   5
BRANCH   4   7
ATOM      7  C   UNL     1      -0.942   0.038   0.490  0.00  0.00    +0.108 C 
BRANCH   7   9
ATOM      8  O   UNL     1      -2.469   0.835  -1.246  0.00  0.00    -0.284 OA
ATOM      9  C   UNL     1      -2.259   0.161  -0.249  0.00  0.00    +0.250 C 
BRANCH   9  11
ATOM     10  O   UNL     1      -3.325  -1.264   1.332  0.00  0.00    -0.242 OA
ATOM     11  C   UNL     1      -3.421  -0.603   0.319  0.00  0.00    +0.373 C 
BRANCH  11  12
ATOM     12  O   UNL     1      -4.517  -0.383  -0.419  0.00  0.00    -0.475 OA
ATOM     13  H   UNL     1      -4.465   0.151  -1.187  0.00  0.00    +0.295 HD
ENDBRANCH  11  12
ENDBRANCH   9  11
ENDBRANCH   7   9
ENDBRANCH   4   7
ENDBRANCH   1   4
BRANCH   1  14
ATOM     14  C   UNL     1       2.215  -0.447   0.779  0.00  0.00    +0.239 C 
BRANCH  14  15
ATOM     15  O   UNL     1       3.467  -0.187   1.411  0.00  0.00    -0.373 OA
ATOM     16  H   UNL     1       3.315   0.239   2.269  0.00  0.00    +0.211 HD
ENDBRANCH  14  15
BRANCH  14  18
ATOM     17  O   UNL     1       3.486  -0.859  -1.259  0.00  0.00    -0.248 OA
ATOM     18  C   UNL     1       2.523  -1.109  -0.548  0.00  0.00    +0.344 C 
BRANCH  18  19
ATOM     19  O   UNL     1       1.568  -2.015  -0.874  0.00  0.00    -0.478 OA
ATOM     20  H   UNL     1       0.850  -2.168  -0.292  0.00  0.00    +0.295 HD
ENDBRANCH  18  19
ENDBRANCH  14  18
ENDBRANCH   1  14
TORSDOF 11
