REMARK  Name = 127498
REMARK  5 active torsions:
REMARK  status: ('A' for Active; 'I' for Inactive)
REMARK    1  A    between atoms: C_8  and  O_19
REMARK    2  A    between atoms: C_10  and  O_21
REMARK    3  A    between atoms: O_21  and  P_22
REMARK    4  A    between atoms: P_22  and  O_24
REMARK    5  A    between atoms: P_22  and  O_26
REMARK                            x       y       z     vdW  Elec       q    Type
REMARK                         _______ _______ _______ _____ _____    ______ ____
ROOT
ATOM      1  O   UNL     1       0.895   1.892   1.372  0.00  0.00    -0.334 OA
ATOM      2  N   UNL     1      -0.894   0.813   0.348  0.00  0.00    -0.224 N 
ATOM      3  N   UNL     1      -1.040  -1.405   0.236  0.00  0.00    -0.383 NA
ATOM      4  N   UNL     1      -3.216   1.422  -0.038  0.00  0.00    -0.227 NA
ATOM      5  N   UNL     1      -4.597  -0.566  -0.349  0.00  0.00    -0.227 NA
ATOM      6  C   UNL     1       1.813   1.054   0.626  0.00  0.00    +0.180 C 
ATOM      7  C   UNL     1      -0.205   2.087   0.457  0.00  0.00    +0.201 C 
ATOM      8  C   UNL     1       1.807   1.683  -0.775  0.00  0.00    +0.145 C 
ATOM      9  C   UNL     1       0.488   2.454  -0.847  0.00  0.00    +0.083 C 
ATOM     10  C   UNL     1       1.245  -0.382   0.697  0.00  0.00    +0.222 C 
ATOM     11  C   UNL     1      -0.220  -0.387   0.407  0.00  0.00    +0.197 C 
ATOM     12  C   UNL     1      -2.206   0.552   0.110  0.00  0.00    +0.169 C 
ATOM     13  C   UNL     1      -2.277  -0.834   0.045  0.00  0.00    +0.195 C 
ATOM     14  C   UNL     1      -3.532  -1.387  -0.193  0.00  0.00    +0.155 C 
ATOM     15  C   UNL     1      -4.376   0.768  -0.264  0.00  0.00    +0.253 C 
ATOM     16  N   UNL     1      -3.697  -2.781  -0.274  0.00  0.00    -0.341 N 
ATOM     17  H   UNL     1      -4.589  -3.162  -0.443  0.00  0.00    +0.144 HD
ATOM     18  H   UNL     1      -2.921  -3.376  -0.161  0.00  0.00    +0.144 HD
ENDROOT
BRANCH   8  19
ATOM     19  O   UNL     1       2.893   2.599  -0.894  0.00  0.00    -0.382 OA
ATOM     20  H   UNL     1       3.731   2.114  -0.849  0.00  0.00    +0.210 HD
ENDBRANCH   8  19
BRANCH  10  21
ATOM     21  O   UNL     1       1.878  -1.241  -0.236  0.00  0.00    -0.265 OA
BRANCH  21  22
ATOM     22  P   UNL     1       3.484  -1.424  -0.150  0.00  0.00    +0.474 P 
ATOM     23  O   UNL     1       4.276  -0.161  -0.326  0.00  0.00    -0.227 OA
BRANCH  22  24
ATOM     24  O   UNL     1       3.795  -2.591  -1.225  0.00  0.00    -0.303 OA
ATOM     25  H   UNL     1       3.241  -3.363  -1.034  0.00  0.00    +0.222 HD
ENDBRANCH  22  24
BRANCH  22  26
ATOM     26  O   UNL     1       3.688  -2.165   1.273  0.00  0.00    -0.303 OA
ATOM     27  H   UNL     1       3.143  -2.967   1.301  0.00  0.00    +0.222 HD
ENDBRANCH  22  26
ENDBRANCH  21  22
ENDBRANCH  10  21
TORSDOF 5
