REMARK  Name = 127448
REMARK  13 active torsions:
REMARK  status: ('A' for Active; 'I' for Inactive)
REMARK    1  A    between atoms: C_2  and  O_7
REMARK    2  A    between atoms: C_3  and  O_9
REMARK    3  A    between atoms: C_4  and  O_11
REMARK    4  A    between atoms: C_5  and  O_17
REMARK    5  A    between atoms: C_6  and  C_14
REMARK    6  A    between atoms: C_14  and  O_15
REMARK    7  A    between atoms: O_17  and  C_19
REMARK    8  A    between atoms: C_19  and  C_20
REMARK    9  A    between atoms: C_20  and  C_21
REMARK   10  A    between atoms: C_21  and  C_22
REMARK   11  A    between atoms: C_22  and  C_23
REMARK   12  A    between atoms: C_23  and  C_24
REMARK   13  A    between atoms: C_24  and  C_25
REMARK                            x       y       z     vdW  Elec       q    Type
REMARK                         _______ _______ _______ _____ _____    ______ ____
ROOT
ATOM      1  O   UNL     1       2.077  -0.646   0.214  0.00  0.00    -0.307 OA
ATOM      2  C   UNL     1       3.939   1.514  -0.132  0.00  0.00    +0.173 C 
ATOM      3  C   UNL     1       2.491   1.743   0.299  0.00  0.00    +0.211 C 
ATOM      4  C   UNL     1       4.394   0.087   0.174  0.00  0.00    +0.178 C 
ATOM      5  C   UNL     1       1.580   0.623  -0.203  0.00  0.00    +0.321 C 
ATOM      6  C   UNL     1       3.366  -0.925  -0.318  0.00  0.00    +0.246 C 
ENDROOT
BRANCH   2   7
ATOM      7  O   UNL     1       4.796   2.412   0.576  0.00  0.00    -0.379 OA
ATOM      8  H   UNL     1       4.526   3.326   0.396  0.00  0.00    +0.211 HD
ENDBRANCH   2   7
BRANCH   3   9
ATOM      9  O   UNL     1       2.025   2.978  -0.245  0.00  0.00    -0.377 OA
ATOM     10  H   UNL     1       2.592   3.702   0.064  0.00  0.00    +0.211 HD
ENDBRANCH   3   9
BRANCH   4  11
ATOM     11  O   UNL     1       5.633  -0.161  -0.487  0.00  0.00    -0.379 OA
ATOM     12  H   UNL     1       6.296   0.478  -0.181  0.00  0.00    +0.211 HD
ENDBRANCH   4  11
BRANCH   6  14
ATOM     13  O   UNL     1       2.946  -2.928   0.960  0.00  0.00    -0.247 OA
ATOM     14  C   UNL     1       3.667  -2.291   0.206  0.00  0.00    +0.344 C 
BRANCH  14  15
ATOM     15  O   UNL     1       4.856  -2.735  -0.269  0.00  0.00    -0.478 OA
ATOM     16  H   UNL     1       5.361  -2.197  -0.845  0.00  0.00    +0.295 HD
ENDBRANCH  14  15
ENDBRANCH   6  14
BRANCH   5  17
ATOM     17  O   UNL     1       0.279   0.835   0.344  0.00  0.00    -0.422 OA
BRANCH  17  19
ATOM     18  O   UNL     1      -0.634  -0.494  -1.306  0.00  0.00    -0.250 OA
ATOM     19  C   UNL     1      -0.744   0.212  -0.313  0.00  0.00    +0.319 C 
BRANCH  19  20
ATOM     20  C   UNL     1      -2.050   0.563   0.366  0.00  0.00    +0.110 C 
BRANCH  20  21
ATOM     21  C   UNL     1      -3.268  -0.067  -0.308  0.00  0.00    +0.012 C 
BRANCH  21  22
ATOM     22  C   UNL     1      -4.585   0.357   0.349  0.00  0.00    +0.001 C 
BRANCH  22  23
ATOM     23  C   UNL     1      -5.783  -0.311  -0.329  0.00  0.00    +0.000 C 
BRANCH  23  24
ATOM     24  C   UNL     1      -7.097   0.085   0.347  0.00  0.00    +0.000 C 
BRANCH  24  25
ATOM     25  C   UNL     1      -8.291  -0.608  -0.309  0.00  0.00    +0.000 C 
ATOM     26  C   UNL     1      -9.595  -0.244   0.382  0.00  0.00    +0.000 C 
ENDBRANCH  24  25
ENDBRANCH  23  24
ENDBRANCH  22  23
ENDBRANCH  21  22
ENDBRANCH  20  21
ENDBRANCH  19  20
ENDBRANCH  17  19
ENDBRANCH   5  17
TORSDOF 13
