REMARK  Name = 127447
REMARK  3 active torsions:
REMARK  status: ('A' for Active; 'I' for Inactive)
REMARK    1  A    between atoms: C_8  and  O_19
REMARK    2  A    between atoms: C_10  and  C_21
REMARK    3  A    between atoms: C_21  and  O_22
REMARK                            x       y       z     vdW  Elec       q    Type
REMARK                         _______ _______ _______ _____ _____    ______ ____
ROOT
ATOM      1  O   UNL     1      -1.722  -1.014   0.665  0.00  0.00    -0.335 OA
ATOM      2  N   UNL     1       0.199   0.341   0.633  0.00  0.00    -0.226 N 
ATOM      3  N   UNL     1       1.585   1.735  -0.397  0.00  0.00    -0.385 NA
ATOM      4  N   UNL     1       1.564  -1.654   0.804  0.00  0.00    -0.227 NA
ATOM      5  N   UNL     1       3.759  -1.266  -0.193  0.00  0.00    -0.227 NA
ATOM      6  C   UNL     1      -1.881   1.391   0.719  0.00  0.00    +0.085 C 
ATOM      7  C   UNL     1      -1.112   0.150   1.218  0.00  0.00    +0.201 C 
ATOM      8  C   UNL     1      -2.677   0.827  -0.451  0.00  0.00    +0.145 C 
ATOM      9  C   UNL     1      -0.809   2.437   0.301  0.00  0.00    +0.082 C 
ATOM     10  C   UNL     1      -2.924  -0.606  -0.005  0.00  0.00    +0.173 C 
ATOM     11  C   UNL     1       0.391   1.592   0.122  0.00  0.00    +0.167 C 
ATOM     12  C   UNL     1       1.317  -0.385   0.454  0.00  0.00    +0.169 C 
ATOM     13  C   UNL     1       2.180   0.499  -0.196  0.00  0.00    +0.195 C 
ATOM     14  C   UNL     1       3.442   0.011  -0.519  0.00  0.00    +0.155 C 
ATOM     15  C   UNL     1       2.816  -2.007   0.438  0.00  0.00    +0.253 C 
ATOM     16  N   UNL     1       4.380   0.826  -1.175  0.00  0.00    -0.341 N 
ATOM     17  H   UNL     1       5.271   0.470  -1.398  0.00  0.00    +0.144 HD
ATOM     18  H   UNL     1       4.148   1.753  -1.410  0.00  0.00    +0.144 HD
ENDROOT
BRANCH   8  19
ATOM     19  O   UNL     1      -3.883   1.542  -0.635  0.00  0.00    -0.382 OA
ATOM     20  H   UNL     1      -3.682   2.448  -0.918  0.00  0.00    +0.210 HD
ENDBRANCH   8  19
BRANCH  10  21
ATOM     21  C   UNL     1      -3.211  -1.557  -1.154  0.00  0.00    +0.169 C 
BRANCH  21  22
ATOM     22  O   UNL     1      -3.415  -2.859  -0.631  0.00  0.00    -0.379 OA
ATOM     23  H   UNL     1      -3.599  -3.474  -1.358  0.00  0.00    +0.211 HD
ENDBRANCH  21  22
ENDBRANCH  10  21
TORSDOF 3
