REMARK  Name = 127446
REMARK  3 active torsions:
REMARK  status: ('A' for Active; 'I' for Inactive)
REMARK    1  A    between atoms: C_8  and  O_20
REMARK    2  A    between atoms: C_10  and  C_22
REMARK    3  A    between atoms: C_22  and  O_23
REMARK                            x       y       z     vdW  Elec       q    Type
REMARK                         _______ _______ _______ _____ _____    ______ ____
ROOT
ATOM      1  O   UNL     1      -1.474  -1.183   0.598  0.00  0.00    -0.335 OA
ATOM      2  N   UNL     1       0.217   0.423   0.444  0.00  0.00    -0.226 N 
ATOM      3  N   UNL     1       1.703   1.636  -0.685  0.00  0.00    -0.385 NA
ATOM      4  N   UNL     1       1.595  -1.509   1.000  0.00  0.00    -0.227 NA
ATOM      5  N   UNL     1       3.849  -1.272   0.098  0.00  0.00    -0.227 NA
ATOM      6  C   UNL     1      -2.163   1.087   0.856  0.00  0.00    +0.077 C 
ATOM      7  C   UNL     1      -1.031   0.088   1.106  0.00  0.00    +0.201 C 
ATOM      8  C   UNL     1      -2.881   0.466  -0.333  0.00  0.00    +0.144 C 
ATOM      9  C   UNL     1      -1.677   2.524   0.655  0.00  0.00    +0.016 C 
ATOM     10  C   UNL     1      -2.765  -1.014  -0.006  0.00  0.00    +0.173 C 
ATOM     11  C   UNL     1      -0.583   2.637  -0.408  0.00  0.00    +0.075 C 
ATOM     12  C   UNL     1       0.465   1.597  -0.230  0.00  0.00    +0.167 C 
ATOM     13  C   UNL     1       1.371  -0.309   0.441  0.00  0.00    +0.169 C 
ATOM     14  C   UNL     1       2.277   0.460  -0.272  0.00  0.00    +0.195 C 
ATOM     15  C   UNL     1       3.556  -0.063  -0.437  0.00  0.00    +0.155 C 
ATOM     16  C   UNL     1       2.865  -1.910   0.775  0.00  0.00    +0.253 C 
ATOM     17  N   UNL     1       4.537   0.651  -1.148  0.00  0.00    -0.341 N 
ATOM     18  H   UNL     1       5.438   0.271  -1.258  0.00  0.00    +0.144 HD
ATOM     19  H   UNL     1       4.322   1.530  -1.534  0.00  0.00    +0.144 HD
ENDROOT
BRANCH   8  20
ATOM     20  O   UNL     1      -4.235   0.864  -0.412  0.00  0.00    -0.382 OA
ATOM     21  H   UNL     1      -4.282   1.810  -0.621  0.00  0.00    +0.210 HD
ENDBRANCH   8  20
BRANCH  10  22
ATOM     22  C   UNL     1      -2.879  -1.911  -1.226  0.00  0.00    +0.169 C 
BRANCH  22  23
ATOM     23  O   UNL     1      -2.747  -3.262  -0.815  0.00  0.00    -0.379 OA
ATOM     24  H   UNL     1      -2.819  -3.843  -1.588  0.00  0.00    +0.211 HD
ENDBRANCH  22  23
ENDBRANCH  10  22
TORSDOF 3
