REMARK  Name = 127569
REMARK  13 active torsions:
REMARK  status: ('A' for Active; 'I' for Inactive)
REMARK    1  A    between atoms: C_3  and  O_12
REMARK    2  A    between atoms: C_4  and  C_28
REMARK    3  A    between atoms: O_12  and  C_18
REMARK    4  A    between atoms: C_14  and  O_19
REMARK    5  A    between atoms: C_15  and  O_21
REMARK    6  A    between atoms: C_16  and  O_23
REMARK    7  A    between atoms: C_17  and  C_25
REMARK    8  A    between atoms: C_25  and  O_26
REMARK    9  A    between atoms: C_28  and  C_29
REMARK   10  A    between atoms: C_29  and  C_30
REMARK   11  A    between atoms: C_30  and  C_31
REMARK   12  A    between atoms: C_31  and  C_32
REMARK   13  A    between atoms: C_32  and  C_33
REMARK                            x       y       z     vdW  Elec       q    Type
REMARK                         _______ _______ _______ _____ _____    ______ ____
ROOT
ATOM      1  O   UNL     1      -0.579  -3.628  -0.931  0.00  0.00    -0.421 OA
ATOM      2  O   UNL     1      -2.204  -4.885  -1.935  0.00  0.00    -0.244 OA
ATOM      3  C   UNL     1       1.514  -1.276   0.948  0.00  0.00    +0.144 C 
ATOM      4  C   UNL     1      -2.639  -2.110   0.276  0.00  0.00    -0.013 C 
ATOM      5  C   UNL     1      -1.230  -1.786   0.536  0.00  0.00    +0.031 C 
ATOM      6  C   UNL     1       1.120  -2.318   0.116  0.00  0.00    +0.075 C 
ATOM      7  C   UNL     1      -0.242  -2.558  -0.078  0.00  0.00    +0.151 C 
ATOM      8  C   UNL     1       0.549  -0.488   1.575  0.00  0.00    +0.037 C 
ATOM      9  C   UNL     1      -0.812  -0.740   1.371  0.00  0.00    +0.006 C 
ATOM     10  C   UNL     1      -2.930  -3.132  -0.540  0.00  0.00    +0.078 C 
ATOM     11  C   UNL     1      -1.900  -3.956  -1.195  0.00  0.00    +0.346 C 
ENDROOT
BRANCH   3  12
ATOM     12  O   UNL     1       2.835  -1.025   1.150  0.00  0.00    -0.450 OA
BRANCH  12  18
ATOM     13  O   UNL     1       3.096   0.470  -0.622  0.00  0.00    -0.316 OA
ATOM     14  C   UNL     1       5.442   1.614   0.577  0.00  0.00    +0.173 C 
ATOM     15  C   UNL     1       5.050   1.882  -0.876  0.00  0.00    +0.169 C 
ATOM     16  C   UNL     1       4.812   0.319   1.090  0.00  0.00    +0.210 C 
ATOM     17  C   UNL     1       3.536   1.756  -1.062  0.00  0.00    +0.177 C 
ATOM     18  C   UNL     1       3.318   0.264   0.771  0.00  0.00    +0.318 C 
BRANCH  14  19
ATOM     19  O   UNL     1       6.866   1.506   0.638  0.00  0.00    -0.379 OA
ATOM     20  H   UNL     1       7.266   2.328   0.312  0.00  0.00    +0.211 HD
ENDBRANCH  14  19
BRANCH  15  21
ATOM     21  O   UNL     1       5.462   3.197  -1.240  0.00  0.00    -0.379 OA
ATOM     22  H   UNL     1       6.421   3.280  -1.123  0.00  0.00    +0.211 HD
ENDBRANCH  15  21
BRANCH  16  23
ATOM     23  O   UNL     1       4.970   0.244   2.507  0.00  0.00    -0.377 OA
ATOM     24  H   UNL     1       5.913   0.278   2.730  0.00  0.00    +0.211 HD
ENDBRANCH  16  23
BRANCH  17  25
ATOM     25  C   UNL     1       3.133   1.904  -2.525  0.00  0.00    +0.169 C 
BRANCH  25  26
ATOM     26  O   UNL     1       1.727   1.766  -2.622  0.00  0.00    -0.379 OA
ATOM     27  H   UNL     1       1.456   1.859  -3.548  0.00  0.00    +0.211 HD
ENDBRANCH  25  26
ENDBRANCH  17  25
ENDBRANCH  12  18
ENDBRANCH   3  12
BRANCH   4  28
ATOM     28  C   UNL     1      -3.718  -1.303   0.917  0.00  0.00    +0.027 C 
BRANCH  28  29
ATOM     29  C   UNL     1      -4.159  -0.097   0.083  0.00  0.00    +0.005 C 
BRANCH  29  30
ATOM     30  C   UNL     1      -5.225   0.796   0.730  0.00  0.00    +0.000 C 
BRANCH  30  31
ATOM     31  C   UNL     1      -5.647   1.974  -0.151  0.00  0.00    +0.000 C 
BRANCH  31  32
ATOM     32  C   UNL     1      -6.733   2.812   0.529  0.00  0.00    +0.000 C 
BRANCH  32  33
ATOM     33  C   UNL     1      -7.179   3.971  -0.362  0.00  0.00    +0.000 C 
ATOM     34  C   UNL     1      -8.234   4.825   0.323  0.00  0.00    +0.000 C 
ENDBRANCH  32  33
ENDBRANCH  31  32
ENDBRANCH  30  31
ENDBRANCH  29  30
ENDBRANCH  28  29
ENDBRANCH   4  28
TORSDOF 13
