REMARK  Name = 127582
REMARK  11 active torsions:
REMARK  status: ('A' for Active; 'I' for Inactive)
REMARK    1  A    between atoms: C_6  and  S_15
REMARK    2  A    between atoms: S_15  and  S_16
REMARK    3  A    between atoms: S_16  and  C_17
REMARK    4  A    between atoms: C_17  and  C_18
REMARK    5  A    between atoms: C_18  and  C_19
REMARK    6  A    between atoms: C_19  and  C_20
REMARK    7  A    between atoms: C_20  and  C_21
REMARK    8  A    between atoms: C_21  and  C_22
REMARK    9  A    between atoms: C_22  and  C_23
REMARK   10  A    between atoms: C_23  and  C_24
REMARK   11  A    between atoms: C_24  and  C_25
REMARK                            x       y       z     vdW  Elec       q    Type
REMARK                         _______ _______ _______ _____ _____    ______ ____
ROOT
ATOM      1  N   UNL     1       1.184   1.894  -2.083  0.00  0.00    -0.269 NA
ATOM      2  N   UNL     1       2.526   0.836   1.174  0.00  0.00    -0.324 NA
ATOM      3  N   UNL     1      -0.385   2.871  -0.838  0.00  0.00    -0.296 N 
ATOM      4  N   UNL     1       0.493   2.178   1.321  0.00  0.00    -0.316 NA
ATOM      5  N   UNL     1       1.560   1.371   3.240  0.00  0.00    -0.283 N 
ATOM      6  C   UNL     1       2.527   0.905  -0.176  0.00  0.00    +0.180 C 
ATOM      7  C   UNL     1       1.510   1.611  -0.787  0.00  0.00    +0.185 C 
ATOM      8  C   UNL     1       0.521   2.229  -0.033  0.00  0.00    +0.193 C 
ATOM      9  C   UNL     1       0.043   2.651  -2.063  0.00  0.00    +0.164 C 
ATOM     10  C   UNL     1       1.523   1.468   1.830  0.00  0.00    +0.197 C 
ATOM     11  H   UNL     1       1.679   1.607  -2.884  0.00  0.00    +0.126 HD
ATOM     12  H   UNL     1      -1.179   3.384  -0.561  0.00  0.00    +0.150 HD
ATOM     13  H   UNL     1       2.284   0.869   3.680  0.00  0.00    +0.156 HD
ATOM     14  H   UNL     1       0.863   1.806   3.782  0.00  0.00    +0.156 HD
ENDROOT
BRANCH   6  15
ATOM     15  S   UNL     1       3.816   0.097  -1.107  0.00  0.00    -0.025 S 
BRANCH  15  16
ATOM     16  S   UNL     1       4.290  -1.489   0.112  0.00  0.00    -0.076 S 
BRANCH  16  17
ATOM     17  C   UNL     1       3.154  -2.768  -0.495  0.00  0.00    +0.069 C 
BRANCH  17  18
ATOM     18  C   UNL     1       1.757  -2.562   0.086  0.00  0.00    +0.013 C 
BRANCH  18  19
ATOM     19  C   UNL     1       0.793  -3.640  -0.419  0.00  0.00    +0.001 C 
BRANCH  19  20
ATOM     20  C   UNL     1      -0.637  -3.472   0.102  0.00  0.00    +0.000 C 
BRANCH  20  21
ATOM     21  C   UNL     1      -1.269  -2.131  -0.278  0.00  0.00    +0.000 C 
BRANCH  21  22
ATOM     22  C   UNL     1      -2.719  -2.047   0.204  0.00  0.00    +0.000 C 
BRANCH  22  23
ATOM     23  C   UNL     1      -3.366  -0.722  -0.206  0.00  0.00    +0.000 C 
BRANCH  23  24
ATOM     24  C   UNL     1      -4.826  -0.654   0.249  0.00  0.00    +0.000 C 
BRANCH  24  25
ATOM     25  C   UNL     1      -5.513   0.665  -0.111  0.00  0.00    +0.000 C 
ATOM     26  C   UNL     1      -6.983   0.710   0.276  0.00  0.00    +0.000 C 
ENDBRANCH  24  25
ENDBRANCH  23  24
ENDBRANCH  22  23
ENDBRANCH  21  22
ENDBRANCH  20  21
ENDBRANCH  19  20
ENDBRANCH  18  19
ENDBRANCH  17  18
ENDBRANCH  16  17
ENDBRANCH  15  16
ENDBRANCH   6  15
TORSDOF 11
