REMARK  Name = 127532
REMARK  5 active torsions:
REMARK  status: ('A' for Active; 'I' for Inactive)
REMARK    1  A    between atoms: O_1  and  N_4
REMARK    2  A    between atoms: O_1  and  C_10
REMARK    3  A    between atoms: C_10  and  C_11
REMARK    4  A    between atoms: C_11  and  S_12
REMARK    5  A    between atoms: S_12  and  C_14
REMARK                            x       y       z     vdW  Elec       q    Type
REMARK                         _______ _______ _______ _____ _____    ______ ____
ROOT
ATOM      1  O   UNL     1       0.584  -0.044   0.809  0.00  0.00    -0.335 OA
ENDROOT
BRANCH   1   4
ATOM      2  O   UNL     1       2.169   2.290   0.387  0.00  0.00    -0.267 OA
ATOM      3  O   UNL     1       2.224  -2.317   0.273  0.00  0.00    -0.267 OA
ATOM      4  N   UNL     1       1.885  -0.018   0.348  0.00  0.00    -0.054 N 
ATOM      5  C   UNL     1       3.912   0.789  -0.367  0.00  0.00    +0.066 C 
ATOM      6  C   UNL     1       3.930  -0.740  -0.405  0.00  0.00    +0.066 C 
ATOM      7  C   UNL     1       2.555   1.151   0.173  0.00  0.00    +0.287 C 
ATOM      8  C   UNL     1       2.583  -1.161   0.116  0.00  0.00    +0.287 C 
ENDBRANCH   1   4
BRANCH   1  10
ATOM      9  O   UNL     1      -0.083   0.076  -1.394  0.00  0.00    -0.247 OA
ATOM     10  C   UNL     1      -0.354   0.010  -0.203  0.00  0.00    +0.352 C 
BRANCH  10  11
ATOM     11  C   UNL     1      -1.739  -0.024   0.395  0.00  0.00    +0.176 C 
BRANCH  11  12
ATOM     12  S   UNL     1      -3.013   0.045  -0.886  0.00  0.00    -0.065 S 
BRANCH  12  14
ATOM     13  O   UNL     1      -4.444  -0.079   1.331  0.00  0.00    -0.284 OA
ATOM     14  C   UNL     1      -4.468  -0.011   0.108  0.00  0.00    +0.200 C 
ATOM     15  C   UNL     1      -5.742   0.031  -0.686  0.00  0.00    +0.085 C 
ENDBRANCH  12  14
ENDBRANCH  11  12
ENDBRANCH  10  11
ENDBRANCH   1  10
TORSDOF 5
