REMARK  Name = 127554
REMARK  5 active torsions:
REMARK  status: ('A' for Active; 'I' for Inactive)
REMARK    1  A    between atoms: C_9  and  O_25
REMARK    2  A    between atoms: C_15  and  O_27
REMARK    3  A    between atoms: C_16  and  O_29
REMARK    4  A    between atoms: C_18  and  O_31
REMARK    5  A    between atoms: O_31  and  C_33
REMARK                            x       y       z     vdW  Elec       q    Type
REMARK                         _______ _______ _______ _____ _____    ______ ____
ROOT
ATOM      1  O   UNL     1       0.091   2.314  -1.671  0.00  0.00    -0.332 OA
ATOM      2  O   UNL     1      -1.175  -1.976   0.223  0.00  0.00    -0.450 OA
ATOM      3  O   UNL     1       3.918   0.197   2.128  0.00  0.00    -0.294 OA
ATOM      4  O   UNL     1      -3.031  -2.343   1.471  0.00  0.00    -0.246 OA
ATOM      5  C   UNL     1      -0.434   0.258  -0.551  0.00  0.00    +0.073 C 
ATOM      6  C   UNL     1       1.017   0.681  -0.220  0.00  0.00    +0.062 C 
ATOM      7  C   UNL     1       2.170  -0.107  -0.950  0.00  0.00    +0.036 C 
ATOM      8  C   UNL     1      -1.290   0.676   0.700  0.00  0.00    +0.060 C 
ATOM      9  C   UNL     1       0.855   2.204  -0.458  0.00  0.00    +0.209 C 
ATOM     10  C   UNL     1      -0.703  -1.212  -0.908  0.00  0.00    +0.171 C 
ATOM     11  C   UNL     1       1.845  -1.650  -0.876  0.00  0.00    +0.007 C 
ATOM     12  C   UNL     1      -0.733   1.146  -1.778  0.00  0.00    +0.148 C 
ATOM     13  C   UNL     1      -1.392   2.220   0.830  0.00  0.00    +0.036 C 
ATOM     14  C   UNL     1       0.483  -1.943  -1.540  0.00  0.00    +0.044 C 
ATOM     15  C   UNL     1       0.019   2.854   0.681  0.00  0.00    +0.161 C 
ATOM     16  C   UNL     1       3.537   0.161  -0.239  0.00  0.00    +0.167 C 
ATOM     17  C   UNL     1       1.939  -2.228   0.575  0.00  0.00    +0.008 C 
ATOM     18  C   UNL     1      -2.619  -0.088   0.733  0.00  0.00    +0.266 C 
ATOM     19  C   UNL     1       2.368   0.310  -2.431  0.00  0.00    +0.003 C 
ATOM     20  C   UNL     1       3.294  -1.928   1.220  0.00  0.00    +0.067 C 
ATOM     21  C   UNL     1       3.594  -0.456   1.138  0.00  0.00    +0.177 C 
ATOM     22  C   UNL     1      -2.064   2.656   2.136  0.00  0.00    +0.003 C 
ATOM     23  C   UNL     1      -2.317  -1.569   0.842  0.00  0.00    +0.358 C 
ATOM     24  C   UNL     1       1.711  -3.744   0.626  0.00  0.00    +0.000 C 
ENDROOT
BRANCH   9  25
ATOM     25  O   UNL     1       2.099   2.873  -0.573  0.00  0.00    -0.362 OA
ATOM     26  H   UNL     1       2.619   2.467  -1.283  0.00  0.00    +0.213 HD
ENDBRANCH   9  25
BRANCH  15  27
ATOM     27  O   UNL     1       0.735   2.734   1.912  0.00  0.00    -0.380 OA
ATOM     28  H   UNL     1       1.615   3.131   1.815  0.00  0.00    +0.211 HD
ENDBRANCH  15  27
BRANCH  16  29
ATOM     29  O   UNL     1       4.617  -0.439  -0.950  0.00  0.00    -0.377 OA
ATOM     30  H   UNL     1       4.645  -0.088  -1.853  0.00  0.00    +0.211 HD
ENDBRANCH  16  29
BRANCH  18  31
ATOM     31  O   UNL     1      -3.421   0.165  -0.396  0.00  0.00    -0.441 OA
BRANCH  31  33
ATOM     32  O   UNL     1      -5.083  -1.208   0.434  0.00  0.00    -0.250 OA
ATOM     33  C   UNL     1      -4.645  -0.460  -0.429  0.00  0.00    +0.318 C 
ATOM     34  C   UNL     1      -5.386  -0.100  -1.682  0.00  0.00    +0.121 C 
ENDBRANCH  31  33
ENDBRANCH  18  31
TORSDOF 5
