REMARK  Name = 127549
REMARK  8 active torsions:
REMARK  status: ('A' for Active; 'I' for Inactive)
REMARK    1  A    between atoms: S_1  and  C_2
REMARK    2  A    between atoms: S_1  and  C_12
REMARK    3  A    between atoms: C_5  and  O_8
REMARK    4  A    between atoms: C_7  and  O_10
REMARK    5  A    between atoms: C_12  and  C_13
REMARK    6  A    between atoms: C_13  and  N_14
REMARK    7  A    between atoms: C_13  and  C_19
REMARK    8  A    between atoms: C_19  and  O_20
REMARK                            x       y       z     vdW  Elec       q    Type
REMARK                         _______ _______ _______ _____ _____    ______ ____
ROOT
ATOM      1  S   UNK     1       0.835   0.844   0.573  0.00  0.00    -0.115 S 
ENDROOT
BRANCH   1   2
ATOM      2  C   UNK     1      -0.844   0.272   0.345  0.00  0.00    +0.028 C 
ATOM      3  C   UNK     1      -1.862   1.192   0.112  0.00  0.00    +0.046 C 
ATOM      4  C   UNK     1      -1.124  -1.090   0.405  0.00  0.00    +0.009 C 
ATOM      5  C   UNK     1      -3.172   0.746  -0.065  0.00  0.00    +0.168 C 
ATOM      6  C   UNK     1      -2.434  -1.536   0.228  0.00  0.00    +0.040 C 
ATOM      7  C   UNK     1      -3.458  -0.618  -0.007  0.00  0.00    +0.168 C 
BRANCH   5   8
ATOM      8  O   UNK     1      -4.163   1.652  -0.292  0.00  0.00    -0.503 OA
ATOM      9  H   UNK     1      -3.963   2.566  -0.330  0.00  0.00    +0.292 HD
ENDBRANCH   5   8
BRANCH   7  10
ATOM     10  O   UNK     1      -4.733  -1.066  -0.176  0.00  0.00    -0.503 OA
ATOM     11  H   UNK     1      -5.427  -0.456  -0.335  0.00  0.00    +0.292 HD
ENDBRANCH   7  10
ENDBRANCH   1   2
BRANCH   1  12
ATOM     12  C   UNK     1       1.687  -0.003  -0.797  0.00  0.00    +0.051 C 
BRANCH  12  13
ATOM     13  C   UNK     1       3.180   0.325  -0.831  0.00  0.00    +0.047 C 
BRANCH  13  14
ATOM     14  N   UNK     1       3.826  -0.396  -1.930  0.00  0.00    +0.389 N 
ATOM     15  H   UNK     1       3.374  -0.150  -2.810  0.00  0.00    -0.088 HD
ATOM     16  H   UNK     1       3.743  -1.400  -1.774  0.00  0.00    -0.088 HD
ATOM     17  H   UNK     1       4.813  -0.139  -1.971  0.00  0.00    -0.088 HD
ENDBRANCH  13  14
BRANCH  13  19
ATOM     18  O   UNK     1       3.884  -1.214   0.897  0.00  0.00    -0.253 OA
ATOM     19  C   UNK     1       3.886  -0.072   0.453  0.00  0.00    +0.294 C 
BRANCH  19  20
ATOM     20  O   UNK     1       4.493   0.963   1.086  0.00  0.00    -0.482 OA
ATOM     21  H   UNK     1       4.470   1.821   0.710  0.00  0.00    +0.295 HD
ENDBRANCH  19  20
ENDBRANCH  13  19
ENDBRANCH  12  13
ENDBRANCH   1  12
TORSDOF 8
