REMARK  Name = 127570
REMARK  15 active torsions:
REMARK  status: ('A' for Active; 'I' for Inactive)
REMARK    1  A    between atoms: C_3  and  O_12
REMARK    2  A    between atoms: C_4  and  C_28
REMARK    3  A    between atoms: O_12  and  C_18
REMARK    4  A    between atoms: C_14  and  O_19
REMARK    5  A    between atoms: C_15  and  O_21
REMARK    6  A    between atoms: C_16  and  O_23
REMARK    7  A    between atoms: C_17  and  C_25
REMARK    8  A    between atoms: C_25  and  O_26
REMARK    9  A    between atoms: C_28  and  C_29
REMARK   10  A    between atoms: C_29  and  C_30
REMARK   11  A    between atoms: C_30  and  C_31
REMARK   12  A    between atoms: C_31  and  C_32
REMARK   13  A    between atoms: C_32  and  C_33
REMARK   14  A    between atoms: C_33  and  C_34
REMARK   15  A    between atoms: C_34  and  C_35
REMARK                            x       y       z     vdW  Elec       q    Type
REMARK                         _______ _______ _______ _____ _____    ______ ____
ROOT
ATOM      1  O   UNL     1       1.010   3.442  -1.092  0.00  0.00    -0.421 OA
ATOM      2  O   UNL     1      -0.153   4.944  -2.364  0.00  0.00    -0.244 OA
ATOM      3  C   UNL     1       2.277   0.887   1.212  0.00  0.00    +0.144 C 
ATOM      4  C   UNL     1      -1.443   2.717   0.117  0.00  0.00    -0.013 C 
ATOM      5  C   UNL     1      -0.193   2.061   0.525  0.00  0.00    +0.031 C 
ATOM      6  C   UNL     1       2.228   1.875   0.235  0.00  0.00    +0.075 C 
ATOM      7  C   UNL     1       0.997   2.446  -0.094  0.00  0.00    +0.151 C 
ATOM      8  C   UNL     1       1.105   0.482   1.848  0.00  0.00    +0.037 C 
ATOM      9  C   UNL     1      -0.122   1.064   1.507  0.00  0.00    +0.006 C 
ATOM     10  C   UNL     1      -1.400   3.660  -0.835  0.00  0.00    +0.078 C 
ATOM     11  C   UNL     1      -0.153   4.077  -1.498  0.00  0.00    +0.346 C 
ENDROOT
BRANCH   3  12
ATOM     12  O   UNL     1       3.466   0.317   1.548  0.00  0.00    -0.450 OA
BRANCH  12  18
ATOM     13  O   UNL     1       3.375  -1.410  -0.019  0.00  0.00    -0.316 OA
ATOM     14  C   UNL     1       6.219  -1.789   0.106  0.00  0.00    +0.173 C 
ATOM     15  C   UNL     1       5.285  -2.800  -0.559  0.00  0.00    +0.169 C 
ATOM     16  C   UNL     1       5.466  -0.920   1.114  0.00  0.00    +0.210 C 
ATOM     17  C   UNL     1       4.022  -2.112  -1.082  0.00  0.00    +0.177 C 
ATOM     18  C   UNL     1       4.178  -0.359   0.511  0.00  0.00    +0.318 C 
BRANCH  14  19
ATOM     19  O   UNL     1       7.249  -2.514   0.779  0.00  0.00    -0.379 OA
ATOM     20  H   UNL     1       7.727  -3.066   0.140  0.00  0.00    +0.211 HD
ENDBRANCH  14  19
BRANCH  15  21
ATOM     21  O   UNL     1       5.965  -3.426  -1.645  0.00  0.00    -0.379 OA
ATOM     22  H   UNL     1       6.766  -3.863  -1.316  0.00  0.00    +0.211 HD
ENDBRANCH  15  21
BRANCH  16  23
ATOM     23  O   UNL     1       6.292   0.176   1.505  0.00  0.00    -0.377 OA
ATOM     24  H   UNL     1       7.116  -0.161   1.890  0.00  0.00    +0.211 HD
ENDBRANCH  16  23
BRANCH  17  25
ATOM     25  C   UNL     1       3.023  -3.118  -1.645  0.00  0.00    +0.169 C 
BRANCH  25  26
ATOM     26  O   UNL     1       1.881  -2.413  -2.097  0.00  0.00    -0.379 OA
ATOM     27  H   UNL     1       1.236  -3.041  -2.459  0.00  0.00    +0.211 HD
ENDBRANCH  25  26
ENDBRANCH  17  25
ENDBRANCH  12  18
ENDBRANCH   3  12
BRANCH   4  28
ATOM     28  C   UNL     1      -2.732   2.327   0.760  0.00  0.00    +0.027 C 
BRANCH  28  29
ATOM     29  C   UNL     1      -3.452   1.185   0.040  0.00  0.00    +0.005 C 
BRANCH  29  30
ATOM     30  C   UNL     1      -4.807   0.841   0.668  0.00  0.00    +0.000 C 
BRANCH  30  31
ATOM     31  C   UNL     1      -5.478  -0.324  -0.065  0.00  0.00    +0.000 C 
BRANCH  31  32
ATOM     32  C   UNL     1      -6.815  -0.688   0.582  0.00  0.00    +0.000 C 
BRANCH  32  33
ATOM     33  C   UNL     1      -7.574  -1.790  -0.165  0.00  0.00    +0.000 C 
BRANCH  33  34
ATOM     34  C   UNL     1      -8.960  -2.138   0.387  0.00  0.00    +0.000 C 
BRANCH  34  35
ATOM     35  C   UNL     1      -9.694  -3.198  -0.435  0.00  0.00    +0.000 C 
ATOM     36  C   UNL     1     -11.065  -3.502   0.150  0.00  0.00    +0.000 C 
ENDBRANCH  34  35
ENDBRANCH  33  34
ENDBRANCH  32  33
ENDBRANCH  31  32
ENDBRANCH  30  31
ENDBRANCH  29  30
ENDBRANCH  28  29
ENDBRANCH   4  28
TORSDOF 15
