REMARK  Name = 127544
REMARK  5 active torsions:
REMARK  status: ('A' for Active; 'I' for Inactive)
REMARK    1  A    between atoms: C_1  and  O_2
REMARK    2  A    between atoms: C_1  and  C_4
REMARK    3  A    between atoms: C_1  and  C_12
REMARK    4  A    between atoms: C_4  and  N_6
REMARK    5  A    between atoms: C_12  and  N_13
REMARK                            x       y       z     vdW  Elec       q    Type
REMARK                         _______ _______ _______ _____ _____    ______ ____
ROOT
ATOM      1  C   UNL     1       0.539   0.070  -0.555  0.00  0.00    +0.111 C 
ENDROOT
BRANCH   1   2
ATOM      2  O   UNL     1       0.277  -1.040   0.303  0.00  0.00    -0.385 OA
ATOM      3  H   UNL     1       1.003  -1.136   0.939  0.00  0.00    +0.210 HD
ENDBRANCH   1   2
BRANCH   1   4
ATOM      4  C   UNL     1       1.890  -0.132  -1.234  0.00  0.00    +0.004 C 
BRANCH   4   6
ATOM      5  O   UNL     1       2.754  -1.445   0.485  0.00  0.00    -0.290 OA
ATOM      6  N   UNL     1       3.003  -0.306  -0.238  0.00  0.00    +0.432 N 
ATOM      7  C   UNL     1       3.048   0.899   0.680  0.00  0.00    -0.027 C 
ATOM      8  C   UNL     1       4.322  -0.430  -0.976  0.00  0.00    -0.027 C 
ATOM      9  C   UNL     1       4.214   0.833   1.658  0.00  0.00    -0.017 C 
ATOM     10  C   UNL     1       5.507  -0.517  -0.023  0.00  0.00    -0.017 C 
ATOM     11  C   UNL     1       5.542   0.677   0.925  0.00  0.00    -0.004 C 
ENDBRANCH   4   6
ENDBRANCH   1   4
BRANCH   1  12
ATOM     12  C   UNL     1      -0.613   0.212  -1.554  0.00  0.00    +0.102 C 
BRANCH  12  13
ATOM     13  N   UNL     1      -1.902   0.406  -0.888  0.00  0.00    -0.243 NA
ATOM     14  N   UNL     1      -3.610   1.447   0.030  0.00  0.00    -0.233 NA
ATOM     15  C   UNL     1      -2.750  -0.579  -0.509  0.00  0.00    +0.145 C 
ATOM     16  C   UNL     1      -2.443   1.603  -0.554  0.00  0.00    +0.203 C 
ATOM     17  C   UNL     1      -3.807   0.089   0.062  0.00  0.00    +0.214 C 
ATOM     18  O   UNL     1      -5.150  -1.690   0.652  0.00  0.00    -0.125 OA
ATOM     19  O   UNL     1      -5.846   0.341   1.109  0.00  0.00    -0.125 OA
ATOM     20  N   UNL     1      -4.975  -0.438   0.627  0.00  0.00    +0.073 N 
ENDBRANCH  12  13
ENDBRANCH   1  12
TORSDOF 5
