REMARK  Name = 127593
REMARK  6 active torsions:
REMARK  status: ('A' for Active; 'I' for Inactive)
REMARK    1  A    between atoms: C_4  and  N_16
REMARK    2  A    between atoms: C_6  and  O_23
REMARK    3  A    between atoms: C_8  and  C_25
REMARK    4  A    between atoms: C_14  and  N_20
REMARK    5  A    between atoms: C_25  and  O_26
REMARK    6  A    between atoms: O_26  and  C_29
REMARK                            x       y       z     vdW  Elec       q    Type
REMARK                         _______ _______ _______ _____ _____    ______ ____
ROOT
ATOM      1  O   UNL     1       3.503   1.206  -0.636  0.00  0.00    -0.285 OA
ATOM      2  O   UNL     1       0.145  -2.819   0.677  0.00  0.00    -0.285 OA
ATOM      3  N   UNL     1       0.597   1.612  -0.139  0.00  0.00    -0.328 N 
ATOM      4  C   UNL     1      -0.427   3.712   0.069  0.00  0.00    -0.009 C 
ATOM      5  C   UNL     1      -0.714   1.362   0.148  0.00  0.00    +0.062 A 
ATOM      6  C   UNL     1      -1.517   2.600   0.102  0.00  0.00    +0.130 C 
ATOM      7  C   UNL     1       0.869   3.011  -0.411  0.00  0.00    +0.087 C 
ATOM      8  C   UNL     1      -0.845   0.021   0.397  0.00  0.00    +0.040 A 
ATOM      9  C   UNL     1       1.334   0.482  -0.094  0.00  0.00    +0.102 A 
ATOM     10  C   UNL     1       0.462  -0.538   0.241  0.00  0.00    +0.060 A 
ATOM     11  C   UNL     1       2.734   0.299  -0.333  0.00  0.00    +0.209 C 
ATOM     12  C   UNL     1       0.906  -1.904   0.382  0.00  0.00    +0.209 C 
ATOM     13  C   UNL     1       3.227  -1.122  -0.189  0.00  0.00    +0.035 C 
ATOM     14  C   UNL     1       2.385  -2.132   0.140  0.00  0.00    +0.080 C 
ATOM     15  C   UNL     1       4.703  -1.285  -0.441  0.00  0.00    +0.036 C 
ENDROOT
BRANCH   4  16
ATOM     16  N   UNL     1      -0.228   4.262   1.411  0.00  0.00    +0.385 N 
ATOM     17  H   UNL     1      -1.085   4.721   1.720  0.00  0.00    -0.089 HD
ATOM     18  H   UNL     1       0.533   4.940   1.391  0.00  0.00    -0.089 HD
ATOM     19  H   UNL     1       0.005   3.507   2.056  0.00  0.00    -0.089 HD
ENDBRANCH   4  16
BRANCH  14  20
ATOM     20  N   UNL     1       2.749  -3.445   0.288  0.00  0.00    -0.355 N 
ATOM     21  H   UNL     1       2.073  -4.119   0.529  0.00  0.00    +0.142 HD
ATOM     22  H   UNL     1       3.687  -3.714   0.154  0.00  0.00    +0.142 HD
ENDBRANCH  14  20
BRANCH   6  23
ATOM     23  O   UNL     1      -2.240   2.582  -1.121  0.00  0.00    -0.381 OA
ATOM     24  H   UNL     1      -2.782   3.383  -1.188  0.00  0.00    +0.211 HD
ENDBRANCH   6  23
BRANCH   8  25
ATOM     25  C   UNL     1      -2.088  -0.688   0.754  0.00  0.00    +0.238 C 
BRANCH  25  26
ATOM     26  O   UNL     1      -2.749  -1.142  -0.428  0.00  0.00    -0.430 OA
BRANCH  26  29
ATOM     27  O   UNL     1      -4.427  -2.054   0.857  0.00  0.00    -0.227 OA
ATOM     28  N   UNL     1      -4.459  -2.201  -1.438  0.00  0.00    -0.295 N 
ATOM     29  C   UNL     1      -3.920  -1.818  -0.235  0.00  0.00    +0.399 C 
ATOM     30  H   UNL     1      -3.998  -1.977  -2.278  0.00  0.00    +0.148 HD
ATOM     31  H   UNL     1      -5.308  -2.700  -1.460  0.00  0.00    +0.148 HD
ENDBRANCH  26  29
ENDBRANCH  25  26
ENDBRANCH   8  25
TORSDOF 6
