REMARK  Name = 127501
REMARK  9 active torsions:
REMARK  status: ('A' for Active; 'I' for Inactive)
REMARK    1  A    between atoms: N_2  and  C_20
REMARK    2  A    between atoms: C_3  and  CA_5
REMARK    3  A    between atoms: CA_5  and  N_7
REMARK    4  A    between atoms: CA_5  and  C_17
REMARK    5  A    between atoms: C_8  and  CA_12
REMARK    6  A    between atoms: C_17  and  O_18
REMARK    7  A    between atoms: C_20  and  C_23
REMARK    8  A    between atoms: C_20  and  C_26
REMARK    9  A    between atoms: C_26  and  C_27
REMARK                            x       y       z     vdW  Elec       q    Type
REMARK                         _______ _______ _______ _____ _____    ______ ____
ROOT
ATOM      1  O   UNL     1       0.771  -1.179  -1.443  0.00  0.00    -0.273 OA
ATOM      2  N   UNL     1       2.039  -0.868   0.476  0.00  0.00    -0.297 N 
ATOM      3  C   UNL     1       1.017  -1.442  -0.268  0.00  0.00    +0.243 C 
ATOM      4  H   UNL     1       2.154  -1.147   1.413  0.00  0.00    +0.150 HD
ENDROOT
BRANCH   3   5
ATOM      5  CA  UNL     1       0.186  -2.418   0.557  0.00  0.00    +0.178 C 
BRANCH   5   7
ATOM      6  O   UNL     1      -1.803  -0.554   1.554  0.00  0.00    -0.273 OA
ATOM      7  N   UNL     1      -1.188  -2.301   0.143  0.00  0.00    -0.295 N 
ATOM      8  C   UNL     1      -2.070  -1.375   0.680  0.00  0.00    +0.241 C 
ATOM      9  H   UNL     1      -1.519  -2.910  -0.556  0.00  0.00    +0.150 HD
BRANCH   8  12
ATOM     10  O   UNL     1      -4.973   1.725   0.213  0.00  0.00    -0.275 OA
ATOM     11  N   UNL     1      -4.229  -0.443   0.690  0.00  0.00    -0.298 N 
ATOM     12  CA  UNL     1      -3.426  -1.450   0.056  0.00  0.00    +0.149 C 
ATOM     13  C   UNL     1      -3.424  -1.043  -1.405  0.00  0.00    +0.039 C 
ATOM     14  C   UNL     1      -3.629   0.472  -1.376  0.00  0.00    +0.087 C 
ATOM     15  C   UNL     1      -4.380   0.700  -0.087  0.00  0.00    +0.223 C 
ATOM     16  H   UNL     1      -4.632  -0.551   1.582  0.00  0.00    +0.150 HD
ENDBRANCH   8  12
ENDBRANCH   5   7
BRANCH   5  17
ATOM     17  C   UNL     1       0.694  -3.851   0.428  0.00  0.00    +0.166 C 
BRANCH  17  18
ATOM     18  O   UNL     1       0.634  -4.275  -0.929  0.00  0.00    -0.380 OA
ATOM     19  H   UNL     1       0.960  -5.186  -0.997  0.00  0.00    +0.211 HD
ENDBRANCH  17  18
ENDBRANCH   5  17
ENDBRANCH   3   5
BRANCH   2  20
ATOM     20  C   UNL     1       2.940   0.122  -0.067  0.00  0.00    +0.153 C 
BRANCH  20  23
ATOM     21  O   UNL     1       4.738  -1.239   0.839  0.00  0.00    -0.274 OA
ATOM     22  N   UNL     1       5.090  -0.130  -1.142  0.00  0.00    -0.327 N 
ATOM     23  C   UNL     1       4.336  -0.482  -0.042  0.00  0.00    +0.238 C 
ATOM     24  H   UNL     1       6.012  -0.463  -1.234  0.00  0.00    +0.145 HD
ATOM     25  H   UNL     1       4.706   0.454  -1.835  0.00  0.00    +0.145 HD
ENDBRANCH  20  23
BRANCH  20  26
ATOM     26  C   UNL     1       2.910   1.431   0.730  0.00  0.00    +0.055 C 
BRANCH  26  27
ATOM     27  C   UNL     1       1.724   2.299   0.385  0.00  0.00    -0.020 C 
ATOM     28  C   UNL     1       1.823   3.240  -0.640  0.00  0.00    -0.004 C 
ATOM     29  C   UNL     1       0.529   2.158   1.090  0.00  0.00    -0.004 C 
ATOM     30  C   UNL     1       0.727   4.041  -0.959  0.00  0.00    -0.000 C 
ATOM     31  C   UNL     1      -0.568   2.960   0.770  0.00  0.00    -0.000 C 
ATOM     32  C   UNL     1      -0.468   3.901  -0.254  0.00  0.00    -0.000 C 
ENDBRANCH  26  27
ENDBRANCH  20  26
ENDBRANCH   2  20
TORSDOF 9
