REMARK  Name = 127548
REMARK  10 active torsions:
REMARK  status: ('A' for Active; 'I' for Inactive)
REMARK    1  A    between atoms: C_1  and  C_2
REMARK    2  A    between atoms: C_1  and  C_12
REMARK    3  A    between atoms: C_2  and  C_4
REMARK    4  A    between atoms: C_2  and  C_7
REMARK    5  A    between atoms: C_4  and  O_5
REMARK    6  A    between atoms: C_7  and  C_9
REMARK    7  A    between atoms: C_9  and  O_10
REMARK    8  A    between atoms: C_12  and  C_13
REMARK    9  A    between atoms: C_13  and  N_14
REMARK   10  A    between atoms: N_14  and  C_17
REMARK                            x       y       z     vdW  Elec       q    Type
REMARK                         _______ _______ _______ _____ _____    ______ ____
ROOT
ATOM      1  C   UNL     1       0.278   0.251  -0.148  0.00  0.00    +0.014 C 
ENDROOT
BRANCH   1   2
ATOM      2  C   UNL     1       1.739   0.364   0.321  0.00  0.00    +0.110 C 
BRANCH   2   4
ATOM      3  O   UNL     1       2.390   2.137  -1.210  0.00  0.00    -0.250 OA
ATOM      4  C   UNL     1       2.306   1.723  -0.060  0.00  0.00    +0.314 C 
BRANCH   4   5
ATOM      5  O   UNL     1       2.699   2.452   1.015  0.00  0.00    -0.480 OA
ATOM      6  H   UNL     1       2.616   2.096   1.878  0.00  0.00    +0.295 HD
ENDBRANCH   4   5
ENDBRANCH   2   4
BRANCH   2   7
ATOM      7  C   UNL     1       2.621  -0.726  -0.314  0.00  0.00    +0.120 C 
BRANCH   7   9
ATOM      8  O   UNL     1       1.576  -2.465   1.047  0.00  0.00    -0.250 OA
ATOM      9  C   UNL     1       2.175  -2.127   0.037  0.00  0.00    +0.314 C 
BRANCH   9  10
ATOM     10  O   UNL     1       2.546  -2.990  -0.943  0.00  0.00    -0.480 OA
ATOM     11  H   UNL     1       3.004  -2.675  -1.697  0.00  0.00    +0.295 HD
ENDBRANCH   9  10
ENDBRANCH   7   9
ENDBRANCH   2   7
ENDBRANCH   1   2
BRANCH   1  12
ATOM     12  C   UNL     1      -0.619   1.342   0.454  0.00  0.00    +0.027 C 
BRANCH  12  13
ATOM     13  C   UNL     1      -2.059   1.248  -0.039  0.00  0.00    +0.129 C 
BRANCH  13  14
ATOM     14  N   UNL     1      -2.632  -0.048   0.330  0.00  0.00    -0.240 NA
BRANCH  14  17
ATOM     15  N   UNL     1      -4.467  -1.462   0.275  0.00  0.00    -0.370 N 
ATOM     16  N   UNL     1      -4.696   0.570  -0.731  0.00  0.00    -0.370 N 
ATOM     17  C   UNL     1      -3.857  -0.269  -0.034  0.00  0.00    +0.189 C 
ATOM     18  H   UNL     1      -3.974  -2.153   0.774  0.00  0.00    +0.159 HD
ATOM     19  H   UNL     1      -5.397  -1.626  -0.004  0.00  0.00    +0.159 HD
ATOM     20  H   UNL     1      -4.381   1.459  -1.014  0.00  0.00    +0.159 HD
ATOM     21  H   UNL     1      -5.612   0.281  -0.948  0.00  0.00    +0.159 HD
ENDBRANCH  14  17
ENDBRANCH  13  14
ENDBRANCH  12  13
ENDBRANCH   1  12
TORSDOF 10
