REMARK  Name = 127583
REMARK  10 active torsions:
REMARK  status: ('A' for Active; 'I' for Inactive)
REMARK    1  A    between atoms: C_1  and  C_3
REMARK    2  A    between atoms: C_1  and  C_12
REMARK    3  A    between atoms: C_3  and  O_4
REMARK    4  A    between atoms: O_4  and  N_7
REMARK    5  A    between atoms: C_12  and  C_14
REMARK    6  A    between atoms: C_14  and  C_15
REMARK    7  A    between atoms: C_15  and  O_16
REMARK    8  A    between atoms: O_16  and  C_17
REMARK    9  A    between atoms: C_17  and  C_18
REMARK   10  A    between atoms: C_18  and  O_19
REMARK                            x       y       z     vdW  Elec       q    Type
REMARK                         _______ _______ _______ _____ _____    ______ ____
ROOT
ATOM      1  C   UNL     1       0.045  -0.025   0.572  0.00  0.00    +0.120 C 
ENDROOT
BRANCH   1   3
ATOM      2  O   UNL     1      -1.524  -0.240  -1.277  0.00  0.00    -0.248 OA
ATOM      3  C   UNL     1      -1.319  -0.066  -0.083  0.00  0.00    +0.341 C 
BRANCH   3   4
ATOM      4  O   UNL     1      -2.273   0.114   0.879  0.00  0.00    -0.336 OA
BRANCH   4   7
ATOM      5  O   UNL     1      -3.946  -2.198   0.559  0.00  0.00    -0.267 OA
ATOM      6  O   UNL     1      -3.818   2.378   0.022  0.00  0.00    -0.267 OA
ATOM      7  N   UNL     1      -3.573   0.086   0.328  0.00  0.00    -0.054 N 
ATOM      8  C   UNL     1      -5.582  -0.719  -0.438  0.00  0.00    +0.066 C 
ATOM      9  C   UNL     1      -5.540   0.800  -0.616  0.00  0.00    +0.066 C 
ATOM     10  C   UNL     1      -4.275  -1.073   0.218  0.00  0.00    +0.287 C 
ATOM     11  C   UNL     1      -4.211   1.224  -0.051  0.00  0.00    +0.287 C 
ENDBRANCH   4   7
ENDBRANCH   3   4
ENDBRANCH   1   3
BRANCH   1  12
ATOM     12  C   UNL     1       1.185  -0.202  -0.428  0.00  0.00    +0.079 C 
BRANCH  12  14
ATOM     13  O   UNL     1       2.731   0.053   1.415  0.00  0.00    -0.293 OA
ATOM     14  C   UNL     1       2.565  -0.122   0.209  0.00  0.00    +0.181 C 
BRANCH  14  15
ATOM     15  C   UNL     1       3.736  -0.280  -0.742  0.00  0.00    +0.206 C 
BRANCH  15  16
ATOM     16  O   UNL     1       4.961  -0.203  -0.045  0.00  0.00    -0.343 OA
BRANCH  16  17
ATOM     17  C   UNL     1       6.078  -0.349  -0.917  0.00  0.00    +0.174 C 
BRANCH  17  18
ATOM     18  C   UNL     1       7.356  -0.232  -0.108  0.00  0.00    +0.169 C 
BRANCH  18  19
ATOM     19  O   UNL     1       7.404   1.053   0.501  0.00  0.00    -0.379 OA
ATOM     20  H   UNL     1       8.219   1.134   1.020  0.00  0.00    +0.211 HD
ENDBRANCH  18  19
ENDBRANCH  17  18
ENDBRANCH  16  17
ENDBRANCH  15  16
ENDBRANCH  14  15
ENDBRANCH  12  14
ENDBRANCH   1  12
TORSDOF 10
