127544
  -OEChem-03292013323D

 37 38  0     1  0  0  0  0  0999 V2000
    2.7541   -1.4454    0.4847 O   0  5  0  0  0  0  0  0  0  0  0  0
    0.2767   -1.0399    0.3031 O   0  0  0  0  0  0  0  0  0  0  0  0
   -5.1501   -1.6899    0.6520 O   0  5  0  0  0  0  0  0  0  0  0  0
   -5.8461    0.3412    1.1094 O   0  0  0  0  0  0  0  0  0  0  0  0
    3.0034   -0.3062   -0.2379 N   0  3  0  0  0  0  0  0  0  0  0  0
   -1.9024    0.4061   -0.8884 N   0  0  0  0  0  0  0  0  0  0  0  0
   -3.6100    1.4472    0.0302 N   0  0  0  0  0  0  0  0  0  0  0  0
   -4.9748   -0.4379    0.6271 N   0  3  0  0  0  0  0  0  0  0  0  0
    3.0479    0.8995    0.6797 C   0  0  0  0  0  0  0  0  0  0  0  0
    4.3215   -0.4297   -0.9763 C   0  0  0  0  0  0  0  0  0  0  0  0
    1.8898   -0.1324   -1.2339 C   0  0  0  0  0  0  0  0  0  0  0  0
    4.2144    0.8326    1.6580 C   0  0  0  0  0  0  0  0  0  0  0  0
    5.5068   -0.5169   -0.0227 C   0  0  0  0  0  0  0  0  0  0  0  0
    5.5423    0.6775    0.9247 C   0  0  0  0  0  0  0  0  0  0  0  0
    0.5392    0.0698   -0.5551 C   0  0  1  0  0  0  0  0  0  0  0  0
   -0.6131    0.2121   -1.5539 C   0  0  0  0  0  0  0  0  0  0  0  0
   -2.7498   -0.5794   -0.5088 C   0  0  0  0  0  0  0  0  0  0  0  0
   -2.4426    1.6025   -0.5536 C   0  0  0  0  0  0  0  0  0  0  0  0
   -3.8072    0.0893    0.0618 C   0  0  0  0  0  0  0  0  0  0  0  0
    2.1287    0.9187    1.2683 H   0  0  0  0  0  0  0  0  0  0  0  0
    3.1096    1.7871    0.0403 H   0  0  0  0  0  0  0  0  0  0  0  0
    4.4032    0.4503   -1.6246 H   0  0  0  0  0  0  0  0  0  0  0  0
    4.2486   -1.3320   -1.5936 H   0  0  0  0  0  0  0  0  0  0  0  0
    1.8926   -1.0489   -1.8367 H   0  0  0  0  0  0  0  0  0  0  0  0
    2.1476    0.7236   -1.8672 H   0  0  0  0  0  0  0  0  0  0  0  0
    4.0791   -0.0128    2.3435 H   0  0  0  0  0  0  0  0  0  0  0  0
    4.2350    1.7410    2.2703 H   0  0  0  0  0  0  0  0  0  0  0  0
    6.4389   -0.5608   -0.5967 H   0  0  0  0  0  0  0  0  0  0  0  0
    5.4471   -1.4421    0.5629 H   0  0  0  0  0  0  0  0  0  0  0  0
    5.7553    1.5906    0.3554 H   0  0  0  0  0  0  0  0  0  0  0  0
    6.3551    0.5540    1.6489 H   0  0  0  0  0  0  0  0  0  0  0  0
    0.5283    0.9722    0.0634 H   0  0  0  0  0  0  0  0  0  0  0  0
   -0.7149   -0.6924   -2.1658 H   0  0  0  0  0  0  0  0  0  0  0  0
   -0.4580    1.0651   -2.2240 H   0  0  0  0  0  0  0  0  0  0  0  0
    0.9289   -1.0200    1.0227 H   0  0  0  0  0  0  0  0  0  0  0  0
   -2.5447   -1.6296   -0.6669 H   0  0  0  0  0  0  0  0  0  0  0  0
   -1.9575    2.5490   -0.7498 H   0  0  0  0  0  0  0  0  0  0  0  0
  1  5  1  0  0  0  0
  2 15  1  0  0  0  0
  2 35  1  0  0  0  0
  3  8  1  0  0  0  0
  4  8  2  0  0  0  0
  5  9  1  0  0  0  0
  5 10  1  0  0  0  0
  5 11  1  0  0  0  0
  6 16  1  0  0  0  0
  6 17  1  0  0  0  0
  6 18  1  0  0  0  0
  7 18  2  0  0  0  0
  7 19  1  0  0  0  0
  8 19  1  0  0  0  0
  9 12  1  0  0  0  0
  9 20  1  0  0  0  0
  9 21  1  0  0  0  0
 10 13  1  0  0  0  0
 10 22  1  0  0  0  0
 10 23  1  0  0  0  0
 11 15  1  0  0  0  0
 11 24  1  0  0  0  0
 11 25  1  0  0  0  0
 12 14  1  0  0  0  0
 12 26  1  0  0  0  0
 12 27  1  0  0  0  0
 13 14  1  0  0  0  0
 13 28  1  0  0  0  0
 13 29  1  0  0  0  0
 14 30  1  0  0  0  0
 14 31  1  0  0  0  0
 15 16  1  0  0  0  0
 15 32  1  0  0  0  0
 16 33  1  0  0  0  0
 16 34  1  0  0  0  0
 17 19  2  0  0  0  0
 17 36  1  0  0  0  0
 18 37  1  0  0  0  0
M  CHG  4   1  -1   3  -1   5   1   8   1
M  END
> <PUBCHEM_COMPOUND_CID>
127544

> <PUBCHEM_CONFORMER_RMSD>
0.8

> <PUBCHEM_CONFORMER_DIVERSEORDER>
1
11
13
33
10
21
25
26
15
22
28
35
5
12
16
23
31
20
8
4
6
32
17
7
27
19
9
29
2
3
34
14
30
24
18

> <PUBCHEM_MMFF94_PARTIAL_CHARGES>
19
1 -0.75
10 0.26
11 0.26
15 0.28
16 0.26
17 -0.3
18 0.04
19 0.31
2 -0.68
3 -0.52
35 0.4
36 0.15
37 0.15
4 -0.52
5 -0.02
6 0.05
7 -0.57
8 0.96
9 0.26

> <PUBCHEM_EFFECTIVE_ROTOR_COUNT>
6.2

> <PUBCHEM_PHARMACOPHORE_FEATURES>
9
1 1 anion
1 2 acceptor
1 2 donor
1 3 acceptor
1 3 anion
1 4 acceptor
3 6 7 18 cation
5 6 7 17 18 19 rings
6 5 9 10 12 13 14 rings

> <PUBCHEM_HEAVY_ATOM_COUNT>
19

> <PUBCHEM_ATOM_DEF_STEREO_COUNT>
0

> <PUBCHEM_ATOM_UDEF_STEREO_COUNT>
1

> <PUBCHEM_BOND_DEF_STEREO_COUNT>
0

> <PUBCHEM_BOND_UDEF_STEREO_COUNT>
0

> <PUBCHEM_ISOTOPIC_ATOM_COUNT>
0

> <PUBCHEM_COMPONENT_COUNT>
1

> <PUBCHEM_CACTVS_TAUTO_COUNT>
1

> <PUBCHEM_CONFORMER_ID>
0001F23800000001

> <PUBCHEM_MMFF94_ENERGY>
32.0849

> <PUBCHEM_FEATURE_SELFOVERLAP>
45.752

> <PUBCHEM_SHAPE_FINGERPRINT>
100836 57 15123512514296720701
10354089 29 17703791431518166560
10366900 7 15213023730745931236
10447042 23 14418128530821724138
106641 1 17604149328712984944
10912923 1 16805326569843266660
11045977 3 18342739650105008939
11089746 13 12319731445287834058
11796584 16 11963388548409454776
12236239 1 16515684433793773540
12555020 224 12973601140644609713
12596602 18 17917714621294637027
12616971 3 16988836173173820148
12670543 26 10303824184925458796
12892183 10 18338232669916448276
13167372 99 16343431608943604376
13533116 47 14707201107216406512
13583140 156 18337655439276077661
13668630 136 14779266405866150265
13675066 3 18343017774780602884
1420 363 18260269646191597842
14251752 14 12535358887088358252
14251764 75 17836642303763552216
14341114 176 18273498970418771528
14848160 23 13045944611768305864
15048467 5 15697999634670058728
15183329 4 8286215937162119007
15188451 53 17967806193607769451
17349148 13 17167865278826028375
17834072 33 15068623803333148402
17834072 8 10735877270433030883
17857418 61 15647048278850466848
17862501 102 17458063772275189285
17870717 6 8142086494037281121
18186145 218 17917701397200686398
18222031 100 17240201053510892238
18785283 64 18194116550213367672
19433438 28 18342454824874725400
200 152 15068337912945519341
20028762 73 18115311201665524795
20281389 69 14979958047308039707
20645477 56 17846775208769444236
21033648 29 17988063522449288160
21065199 12 18339921511181528749
212847 35 15123509203288502418
22079108 93 18272647978161955590
22224240 67 17846784014423318991
22646028 1 15719110249264890484
22854114 59 18410852157335312556
23402539 116 15285354007793287815
23402655 69 12247682664348503550
23559900 14 18193006923594121247
26918003 58 17676489458520871837
2871803 45 11530474515759622492
29717793 49 12179841684840181746
312425 54 18411427189585970275
32948 21 11312062058303050104
351380 3 16660364800810928515
3545911 37 17704071807051801780
465052 167 16081093679501597330
5104073 3 18264767658045255482
542803 24 15841550777644372028
8272917 22 16200157569376098372

> <PUBCHEM_SHAPE_MULTIPOLES>
347.61
13.91
1.32
1.24
3.38
0.3
-0.07
4.07
-3.65
-1.1
0.11
1.23
-0.08
0.24

> <PUBCHEM_SHAPE_SELFOVERLAP>
714.31

> <PUBCHEM_SHAPE_VOLUME>
200.9

> <PUBCHEM_COORDINATE_TYPE>
2
5
10

$$$$
