REMARK  Name = 127592
REMARK  13 active torsions:
REMARK  status: ('A' for Active; 'I' for Inactive)
REMARK    1  A    between atoms: N_1  and  S_3
REMARK    2  A    between atoms: N_1  and  C_19
REMARK    3  A    between atoms: S_3  and  C_6
REMARK    4  A    between atoms: C_9  and  N_16
REMARK    5  A    between atoms: C_19  and  C_21
REMARK    6  A    between atoms: C_19  and  C_22
REMARK    7  A    between atoms: C_22  and  O_23
REMARK    8  A    between atoms: C_22  and  C_25
REMARK    9  A    between atoms: C_25  and  O_26
REMARK   10  A    between atoms: C_25  and  C_28
REMARK   11  A    between atoms: C_28  and  O_29
REMARK   12  A    between atoms: C_28  and  C_31
REMARK   13  A    between atoms: C_31  and  O_32
REMARK                            x       y       z     vdW  Elec       q    Type
REMARK                         _______ _______ _______ _____ _____    ______ ____
ROOT
ATOM      1  N   UNL     1       2.189   1.166   0.724  0.00  0.00    -0.171 NA
ATOM      2  H   UNL     1       1.686   0.431   1.220  0.00  0.00    +0.149 HD
ENDROOT
BRANCH   1   3
ATOM      3  S   UNL     1       1.227   2.564   0.809  0.00  0.00    +0.061 S 
ATOM      4  O   UNL     1       1.842   3.621   0.029  0.00  0.00    -0.153 OA
ATOM      5  O   UNL     1       0.860   2.796   2.192  0.00  0.00    -0.153 OA
BRANCH   3   6
ATOM      6  C   UNL     1      -0.239   2.048  -0.034  0.00  0.00    +0.122 C 
ATOM      7  C   UNL     1      -1.127   1.112   0.508  0.00  0.00    +0.020 C 
ATOM      8  C   UNL     1      -2.279   0.753  -0.231  0.00  0.00    +0.015 C 
ATOM      9  C   UNL     1      -3.175  -0.186   0.306  0.00  0.00    +0.048 C 
ATOM     10  C   UNL     1      -0.468   2.627  -1.277  0.00  0.00    +0.020 C 
ATOM     11  C   UNL     1      -0.905   0.521   1.763  0.00  0.00    +0.001 C 
ATOM     12  C   UNL     1      -2.501   1.343  -1.486  0.00  0.00    +0.001 C 
ATOM     13  C   UNL     1      -1.601   2.274  -2.004  0.00  0.00    +0.001 C 
ATOM     14  C   UNL     1      -2.938  -0.762   1.554  0.00  0.00    +0.015 C 
ATOM     15  C   UNL     1      -1.805  -0.409   2.281  0.00  0.00    +0.001 C 
BRANCH   9  16
ATOM     16  N   UNL     1      -4.342  -0.581  -0.392  0.00  0.00    -0.304 N 
ATOM     17  C   UNL     1      -5.582   0.140  -0.203  0.00  0.00    +0.112 C 
ATOM     18  C   UNL     1      -4.299  -1.698  -1.309  0.00  0.00    +0.112 C 
ENDBRANCH   9  16
ENDBRANCH   3   6
ENDBRANCH   1   3
BRANCH   1  19
ATOM     19  C   UNL     1       2.569   0.610  -0.596  0.00  0.00    +0.169 C 
BRANCH  19  21
ATOM     20  O   UNL     1       4.345   2.246  -0.320  0.00  0.00    -0.287 OA
ATOM     21  C   UNL     1       3.789   1.402  -1.016  0.00  0.00    +0.227 C 
ENDBRANCH  19  21
BRANCH  19  22
ATOM     22  C   UNL     1       2.828  -0.898  -0.502  0.00  0.00    +0.163 C 
BRANCH  22  23
ATOM     23  O   UNL     1       3.936  -1.119   0.382  0.00  0.00    -0.380 OA
ATOM     24  H   UNL     1       4.700  -0.603   0.079  0.00  0.00    +0.211 HD
ENDBRANCH  22  23
BRANCH  22  25
ATOM     25  C   UNL     1       1.642  -1.736   0.017  0.00  0.00    +0.168 C 
BRANCH  25  26
ATOM     26  O   UNL     1       0.505  -1.432  -0.803  0.00  0.00    -0.379 OA
ATOM     27  H   UNL     1       0.362  -0.473  -0.813  0.00  0.00    +0.211 HD
ENDBRANCH  25  26
BRANCH  25  28
ATOM     28  C   UNL     1       1.859  -3.259   0.025  0.00  0.00    +0.169 C 
BRANCH  28  29
ATOM     29  O   UNL     1       2.199  -3.714  -1.286  0.00  0.00    -0.379 OA
ATOM     30  H   UNL     1       2.994  -3.252  -1.593  0.00  0.00    +0.211 HD
ENDBRANCH  28  29
BRANCH  28  31
ATOM     31  C   UNL     1       0.603  -4.015   0.459  0.00  0.00    +0.169 C 
BRANCH  31  32
ATOM     32  O   UNL     1       0.868  -5.414   0.411  0.00  0.00    -0.379 OA
ATOM     33  H   UNL     1       0.076  -5.902   0.685  0.00  0.00    +0.211 HD
ENDBRANCH  31  32
ENDBRANCH  28  31
ENDBRANCH  25  28
ENDBRANCH  22  25
ENDBRANCH  19  22
ENDBRANCH   1  19
TORSDOF 13
