127592
  -OEChem-03292013323D

 52 53  0     1  0  0  0  0  0999 V2000
    1.2266    2.5636    0.8086 S   0  0  0  0  0  0  0  0  0  0  0  0
    3.9363   -1.1191    0.3819 O   0  0  0  0  0  0  0  0  0  0  0  0
    0.5055   -1.4320   -0.8033 O   0  0  0  0  0  0  0  0  0  0  0  0
    2.1985   -3.7138   -1.2864 O   0  0  0  0  0  0  0  0  0  0  0  0
    1.8417    3.6208    0.0290 O   0  0  0  0  0  0  0  0  0  0  0  0
    0.8596    2.7964    2.1923 O   0  0  0  0  0  0  0  0  0  0  0  0
    0.8679   -5.4136    0.4107 O   0  0  0  0  0  0  0  0  0  0  0  0
    4.3452    2.2464   -0.3202 O   0  0  0  0  0  0  0  0  0  0  0  0
    2.1892    1.1663    0.7238 N   0  0  0  0  0  0  0  0  0  0  0  0
   -4.3424   -0.5807   -0.3922 N   0  0  0  0  0  0  0  0  0  0  0  0
    2.8283   -0.8981   -0.5023 C   0  0  2  0  0  0  0  0  0  0  0  0
    2.5686    0.6103   -0.5956 C   0  0  2  0  0  0  0  0  0  0  0  0
    1.6420   -1.7365    0.0173 C   0  0  2  0  0  0  0  0  0  0  0  0
    1.8588   -3.2591    0.0247 C   0  0  1  0  0  0  0  0  0  0  0  0
   -0.2394    2.0476   -0.0336 C   0  0  0  0  0  0  0  0  0  0  0  0
   -1.1266    1.1117    0.5081 C   0  0  0  0  0  0  0  0  0  0  0  0
    0.6033   -4.0149    0.4591 C   0  0  0  0  0  0  0  0  0  0  0  0
   -2.2787    0.7527   -0.2314 C   0  0  0  0  0  0  0  0  0  0  0  0
    3.7891    1.4020   -1.0156 C   0  0  0  0  0  0  0  0  0  0  0  0
   -3.1747   -0.1860    0.3059 C   0  0  0  0  0  0  0  0  0  0  0  0
   -0.4677    2.6273   -1.2769 C   0  0  0  0  0  0  0  0  0  0  0  0
   -0.9046    0.5214    1.7630 C   0  0  0  0  0  0  0  0  0  0  0  0
   -2.5011    1.3433   -1.4860 C   0  0  0  0  0  0  0  0  0  0  0  0
   -1.6006    2.2744   -2.0041 C   0  0  0  0  0  0  0  0  0  0  0  0
   -2.9382   -0.7625    1.5541 C   0  0  0  0  0  0  0  0  0  0  0  0
   -1.8054   -0.4095    2.2813 C   0  0  0  0  0  0  0  0  0  0  0  0
   -5.5819    0.1401   -0.2031 C   0  0  0  0  0  0  0  0  0  0  0  0
   -4.2993   -1.6984   -1.3091 C   0  0  0  0  0  0  0  0  0  0  0  0
    3.1304   -1.2452   -1.4983 H   0  0  0  0  0  0  0  0  0  0  0  0
    1.7912    0.8018   -1.3396 H   0  0  0  0  0  0  0  0  0  0  0  0
    1.3963   -1.4334    1.0412 H   0  0  0  0  0  0  0  0  0  0  0  0
    2.6949   -3.5233    0.6813 H   0  0  0  0  0  0  0  0  0  0  0  0
    2.3863    0.6073    1.5620 H   0  0  0  0  0  0  0  0  0  0  0  0
    0.2983   -3.7455    1.4749 H   0  0  0  0  0  0  0  0  0  0  0  0
   -0.2333   -3.8317   -0.2221 H   0  0  0  0  0  0  0  0  0  0  0  0
    4.1689    1.1739   -2.0267 H   0  0  0  0  0  0  0  0  0  0  0  0
    4.2528   -2.0265    0.2365 H   0  0  0  0  0  0  0  0  0  0  0  0
    0.2100    3.3515   -1.7175 H   0  0  0  0  0  0  0  0  0  0  0  0
    0.7074   -1.7316   -1.7063 H   0  0  0  0  0  0  0  0  0  0  0  0
   -0.0299    0.7049    2.3733 H   0  0  0  0  0  0  0  0  0  0  0  0
   -3.3729    1.1000   -2.0881 H   0  0  0  0  0  0  0  0  0  0  0  0
   -1.7840    2.7231   -2.9761 H   0  0  0  0  0  0  0  0  0  0  0  0
    2.3316   -4.6759   -1.2368 H   0  0  0  0  0  0  0  0  0  0  0  0
   -3.6298   -1.4914    1.9693 H   0  0  0  0  0  0  0  0  0  0  0  0
   -1.6170   -0.8674    3.2480 H   0  0  0  0  0  0  0  0  0  0  0  0
    1.5922   -5.5956    1.0335 H   0  0  0  0  0  0  0  0  0  0  0  0
   -6.0318   -0.1255    0.7592 H   0  0  0  0  0  0  0  0  0  0  0  0
   -5.4170    1.2231   -0.2184 H   0  0  0  0  0  0  0  0  0  0  0  0
   -6.3085   -0.0882   -0.9900 H   0  0  0  0  0  0  0  0  0  0  0  0
   -3.8031   -2.5608   -0.8502 H   0  0  0  0  0  0  0  0  0  0  0  0
   -5.3038   -2.0216   -1.6028 H   0  0  0  0  0  0  0  0  0  0  0  0
   -3.7528   -1.4318   -2.2195 H   0  0  0  0  0  0  0  0  0  0  0  0
  1  5  2  0  0  0  0
  1  6  2  0  0  0  0
  1  9  1  0  0  0  0
  1 15  1  0  0  0  0
  2 11  1  0  0  0  0
  2 37  1  0  0  0  0
  3 13  1  0  0  0  0
  3 39  1  0  0  0  0
  4 14  1  0  0  0  0
  4 43  1  0  0  0  0
  7 17  1  0  0  0  0
  7 46  1  0  0  0  0
  8 19  2  0  0  0  0
  9 12  1  0  0  0  0
  9 33  1  0  0  0  0
 10 20  1  0  0  0  0
 10 27  1  0  0  0  0
 10 28  1  0  0  0  0
 11 12  1  0  0  0  0
 11 13  1  0  0  0  0
 11 29  1  0  0  0  0
 12 19  1  0  0  0  0
 12 30  1  0  0  0  0
 13 14  1  0  0  0  0
 13 31  1  0  0  0  0
 14 17  1  0  0  0  0
 14 32  1  0  0  0  0
 15 16  1  0  0  0  0
 15 21  2  0  0  0  0
 16 18  2  0  0  0  0
 16 22  1  0  0  0  0
 17 34  1  0  0  0  0
 17 35  1  0  0  0  0
 18 20  1  0  0  0  0
 18 23  1  0  0  0  0
 19 36  1  0  0  0  0
 20 25  2  0  0  0  0
 21 24  1  0  0  0  0
 21 38  1  0  0  0  0
 22 26  2  0  0  0  0
 22 40  1  0  0  0  0
 23 24  2  0  0  0  0
 23 41  1  0  0  0  0
 24 42  1  0  0  0  0
 25 26  1  0  0  0  0
 25 44  1  0  0  0  0
 26 45  1  0  0  0  0
 27 47  1  0  0  0  0
 27 48  1  0  0  0  0
 27 49  1  0  0  0  0
 28 50  1  0  0  0  0
 28 51  1  0  0  0  0
 28 52  1  0  0  0  0
M  END
> <PUBCHEM_COMPOUND_CID>
127592

> <PUBCHEM_CONFORMER_RMSD>
1

> <PUBCHEM_CONFORMER_DIVERSEORDER>
1
28
97
83
29
86
93
23
17
74
76
6
48
81
72
14
53
57
26
20
54
22
38
31
5
41
18
46
73
69
61
75
50
3
34
71
65
24
95
25
80
8
15
44
63
98
64
60
85
2
10
59
43
16
82
90
27
45
88
56
49
84
89
40
78
66
51
30
77
11
96
33
37
9
4
39
7
19
62
70
55
13
47
42
12
32
79
92
87
52
68
94
58
91
36
35
21
67

> <PUBCHEM_MMFF94_PARTIAL_CHARGES>
38
1 1.45
10 -0.84
11 0.28
12 0.42
13 0.28
14 0.28
15 -0.01
17 0.28
19 0.45
2 -0.68
20 0.1
21 -0.15
22 -0.15
23 -0.15
24 -0.15
25 -0.15
26 -0.15
27 0.37
28 0.37
3 -0.68
33 0.42
36 0.06
37 0.4
38 0.15
39 0.4
4 -0.68
40 0.15
41 0.15
42 0.15
43 0.4
44 0.15
45 0.15
46 0.4
5 -0.65
6 -0.65
7 -0.68
8 -0.57
9 -0.91

> <PUBCHEM_EFFECTIVE_ROTOR_COUNT>
9

> <PUBCHEM_PHARMACOPHORE_FEATURES>
15
1 10 cation
1 2 acceptor
1 2 donor
1 3 acceptor
1 3 donor
1 4 acceptor
1 4 donor
1 5 acceptor
1 6 acceptor
1 7 acceptor
1 7 donor
1 8 acceptor
1 9 donor
6 15 16 18 21 23 24 rings
6 16 18 20 22 25 26 rings

> <PUBCHEM_HEAVY_ATOM_COUNT>
28

> <PUBCHEM_ATOM_DEF_STEREO_COUNT>
4

> <PUBCHEM_ATOM_UDEF_STEREO_COUNT>
0

> <PUBCHEM_BOND_DEF_STEREO_COUNT>
0

> <PUBCHEM_BOND_UDEF_STEREO_COUNT>
0

> <PUBCHEM_ISOTOPIC_ATOM_COUNT>
0

> <PUBCHEM_COMPONENT_COUNT>
1

> <PUBCHEM_CACTVS_TAUTO_COUNT>
2

> <PUBCHEM_CONFORMER_ID>
0001F26800000001

> <PUBCHEM_MMFF94_ENERGY>
89.1224

> <PUBCHEM_FEATURE_SELFOVERLAP>
76.19

> <PUBCHEM_SHAPE_FINGERPRINT>
10064457 181 17765182808846441976
10366900 7 18114758035462318126
10764073 3 14098393165068762849
10906281 52 17749969841748409941
11370993 70 17912073160281675137
11578080 2 17058908010267973969
11796584 16 17488746817560302095
12596599 1 17703247172851032607
13402501 40 18259988197137509403
1361 2 18191862547265205559
13911987 19 18266196083228872564
14251757 17 17682385958591439213
14659021 117 16750701449323083706
15324884 4 17899149487391656321
17138139 8 17198527527447126823
17492 54 18190178077723145886
19930381 70 18337106740287992039
20775438 99 17543293451854094727
20775530 9 18125151633133560015
21285901 2 17967810535956856141
23559900 14 18046335340939883558
23728640 28 16539050936636902466
238 59 18335135440181971082
463206 1 18411698764368001643
57527585 103 17246708882484521970
66674814 147 17617908745660757631
70251023 43 18124045524488907475
9709674 26 18115875087652004838

> <PUBCHEM_SHAPE_MULTIPOLES>
529.03
7.37
5.16
1.73
4.48
5.81
0.48
0.58
-1.86
-4.61
-0.34
0.92
-0.64
0.62

> <PUBCHEM_SHAPE_SELFOVERLAP>
1096.187

> <PUBCHEM_SHAPE_VOLUME>
302.9

> <PUBCHEM_COORDINATE_TYPE>
2
5
10

$$$$
