127549
  -OEChem-03292013323D

 26 26  0     1  0  0  0  0  0999 V2000
    0.8349    0.8440    0.5725 S   0  0  0  0  0  0  0  0  0  0  0  0
    4.4928    0.9629    1.0863 O   0  0  0  0  0  0  0  0  0  0  0  0
   -4.1635    1.6517   -0.2924 O   0  0  0  0  0  0  0  0  0  0  0  0
   -4.7330   -1.0660   -0.1764 O   0  0  0  0  0  0  0  0  0  0  0  0
    3.8837   -1.2142    0.8971 O   0  0  0  0  0  0  0  0  0  0  0  0
    3.8265   -0.3957   -1.9300 N   0  0  0  0  0  0  0  0  0  0  0  0
    3.1805    0.3248   -0.8311 C   0  0  1  0  0  0  0  0  0  0  0  0
    1.6866   -0.0029   -0.7968 C   0  0  0  0  0  0  0  0  0  0  0  0
   -0.8443    0.2724    0.3455 C   0  0  0  0  0  0  0  0  0  0  0  0
   -1.8620    1.1924    0.1116 C   0  0  0  0  0  0  0  0  0  0  0  0
   -1.1242   -1.0896    0.4047 C   0  0  0  0  0  0  0  0  0  0  0  0
    3.8856   -0.0721    0.4525 C   0  0  0  0  0  0  0  0  0  0  0  0
   -3.1718    0.7461   -0.0649 C   0  0  0  0  0  0  0  0  0  0  0  0
   -2.4340   -1.5357    0.2281 C   0  0  0  0  0  0  0  0  0  0  0  0
   -3.4577   -0.6180   -0.0067 C   0  0  0  0  0  0  0  0  0  0  0  0
    3.3188    1.4003   -0.9968 H   0  0  0  0  0  0  0  0  0  0  0  0
    1.2122    0.2982   -1.7379 H   0  0  0  0  0  0  0  0  0  0  0  0
    1.5452   -1.0835   -0.6817 H   0  0  0  0  0  0  0  0  0  0  0  0
   -1.6428    2.2568    0.0655 H   0  0  0  0  0  0  0  0  0  0  0  0
   -0.3450   -1.8223    0.5972 H   0  0  0  0  0  0  0  0  0  0  0  0
    4.7968   -0.0939   -2.0126 H   0  0  0  0  0  0  0  0  0  0  0  0
    3.3773   -0.1489   -2.8112 H   0  0  0  0  0  0  0  0  0  0  0  0
   -2.6507   -2.5993    0.2771 H   0  0  0  0  0  0  0  0  0  0  0  0
    4.9254    0.6786    1.9195 H   0  0  0  0  0  0  0  0  0  0  0  0
   -3.7813    2.5460   -0.2992 H   0  0  0  0  0  0  0  0  0  0  0  0
   -5.3097   -0.2970   -0.3278 H   0  0  0  0  0  0  0  0  0  0  0  0
  1  8  1  0  0  0  0
  1  9  1  0  0  0  0
  2 12  1  0  0  0  0
  2 24  1  0  0  0  0
  3 13  1  0  0  0  0
  3 25  1  0  0  0  0
  4 15  1  0  0  0  0
  4 26  1  0  0  0  0
  5 12  2  0  0  0  0
  6  7  1  0  0  0  0
  6 21  1  0  0  0  0
  6 22  1  0  0  0  0
  7  8  1  0  0  0  0
  7 12  1  0  0  0  0
  7 16  1  0  0  0  0
  8 17  1  0  0  0  0
  8 18  1  0  0  0  0
  9 10  2  0  0  0  0
  9 11  1  0  0  0  0
 10 13  1  0  0  0  0
 10 19  1  0  0  0  0
 11 14  2  0  0  0  0
 11 20  1  0  0  0  0
 13 15  2  0  0  0  0
 14 15  1  0  0  0  0
 14 23  1  0  0  0  0
M  END
> <PUBCHEM_COMPOUND_CID>
127549

> <PUBCHEM_CONFORMER_RMSD>
0.6

> <PUBCHEM_CONFORMER_DIVERSEORDER>
1
62
8
2
52
6
47
21
55
5
61
25
68
14
67
10
49
41
29
38
63
24
66
9
28
30
57
7
59
16
18
19
45
69
26
12
64
60
3
33
23
43
36
50
48
11
53
35
37
34
17
54
22
13
51
15
58
70
27
4
44
42
32
65
20
46
56
40
39
31

> <PUBCHEM_MMFF94_PARTIAL_CHARGES>
23
1 -0.33
10 -0.15
11 -0.15
12 0.66
13 0.08
14 -0.15
15 0.08
19 0.15
2 -0.65
20 0.15
21 0.36
22 0.36
23 0.15
24 0.5
25 0.45
26 0.45
3 -0.53
4 -0.53
5 -0.57
6 -0.99
7 0.33
8 0.23
9 0.1

> <PUBCHEM_EFFECTIVE_ROTOR_COUNT>
4

> <PUBCHEM_PHARMACOPHORE_FEATURES>
8
1 2 acceptor
1 3 donor
1 4 donor
1 5 acceptor
1 6 cation
1 6 donor
3 2 5 12 anion
6 9 10 11 13 14 15 rings

> <PUBCHEM_HEAVY_ATOM_COUNT>
15

> <PUBCHEM_ATOM_DEF_STEREO_COUNT>
1

> <PUBCHEM_ATOM_UDEF_STEREO_COUNT>
0

> <PUBCHEM_BOND_DEF_STEREO_COUNT>
0

> <PUBCHEM_BOND_UDEF_STEREO_COUNT>
0

> <PUBCHEM_ISOTOPIC_ATOM_COUNT>
0

> <PUBCHEM_COMPONENT_COUNT>
1

> <PUBCHEM_CACTVS_TAUTO_COUNT>
8

> <PUBCHEM_CONFORMER_ID>
0001F23D00000001

> <PUBCHEM_MMFF94_ENERGY>
29.5413

> <PUBCHEM_FEATURE_SELFOVERLAP>
40.658

> <PUBCHEM_SHAPE_FINGERPRINT>
10062212 137 18261384529771291483
11615757 297 13830130589986034160
13296908 3 17561091284705304868
14252887 29 17632583768605851970
15375358 24 17917709093428763180
17834072 14 18060137639257753120
18186145 218 18272099266151649720
19026448 5 17530970193458094622
1986462 14 18409166610705832253
200 152 15985106284331935709
20279233 1 17917715703647162830
20645477 56 18410578340770983429
20645477 70 16988570065521497198
22485316 2 18411133641097110624
23402539 116 18409720747165017709
23557571 272 18343022207377035520
23559900 14 18272377434509749972
2838139 119 15720211930748048343
474 4 16517672492640885028
559249 180 18187919521968355274
573450 72 18260539017992517331
9709674 26 18411705387096620430
9971528 1 17313098636616433476

> <PUBCHEM_SHAPE_MULTIPOLES>
284.08
9.79
1.43
1.07
2.79
0.02
0.3
0.39
0.39
-1.15
-0.15
1.48
0.05
0.3

> <PUBCHEM_SHAPE_SELFOVERLAP>
570.898

> <PUBCHEM_SHAPE_VOLUME>
167.8

> <PUBCHEM_COORDINATE_TYPE>
2
5
10

$$$$
