127695
  -OEChem-03292013323D

 51 51  0     1  0  0  0  0  0999 V2000
   -1.0713    2.4532    0.4988 O   0  0  0  0  0  0  0  0  0  0  0  0
    1.6666    1.9992   -0.3205 O   0  0  0  0  0  0  0  0  0  0  0  0
    2.6171   -0.5904    0.3689 O   0  0  0  0  0  0  0  0  0  0  0  0
    0.8184   -2.7137   -0.4643 O   0  0  0  0  0  0  0  0  0  0  0  0
   -3.7980   -0.7088    0.2638 O   0  0  0  0  0  0  0  0  0  0  0  0
   -0.3101    3.7122   -1.2823 O   0  0  0  0  0  0  0  0  0  0  0  0
    3.1231    1.8332    1.4650 O   0  0  0  0  0  0  0  0  0  0  0  0
    3.2818   -1.7930   -1.4882 O   0  0  0  0  0  0  0  0  0  0  0  0
   -0.0262   -3.9408    1.3014 O   0  0  0  0  0  0  0  0  0  0  0  0
   -5.6568    0.2364   -0.7306 O   0  0  0  0  0  0  0  0  0  0  0  0
   -1.5525    0.1064    0.2671 C   0  0  2  0  0  0  0  0  0  0  0  0
   -0.6229    1.2591   -0.1447 C   0  0  2  0  0  0  0  0  0  0  0  0
    0.8308    0.9936    0.2604 C   0  0  1  0  0  0  0  0  0  0  0  0
   -1.0368   -1.2272   -0.2784 C   0  0  0  0  0  0  0  0  0  0  0  0
    1.3371   -0.3647   -0.2284 C   0  0  2  0  0  0  0  0  0  0  0  0
    0.3968   -1.5043    0.1643 C   0  0  2  0  0  0  0  0  0  0  0  0
   -2.9886    0.3520   -0.2044 C   0  0  0  0  0  0  0  0  0  0  0  0
   -0.8485    3.6108   -0.1881 C   0  0  0  0  0  0  0  0  0  0  0  0
    2.7825    2.3193    0.3951 C   0  0  0  0  0  0  0  0  0  0  0  0
    3.4915   -1.3230   -0.3781 C   0  0  0  0  0  0  0  0  0  0  0  0
    0.5405   -3.8619    0.2199 C   0  0  0  0  0  0  0  0  0  0  0  0
   -5.1260   -0.6470   -0.0711 C   0  0  0  0  0  0  0  0  0  0  0  0
   -1.3681    4.7732    0.6024 C   0  0  0  0  0  0  0  0  0  0  0  0
    3.5565    3.3782   -0.3299 C   0  0  0  0  0  0  0  0  0  0  0  0
    4.7817   -1.4775    0.3685 C   0  0  0  0  0  0  0  0  0  0  0  0
    1.0373   -5.0443   -0.5556 C   0  0  0  0  0  0  0  0  0  0  0  0
   -5.8559   -1.8300    0.4890 C   0  0  0  0  0  0  0  0  0  0  0  0
   -1.5754    0.0400    1.3643 H   0  0  0  0  0  0  0  0  0  0  0  0
   -0.6836    1.3745   -1.2362 H   0  0  0  0  0  0  0  0  0  0  0  0
    0.8937    1.0538    1.3560 H   0  0  0  0  0  0  0  0  0  0  0  0
   -1.6800   -2.0528    0.0497 H   0  0  0  0  0  0  0  0  0  0  0  0
   -1.0895   -1.2352   -1.3758 H   0  0  0  0  0  0  0  0  0  0  0  0
    1.4436   -0.3199   -1.3214 H   0  0  0  0  0  0  0  0  0  0  0  0
    0.4404   -1.6129    1.2568 H   0  0  0  0  0  0  0  0  0  0  0  0
   -3.3665    1.2976    0.2013 H   0  0  0  0  0  0  0  0  0  0  0  0
   -3.0303    0.3957   -1.2996 H   0  0  0  0  0  0  0  0  0  0  0  0
   -0.8417    4.8355    1.5582 H   0  0  0  0  0  0  0  0  0  0  0  0
   -1.1912    5.6982    0.0462 H   0  0  0  0  0  0  0  0  0  0  0  0
   -2.4437    4.6623    0.7608 H   0  0  0  0  0  0  0  0  0  0  0  0
    3.8731    3.0020   -1.3060 H   0  0  0  0  0  0  0  0  0  0  0  0
    4.4471    3.6373    0.2498 H   0  0  0  0  0  0  0  0  0  0  0  0
    2.9415    4.2746   -0.4430 H   0  0  0  0  0  0  0  0  0  0  0  0
    5.2254   -0.4950    0.5483 H   0  0  0  0  0  0  0  0  0  0  0  0
    5.4786   -2.0707   -0.2305 H   0  0  0  0  0  0  0  0  0  0  0  0
    4.6033   -1.9987    1.3123 H   0  0  0  0  0  0  0  0  0  0  0  0
    2.1193   -4.9699   -0.6912 H   0  0  0  0  0  0  0  0  0  0  0  0
    0.8180   -5.9607   -0.0001 H   0  0  0  0  0  0  0  0  0  0  0  0
    0.5301   -5.0927   -1.5224 H   0  0  0  0  0  0  0  0  0  0  0  0
   -5.7807   -1.8288    1.5792 H   0  0  0  0  0  0  0  0  0  0  0  0
   -6.9122   -1.7695    0.2119 H   0  0  0  0  0  0  0  0  0  0  0  0
   -5.4390   -2.7516    0.0752 H   0  0  0  0  0  0  0  0  0  0  0  0
  1 12  1  0  0  0  0
  1 18  1  0  0  0  0
  2 13  1  0  0  0  0
  2 19  1  0  0  0  0
  3 15  1  0  0  0  0
  3 20  1  0  0  0  0
  4 16  1  0  0  0  0
  4 21  1  0  0  0  0
  5 17  1  0  0  0  0
  5 22  1  0  0  0  0
  6 18  2  0  0  0  0
  7 19  2  0  0  0  0
  8 20  2  0  0  0  0
  9 21  2  0  0  0  0
 10 22  2  0  0  0  0
 11 12  1  0  0  0  0
 11 14  1  0  0  0  0
 11 17  1  0  0  0  0
 11 28  1  0  0  0  0
 12 13  1  0  0  0  0
 12 29  1  0  0  0  0
 13 15  1  0  0  0  0
 13 30  1  0  0  0  0
 14 16  1  0  0  0  0
 14 31  1  0  0  0  0
 14 32  1  0  0  0  0
 15 16  1  0  0  0  0
 15 33  1  0  0  0  0
 16 34  1  0  0  0  0
 17 35  1  0  0  0  0
 17 36  1  0  0  0  0
 18 23  1  0  0  0  0
 19 24  1  0  0  0  0
 20 25  1  0  0  0  0
 21 26  1  0  0  0  0
 22 27  1  0  0  0  0
 23 37  1  0  0  0  0
 23 38  1  0  0  0  0
 23 39  1  0  0  0  0
 24 40  1  0  0  0  0
 24 41  1  0  0  0  0
 24 42  1  0  0  0  0
 25 43  1  0  0  0  0
 25 44  1  0  0  0  0
 25 45  1  0  0  0  0
 26 46  1  0  0  0  0
 26 47  1  0  0  0  0
 26 48  1  0  0  0  0
 27 49  1  0  0  0  0
 27 50  1  0  0  0  0
 27 51  1  0  0  0  0
M  END
> <PUBCHEM_COMPOUND_CID>
127695

> <PUBCHEM_CONFORMER_RMSD>
1

> <PUBCHEM_CONFORMER_DIVERSEORDER>
1
17
16
8
9
6
3
12
15
14
10
5
4
2
11
13
7

> <PUBCHEM_MMFF94_PARTIAL_CHARGES>
25
1 -0.43
10 -0.57
12 0.28
13 0.28
15 0.28
16 0.28
17 0.28
18 0.66
19 0.66
2 -0.43
20 0.66
21 0.66
22 0.66
23 0.06
24 0.06
25 0.06
26 0.06
27 0.06
3 -0.43
4 -0.43
5 -0.43
6 -0.57
7 -0.57
8 -0.57
9 -0.57

> <PUBCHEM_EFFECTIVE_ROTOR_COUNT>
12.2

> <PUBCHEM_PHARMACOPHORE_FEATURES>
6
1 10 acceptor
1 6 acceptor
1 7 acceptor
1 8 acceptor
1 9 acceptor
6 11 12 13 14 15 16 rings

> <PUBCHEM_HEAVY_ATOM_COUNT>
27

> <PUBCHEM_ATOM_DEF_STEREO_COUNT>
5

> <PUBCHEM_ATOM_UDEF_STEREO_COUNT>
0

> <PUBCHEM_BOND_DEF_STEREO_COUNT>
0

> <PUBCHEM_BOND_UDEF_STEREO_COUNT>
0

> <PUBCHEM_ISOTOPIC_ATOM_COUNT>
0

> <PUBCHEM_COMPONENT_COUNT>
1

> <PUBCHEM_CACTVS_TAUTO_COUNT>
1

> <PUBCHEM_CONFORMER_ID>
0001F2CF00000001

> <PUBCHEM_MMFF94_ENERGY>
48.1582

> <PUBCHEM_FEATURE_SELFOVERLAP>
30.45

> <PUBCHEM_SHAPE_FINGERPRINT>
10967382 1 18339079422903750024
1100329 8 18338512040676266490
13140716 1 18410295838822257659
13692114 37 17478884348246084431
13911987 19 18261972815552143583
14178342 30 18122893232060135768
14790565 3 18339366361284797381
14863182 85 18337681935029644301
15081414 286 18339930428056420193
16728300 4 17534864629347334296
19591789 44 18410855481909154799
20028762 73 18273209820051537311
20739085 24 18265071239567239737
20905425 154 18052823537565170878
2334 1 18267020742128144542
23558518 356 17829621560714642595
23559900 14 18337660907033234609
2748010 2 18337679731637464106
283562 15 18337957774892951626
3178227 256 18410301301989360754
350125 39 18412263909292317472
59554788 170 18341896298658608324
59755656 215 18337393850610195268
6443956 14 18409451401545235565
70251023 43 18341340976667279531

> <PUBCHEM_SHAPE_MULTIPOLES>
496.95
8.51
6.63
0.92
10.46
0.02
0
-2.27
-0.06
-2.49
-0.02
-0.31
-0.01
0.61

> <PUBCHEM_SHAPE_SELFOVERLAP>
1004.431

> <PUBCHEM_SHAPE_VOLUME>
285.8

> <PUBCHEM_COORDINATE_TYPE>
2
5
10

$$$$
