REMARK  Name = 127622
REMARK  15 active torsions:
REMARK  status: ('A' for Active; 'I' for Inactive)
REMARK    1  A    between atoms: C_2  and  O_7
REMARK    2  A    between atoms: C_3  and  O_9
REMARK    3  A    between atoms: C_4  and  O_11
REMARK    4  A    between atoms: C_5  and  O_17
REMARK    5  A    between atoms: C_6  and  C_14
REMARK    6  A    between atoms: C_14  and  O_15
REMARK    7  A    between atoms: O_17  and  C_18
REMARK    8  A    between atoms: C_18  and  C_19
REMARK    9  A    between atoms: C_19  and  C_20
REMARK   10  A    between atoms: C_20  and  C_21
REMARK   11  A    between atoms: C_21  and  N_22
REMARK   12  A    between atoms: N_22  and  N_24
REMARK   13  A    between atoms: N_22  and  C_25
REMARK   14  A    between atoms: C_25  and  C_26
REMARK   15  A    between atoms: C_26  and  C_27
REMARK                            x       y       z     vdW  Elec       q    Type
REMARK                         _______ _______ _______ _____ _____    ______ ____
ROOT
ATOM      1  O   UNL     1       2.581  -0.585   0.247  0.00  0.00    -0.317 OA
ATOM      2  C   UNL     1       4.810   1.139  -0.317  0.00  0.00    +0.172 C 
ATOM      3  C   UNL     1       3.486   1.666   0.240  0.00  0.00    +0.196 C 
ATOM      4  C   UNL     1       4.986  -0.351  -0.020  0.00  0.00    +0.178 C 
ATOM      5  C   UNL     1       2.320   0.758  -0.152  0.00  0.00    +0.266 C 
ATOM      6  C   UNL     1       3.729  -1.127  -0.395  0.00  0.00    +0.245 C 
ENDROOT
BRANCH   2   7
ATOM      7  O   UNL     1       5.896   1.841   0.290  0.00  0.00    -0.379 OA
ATOM      8  H   UNL     1       5.805   2.791   0.115  0.00  0.00    +0.211 HD
ENDBRANCH   2   7
BRANCH   3   9
ATOM      9  O   UNL     1       3.237   2.969  -0.287  0.00  0.00    -0.378 OA
ATOM     10  H   UNL     1       3.968   3.560  -0.048  0.00  0.00    +0.211 HD
ENDBRANCH   3   9
BRANCH   4  11
ATOM     11  O   UNL     1       6.080  -0.853  -0.786  0.00  0.00    -0.379 OA
ATOM     12  H   UNL     1       6.886  -0.365  -0.556  0.00  0.00    +0.211 HD
ENDBRANCH   4  11
BRANCH   6  14
ATOM     13  O   UNL     1       3.026  -2.995   0.962  0.00  0.00    -0.247 OA
ATOM     14  C   UNL     1       3.788  -2.525   0.131  0.00  0.00    +0.344 C 
BRANCH  14  15
ATOM     15  O   UNL     1       4.811  -3.209  -0.440  0.00  0.00    -0.478 OA
ATOM     16  H   UNL     1       5.360  -2.788  -1.072  0.00  0.00    +0.295 HD
ENDBRANCH  14  15
ENDBRANCH   6  14
BRANCH   5  17
ATOM     17  O   UNL     1       1.149   1.238   0.505  0.00  0.00    -0.329 OA
BRANCH  17  18
ATOM     18  C   UNL     1      -0.030   0.769  -0.131  0.00  0.00    +0.145 C 
BRANCH  18  19
ATOM     19  C   UNL     1      -1.257   1.320   0.583  0.00  0.00    +0.034 C 
BRANCH  19  20
ATOM     20  C   UNL     1      -2.552   0.823  -0.057  0.00  0.00    +0.022 C 
BRANCH  20  21
ATOM     21  C   UNL     1      -3.776   1.415   0.641  0.00  0.00    +0.093 C 
BRANCH  21  22
ATOM     22  N   UNL     1      -5.000   0.922   0.021  0.00  0.00    -0.176 NA
BRANCH  22  24
ATOM     23  O   UNL     1      -5.880   2.537  -1.011  0.00  0.00    -0.082 OA
ATOM     24  N   UNL     1      -5.985   1.801  -0.022  0.00  0.00    +0.032 NA
ENDBRANCH  22  24
BRANCH  22  25
ATOM     25  C   UNL     1      -5.421  -0.327   0.671  0.00  0.00    +0.093 C 
BRANCH  25  26
ATOM     26  C   UNL     1      -6.133  -1.234  -0.331  0.00  0.00    +0.019 C 
BRANCH  26  27
ATOM     27  C   UNL     1      -6.561  -2.549   0.320  0.00  0.00    +0.001 C 
ATOM     28  C   UNL     1      -7.302  -3.443  -0.662  0.00  0.00    +0.000 C 
ENDBRANCH  26  27
ENDBRANCH  25  26
ENDBRANCH  22  25
ENDBRANCH  21  22
ENDBRANCH  20  21
ENDBRANCH  19  20
ENDBRANCH  18  19
ENDBRANCH  17  18
ENDBRANCH   5  17
TORSDOF 15
