REMARK  Name = 127632
REMARK  5 active torsions:
REMARK  status: ('A' for Active; 'I' for Inactive)
REMARK    1  A    between atoms: C_5  and  O_21
REMARK    2  A    between atoms: C_8  and  O_23
REMARK    3  A    between atoms: C_9  and  O_25
REMARK    4  A    between atoms: C_10  and  O_27
REMARK    5  A    between atoms: C_18  and  C_29
REMARK                            x       y       z     vdW  Elec       q    Type
REMARK                         _______ _______ _______ _____ _____    ______ ____
ROOT
ATOM      1  O   UNL     1       2.408  -0.661   0.576  0.00  0.00    -0.354 OA
ATOM      2  O   UNL     1       0.820   2.764  -1.070  0.00  0.00    -0.293 OA
ATOM      3  C   UNL     1      -1.131   0.635  -0.405  0.00  0.00    +0.058 C 
ATOM      4  C   UNL     1      -1.875  -0.525   0.394  0.00  0.00    +0.034 C 
ATOM      5  C   UNL     1       0.409   0.628   0.020  0.00  0.00    +0.166 C 
ATOM      6  C   UNL     1      -3.447  -0.617   0.169  0.00  0.00    +0.003 C 
ATOM      7  C   UNL     1       1.136  -0.746  -0.115  0.00  0.00    +0.148 C 
ATOM      8  C   UNL     1      -1.147  -1.901   0.346  0.00  0.00    +0.140 C 
ATOM      9  C   UNL     1      -1.865   2.018  -0.081  0.00  0.00    +0.113 C 
ATOM     10  C   UNL     1       0.344  -1.801   0.705  0.00  0.00    +0.164 C 
ATOM     11  C   UNL     1      -4.063   0.767  -0.148  0.00  0.00    +0.003 C 
ATOM     12  C   UNL     1      -3.282   1.893   0.488  0.00  0.00    +0.029 C 
ATOM     13  C   UNL     1      -1.267   0.435  -1.937  0.00  0.00    +0.005 C 
ATOM     14  C   UNL     1       1.282   1.716  -0.616  0.00  0.00    +0.180 C 
ATOM     15  C   UNL     1       1.441  -1.256  -1.539  0.00  0.00    +0.035 C 
ATOM     16  C   UNL     1      -4.091  -1.134   1.486  0.00  0.00    +0.000 C 
ATOM     17  C   UNL     1      -3.909  -1.583  -0.941  0.00  0.00    +0.000 C 
ATOM     18  C   UNL     1       3.308   0.405   0.259  0.00  0.00    +0.118 C 
ATOM     19  C   UNL     1       2.772   1.468  -0.710  0.00  0.00    +0.098 C 
ATOM     20  C   UNL     1       3.700   1.060   1.593  0.00  0.00    +0.035 C 
ENDROOT
BRANCH   5  21
ATOM     21  O   UNL     1       0.484   0.943   1.429  0.00  0.00    -0.377 OA
ATOM     22  H   UNL     1      -0.043   0.303   1.931  0.00  0.00    +0.211 HD
ENDBRANCH   5  21
BRANCH   8  23
ATOM     23  O   UNL     1      -1.291  -2.533  -0.919  0.00  0.00    -0.382 OA
ATOM     24  H   UNL     1      -2.233  -2.595  -1.144  0.00  0.00    +0.210 HD
ENDBRANCH   8  23
BRANCH   9  25
ATOM     25  O   UNL     1      -1.156   2.845   0.841  0.00  0.00    -0.384 OA
ATOM     26  H   UNL     1      -0.244   2.964   0.533  0.00  0.00    +0.210 HD
ENDBRANCH   9  25
BRANCH  10  27
ATOM     27  O   UNL     1       0.956  -3.086   0.568  0.00  0.00    -0.380 OA
ATOM     28  H   UNL     1       1.897  -3.022   0.795  0.00  0.00    +0.211 HD
ENDBRANCH  10  27
BRANCH  18  29
ATOM     29  C   UNL     1       4.545  -0.235  -0.317  0.00  0.00    +0.001 C 
ATOM     30  C   UNL     1       4.918  -1.496  -0.074  0.00  0.00    -0.003 C 
ENDBRANCH  18  29
TORSDOF 5
