REMARK  Name = 127695
REMARK  11 active torsions:
REMARK  status: ('A' for Active; 'I' for Inactive)
REMARK    1  A    between atoms: C_1  and  C_23
REMARK    2  A    between atoms: C_2  and  O_7
REMARK    3  A    between atoms: C_3  and  O_11
REMARK    4  A    between atoms: C_5  and  O_15
REMARK    5  A    between atoms: C_6  and  O_19
REMARK    6  A    between atoms: O_7  and  C_9
REMARK    7  A    between atoms: O_11  and  C_13
REMARK    8  A    between atoms: O_15  and  C_17
REMARK    9  A    between atoms: O_19  and  C_21
REMARK   10  A    between atoms: C_23  and  O_24
REMARK   11  A    between atoms: O_24  and  C_26
REMARK                            x       y       z     vdW  Elec       q    Type
REMARK                         _______ _______ _______ _____ _____    ______ ____
ROOT
ATOM      1  C   UNL     1      -1.552   0.106   0.267  0.00  0.00    +0.091 C 
ATOM      2  C   UNL     1      -0.623   1.259  -0.145  0.00  0.00    +0.216 C 
ATOM      3  C   UNL     1       0.831   0.994   0.260  0.00  0.00    +0.252 C 
ATOM      4  C   UNL     1      -1.037  -1.227  -0.278  0.00  0.00    +0.055 C 
ATOM      5  C   UNL     1       1.337  -0.365  -0.228  0.00  0.00    +0.252 C 
ATOM      6  C   UNL     1       0.397  -1.504   0.164  0.00  0.00    +0.213 C 
ENDROOT
BRANCH   2   7
ATOM      7  O   UNL     1      -1.071   2.453   0.499  0.00  0.00    -0.448 OA
BRANCH   7   9
ATOM      8  O   UNL     1      -0.310   3.712  -1.282  0.00  0.00    -0.250 OA
ATOM      9  C   UNL     1      -0.849   3.611  -0.188  0.00  0.00    +0.318 C 
ATOM     10  C   UNL     1      -1.368   4.773   0.602  0.00  0.00    +0.121 C 
ENDBRANCH   7   9
ENDBRANCH   2   7
BRANCH   3  11
ATOM     11  O   UNL     1       1.667   1.999  -0.321  0.00  0.00    -0.445 OA
BRANCH  11  13
ATOM     12  O   UNL     1       3.123   1.833   1.465  0.00  0.00    -0.250 OA
ATOM     13  C   UNL     1       2.783   2.319   0.395  0.00  0.00    +0.318 C 
ATOM     14  C   UNL     1       3.557   3.378  -0.330  0.00  0.00    +0.121 C 
ENDBRANCH  11  13
ENDBRANCH   3  11
BRANCH   5  15
ATOM     15  O   UNL     1       2.617  -0.590   0.369  0.00  0.00    -0.445 OA
BRANCH  15  17
ATOM     16  O   UNL     1       3.282  -1.793  -1.488  0.00  0.00    -0.250 OA
ATOM     17  C   UNL     1       3.491  -1.323  -0.378  0.00  0.00    +0.318 C 
ATOM     18  C   UNL     1       4.782  -1.478   0.368  0.00  0.00    +0.121 C 
ENDBRANCH  15  17
ENDBRANCH   5  15
BRANCH   6  19
ATOM     19  O   UNL     1       0.818  -2.714  -0.464  0.00  0.00    -0.448 OA
BRANCH  19  21
ATOM     20  O   UNL     1      -0.026  -3.941   1.301  0.00  0.00    -0.250 OA
ATOM     21  C   UNL     1       0.540  -3.862   0.220  0.00  0.00    +0.318 C 
ATOM     22  C   UNL     1       1.037  -5.044  -0.556  0.00  0.00    +0.121 C 
ENDBRANCH  19  21
ENDBRANCH   6  19
BRANCH   1  23
ATOM     23  C   UNL     1      -2.989   0.352  -0.204  0.00  0.00    +0.212 C 
BRANCH  23  24
ATOM     24  O   UNL     1      -3.798  -0.709   0.264  0.00  0.00    -0.448 OA
BRANCH  24  26
ATOM     25  O   UNL     1      -5.657   0.236  -0.731  0.00  0.00    -0.250 OA
ATOM     26  C   UNL     1      -5.126  -0.647  -0.071  0.00  0.00    +0.318 C 
ATOM     27  C   UNL     1      -5.856  -1.830   0.489  0.00  0.00    +0.121 C 
ENDBRANCH  24  26
ENDBRANCH  23  24
ENDBRANCH   1  23
TORSDOF 11
