REMARK  Name = 127678
REMARK  5 active torsions:
REMARK  status: ('A' for Active; 'I' for Inactive)
REMARK    1  A    between atoms: C_4  and  C_15
REMARK    2  A    between atoms: C_5  and  C_13
REMARK    3  A    between atoms: C_16  and  O_21
REMARK    4  A    between atoms: O_21  and  C_22
REMARK    5  A    between atoms: C_22  and  C_23
REMARK                            x       y       z     vdW  Elec       q    Type
REMARK                         _______ _______ _______ _____ _____    ______ ____
ROOT
ATOM      1  O   UNL     1       1.768   1.226   1.662  0.00  0.00    -0.269 OA
ATOM      2  N   UNL     1      -0.048   0.086   0.827  0.00  0.00    -0.265 N 
ATOM      3  N   UNL     1       0.185  -1.621  -0.781  0.00  0.00    -0.228 NA
ATOM      4  C   UNL     1      -0.562  -0.898  -0.005  0.00  0.00    +0.137 C 
ATOM      5  C   UNL     1       2.160  -0.432  -0.014  0.00  0.00    +0.138 C 
ATOM      6  C   UNL     1       1.301   0.382   0.902  0.00  0.00    +0.262 C 
ATOM      7  C   UNL     1       1.530  -1.357  -0.761  0.00  0.00    +0.115 C 
ATOM      8  H   UNL     1      -0.673   0.597   1.391  0.00  0.00    +0.157 HD
ENDROOT
BRANCH   5  13
ATOM      9  N   UNL     1       4.258   0.692   0.661  0.00  0.00    -0.109 NA
ATOM     10  N   UNL     1       4.350  -0.961  -0.884  0.00  0.00    -0.086 NA
ATOM     11  N   UNL     1       5.493   0.436   0.209  0.00  0.00    -0.140 N 
ATOM     12  N   UNL     1       5.596  -0.536  -0.708  0.00  0.00    -0.022 NA
ATOM     13  C   UNL     1       3.580  -0.207  -0.053  0.00  0.00    +0.079 C 
ATOM     14  H   UNL     1       6.280   0.933   0.531  0.00  0.00    +0.197 HD
ENDBRANCH   5  13
BRANCH   4  15
ATOM     15  C   UNL     1      -2.032  -1.109   0.035  0.00  0.00    +0.066 C 
ATOM     16  C   UNL     1      -2.899  -0.053   0.319  0.00  0.00    +0.141 C 
ATOM     17  C   UNL     1      -2.542  -2.383  -0.214  0.00  0.00    +0.006 C 
ATOM     18  C   UNL     1      -4.276  -0.272   0.353  0.00  0.00    +0.037 C 
ATOM     19  C   UNL     1      -3.919  -2.602  -0.179  0.00  0.00    +0.000 C 
ATOM     20  C   UNL     1      -4.786  -1.546   0.104  0.00  0.00    +0.003 C 
BRANCH  16  21
ATOM     21  O   UNL     1      -2.420   1.199   0.566  0.00  0.00    -0.475 OA
BRANCH  21  22
ATOM     22  C   UNL     1      -2.850   2.241  -0.307  0.00  0.00    +0.205 C 
BRANCH  22  23
ATOM     23  C   UNL     1      -1.746   3.281  -0.413  0.00  0.00    +0.047 C 
ATOM     24  C   UNL     1      -2.140   4.434  -1.319  0.00  0.00    +0.004 C 
ENDBRANCH  22  23
ENDBRANCH  21  22
ENDBRANCH  16  21
ENDBRANCH   4  15
TORSDOF 5
