REMARK  Name = 127656
REMARK  9 active torsions:
REMARK  status: ('A' for Active; 'I' for Inactive)
REMARK    1  A    between atoms: C_2  and  C_20
REMARK    2  A    between atoms: C_3  and  O_6
REMARK    3  A    between atoms: C_4  and  O_8
REMARK    4  A    between atoms: C_5  and  O_10
REMARK    5  A    between atoms: O_10  and  C_11
REMARK    6  A    between atoms: C_16  and  N_19
REMARK    7  A    between atoms: C_20  and  O_21
REMARK    8  A    between atoms: C_20  and  C_23
REMARK    9  A    between atoms: C_23  and  O_24
REMARK                            x       y       z     vdW  Elec       q    Type
REMARK                         _______ _______ _______ _____ _____    ______ ____
ROOT
ATOM      1  O   UNL     1       1.345  -0.158   0.113  0.00  0.00    -0.316 OA
ATOM      2  C   UNL     1       2.721  -0.341   0.481  0.00  0.00    +0.177 C 
ATOM      3  C   UNL     1       3.464   0.855  -0.090  0.00  0.00    +0.173 C 
ATOM      4  C   UNL     1       2.445   1.953   0.106  0.00  0.00    +0.210 C 
ATOM      5  C   UNL     1       1.143   1.229  -0.207  0.00  0.00    +0.318 C 
ENDROOT
BRANCH   3   6
ATOM      6  O   UNL     1       4.657   1.106   0.627  0.00  0.00    -0.379 OA
ATOM      7  H   UNL     1       5.284   0.381   0.476  0.00  0.00    +0.211 HD
ENDBRANCH   3   6
BRANCH   4   8
ATOM      8  O   UNL     1       2.671   3.023  -0.794  0.00  0.00    -0.377 OA
ATOM      9  H   UNL     1       3.506   3.464  -0.569  0.00  0.00    +0.211 HD
ENDBRANCH   4   8
BRANCH   5  10
ATOM     10  O   UNL     1       0.048   1.783   0.507  0.00  0.00    -0.451 OA
BRANCH  10  11
ATOM     11  C   UNL     1      -1.169   1.176   0.338  0.00  0.00    +0.141 C 
ATOM     12  C   UNL     1      -1.733   1.108  -0.931  0.00  0.00    +0.039 C 
ATOM     13  C   UNL     1      -1.826   0.634   1.436  0.00  0.00    +0.039 C 
ATOM     14  C   UNL     1      -2.972   0.489  -1.103  0.00  0.00    +0.027 C 
ATOM     15  C   UNL     1      -3.064   0.015   1.264  0.00  0.00    +0.027 C 
ATOM     16  C   UNL     1      -3.637  -0.058  -0.006  0.00  0.00    +0.143 C 
BRANCH  16  19
ATOM     17  O   UNL     1      -5.392  -0.735  -1.333  0.00  0.00    -0.126 OA
ATOM     18  O   UNL     1      -5.475  -1.168   0.821  0.00  0.00    -0.126 OA
ATOM     19  N   UNL     1      -4.899  -0.685  -0.182  0.00  0.00    +0.058 N 
ENDBRANCH  16  19
ENDBRANCH  10  11
ENDBRANCH   5  10
BRANCH   2  20
ATOM     20  C   UNL     1       3.223  -1.670  -0.051  0.00  0.00    +0.169 C 
BRANCH  20  21
ATOM     21  O   UNL     1       3.108  -1.670  -1.474  0.00  0.00    -0.379 OA
ATOM     22  H   UNL     1       3.624  -0.935  -1.839  0.00  0.00    +0.211 HD
ENDBRANCH  20  21
BRANCH  20  23
ATOM     23  C   UNL     1       2.405  -2.833   0.494  0.00  0.00    +0.169 C 
BRANCH  23  24
ATOM     24  O   UNL     1       2.937  -4.052  -0.015  0.00  0.00    -0.379 OA
ATOM     25  H   UNL     1       2.421  -4.798   0.327  0.00  0.00    +0.211 HD
ENDBRANCH  23  24
ENDBRANCH  20  23
ENDBRANCH   2  20
TORSDOF 9
