127693
  -OEChem-03292013323D

 41 44  0     0  0  0  0  0  0999 V2000
   -0.6525    2.2337    0.0156 O   0  0  0  0  0  0  0  0  0  0  0  0
    1.8242    2.2963    0.0107 O   0  0  0  0  0  0  0  0  0  0  0  0
    4.3543    2.5653    0.0002 O   0  0  0  0  0  0  0  0  0  0  0  0
   -5.2289   -2.2214    0.0203 O   0  0  0  0  0  0  0  0  0  0  0  0
    6.9566   -1.3896   -0.0206 O   0  0  0  0  0  0  0  0  0  0  0  0
   -5.9805    0.7956   -1.2293 O   0  0  0  0  0  0  0  0  0  0  0  0
   -6.1521    0.8741    1.0359 O   0  0  0  0  0  0  0  0  0  0  0  0
    0.7666   -1.1487    0.0063 C   0  0  0  0  0  0  0  0  0  0  0  0
    2.0900   -1.8637    0.0012 C   0  0  0  0  0  0  0  0  0  0  0  0
    0.6680    0.2438    0.0095 C   0  0  0  0  0  0  0  0  0  0  0  0
   -1.7669    0.1061    0.0165 C   0  0  0  0  0  0  0  0  0  0  0  0
    3.3066   -0.9796   -0.0032 C   0  0  0  0  0  0  0  0  0  0  0  0
   -1.6788   -1.3035    0.0131 C   0  0  0  0  0  0  0  0  0  0  0  0
   -0.5872    0.8678    0.0145 C   0  0  0  0  0  0  0  0  0  0  0  0
    3.2174    0.4163    0.0004 C   0  0  0  0  0  0  0  0  0  0  0  0
   -0.4126   -1.9113    0.0084 C   0  0  0  0  0  0  0  0  0  0  0  0
    1.8928    1.0736    0.0069 C   0  0  0  0  0  0  0  0  0  0  0  0
   -3.0330    0.7149    0.0212 C   0  0  0  0  0  0  0  0  0  0  0  0
   -2.8584   -2.0661    0.0145 C   0  0  0  0  0  0  0  0  0  0  0  0
    4.5770   -1.5764   -0.0102 C   0  0  0  0  0  0  0  0  0  0  0  0
   -4.1951   -0.0572    0.0225 C   0  0  0  0  0  0  0  0  0  0  0  0
    4.3775    1.2020   -0.0027 C   0  0  0  0  0  0  0  0  0  0  0  0
   -4.1079   -1.4457    0.0190 C   0  0  0  0  0  0  0  0  0  0  0  0
   -3.2285    2.2040    0.0248 C   0  0  0  0  0  0  0  0  0  0  0  0
    5.7326   -0.7948   -0.0132 C   0  0  0  0  0  0  0  0  0  0  0  0
    5.6322    0.5936   -0.0093 C   0  0  0  0  0  0  0  0  0  0  0  0
   -5.5139    0.5710    0.0270 C   0  0  0  0  0  0  0  0  0  0  0  0
    2.1294   -2.5034   -0.8898 H   0  0  0  0  0  0  0  0  0  0  0  0
    2.1361   -2.5037    0.8917 H   0  0  0  0  0  0  0  0  0  0  0  0
   -0.3369   -2.9982    0.0059 H   0  0  0  0  0  0  0  0  0  0  0  0
   -2.8061   -3.1536    0.0119 H   0  0  0  0  0  0  0  0  0  0  0  0
    4.6648   -2.6610   -0.0131 H   0  0  0  0  0  0  0  0  0  0  0  0
   -2.7905    2.6463    0.9264 H   0  0  0  0  0  0  0  0  0  0  0  0
   -2.8013    2.6493   -0.8805 H   0  0  0  0  0  0  0  0  0  0  0  0
   -4.2682    2.5400    0.0326 H   0  0  0  0  0  0  0  0  0  0  0  0
    6.5356    1.1990   -0.0119 H   0  0  0  0  0  0  0  0  0  0  0  0
    0.1433    2.6116   -0.3893 H   0  0  0  0  0  0  0  0  0  0  0  0
    5.2638    2.9094   -0.0028 H   0  0  0  0  0  0  0  0  0  0  0  0
   -6.0283   -1.6710    0.0221 H   0  0  0  0  0  0  0  0  0  0  0  0
    7.6429   -0.7004   -0.0219 H   0  0  0  0  0  0  0  0  0  0  0  0
   -6.8655    1.2186   -1.2202 H   0  0  0  0  0  0  0  0  0  0  0  0
  1 14  1  0  0  0  0
  1 37  1  0  0  0  0
  2 17  2  0  0  0  0
  3 22  1  0  0  0  0
  3 38  1  0  0  0  0
  4 23  1  0  0  0  0
  4 39  1  0  0  0  0
  5 25  1  0  0  0  0
  5 40  1  0  0  0  0
  6 27  1  0  0  0  0
  6 41  1  0  0  0  0
  7 27  2  0  0  0  0
  8  9  1  0  0  0  0
  8 10  2  0  0  0  0
  8 16  1  0  0  0  0
  9 12  1  0  0  0  0
  9 28  1  0  0  0  0
  9 29  1  0  0  0  0
 10 14  1  0  0  0  0
 10 17  1  0  0  0  0
 11 13  1  0  0  0  0
 11 14  2  0  0  0  0
 11 18  1  0  0  0  0
 12 15  2  0  0  0  0
 12 20  1  0  0  0  0
 13 16  2  0  0  0  0
 13 19  1  0  0  0  0
 15 17  1  0  0  0  0
 15 22  1  0  0  0  0
 16 30  1  0  0  0  0
 18 21  2  0  0  0  0
 18 24  1  0  0  0  0
 19 23  2  0  0  0  0
 19 31  1  0  0  0  0
 20 25  2  0  0  0  0
 20 32  1  0  0  0  0
 21 23  1  0  0  0  0
 21 27  1  0  0  0  0
 22 26  2  0  0  0  0
 24 33  1  0  0  0  0
 24 34  1  0  0  0  0
 24 35  1  0  0  0  0
 25 26  1  0  0  0  0
 26 36  1  0  0  0  0
M  END
> <PUBCHEM_COMPOUND_CID>
127693

> <PUBCHEM_CONFORMER_RMSD>
0.6

> <PUBCHEM_CONFORMER_DIVERSEORDER>
1

> <PUBCHEM_MMFF94_PARTIAL_CHARGES>
34
1 -0.53
10 0.09
12 -0.14
14 0.08
15 0.09
16 -0.15
17 0.4
18 -0.14
19 -0.15
2 -0.57
20 -0.15
21 0.09
22 0.08
23 0.08
24 0.14
25 0.08
26 -0.15
27 0.63
3 -0.53
30 0.15
31 0.15
32 0.15
36 0.15
37 0.45
38 0.45
39 0.45
4 -0.53
40 0.45
41 0.5
5 -0.53
6 -0.65
7 -0.57
8 -0.14
9 0.29

> <PUBCHEM_EFFECTIVE_ROTOR_COUNT>
1.2

> <PUBCHEM_PHARMACOPHORE_FEATURES>
12
1 1 donor
1 2 acceptor
1 3 donor
1 4 donor
1 5 donor
1 6 acceptor
1 7 acceptor
3 6 7 27 anion
6 11 13 18 19 21 23 rings
6 12 15 20 22 25 26 rings
6 8 10 11 13 14 16 rings
6 8 9 10 12 15 17 rings

> <PUBCHEM_HEAVY_ATOM_COUNT>
27

> <PUBCHEM_ATOM_DEF_STEREO_COUNT>
0

> <PUBCHEM_ATOM_UDEF_STEREO_COUNT>
0

> <PUBCHEM_BOND_DEF_STEREO_COUNT>
0

> <PUBCHEM_BOND_UDEF_STEREO_COUNT>
0

> <PUBCHEM_ISOTOPIC_ATOM_COUNT>
0

> <PUBCHEM_COMPONENT_COUNT>
1

> <PUBCHEM_CACTVS_TAUTO_COUNT>
996

> <PUBCHEM_CONFORMER_ID>
0001F2CD00000001

> <PUBCHEM_MMFF94_ENERGY>
103.288

> <PUBCHEM_FEATURE_SELFOVERLAP>
61.02

> <PUBCHEM_SHAPE_FINGERPRINT>
10835480 77 18339072799969617312
10906281 52 18339943552943343543
11315181 36 18273498978718432738
11524674 6 16845573123425844447
11578080 2 16986573494339940882
12107183 9 17761208817346330530
12166972 35 17967536783305054452
12236239 1 18060700597721721342
12403259 415 18187356619175139301
12788726 201 17560808663067629825
12838862 33 18337934728056405368
13140716 1 18339083786410908619
13402501 40 18410292510174746991
13862211 1 18410854369660454566
14341114 176 18408890637323875329
14790565 3 18411422825413581929
15183329 4 18410291397783498571
15196674 1 18410856598315730666
15788980 27 18113621191857147979
15927050 60 17623287586903948884
16087824 20 18265615377954814125
17844677 252 18411144653472437200
1813 80 17167578319292164916
18681886 176 18341889715085459002
200 152 18131350829734825595
20028762 73 18272367594629886110
21033648 29 17676754423279807021
21130935 74 18272369785004963730
21236236 1 18412825789872007479
21267235 1 18410581686465994074
21279426 13 18410011030950607070
21421861 104 18041269959843696746
21709351 56 18334851749381918311
21859007 373 17896857912171186340
23402539 116 18342452660216489735
23522609 53 18193308305697437965
23559900 14 18341043120390123777
3004659 81 18333168371658096592
335352 9 18410856555350162414
34934 24 18410289211983196747
350125 39 18410294709451463492
3545911 37 18410012117545638679
3633792 109 18339071598296373805
3680242 22 18333726893215737618
4073 2 18041566931188966242
4214541 1 18410856542597258824
5104073 3 18410292548856028682
59755656 215 18336544919578465606
59755656 520 17022621979041032035
6138700 20 18337111172894857474
9709674 26 18263930002063040594

> <PUBCHEM_SHAPE_MULTIPOLES>
514.56
14.87
2.51
0.67
2.04
0.3
-0.02
-0.52
-0.12
0.02
0.01
-0.43
0.04
0.02

> <PUBCHEM_SHAPE_SELFOVERLAP>
1177.562

> <PUBCHEM_SHAPE_VOLUME>
265.4

> <PUBCHEM_COORDINATE_TYPE>
2
5
10

$$$$
