REMARK  Name = 127689
REMARK  9 active torsions:
REMARK  status: ('A' for Active; 'I' for Inactive)
REMARK    1  A    between atoms: C_2  and  O_7
REMARK    2  A    between atoms: C_3  and  O_9
REMARK    3  A    between atoms: C_4  and  O_11
REMARK    4  A    between atoms: C_5  and  C_25
REMARK    5  A    between atoms: C_6  and  O_13
REMARK    6  A    between atoms: O_13  and  C_14
REMARK    7  A    between atoms: C_15  and  C_21
REMARK    8  A    between atoms: C_18  and  O_23
REMARK    9  A    between atoms: C_25  and  O_26
REMARK                            x       y       z     vdW  Elec       q    Type
REMARK                         _______ _______ _______ _____ _____    ______ ____
ROOT
ATOM      1  O   UNL     1       1.437   0.836  -0.554  0.00  0.00    -0.316 OA
ATOM      2  C   UNL     1       2.949  -1.398   0.433  0.00  0.00    +0.173 C 
ATOM      3  C   UNL     1       3.606  -0.081   0.020  0.00  0.00    +0.169 C 
ATOM      4  C   UNL     1       1.583  -1.567  -0.233  0.00  0.00    +0.210 C 
ATOM      5  C   UNL     1       2.632   1.088   0.187  0.00  0.00    +0.177 C 
ATOM      6  C   UNL     1       0.730  -0.307  -0.079  0.00  0.00    +0.318 C 
ENDROOT
BRANCH   2   7
ATOM      7  O   UNL     1       3.809  -2.465   0.031  0.00  0.00    -0.379 OA
ATOM      8  H   UNL     1       4.675  -2.359   0.453  0.00  0.00    +0.211 HD
ENDBRANCH   2   7
BRANCH   3   9
ATOM      9  O   UNL     1       4.757   0.146   0.831  0.00  0.00    -0.379 OA
ATOM     10  H   UNL     1       5.376  -0.594   0.727  0.00  0.00    +0.211 HD
ENDBRANCH   3   9
BRANCH   4  11
ATOM     11  O   UNL     1       0.889  -2.654   0.379  0.00  0.00    -0.377 OA
ATOM     12  H   UNL     1       1.415  -3.463   0.292  0.00  0.00    +0.211 HD
ENDBRANCH   4  11
BRANCH   6  13
ATOM     13  O   UNL     1      -0.462  -0.488  -0.843  0.00  0.00    -0.450 OA
BRANCH  13  14
ATOM     14  C   UNL     1      -1.582   0.155  -0.391  0.00  0.00    +0.147 C 
ATOM     15  C   UNL     1      -2.722  -0.564  -0.040  0.00  0.00    +0.069 C 
ATOM     16  C   UNL     1      -1.567   1.543  -0.288  0.00  0.00    +0.074 C 
ATOM     17  C   UNL     1      -3.855   0.110   0.415  0.00  0.00    +0.009 C 
ATOM     18  C   UNL     1      -2.700   2.218   0.168  0.00  0.00    +0.137 C 
ATOM     19  C   UNL     1      -3.844   1.501   0.519  0.00  0.00    +0.037 C 
BRANCH  15  21
ATOM     20  O   UNL     1      -2.081  -2.621  -1.000  0.00  0.00    -0.291 OA
ATOM     21  C   UNL     1      -2.757  -2.016  -0.145  0.00  0.00    +0.176 C 
ATOM     22  C   UNL     1      -3.631  -2.833   0.798  0.00  0.00    +0.077 C 
ENDBRANCH  15  21
BRANCH  18  23
ATOM     23  O   UNL     1      -2.688   3.575   0.271  0.00  0.00    -0.505 OA
ATOM     24  H   UNL     1      -1.920   4.056   0.034  0.00  0.00    +0.292 HD
ENDBRANCH  18  23
ENDBRANCH  13  14
ENDBRANCH   6  13
BRANCH   5  25
ATOM     25  C   UNL     1       3.226   2.396  -0.328  0.00  0.00    +0.169 C 
BRANCH  25  26
ATOM     26  O   UNL     1       2.269   3.425  -0.152  0.00  0.00    -0.379 OA
ATOM     27  H   UNL     1       2.634   4.264  -0.476  0.00  0.00    +0.211 HD
ENDBRANCH  25  26
ENDBRANCH   5  25
TORSDOF 9
