REMARK  Name = 127693
REMARK  6 active torsions:
REMARK  status: ('A' for Active; 'I' for Inactive)
REMARK    1  A    between atoms: C_8  and  O_21
REMARK    2  A    between atoms: C_15  and  C_30
REMARK    3  A    between atoms: C_16  and  O_23
REMARK    4  A    between atoms: C_17  and  O_25
REMARK    5  A    between atoms: C_19  and  O_27
REMARK    6  A    between atoms: C_30  and  O_31
REMARK                            x       y       z     vdW  Elec       q    Type
REMARK                         _______ _______ _______ _____ _____    ______ ____
ROOT
ATOM      1  O   UNL     1       1.824   2.296   0.011  0.00  0.00    -0.286 OA
ATOM      2  C   UNL     1       0.767  -1.149   0.006  0.00  0.00    -0.012 C 
ATOM      3  C   UNL     1       2.090  -1.864   0.001  0.00  0.00    +0.053 C 
ATOM      4  C   UNL     1       0.668   0.244   0.009  0.00  0.00    +0.069 C 
ATOM      5  C   UNL     1      -1.767   0.106   0.017  0.00  0.00    +0.030 C 
ATOM      6  C   UNL     1       3.307  -0.980  -0.003  0.00  0.00    -0.009 C 
ATOM      7  C   UNL     1      -1.679  -1.304   0.013  0.00  0.00    +0.005 C 
ATOM      8  C   UNL     1      -0.587   0.868   0.015  0.00  0.00    +0.136 C 
ATOM      9  C   UNL     1       3.217   0.416   0.000  0.00  0.00    +0.069 C 
ATOM     10  C   UNL     1      -0.413  -1.911   0.008  0.00  0.00    -0.004 C 
ATOM     11  C   UNL     1       1.893   1.074   0.007  0.00  0.00    +0.201 C 
ATOM     12  C   UNL     1      -3.033   0.715   0.021  0.00  0.00    -0.010 C 
ATOM     13  C   UNL     1      -2.858  -2.066   0.015  0.00  0.00    +0.037 C 
ATOM     14  C   UNL     1       4.577  -1.576  -0.010  0.00  0.00    +0.033 C 
ATOM     15  C   UNL     1      -4.195  -0.057   0.022  0.00  0.00    +0.105 C 
ATOM     16  C   UNL     1       4.378   1.202  -0.003  0.00  0.00    +0.139 C 
ATOM     17  C   UNL     1      -4.108  -1.446   0.019  0.00  0.00    +0.140 C 
ATOM     18  C   UNL     1      -3.228   2.204   0.025  0.00  0.00    +0.031 C 
ATOM     19  C   UNL     1       5.733  -0.795  -0.013  0.00  0.00    +0.136 C 
ATOM     20  C   UNL     1       5.632   0.594  -0.009  0.00  0.00    +0.073 C 
ENDROOT
BRANCH   8  21
ATOM     21  O   UNL     1      -0.652   2.234   0.016  0.00  0.00    -0.505 OA
ATOM     22  H   UNL     1       0.136   2.740   0.014  0.00  0.00    +0.292 HD
ENDBRANCH   8  21
BRANCH  16  23
ATOM     23  O   UNL     1       4.354   2.565   0.000  0.00  0.00    -0.505 OA
ATOM     24  H   UNL     1       3.535   3.020   0.005  0.00  0.00    +0.292 HD
ENDBRANCH  16  23
BRANCH  17  25
ATOM     25  O   UNL     1      -5.229  -2.221   0.020  0.00  0.00    -0.505 OA
ATOM     26  H   UNL     1      -5.152  -3.155   0.018  0.00  0.00    +0.292 HD
ENDBRANCH  17  25
BRANCH  19  27
ATOM     27  O   UNL     1       6.957  -1.390  -0.021  0.00  0.00    -0.505 OA
ATOM     28  H   UNL     1       7.023  -2.324  -0.023  0.00  0.00    +0.292 HD
ENDBRANCH  19  27
BRANCH  15  30
ATOM     29  O   UNL     1      -6.152   0.874   1.036  0.00  0.00    -0.245 OA
ATOM     30  C   UNL     1      -5.514   0.571   0.027  0.00  0.00    +0.341 C 
BRANCH  30  31
ATOM     31  O   UNL     1      -5.981   0.796  -1.229  0.00  0.00    -0.477 OA
ATOM     32  H   UNL     1      -5.464   0.550  -1.972  0.00  0.00    +0.295 HD
ENDBRANCH  30  31
ENDBRANCH  15  30
TORSDOF 6
