REMARK  Name = 127699
REMARK  11 active torsions:
REMARK  status: ('A' for Active; 'I' for Inactive)
REMARK    1  A    between atoms: C_2  and  O_17
REMARK    2  A    between atoms: C_3  and  O_19
REMARK    3  A    between atoms: C_4  and  C_21
REMARK    4  A    between atoms: C_5  and  N_6
REMARK    5  A    between atoms: C_9  and  C_14
REMARK    6  A    between atoms: C_21  and  O_22
REMARK    7  A    between atoms: O_22  and  P_23
REMARK    8  A    between atoms: P_23  and  S_26
REMARK    9  A    between atoms: S_26  and  C_27
REMARK   10  A    between atoms: C_27  and  C_29
REMARK   11  A    between atoms: C_29  and  C_31
REMARK                            x       y       z     vdW  Elec       q    Type
REMARK                         _______ _______ _______ _____ _____    ______ ____
ROOT
ATOM      1  O   UNL     1       0.613   1.204  -0.853  0.00  0.00    -0.333 OA
ATOM      2  C   UNL     1       0.474   3.058   0.583  0.00  0.00    +0.171 C 
ATOM      3  C   UNL     1      -0.675   3.176  -0.401  0.00  0.00    +0.187 C 
ATOM      4  C   UNL     1       1.441   2.152  -0.159  0.00  0.00    +0.176 C 
ATOM      5  C   UNL     1      -0.676   1.810  -1.079  0.00  0.00    +0.223 C 
ENDROOT
BRANCH   5   6
ATOM      6  N   UNL     1      -1.785   0.972  -0.547  0.00  0.00    -0.279 N 
ATOM      7  C   UNL     1      -1.563   0.221   0.540  0.00  0.00    +0.124 C 
ATOM      8  C   UNL     1      -2.970   0.997  -1.172  0.00  0.00    +0.063 C 
ATOM      9  C   UNL     1      -2.579  -0.569   1.058  0.00  0.00    +0.051 C 
ATOM     10  C   UNL     1      -4.022   0.227  -0.699  0.00  0.00    +0.016 C 
ATOM     11  C   UNL     1      -3.820  -0.563   0.429  0.00  0.00    +0.003 C 
BRANCH   9  14
ATOM     12  O   UNL     1      -3.242  -2.115   2.707  0.00  0.00    -0.271 OA
ATOM     13  N   UNL     1      -1.084  -1.348   2.818  0.00  0.00    -0.326 N 
ATOM     14  C   UNL     1      -2.349  -1.387   2.237  0.00  0.00    +0.240 C 
ATOM     15  H   UNL     1      -0.892  -1.889   3.617  0.00  0.00    +0.145 HD
ATOM     16  H   UNL     1      -0.382  -0.778   2.429  0.00  0.00    +0.145 HD
ENDBRANCH   9  14
ENDBRANCH   5   6
BRANCH   2  17
ATOM     17  O   UNL     1       1.058   4.299   0.916  0.00  0.00    -0.379 OA
ATOM     18  H   UNL     1       0.409   4.846   1.387  0.00  0.00    +0.211 HD
ENDBRANCH   2  17
BRANCH   3  19
ATOM     19  O   UNL     1      -0.420   4.185  -1.376  0.00  0.00    -0.378 OA
ATOM     20  H   UNL     1      -0.418   5.056  -0.948  0.00  0.00    +0.211 HD
ENDBRANCH   3  19
BRANCH   4  21
ATOM     21  C   UNL     1       2.406   1.419   0.756  0.00  0.00    +0.184 C 
BRANCH  21  22
ATOM     22  O   UNL     1       3.248   0.600  -0.036  0.00  0.00    -0.283 OA
BRANCH  22  23
ATOM     23  P   UNL     1       3.844  -0.790   0.591  0.00  0.00    +0.420 P 
ATOM     24  O   UNL     1       4.237  -0.559   2.034  0.00  0.00    -0.131 OA
ATOM     25  O   UNL     1       4.845  -1.352  -0.396  0.00  0.00    -0.243 OA
BRANCH  23  26
ATOM     26  S   UNL     1       2.228  -2.174   0.629  0.00  0.00    -0.021 S 
BRANCH  26  27
ATOM     27  C   UNL     1       1.781  -2.429  -1.100  0.00  0.00    +0.134 C 
BRANCH  27  29
ATOM     28  O   UNL     1      -0.374  -3.199  -0.295  0.00  0.00    -0.294 OA
ATOM     29  C   UNL     1       0.377  -2.984  -1.247  0.00  0.00    +0.173 C 
BRANCH  29  31
ATOM     30 BR   UNL     1      -0.902  -1.607  -3.284  0.00  0.00    -0.072 Br
ATOM     31  C   UNL     1      -0.089  -3.245  -2.655  0.00  0.00    +0.133 C 
ENDBRANCH  29  31
ENDBRANCH  27  29
ENDBRANCH  26  27
ENDBRANCH  23  26
ENDBRANCH  22  23
ENDBRANCH  21  22
ENDBRANCH   4  21
TORSDOF 11
