REMARK  Name = 127681
REMARK  14 active torsions:
REMARK  status: ('A' for Active; 'I' for Inactive)
REMARK    1  A    between atoms: CA_1  and  N_3
REMARK    2  A    between atoms: CA_1  and  C_18
REMARK    3  A    between atoms: CA_1  and  CB_21
REMARK    4  A    between atoms: C_4  and  C_6
REMARK    5  A    between atoms: C_6  and  C_7
REMARK    6  A    between atoms: C_7  and  O_8
REMARK    7  A    between atoms: C_7  and  C_12
REMARK    8  A    between atoms: O_8  and  C_10
REMARK    9  A    between atoms: C_12  and  N_13
REMARK   10  A    between atoms: C_18  and  O_19
REMARK   11  A    between atoms: CB_21  and  CG_22
REMARK   12  A    between atoms: CG_22  and  CD_23
REMARK   13  A    between atoms: CD_23  and  NE_24
REMARK   14  A    between atoms: NE_24  and  CZ_27
REMARK                            x       y       z     vdW  Elec       q    Type
REMARK                         _______ _______ _______ _____ _____    ______ ____
ROOT
ATOM      1  CA  UNL     1      -1.181   2.534  -0.817  0.00  0.00    +0.171 C 
ENDROOT
BRANCH   1   3
ATOM      2  O   UNL     1       1.421   2.301  -2.056  0.00  0.00    -0.275 OA
ATOM      3  N   UNL     1       0.068   2.204  -0.170  0.00  0.00    -0.297 N 
ATOM      4  C   ACE A   0       1.274   2.115  -0.851  0.00  0.00    +0.226 C 
ATOM      5  H   UNL     1       0.063   2.035   0.800  0.00  0.00    +0.150 HD
BRANCH   4   6
ATOM      6  C   UNL     1       2.418   1.759   0.087  0.00  0.00    +0.126 C 
BRANCH   6   7
ATOM      7  C   UNL     1       2.599   0.249   0.258  0.00  0.00    +0.158 C 
BRANCH   7   8
ATOM      8  O   UNL     1       1.423  -0.288   0.863  0.00  0.00    -0.454 OA
BRANCH   8  10
ATOM      9  O   UNL     1       2.309   0.103   2.961  0.00  0.00    -0.250 OA
ATOM     10  C   UNL     1       1.415  -0.298   2.228  0.00  0.00    +0.317 C 
ATOM     11  C   UNL     1       0.126  -0.884   2.720  0.00  0.00    +0.121 C 
ENDBRANCH   8  10
ENDBRANCH   7   8
BRANCH   7  12
ATOM     12  C   UNL     1       2.872  -0.484  -1.055  0.00  0.00    -0.028 C 
BRANCH  12  13
ATOM     13  N   UNL     1       3.549  -1.782  -0.808  0.00  0.00    +0.388 N 
ATOM     14  C   UNL     1       2.691  -2.682   0.092  0.00  0.00    -0.096 C 
ATOM     15  C   UNL     1       3.799  -2.525  -2.127  0.00  0.00    -0.096 C 
ATOM     16  C   UNL     1       4.903  -1.567  -0.117  0.00  0.00    -0.096 C 
ENDBRANCH  12  13
ENDBRANCH   7  12
ENDBRANCH   6   7
ENDBRANCH   4   6
ENDBRANCH   1   3
BRANCH   1  18
ATOM     17  OXT UNL     1      -3.086   3.883  -0.116  0.00  0.00    -0.248 OA
ATOM     18  C   UNL     1      -2.019   3.347   0.152  0.00  0.00    +0.332 C 
BRANCH  18  19
ATOM     19  O   UNL     1      -1.463   3.388   1.391  0.00  0.00    -0.479 OA
ATOM     20  H   UNL     1      -0.643   2.964   1.552  0.00  0.00    +0.295 HD
ENDBRANCH  18  19
ENDBRANCH   1  18
BRANCH   1  21
ATOM     21  CB  UNL     1      -1.921   1.294  -1.328  0.00  0.00    +0.033 C 
BRANCH  21  22
ATOM     22  CG  UNL     1      -2.301   0.292  -0.232  0.00  0.00    +0.029 C 
BRANCH  22  23
ATOM     23  CD  UNL     1      -2.994  -0.932  -0.821  0.00  0.00    +0.129 C 
BRANCH  23  24
ATOM     24  NE  UNL     1      -3.331  -1.857   0.263  0.00  0.00    -0.240 NA
BRANCH  24  27
ATOM     25  NH1 UNL     1      -4.326  -3.352  -1.332  0.00  0.00    -0.370 N 
ATOM     26  NH2 UNL     1      -4.298  -3.869   0.887  0.00  0.00    -0.370 N 
ATOM     27  CZ  UNL     1      -3.946  -2.949  -0.072  0.00  0.00    +0.189 C 
ATOM     28 HH11 UNL     1      -4.133  -2.782  -2.111  0.00  0.00    +0.159 HD
ATOM     29 HH12 UNL     1      -4.791  -4.211  -1.455  0.00  0.00    +0.159 HD
ATOM     30 HH21 UNL     1      -4.082  -3.701   1.833  0.00  0.00    +0.159 HD
ATOM     31 HH22 UNL     1      -4.764  -4.696   0.628  0.00  0.00    +0.159 HD
ENDBRANCH  24  27
ENDBRANCH  23  24
ENDBRANCH  22  23
ENDBRANCH  21  22
ENDBRANCH   1  21
TORSDOF 14
