REMARK  Name = 127794
REMARK  9 active torsions:
REMARK  status: ('A' for Active; 'I' for Inactive)
REMARK    1  A    between atoms: N_2  and  C_5
REMARK    2  A    between atoms: N_2  and  C_23
REMARK    3  A    between atoms: C_6  and  C_14
REMARK    4  A    between atoms: C_23  and  C_24
REMARK    5  A    between atoms: C_24  and  C_25
REMARK    6  A    between atoms: C_25  and  C_26
REMARK    7  A    between atoms: C_26  and  C_27
REMARK    8  A    between atoms: C_27  and  C_29
REMARK    9  A    between atoms: C_29  and  O_30
REMARK                            x       y       z     vdW  Elec       q    Type
REMARK                         _______ _______ _______ _____ _____    ______ ____
ROOT
ATOM      1  O   UNL     1      -0.342  -0.399   0.593  0.00  0.00    -0.267 OA
ATOM      2  N   UNL     1      -1.251   1.687   0.055  0.00  0.00    -0.250 N 
ATOM      3  N   UNL     1      -0.387   3.826  -0.235  0.00  0.00    -0.371 N 
ATOM      4  C   UNL     1      -0.119   2.512   0.068  0.00  0.00    +0.189 C 
ATOM      5  C   UNL     1      -1.303   0.312   0.311  0.00  0.00    +0.285 C 
ATOM      6  H   UNL     1      -2.107   2.124  -0.158  0.00  0.00    +0.158 HD
ATOM      7  H   UNL     1       0.344   4.486  -0.253  0.00  0.00    +0.159 HD
ATOM      8  H   UNL     1      -1.309   4.108  -0.435  0.00  0.00    +0.159 HD
ENDROOT
BRANCH   5  13
ATOM      9 CL   UNL     1      -5.671   0.518  -1.981  0.00  0.00    -0.044 Cl
ATOM     10  N   UNL     1      -3.441   0.287  -0.704  0.00  0.00    -0.378 NA
ATOM     11  N   UNL     1      -4.229  -1.944   0.803  0.00  0.00    -0.367 NA
ATOM     12  N   UNL     1      -6.346  -1.897  -0.263  0.00  0.00    -0.330 N 
ATOM     13  C   UNL     1      -2.646  -0.310   0.188  0.00  0.00    +0.229 C 
ATOM     14  C   UNL     1      -3.006  -1.393   0.930  0.00  0.00    +0.213 C 
ATOM     15  C   UNL     1      -5.052  -1.359  -0.090  0.00  0.00    +0.220 C 
ATOM     16  C   UNL     1      -4.665  -0.264  -0.830  0.00  0.00    +0.232 C 
ATOM     17  H   UNL     1      -6.629  -2.680   0.263  0.00  0.00    +0.145 HD
ATOM     18  H   UNL     1      -6.966  -1.489  -0.910  0.00  0.00    +0.145 HD
ATOM     19  N   UNL     1      -2.097  -1.962   1.851  0.00  0.00    -0.331 N 
ATOM     20  H   UNL     1      -2.363  -2.744   2.386  0.00  0.00    +0.145 HD
ATOM     21  H   UNL     1      -1.198  -1.575   1.959  0.00  0.00    +0.145 HD
ENDBRANCH   5  13
BRANCH   4  22
ATOM     22  N   UNL     1       1.022   1.982   0.353  0.00  0.00    -0.242 NA
BRANCH  22  23
ATOM     23  C   UNL     1       2.186   2.870   0.358  0.00  0.00    +0.128 C 
BRANCH  23  24
ATOM     24  C   UNL     1       3.420   2.060   0.736  0.00  0.00    +0.026 C 
BRANCH  24  25
ATOM     25  C   UNL     1       3.711   0.907  -0.228  0.00  0.00    +0.003 C 
BRANCH  25  26
ATOM     26  C   UNL     1       4.967   0.113   0.137  0.00  0.00    +0.012 C 
BRANCH  26  27
ATOM     27  C   UNL     1       5.172  -1.066  -0.814  0.00  0.00    +0.109 C 
BRANCH  27  29
ATOM     28  O   UNL     1       7.123  -1.672   0.509  0.00  0.00    -0.250 OA
ATOM     29  C   UNL     1       6.385  -1.887  -0.442  0.00  0.00    +0.314 C 
BRANCH  29  30
ATOM     30  O   UNL     1       6.568  -2.921  -1.305  0.00  0.00    -0.480 OA
ATOM     31  H   UNL     1       5.975  -3.045  -2.020  0.00  0.00    +0.295 HD
ENDBRANCH  29  30
ENDBRANCH  27  29
ENDBRANCH  26  27
ENDBRANCH  25  26
ENDBRANCH  24  25
ENDBRANCH  23  24
ENDBRANCH  22  23
ENDBRANCH   4  22
TORSDOF 9
