REMARK  Name = 127735
REMARK  9 active torsions:
REMARK  status: ('A' for Active; 'I' for Inactive)
REMARK    1  A    between atoms: C_7  and  C_30
REMARK    2  A    between atoms: C_8  and  O_22
REMARK    3  A    between atoms: C_16  and  O_24
REMARK    4  A    between atoms: C_17  and  O_26
REMARK    5  A    between atoms: C_20  and  O_28
REMARK    6  A    between atoms: C_30  and  C_32
REMARK    7  A    between atoms: C_32  and  C_33
REMARK    8  A    between atoms: C_33  and  C_34
REMARK    9  A    between atoms: C_34  and  O_36
REMARK                            x       y       z     vdW  Elec       q    Type
REMARK                         _______ _______ _______ _____ _____    ______ ____
ROOT
ATOM      1  O   UNL     1       1.114  -1.853  -0.765  0.00  0.00    -0.286 OA
ATOM      2  O   UNL     1       2.812   2.987   0.731  0.00  0.00    -0.287 OA
ATOM      3  C   UNL     1      -1.750   1.204  -0.364  0.00  0.00    +0.030 C 
ATOM      4  C   UNL     1       0.541   0.376  -0.265  0.00  0.00    +0.076 C 
ATOM      5  C   UNL     1       0.986   1.637   0.126  0.00  0.00    +0.045 C 
ATOM      6  C   UNL     1      -1.299   2.484   0.033  0.00  0.00    +0.006 C 
ATOM      7  C   UNL     1      -3.120   1.004  -0.604  0.00  0.00    -0.009 C 
ATOM      8  C   UNL     1      -0.822   0.160  -0.509  0.00  0.00    +0.136 C 
ATOM      9  C   UNL     1       0.070   2.687   0.274  0.00  0.00    +0.004 C 
ATOM     10  C   UNL     1       2.930  -0.500  -0.165  0.00  0.00    +0.076 C 
ATOM     11  C   UNL     1       3.376   0.764   0.225  0.00  0.00    +0.048 C 
ATOM     12  C   UNL     1       1.496  -0.741  -0.425  0.00  0.00    +0.202 C 
ATOM     13  C   UNL     1       2.420   1.879   0.386  0.00  0.00    +0.196 C 
ATOM     14  C   UNL     1      -2.229   3.526   0.178  0.00  0.00    +0.037 C 
ATOM     15  C   UNL     1      -4.031   2.050  -0.455  0.00  0.00    +0.033 C 
ATOM     16  C   UNL     1       3.845  -1.549  -0.312  0.00  0.00    +0.136 C 
ATOM     17  C   UNL     1      -3.586   3.309  -0.065  0.00  0.00    +0.133 C 
ATOM     18  C   UNL     1       4.738   0.980   0.468  0.00  0.00    +0.040 C 
ATOM     19  C   UNL     1       5.202  -1.330  -0.069  0.00  0.00    +0.046 C 
ATOM     20  C   UNL     1       5.647  -0.068   0.320  0.00  0.00    +0.133 C 
ATOM     21  C   UNL     1       6.185  -2.447  -0.224  0.00  0.00    +0.037 C 
ENDROOT
BRANCH   8  22
ATOM     22  O   UNL     1      -1.245  -1.083  -0.892  0.00  0.00    -0.505 OA
ATOM     23  H   UNL     1      -2.155  -1.237  -1.057  0.00  0.00    +0.292 HD
ENDBRANCH   8  22
BRANCH  16  24
ATOM     24  O   UNL     1       3.462  -2.804  -0.691  0.00  0.00    -0.506 OA
ATOM     25  H   UNL     1       2.560  -2.986  -0.863  0.00  0.00    +0.292 HD
ENDBRANCH  16  24
BRANCH  17  26
ATOM     26  O   UNL     1      -4.474   4.330   0.081  0.00  0.00    -0.506 OA
ATOM     27  H   UNL     1      -4.175   5.178   0.343  0.00  0.00    +0.292 HD
ENDBRANCH  17  26
BRANCH  20  28
ATOM     28  O   UNL     1       6.968   0.161   0.563  0.00  0.00    -0.506 OA
ATOM     29  H   UNL     1       7.255   1.014   0.824  0.00  0.00    +0.292 HD
ENDBRANCH  20  28
BRANCH   7  30
ATOM     30  C   UNL     1      -3.722  -0.301  -1.028  0.00  0.00    +0.091 C 
BRANCH  30  32
ATOM     31  O   UNL     1      -4.044  -0.822   1.307  0.00  0.00    -0.296 OA
ATOM     32  C   UNL     1      -4.151  -1.184   0.136  0.00  0.00    +0.157 C 
BRANCH  32  33
ATOM     33  C   UNL     1      -4.719  -2.546  -0.245  0.00  0.00    +0.094 C 
BRANCH  33  34
ATOM     34  C   UNL     1      -4.488  -3.612   0.825  0.00  0.00    +0.118 C 
ATOM     35  C   UNL     1      -5.025  -4.965   0.377  0.00  0.00    +0.032 C 
BRANCH  34  36
ATOM     36  O   UNL     1      -3.085  -3.732   1.051  0.00  0.00    -0.384 OA
ATOM     37  H   UNL     1      -2.729  -2.876   1.337  0.00  0.00    +0.210 HD
ENDBRANCH  34  36
ENDBRANCH  33  34
ENDBRANCH  32  33
ENDBRANCH  30  32
ENDBRANCH   7  30
TORSDOF 9
