127792
  -OEChem-03292013323D

 37 38  0     1  0  0  0  0  0999 V2000
   -4.2698   -2.0086    2.4360 I   0  0  0  0  0  0  0  0  0  0  0  0
   -0.6234    0.8323    0.7122 O   0  0  0  0  0  0  0  0  0  0  0  0
   -1.3598    3.7341    0.0724 O   0  0  0  0  0  0  0  0  0  0  0  0
    3.3330    1.9104    1.1583 O   0  0  0  0  0  0  0  0  0  0  0  0
    4.5001   -2.3126   -0.2390 O   0  0  0  0  0  0  0  0  0  0  0  0
   -4.7718   -0.2618   -0.6458 O   0  0  0  0  0  0  0  0  0  0  0  0
    1.6573    0.5454    0.2754 N   0  0  0  0  0  0  0  0  0  0  0  0
   -2.5458   -0.9123   -0.5401 N   0  0  0  0  0  0  0  0  0  0  0  0
    3.9014   -0.1980    0.4569 N   0  0  0  0  0  0  0  0  0  0  0  0
   -1.6578    1.3485   -0.1476 C   0  0  1  0  0  0  0  0  0  0  0  0
   -1.0970    2.6174   -0.7744 C   0  0  2  0  0  0  0  0  0  0  0  0
    0.3897    2.3497   -0.8173 C   0  0  0  0  0  0  0  0  0  0  0  0
    0.6089    1.5109    0.4312 C   0  0  1  0  0  0  0  0  0  0  0  0
   -1.9899    0.2759   -1.1767 C   0  0  0  0  0  0  0  0  0  0  0  0
    1.3424   -0.6916   -0.2722 C   0  0  0  0  0  0  0  0  0  0  0  0
    2.9820    0.8359    0.6662 C   0  0  0  0  0  0  0  0  0  0  0  0
    2.2245   -1.6787   -0.4713 C   0  0  0  0  0  0  0  0  0  0  0  0
    3.6416   -1.4482   -0.0837 C   0  0  0  0  0  0  0  0  0  0  0  0
   -3.8992   -1.0700   -0.3328 C   0  0  0  0  0  0  0  0  0  0  0  0
    1.8641   -3.0036   -1.0626 C   0  0  0  0  0  0  0  0  0  0  0  0
   -4.2305   -2.3751    0.3550 C   0  0  0  0  0  0  0  0  0  0  0  0
   -2.5304    1.5611    0.4806 H   0  0  0  0  0  0  0  0  0  0  0  0
   -1.5261    2.8402   -1.7558 H   0  0  0  0  0  0  0  0  0  0  0  0
    0.6359    1.7817   -1.7227 H   0  0  0  0  0  0  0  0  0  0  0  0
    1.0082    3.2526   -0.8081 H   0  0  0  0  0  0  0  0  0  0  0  0
    0.8259    2.1597    1.2881 H   0  0  0  0  0  0  0  0  0  0  0  0
   -1.1244   -0.0410   -1.7623 H   0  0  0  0  0  0  0  0  0  0  0  0
   -2.7326    0.6637   -1.8837 H   0  0  0  0  0  0  0  0  0  0  0  0
   -0.9368    4.5111   -0.3314 H   0  0  0  0  0  0  0  0  0  0  0  0
    0.3175   -0.8713   -0.5473 H   0  0  0  0  0  0  0  0  0  0  0  0
   -1.8994   -1.6308   -0.2281 H   0  0  0  0  0  0  0  0  0  0  0  0
    4.8619   -0.0116    0.7312 H   0  0  0  0  0  0  0  0  0  0  0  0
    2.4298   -3.1778   -1.9836 H   0  0  0  0  0  0  0  0  0  0  0  0
    0.7990   -3.0659   -1.3101 H   0  0  0  0  0  0  0  0  0  0  0  0
    2.0890   -3.8108   -0.3579 H   0  0  0  0  0  0  0  0  0  0  0  0
   -3.4948   -3.1437    0.0961 H   0  0  0  0  0  0  0  0  0  0  0  0
   -5.2027   -2.7211   -0.0113 H   0  0  0  0  0  0  0  0  0  0  0  0
  1 21  1  0  0  0  0
  2 10  1  0  0  0  0
  2 13  1  0  0  0  0
  3 11  1  0  0  0  0
  3 29  1  0  0  0  0
  4 16  2  0  0  0  0
  5 18  2  0  0  0  0
  6 19  2  0  0  0  0
  7 13  1  0  0  0  0
  7 15  1  0  0  0  0
  7 16  1  0  0  0  0
  8 14  1  0  0  0  0
  8 19  1  0  0  0  0
  8 31  1  0  0  0  0
  9 16  1  0  0  0  0
  9 18  1  0  0  0  0
  9 32  1  0  0  0  0
 10 11  1  0  0  0  0
 10 14  1  0  0  0  0
 10 22  1  0  0  0  0
 11 12  1  0  0  0  0
 11 23  1  0  0  0  0
 12 13  1  0  0  0  0
 12 24  1  0  0  0  0
 12 25  1  0  0  0  0
 13 26  1  0  0  0  0
 14 27  1  0  0  0  0
 14 28  1  0  0  0  0
 15 17  2  0  0  0  0
 15 30  1  0  0  0  0
 17 18  1  0  0  0  0
 17 20  1  0  0  0  0
 19 21  1  0  0  0  0
 20 33  1  0  0  0  0
 20 34  1  0  0  0  0
 20 35  1  0  0  0  0
 21 36  1  0  0  0  0
 21 37  1  0  0  0  0
M  END
> <PUBCHEM_COMPOUND_CID>
127792

> <PUBCHEM_CONFORMER_RMSD>
0.8

> <PUBCHEM_CONFORMER_DIVERSEORDER>
1
58
34
32
4
27
61
79
40
36
60
73
55
71
62
3
68
14
42
49
78
47
2
22
66
44
13
19
38
11
46
18
15
52
48
80
25
57
28
33
77
70
7
23
53
59
81
31
65
30
17
29
74
75
16
56
50
64
82
76
72
54
35
8
12
43
63
9
26
24
67
6
41
39
51
5
69
10
37
21
20
45

> <PUBCHEM_MMFF94_PARTIAL_CHARGES>
24
1 -0.19
10 0.28
11 0.28
13 0.58
14 0.3
15 -0.04
16 0.69
17 -0.12
18 0.62
19 0.57
2 -0.56
20 0.14
21 0.25
29 0.4
3 -0.68
30 0.15
31 0.37
32 0.37
4 -0.57
5 -0.57
6 -0.57
7 -0.47
8 -0.73
9 -0.49

> <PUBCHEM_EFFECTIVE_ROTOR_COUNT>
6

> <PUBCHEM_PHARMACOPHORE_FEATURES>
11
1 1 hydrophobe
1 2 acceptor
1 3 acceptor
1 3 donor
1 4 acceptor
1 5 acceptor
1 6 acceptor
1 8 donor
1 9 donor
5 2 10 11 12 13 rings
6 7 9 15 16 17 18 rings

> <PUBCHEM_HEAVY_ATOM_COUNT>
21

> <PUBCHEM_ATOM_DEF_STEREO_COUNT>
3

> <PUBCHEM_ATOM_UDEF_STEREO_COUNT>
0

> <PUBCHEM_BOND_DEF_STEREO_COUNT>
0

> <PUBCHEM_BOND_UDEF_STEREO_COUNT>
0

> <PUBCHEM_ISOTOPIC_ATOM_COUNT>
0

> <PUBCHEM_COMPONENT_COUNT>
1

> <PUBCHEM_CACTVS_TAUTO_COUNT>
6

> <PUBCHEM_CONFORMER_ID>
0001F33000000001

> <PUBCHEM_MMFF94_ENERGY>
43.0809

> <PUBCHEM_FEATURE_SELFOVERLAP>
55.824

> <PUBCHEM_SHAPE_FINGERPRINT>
10618630 7 18411415120331884893
10670039 82 9940371854974749522
1100329 8 17040630592308842667
11595378 159 16557928817511099379
116883 192 18409445852194313957
12363563 72 18186810209446613035
12553582 1 18338814410689588063
12596599 1 17632307812520465351
12596602 18 16916231134115136483
13140716 1 18127400169098862072
13533116 47 17975428124893548683
13544653 18 18412825811088374545
14223421 5 18270391698887109468
14252887 29 18337952410531520521
14790565 3 17690279738998865420
14863182 85 18265622172154278382
14957384 54 12031502134103752742
15422964 175 18409728482522131805
17859628 97 16895957934636158059
192875 21 12108050193779808694
20645477 70 18046053029119880919
20739085 24 18269011919089415595
20871998 22 18410009974726483093
221490 88 18341890741461277670
23557571 272 18188478116735280445
23558518 356 18262799553907339168
23559900 14 18340191991422178876
2871803 45 18337662032003410470
314173 41 18187081793308514187
350125 39 18342733031961618064
46194498 28 17753300314340218205
5104073 3 18128242403732641754
5486654 36 18198351654032792794
574716 61 12036001465092716411
81228 2 18261397681029866265
9709674 26 18127120866842561086

> <PUBCHEM_SHAPE_MULTIPOLES>
399.82
8.93
3.8
1.4
4.39
1.38
-0.61
-7.61
-2.4
-0.38
0.31
1.31
-0.54
2.17

> <PUBCHEM_SHAPE_SELFOVERLAP>
808.039

> <PUBCHEM_SHAPE_VOLUME>
238.3

> <PUBCHEM_COORDINATE_TYPE>
2
5
10

$$$$
