127718
  -OEChem-03292013323D

 62 66  0     1  0  0  0  0  0999 V2000
    7.2600   -2.1558   -0.4198 S   0  0  0  0  0  0  0  0  0  0  0  0
    1.6460    0.9736    0.9663 O   0  0  0  0  0  0  0  0  0  0  0  0
    4.6969    3.1163   -0.8269 O   0  0  0  0  0  0  0  0  0  0  0  0
    6.6382   -1.5850   -1.6001 O   0  0  0  0  0  0  0  0  0  0  0  0
    8.6851   -2.4189   -0.3918 O   0  0  0  0  0  0  0  0  0  0  0  0
   -1.5669    1.0280   -0.5299 N   0  0  0  0  0  0  0  0  0  0  0  0
    6.7776   -1.2311    0.9506 N   0  0  0  0  0  0  0  0  0  0  0  0
  -10.0399   -2.1241    0.2733 N   0  0  0  0  0  0  0  0  0  0  0  0
    1.2336    1.8764   -0.0797 C   0  0  0  0  0  0  0  0  0  0  0  0
    0.7806    1.0680   -1.3145 C   0  0  0  0  0  0  0  0  0  0  0  0
    0.0134    2.6476    0.4671 C   0  0  0  0  0  0  0  0  0  0  0  0
   -0.4543    0.2077   -1.0221 C   0  0  0  0  0  0  0  0  0  0  0  0
   -1.1966    1.7366    0.7006 C   0  0  0  0  0  0  0  0  0  0  0  0
   -2.7538    0.2025   -0.3087 C   0  0  2  0  0  0  0  0  0  0  0  0
    2.3504    2.8802   -0.4017 C   0  0  0  0  0  0  0  0  0  0  0  0
   -3.1574   -0.4958   -1.6086 C   0  0  0  0  0  0  0  0  0  0  0  0
    3.6289    2.1734   -0.8393 C   0  0  2  0  0  0  0  0  0  0  0  0
   -3.9158    1.0634    0.2061 C   0  0  0  0  0  0  0  0  0  0  0  0
   -4.3284   -1.4468   -1.3595 C   0  0  0  0  0  0  0  0  0  0  0  0
    3.9279    1.0230    0.0831 C   0  0  0  0  0  0  0  0  0  0  0  0
    2.9295    0.4972    0.9137 C   0  0  0  0  0  0  0  0  0  0  0  0
   -5.2347    0.3289    0.2217 C   0  0  0  0  0  0  0  0  0  0  0  0
   -5.4404   -0.8302   -0.5487 C   0  0  0  0  0  0  0  0  0  0  0  0
    5.1988    0.4280    0.0945 C   0  0  0  0  0  0  0  0  0  0  0  0
    3.2130   -0.5698    1.7718 C   0  0  0  0  0  0  0  0  0  0  0  0
   -6.2958    0.8514    0.9769 C   0  0  0  0  0  0  0  0  0  0  0  0
   -6.6924   -1.4631   -0.5191 C   0  0  0  0  0  0  0  0  0  0  0  0
    5.4763   -0.6436    0.9443 C   0  0  0  0  0  0  0  0  0  0  0  0
    4.4849   -1.1389    1.7866 C   0  0  0  0  0  0  0  0  0  0  0  0
   -7.5382    0.2184    0.9897 C   0  0  0  0  0  0  0  0  0  0  0  0
   -7.7357   -0.9398    0.2440 C   0  0  0  0  0  0  0  0  0  0  0  0
   -9.0066   -1.5931    0.2602 C   0  0  0  0  0  0  0  0  0  0  0  0
    6.4160   -3.6846   -0.0802 C   0  0  0  0  0  0  0  0  0  0  0  0
    1.5771    0.3976   -1.6577 H   0  0  0  0  0  0  0  0  0  0  0  0
    0.5570    1.7529   -2.1431 H   0  0  0  0  0  0  0  0  0  0  0  0
   -0.2682    3.4473   -0.2309 H   0  0  0  0  0  0  0  0  0  0  0  0
    0.2710    3.1245    1.4216 H   0  0  0  0  0  0  0  0  0  0  0  0
   -0.6753   -0.2622   -1.9826 H   0  0  0  0  0  0  0  0  0  0  0  0
   -0.1995   -0.5889   -0.3112 H   0  0  0  0  0  0  0  0  0  0  0  0
   -0.9890    1.0344    1.5183 H   0  0  0  0  0  0  0  0  0  0  0  0
   -1.9896    2.4112    1.0368 H   0  0  0  0  0  0  0  0  0  0  0  0
   -2.5348   -0.5705    0.4437 H   0  0  0  0  0  0  0  0  0  0  0  0
    2.5701    3.4830    0.4917 H   0  0  0  0  0  0  0  0  0  0  0  0
    2.0383    3.5937   -1.1747 H   0  0  0  0  0  0  0  0  0  0  0  0
   -2.3761   -1.1229   -2.0431 H   0  0  0  0  0  0  0  0  0  0  0  0
   -3.4382    0.2480   -2.3665 H   0  0  0  0  0  0  0  0  0  0  0  0
    3.5290    1.7889   -1.8609 H   0  0  0  0  0  0  0  0  0  0  0  0
   -4.0390    1.9606   -0.4150 H   0  0  0  0  0  0  0  0  0  0  0  0
   -3.7263    1.3795    1.2384 H   0  0  0  0  0  0  0  0  0  0  0  0
   -3.9681   -2.3325   -0.8206 H   0  0  0  0  0  0  0  0  0  0  0  0
   -4.7186   -1.7846   -2.3273 H   0  0  0  0  0  0  0  0  0  0  0  0
    5.9795    0.8198   -0.5544 H   0  0  0  0  0  0  0  0  0  0  0  0
    2.4417   -0.9690    2.4257 H   0  0  0  0  0  0  0  0  0  0  0  0
    4.4623    3.8322   -1.4420 H   0  0  0  0  0  0  0  0  0  0  0  0
   -6.1581    1.7585    1.5605 H   0  0  0  0  0  0  0  0  0  0  0  0
   -6.8449   -2.3716   -1.0994 H   0  0  0  0  0  0  0  0  0  0  0  0
    4.6888   -1.9721    2.4540 H   0  0  0  0  0  0  0  0  0  0  0  0
   -8.3421    0.6423    1.5869 H   0  0  0  0  0  0  0  0  0  0  0  0
    7.0538   -1.6232    1.8610 H   0  0  0  0  0  0  0  0  0  0  0  0
    6.6651   -4.3888   -0.8773 H   0  0  0  0  0  0  0  0  0  0  0  0
    6.7635   -4.0754    0.8779 H   0  0  0  0  0  0  0  0  0  0  0  0
    5.3389   -3.5115   -0.0685 H   0  0  0  0  0  0  0  0  0  0  0  0
  1  4  2  0  0  0  0
  1  5  2  0  0  0  0
  1  7  1  0  0  0  0
  1 33  1  0  0  0  0
  2  9  1  0  0  0  0
  2 21  1  0  0  0  0
  3 17  1  0  0  0  0
  3 54  1  0  0  0  0
  6 12  1  0  0  0  0
  6 13  1  0  0  0  0
  6 14  1  0  0  0  0
  7 28  1  0  0  0  0
  7 59  1  0  0  0  0
  8 32  3  0  0  0  0
  9 10  1  0  0  0  0
  9 11  1  0  0  0  0
  9 15  1  0  0  0  0
 10 12  1  0  0  0  0
 10 34  1  0  0  0  0
 10 35  1  0  0  0  0
 11 13  1  0  0  0  0
 11 36  1  0  0  0  0
 11 37  1  0  0  0  0
 12 38  1  0  0  0  0
 12 39  1  0  0  0  0
 13 40  1  0  0  0  0
 13 41  1  0  0  0  0
 14 16  1  0  0  0  0
 14 18  1  0  0  0  0
 14 42  1  0  0  0  0
 15 17  1  0  0  0  0
 15 43  1  0  0  0  0
 15 44  1  0  0  0  0
 16 19  1  0  0  0  0
 16 45  1  0  0  0  0
 16 46  1  0  0  0  0
 17 20  1  0  0  0  0
 17 47  1  0  0  0  0
 18 22  1  0  0  0  0
 18 48  1  0  0  0  0
 18 49  1  0  0  0  0
 19 23  1  0  0  0  0
 19 50  1  0  0  0  0
 19 51  1  0  0  0  0
 20 21  2  0  0  0  0
 20 24  1  0  0  0  0
 21 25  1  0  0  0  0
 22 23  2  0  0  0  0
 22 26  1  0  0  0  0
 23 27  1  0  0  0  0
 24 28  2  0  0  0  0
 24 52  1  0  0  0  0
 25 29  2  0  0  0  0
 25 53  1  0  0  0  0
 26 30  2  0  0  0  0
 26 55  1  0  0  0  0
 27 31  2  0  0  0  0
 27 56  1  0  0  0  0
 28 29  1  0  0  0  0
 29 57  1  0  0  0  0
 30 31  1  0  0  0  0
 30 58  1  0  0  0  0
 31 32  1  0  0  0  0
 33 60  1  0  0  0  0
 33 61  1  0  0  0  0
 33 62  1  0  0  0  0
M  END
> <PUBCHEM_COMPOUND_CID>
127718

> <PUBCHEM_CONFORMER_RMSD>
0.8

> <PUBCHEM_CONFORMER_DIVERSEORDER>
7
40
200
21
173
106
2
54
72
142
195
183
167
56
6
158
22
136
112
188
184
104
107
177
138
121
36
27
108
130
37
150
93
100
192
5
66
148
159
143
116
151
25
169
152
81
29
41
139
89
126
190
50
170
153
53
111
19
102
48
49
74
45
103
38
64
201
59
52
124
131
65
189
46
122
76
109
120
87
51
26
161
23
63
196
172
154
17
78
144
114
80
119
156
113
67
132
98
58
97
149
181
128
90
39
61
84
92
83
73
86
62
18
32
137
198
110
141
14
199
191
31
13
117
166
24
160
123
179
88
145
174
182
28
68
155
9
157
71
165
12
147
180
35
11
16
20
85
94
135
163
185
99
47
140
96
105
1
193
146
77
186
75
164
4
34
44
118
42
15
115
187
171
91
194
178
55
95
69
79
43
57
8
134
162
175
133
82
30
129
176
70
125
60
10
197
168
33
101
127
3

> <PUBCHEM_MMFF94_PARTIAL_CHARGES>
37
1 1.33
12 0.27
13 0.27
14 0.27
17 0.42
18 0.14
19 0.14
2 -0.36
20 -0.14
21 0.08
22 -0.14
23 -0.14
24 -0.15
25 -0.15
26 -0.15
27 -0.15
28 0.2
29 -0.15
3 -0.68
30 -0.15
31 0.07
32 0.48
33 0.11
4 -0.65
5 -0.65
52 0.15
53 0.15
54 0.4
55 0.15
56 0.15
57 0.15
58 0.15
59 0.42
6 -0.81
7 -0.76
8 -0.56
9 0.28

> <PUBCHEM_EFFECTIVE_ROTOR_COUNT>
5.4

> <PUBCHEM_PHARMACOPHORE_FEATURES>
13
1 2 acceptor
1 3 acceptor
1 3 donor
1 4 acceptor
1 5 acceptor
1 6 cation
1 7 donor
1 8 acceptor
6 14 16 18 19 22 23 rings
6 2 9 15 17 20 21 rings
6 20 21 24 25 28 29 rings
6 22 23 26 27 30 31 rings
6 6 9 10 11 12 13 rings

> <PUBCHEM_HEAVY_ATOM_COUNT>
33

> <PUBCHEM_ATOM_DEF_STEREO_COUNT>
0

> <PUBCHEM_ATOM_UDEF_STEREO_COUNT>
2

> <PUBCHEM_BOND_DEF_STEREO_COUNT>
0

> <PUBCHEM_BOND_UDEF_STEREO_COUNT>
0

> <PUBCHEM_ISOTOPIC_ATOM_COUNT>
0

> <PUBCHEM_COMPONENT_COUNT>
1

> <PUBCHEM_CACTVS_TAUTO_COUNT>
1

> <PUBCHEM_CONFORMER_ID>
0001F2E600000007

> <PUBCHEM_MMFF94_ENERGY>
87.7597

> <PUBCHEM_FEATURE_SELFOVERLAP>
66.044

> <PUBCHEM_SHAPE_FINGERPRINT>
10 15 16343418496514204497
10299344 5 18409730699189596993
10533779 47 16056613031576793711
11409948 41 15937246674660983170
11456790 92 15985104102568132747
11607047 74 18266461091475394060
11646440 116 16200162032116391025
117089 54 18124032330782345558
12047536 79 13829580753000556894
12236239 1 18411138073873183761
12522641 24 17917144010016735576
12592606 108 18410012135258413827
13150687 139 11314310504106376864
13383665 225 14563078171489170911
13533116 47 18261951946169206937
1361 4 18264770042053148247
13668630 136 18113896074612927819
13673619 4 17967527960972898820
13690498 29 18041838398849627404
13782708 43 17894903023234909925
13947934 56 18409725154419174385
14347424 109 17632571690878637480
14675020 138 15841557370366385758
150020 25 13551479158872041979
15198563 99 16515672326792930165
15320294 125 18131345332825475551
16728433 281 15431418553140153447
1754911 235 11458424630792514739
19301679 30 18272655597407519540
19841028 212 18335980947507302066
2026 5 18335981969704938459
20737093 193 16889517537283555372
20771845 65 18272650143796605816
20982279 24 17895488037791729163
21033648 29 15051739694282538057
21130935 74 18271241750609566515
21150785 3 14057003810497416827
21267235 1 18409448068381425896
21344244 181 18114180852114041522
21585481 151 18202563977415914166
21792934 111 17275111587834644213
21792965 106 10663560187499464307
22956985 138 17771923631358666070
23522609 53 18194991688818928929
23569917 315 18335988683846883811
23576562 1 12468940735671531779
25269216 80 15285358402077574893
255183 451 18260551108737529596
3004659 81 18259698999957592624
306946 40 13614245833555368115
3411729 13 17129570513092326552
34797466 226 16081364211065480245
3504750 166 18201714042923111877
3711267 37 7925639942746474231
397638 26 15697998548492012039
397830 11 13685729615176978797
406291 66 18410008797889775778
4073 2 17901668486190996481
44880168 125 17917419921844596910
4516262 110 17826795034200653941
4616759 239 16056890152643822875
46194498 28 16081364193621698268
465052 167 18411980277861865332
474113 269 18200858661694932231
5104073 3 17630605846393860649
5265222 85 8142084257103443345
5372103 7 15069491357485525742
54039377 194 18410857638172609078
54076057 127 18261679289271888976
57527293 21 16271064047628334584
58260988 587 18058437885541551832
5937810 71 13190332427932503247
6679774 75 18131918173883644222
6712543 237 16056873628579919454
70251023 43 18335139757505636720
9831232 110 18339927008940543894
9896288 288 17986115111226444073
9962374 69 18410568513827508782

> <PUBCHEM_SHAPE_MULTIPOLES>
644.55
27.56
3.15
1.36
27.38
0.18
0.04
26.36
2.48
-5.5
-0.5
-0.75
0.18
-0.8

> <PUBCHEM_SHAPE_SELFOVERLAP>
1386.128

> <PUBCHEM_SHAPE_VOLUME>
356.4

> <PUBCHEM_COORDINATE_TYPE>
2
5
10

$$$$
