127766
  -OEChem-03292013323D

 30 30  0     1  0  0  0  0  0999 V2000
    4.0163    0.3185   -0.4297 P   0  0  0  0  0  0  0  0  0  0  0  0
    2.8143   -0.6896   -0.0330 O   0  0  0  0  0  0  0  0  0  0  0  0
    0.8987   -2.5895    0.6333 O   0  0  0  0  0  0  0  0  0  0  0  0
   -3.0965   -1.1569   -1.4959 O   0  0  0  0  0  0  0  0  0  0  0  0
   -4.9428   -0.9794   -0.1901 O   0  0  0  0  0  0  0  0  0  0  0  0
    4.2546    1.1953    0.9084 O   0  0  0  0  0  0  0  0  0  0  0  0
    5.3064   -0.6581   -0.4570 O   0  0  0  0  0  0  0  0  0  0  0  0
    3.8051    1.1025   -1.6923 O   0  0  0  0  0  0  0  0  0  0  0  0
   -4.5542    1.7349   -0.0790 N   0  0  0  0  0  0  0  0  0  0  0  0
   -2.5088    0.8882    0.9770 C   0  0  0  0  0  0  0  0  0  0  0  0
   -1.0840    0.4625    0.7070 C   0  0  0  0  0  0  0  0  0  0  0  0
   -3.3820    0.8879   -0.2875 C   0  0  1  0  0  0  0  0  0  0  0  0
   -0.7495   -0.8785    0.7961 C   0  0  0  0  0  0  0  0  0  0  0  0
   -0.1414    1.4218    0.3763 C   0  0  0  0  0  0  0  0  0  0  0  0
    0.5656   -1.2715    0.5476 C   0  0  0  0  0  0  0  0  0  0  0  0
    1.5271   -0.3176    0.2132 C   0  0  0  0  0  0  0  0  0  0  0  0
    1.1736    1.0289    0.1278 C   0  0  0  0  0  0  0  0  0  0  0  0
   -3.9025   -0.4994   -0.6221 C   0  0  0  0  0  0  0  0  0  0  0  0
   -2.9436    0.2405    1.7507 H   0  0  0  0  0  0  0  0  0  0  0  0
   -2.4801    1.8930    1.4215 H   0  0  0  0  0  0  0  0  0  0  0  0
   -2.8417    1.2808   -1.1565 H   0  0  0  0  0  0  0  0  0  0  0  0
   -1.4950   -1.6242    1.0587 H   0  0  0  0  0  0  0  0  0  0  0  0
   -0.4082    2.4724    0.3059 H   0  0  0  0  0  0  0  0  0  0  0  0
    1.8840    1.8078   -0.1244 H   0  0  0  0  0  0  0  0  0  0  0  0
   -4.2552    2.6923    0.1041 H   0  0  0  0  0  0  0  0  0  0  0  0
   -5.0532    1.4354    0.7586 H   0  0  0  0  0  0  0  0  0  0  0  0
    1.8460   -2.6792    0.4303 H   0  0  0  0  0  0  0  0  0  0  0  0
   -3.4456   -2.0466   -1.7168 H   0  0  0  0  0  0  0  0  0  0  0  0
    4.9072    1.9272    0.8859 H   0  0  0  0  0  0  0  0  0  0  0  0
    6.1636   -0.3022   -0.7744 H   0  0  0  0  0  0  0  0  0  0  0  0
  1  2  1  0  0  0  0
  1  6  1  0  0  0  0
  1  7  1  0  0  0  0
  1  8  2  0  0  0  0
  2 16  1  0  0  0  0
  3 15  1  0  0  0  0
  3 27  1  0  0  0  0
  4 18  1  0  0  0  0
  4 28  1  0  0  0  0
  5 18  2  0  0  0  0
  6 29  1  0  0  0  0
  7 30  1  0  0  0  0
  9 12  1  0  0  0  0
  9 25  1  0  0  0  0
  9 26  1  0  0  0  0
 10 11  1  0  0  0  0
 10 12  1  0  0  0  0
 10 19  1  0  0  0  0
 10 20  1  0  0  0  0
 11 13  2  0  0  0  0
 11 14  1  0  0  0  0
 12 18  1  0  0  0  0
 12 21  1  0  0  0  0
 13 15  1  0  0  0  0
 13 22  1  0  0  0  0
 14 17  2  0  0  0  0
 14 23  1  0  0  0  0
 15 16  2  0  0  0  0
 16 17  1  0  0  0  0
 17 24  1  0  0  0  0
M  END
> <PUBCHEM_COMPOUND_CID>
127766

> <PUBCHEM_CONFORMER_RMSD>
0.6

> <PUBCHEM_CONFORMER_DIVERSEORDER>
1
25
14
32
13
47
60
27
51
64
63
59
49
6
10
56
41
33
48
11
2
18
50
42
54
44
38
15
37
12
40
53
26
55
39
62
5
52
57
9
17
21
58
45
3
29
35
8
28
46
24
23
4
61
22
31
19
30
7
16
43
20
36
34

> <PUBCHEM_MMFF94_PARTIAL_CHARGES>
27
1 1.51
10 0.14
11 -0.14
12 0.33
13 -0.15
14 -0.15
15 0.08
16 0.08
17 -0.15
18 0.66
2 -0.35
22 0.15
23 0.15
24 0.15
25 0.36
26 0.36
27 0.45
28 0.5
29 0.5
3 -0.53
30 0.5
4 -0.65
5 -0.57
6 -0.77
7 -0.77
8 -0.7
9 -0.99

> <PUBCHEM_EFFECTIVE_ROTOR_COUNT>
5

> <PUBCHEM_PHARMACOPHORE_FEATURES>
11
1 3 donor
1 4 acceptor
1 5 acceptor
1 6 acceptor
1 7 acceptor
1 8 acceptor
1 9 cation
1 9 donor
3 4 5 18 anion
4 1 6 7 8 anion
6 11 13 14 15 16 17 rings

> <PUBCHEM_HEAVY_ATOM_COUNT>
18

> <PUBCHEM_ATOM_DEF_STEREO_COUNT>
1

> <PUBCHEM_ATOM_UDEF_STEREO_COUNT>
0

> <PUBCHEM_BOND_DEF_STEREO_COUNT>
0

> <PUBCHEM_BOND_UDEF_STEREO_COUNT>
0

> <PUBCHEM_ISOTOPIC_ATOM_COUNT>
0

> <PUBCHEM_COMPONENT_COUNT>
1

> <PUBCHEM_CACTVS_TAUTO_COUNT>
9

> <PUBCHEM_CONFORMER_ID>
0001F31600000001

> <PUBCHEM_MMFF94_ENERGY>
3.6729

> <PUBCHEM_FEATURE_SELFOVERLAP>
55.916

> <PUBCHEM_SHAPE_FINGERPRINT>
11401426 45 18411416198295017984
11543360 7 17060623312931364176
11806522 49 18271803557600592153
12119455 92 17095239228818396482
12251169 10 9511461143569948073
12507557 5 9439399134316351719
12670546 177 18411423924835545892
12670546 56 14345785076207938056
12788726 201 17344344446306977273
128620 24 18342175583233289029
13296909 8 12685095903949925817
13583140 156 15864356890814590632
14576447 43 18341602746518756239
15415430 112 18131063827715349759
17349148 13 18260827090276390952
1813 80 12103569709924680456
18186145 218 18409440393079819092
200 152 18060420209598557488
20681677 274 10302652123095377429
20871999 31 18272362067195918509
22094290 60 16845577487154509185
23402539 116 18411136909794160660
23402655 69 18337951182492958161
23557571 272 16343423882471902184
23559900 14 18344147008262529536
2748010 2 18048606107281565000
34934 24 18338514115366769857
351380 180 14201392807260291679
4990 188 17989211425784375964
57096353 35 18412258441624187887
633830 44 17895199869899462488

> <PUBCHEM_SHAPE_MULTIPOLES>
328.21
9.83
1.77
1.08
1.59
0.49
0.24
-1.18
2.98
-0.32
-0.18
0.13
-0.02
-0.58

> <PUBCHEM_SHAPE_SELFOVERLAP>
666.082

> <PUBCHEM_SHAPE_VOLUME>
191.2

> <PUBCHEM_COORDINATE_TYPE>
2
5
10

$$$$
