127734
  -OEChem-03292013323D

 35 36  0     1  0  0  0  0  0999 V2000
   -2.0665   -0.5373    0.9810 O   0  0  0  0  0  0  0  0  0  0  0  0
   -1.7766    2.3591   -1.1134 O   0  0  0  0  0  0  0  0  0  0  0  0
   -4.0451    1.5671    0.1771 O   0  0  0  0  0  0  0  0  0  0  0  0
   -2.9855   -3.0595    0.1678 O   0  0  0  0  0  0  0  0  0  0  0  0
    0.8946    2.2966    0.8733 O   0  0  0  0  0  0  0  0  0  0  0  0
    0.0649    0.2029    0.3694 N   0  0  0  0  0  0  0  0  0  0  0  0
    2.4290    0.6828    0.4340 N   0  0  0  0  0  0  0  0  0  0  0  0
    3.9960   -0.9748   -0.0189 N   0  0  0  0  0  0  0  0  0  0  0  0
    4.9523    0.0000    0.1059 N   0  0  0  0  0  0  0  0  0  0  0  0
   -1.9306    0.9833   -0.8314 C   0  0  2  0  0  0  0  0  0  0  0  0
   -3.3807    0.5963   -0.6313 C   0  0  1  0  0  0  0  0  0  0  0  0
   -1.3122    0.5863    0.4980 C   0  0  1  0  0  0  0  0  0  0  0  0
   -3.2595   -0.6862    0.1804 C   0  0  1  0  0  0  0  0  0  0  0  0
   -3.0998   -1.9314   -0.6817 C   0  0  0  0  0  0  0  0  0  0  0  0
    0.3621   -1.1087    0.0326 C   0  0  0  0  0  0  0  0  0  0  0  0
    1.1239    1.1232    0.5748 C   0  0  0  0  0  0  0  0  0  0  0  0
    1.6102   -1.5513   -0.1087 C   0  0  0  0  0  0  0  0  0  0  0  0
    2.6921   -0.5576    0.1162 C   0  0  0  0  0  0  0  0  0  0  0  0
    5.7315    0.0093   -1.1251 C   0  0  0  0  0  0  0  0  0  0  0  0
   -1.4976    0.4098   -1.6597 H   0  0  0  0  0  0  0  0  0  0  0  0
   -3.9462    0.4880   -1.5611 H   0  0  0  0  0  0  0  0  0  0  0  0
   -1.3968    1.3957    1.2331 H   0  0  0  0  0  0  0  0  0  0  0  0
   -4.0937   -0.8176    0.8789 H   0  0  0  0  0  0  0  0  0  0  0  0
   -2.2202   -1.8907   -1.3286 H   0  0  0  0  0  0  0  0  0  0  0  0
   -3.9837   -2.0676   -1.3136 H   0  0  0  0  0  0  0  0  0  0  0  0
   -2.2746    2.5479   -1.9270 H   0  0  0  0  0  0  0  0  0  0  0  0
   -4.0169    2.4113   -0.3047 H   0  0  0  0  0  0  0  0  0  0  0  0
   -0.4478   -1.8045   -0.1195 H   0  0  0  0  0  0  0  0  0  0  0  0
   -2.8983   -3.8412   -0.4038 H   0  0  0  0  0  0  0  0  0  0  0  0
    1.8501   -2.5733   -0.3701 H   0  0  0  0  0  0  0  0  0  0  0  0
    4.2614   -1.9334   -0.2197 H   0  0  0  0  0  0  0  0  0  0  0  0
    5.5616   -0.2386    0.8875 H   0  0  0  0  0  0  0  0  0  0  0  0
    6.2267   -0.9522   -1.3016 H   0  0  0  0  0  0  0  0  0  0  0  0
    6.5087    0.7770   -1.0559 H   0  0  0  0  0  0  0  0  0  0  0  0
    5.1068    0.2532   -1.9917 H   0  0  0  0  0  0  0  0  0  0  0  0
  1 12  1  0  0  0  0
  1 13  1  0  0  0  0
  2 10  1  0  0  0  0
  2 26  1  0  0  0  0
  3 11  1  0  0  0  0
  3 27  1  0  0  0  0
  4 14  1  0  0  0  0
  4 29  1  0  0  0  0
  5 16  2  0  0  0  0
  6 12  1  0  0  0  0
  6 15  1  0  0  0  0
  6 16  1  0  0  0  0
  7 16  1  0  0  0  0
  7 18  2  0  0  0  0
  8  9  1  0  0  0  0
  8 18  1  0  0  0  0
  8 31  1  0  0  0  0
  9 19  1  0  0  0  0
  9 32  1  0  0  0  0
 10 11  1  0  0  0  0
 10 12  1  0  0  0  0
 10 20  1  0  0  0  0
 11 13  1  0  0  0  0
 11 21  1  0  0  0  0
 12 22  1  0  0  0  0
 13 14  1  0  0  0  0
 13 23  1  0  0  0  0
 14 24  1  0  0  0  0
 14 25  1  0  0  0  0
 15 17  2  0  0  0  0
 15 28  1  0  0  0  0
 17 18  1  0  0  0  0
 17 30  1  0  0  0  0
 19 33  1  0  0  0  0
 19 34  1  0  0  0  0
 19 35  1  0  0  0  0
M  END
> <PUBCHEM_COMPOUND_CID>
127734

> <PUBCHEM_CONFORMER_RMSD>
0.8

> <PUBCHEM_CONFORMER_DIVERSEORDER>
1
15
12
19
3
11
23
6
18
22
7
4
20
13
17
10
8
14
9
21
5
16
2

> <PUBCHEM_MMFF94_PARTIAL_CHARGES>
26
1 -0.56
10 0.28
11 0.28
12 0.58
13 0.28
14 0.28
15 -0.04
16 0.84
17 -0.14
18 0.49
19 0.27
2 -0.68
26 0.4
27 0.4
28 0.15
29 0.4
3 -0.68
30 0.15
31 0.4
32 0.36
4 -0.68
5 -0.57
6 -0.47
7 -0.66
8 -0.46
9 -0.62

> <PUBCHEM_EFFECTIVE_ROTOR_COUNT>
5

> <PUBCHEM_PHARMACOPHORE_FEATURES>
13
1 1 acceptor
1 2 acceptor
1 2 donor
1 3 acceptor
1 3 donor
1 4 acceptor
1 4 donor
1 5 acceptor
1 7 donor
1 8 donor
1 9 donor
5 1 10 11 12 13 rings
6 6 7 15 16 17 18 rings

> <PUBCHEM_HEAVY_ATOM_COUNT>
19

> <PUBCHEM_ATOM_DEF_STEREO_COUNT>
4

> <PUBCHEM_ATOM_UDEF_STEREO_COUNT>
0

> <PUBCHEM_BOND_DEF_STEREO_COUNT>
0

> <PUBCHEM_BOND_UDEF_STEREO_COUNT>
0

> <PUBCHEM_ISOTOPIC_ATOM_COUNT>
0

> <PUBCHEM_COMPONENT_COUNT>
1

> <PUBCHEM_CACTVS_TAUTO_COUNT>
3

> <PUBCHEM_CONFORMER_ID>
0001F2F600000001

> <PUBCHEM_MMFF94_ENERGY>
55.9353

> <PUBCHEM_FEATURE_SELFOVERLAP>
67.595

> <PUBCHEM_SHAPE_FINGERPRINT>
12032990 46 18273217512785395522
12500047 106 18337665330928397975
12670546 177 18410864278350116332
12788726 201 17487899995384707065
13760787 19 18187645778264956714
14790565 3 17980486650547256657
15196674 1 18341330080540659448
16945 1 18264187159319828713
200 152 17775558737127079351
20645477 56 18336264544556565533
20871999 31 18409449206595336054
21267235 1 18340774835822344775
21501502 16 18337388339792198625
221490 88 18268148849690524938
23402539 116 17385722491484242590
23402655 69 18336826394687005852
23557571 272 18342183262434432454
23559900 14 18269825570642396265
238078 22 18413675712054492152
2748010 2 18194105537905833081
2871803 45 18265318689966180879
3312278 4 18342738485731132202
5104073 3 18342171202403707794
58051976 100 18411979182581635023
8809292 202 18409165532516333187

> <PUBCHEM_SHAPE_MULTIPOLES>
341.74
9.02
2.29
0.92
10.49
0.44
0.13
1.23
2.24
-2.26
0.08
0.03
-0.22
0.38

> <PUBCHEM_SHAPE_SELFOVERLAP>
712.1

> <PUBCHEM_SHAPE_VOLUME>
193.9

> <PUBCHEM_COORDINATE_TYPE>
2
5
10

$$$$
