REMARK  Name = 127736
REMARK  8 active torsions:
REMARK  status: ('A' for Active; 'I' for Inactive)
REMARK    1  A    between atoms: C_3  and  C_23
REMARK    2  A    between atoms: C_4  and  C_6
REMARK    3  A    between atoms: C_5  and  C_14
REMARK    4  A    between atoms: C_11  and  O_12
REMARK    5  A    between atoms: C_19  and  O_20
REMARK    6  A    between atoms: N_22  and  C_27
REMARK    7  A    between atoms: C_27  and  C_29
REMARK    8  A    between atoms: C_29  and  O_30
REMARK                            x       y       z     vdW  Elec       q    Type
REMARK                         _______ _______ _______ _____ _____    ______ ____
ROOT
ATOM      1  S   UNL     1      -0.732  -2.475  -0.177  0.00  0.00    -0.070 S 
ATOM      2  N   UNL     1      -1.595  -0.040  -0.077  0.00  0.00    -0.398 NA
ATOM      3  C   UNL     1      -1.979  -1.296  -0.137  0.00  0.00    +0.171 C 
ATOM      4  C   UNL     1       0.428  -1.214  -0.110  0.00  0.00    +0.129 C 
ATOM      5  C   UNL     1      -0.215   0.005  -0.061  0.00  0.00    +0.124 C 
ENDROOT
BRANCH   4   6
ATOM      6  C   UNL     1       1.832  -1.551  -0.113  0.00  0.00    -0.005 C 
ATOM      7  C   UNL     1       2.499  -1.767   1.092  0.00  0.00    +0.000 C 
ATOM      8  C   UNL     1       2.519  -1.659  -1.321  0.00  0.00    +0.000 C 
ATOM      9  C   UNL     1       3.855  -2.092   1.089  0.00  0.00    +0.037 C 
ATOM     10  C   UNL     1       3.876  -1.984  -1.324  0.00  0.00    +0.037 C 
ATOM     11  C   UNL     1       4.544  -2.201  -0.119  0.00  0.00    +0.139 C 
BRANCH  11  12
ATOM     12  O   UNL     1       5.867  -2.519  -0.122  0.00  0.00    -0.471 OA
ATOM     13  C   UNL     1       6.488  -2.728   1.145  0.00  0.00    +0.252 C 
ENDBRANCH  11  12
ENDBRANCH   4   6
BRANCH   5  14
ATOM     14  C   UNL     1       0.478   1.261   0.002  0.00  0.00    +0.027 C 
ATOM     15  C   UNL     1       0.826   1.926  -1.175  0.00  0.00    +0.005 C 
ATOM     16  C   UNL     1       0.803   1.818   1.239  0.00  0.00    +0.005 C 
ATOM     17  C   UNL     1       1.498   3.146  -1.114  0.00  0.00    +0.037 C 
ATOM     18  C   UNL     1       1.476   3.038   1.300  0.00  0.00    +0.037 C 
ATOM     19  C   UNL     1       1.823   3.702   0.123  0.00  0.00    +0.139 C 
BRANCH  19  20
ATOM     20  O   UNL     1       2.479   4.893   0.183  0.00  0.00    -0.471 OA
ATOM     21  C   UNL     1       2.804   5.519  -1.058  0.00  0.00    +0.252 C 
ENDBRANCH  19  20
ENDBRANCH   5  14
BRANCH   3  23
ATOM     22  N   UNL     1      -4.345  -0.950   0.427  0.00  0.00    -0.273 N 
ATOM     23  C   UNL     1      -3.345  -1.675  -0.167  0.00  0.00    +0.088 C 
ATOM     24  C   UNL     1      -3.919  -2.777  -0.761  0.00  0.00    +0.019 C 
ATOM     25  C   UNL     1      -5.548  -1.573   0.221  0.00  0.00    +0.066 C 
ATOM     26  C   UNL     1      -5.313  -2.713  -0.515  0.00  0.00    +0.017 C 
BRANCH  22  27
ATOM     27  C   UNL     1      -4.185   0.286   1.163  0.00  0.00    +0.206 C 
BRANCH  27  29
ATOM     28  O   UNL     1      -4.494   1.498  -0.927  0.00  0.00    -0.248 OA
ATOM     29  C   UNL     1      -4.294   1.497   0.278  0.00  0.00    +0.335 C 
BRANCH  29  30
ATOM     30  O   UNL     1      -4.134   2.625   1.016  0.00  0.00    -0.479 OA
ATOM     31  H   UNL     1      -3.983   2.564   1.939  0.00  0.00    +0.295 HD
ENDBRANCH  29  30
ENDBRANCH  27  29
ENDBRANCH  22  27
ENDBRANCH   3  23
TORSDOF 8
