REMARK  Name = 127772
REMARK  6 active torsions:
REMARK  status: ('A' for Active; 'I' for Inactive)
REMARK    1  A    between atoms: N_2  and  C_7
REMARK    2  A    between atoms: N_2  and  C_21
REMARK    3  A    between atoms: C_6  and  C_15
REMARK    4  A    between atoms: C_21  and  C_22
REMARK    5  A    between atoms: C_22  and  C_23
REMARK    6  A    between atoms: C_23  and  C_24
REMARK                            x       y       z     vdW  Elec       q    Type
REMARK                         _______ _______ _______ _____ _____    ______ ____
ROOT
ATOM      1  S   UNL     1      -0.739   3.656  -0.476  0.00  0.00    -0.057 S 
ATOM      2  N   UNL     1       1.675   2.602  -0.109  0.00  0.00    -0.296 N 
ATOM      3  N   UNL     1      -0.206   1.177   0.027  0.00  0.00    -0.381 NA
ATOM      4  N   UNL     1       3.947   2.482  -0.016  0.00  0.00    -0.370 N 
ATOM      5  C   UNL     1      -1.577   1.294  -0.092  0.00  0.00    +0.137 C 
ATOM      6  C   UNL     1       2.771   1.760   0.082  0.00  0.00    +0.198 C 
ATOM      7  C   UNL     1       0.327   2.357  -0.157  0.00  0.00    +0.222 C 
ATOM      8  C   UNL     1      -2.053   2.560  -0.364  0.00  0.00    +0.126 C 
ATOM      9  H   UNL     1       1.915   3.549  -0.233  0.00  0.00    +0.172 HD
ATOM     10  H   UNL     1       4.813   2.028   0.095  0.00  0.00    +0.159 HD
ATOM     11  H   UNL     1       3.917   3.449  -0.197  0.00  0.00    +0.159 HD
ENDROOT
BRANCH   5  14
ATOM     12  N   UNL     1      -3.826   0.131  -0.036  0.00  0.00    -0.316 N 
ATOM     13  N   UNL     1      -3.240  -1.967   0.400  0.00  0.00    -0.317 N 
ATOM     14  C   UNL     1      -2.468   0.129   0.062  0.00  0.00    +0.087 C 
ATOM     15  C   UNL     1      -4.247  -1.153   0.175  0.00  0.00    +0.144 C 
ATOM     16  C   UNL     1      -2.124  -1.169   0.331  0.00  0.00    +0.076 C 
ATOM     17  C   UNL     1      -5.678  -1.507   0.139  0.00  0.00    +0.044 C 
ATOM     18  H   UNL     1      -4.398   0.910  -0.223  0.00  0.00    +0.148 HD
ATOM     19  H   UNL     1      -3.276  -2.934   0.578  0.00  0.00    +0.148 HD
ENDBRANCH   5  14
BRANCH   6  20
ATOM     20  N   UNL     1       2.679   0.488   0.305  0.00  0.00    -0.240 NA
BRANCH  20  21
ATOM     21  C   UNL     1       3.922  -0.264   0.480  0.00  0.00    +0.129 C 
BRANCH  21  22
ATOM     22  C   UNL     1       3.607  -1.724   0.786  0.00  0.00    +0.026 C 
BRANCH  22  23
ATOM     23  C   UNL     1       2.839  -2.408  -0.349  0.00  0.00    +0.002 C 
BRANCH  23  24
ATOM     24  C   UNL     1       2.590  -3.884  -0.039  0.00  0.00    +0.000 C 
ATOM     25  C   UNL     1       1.801  -4.561  -1.148  0.00  0.00    +0.000 C 
ENDBRANCH  23  24
ENDBRANCH  22  23
ENDBRANCH  21  22
ENDBRANCH  20  21
ENDBRANCH   6  20
TORSDOF 6
