REMARK  Name = 127718
REMARK  5 active torsions:
REMARK  status: ('A' for Active; 'I' for Inactive)
REMARK    1  A    between atoms: N_2  and  C_17
REMARK    2  A    between atoms: C_9  and  O_29
REMARK    3  A    between atoms: C_14  and  N_31
REMARK    4  A    between atoms: C_26  and  C_28
REMARK    5  A    between atoms: N_31  and  S_33
REMARK                            x       y       z     vdW  Elec       q    Type
REMARK                         _______ _______ _______ _____ _____    ______ ____
ROOT
ATOM      1  O   UNL     1       1.646   0.974   0.966  0.00  0.00    -0.483 OA
ATOM      2  N   UNL     1      -1.567   1.028  -0.530  0.00  0.00    +0.389 N 
ATOM      3  C   UNL     1       1.234   1.876  -0.080  0.00  0.00    +0.132 C 
ATOM      4  C   UNL     1       0.781   1.068  -1.315  0.00  0.00    +0.017 C 
ATOM      5  C   UNL     1       0.013   2.648   0.467  0.00  0.00    +0.017 C 
ATOM      6  C   UNL     1      -0.454   0.208  -1.022  0.00  0.00    -0.074 C 
ATOM      7  C   UNL     1      -1.197   1.737   0.701  0.00  0.00    -0.074 C 
ATOM      8  C   UNL     1       2.350   2.880  -0.402  0.00  0.00    +0.074 C 
ATOM      9  C   UNL     1       3.629   2.173  -0.839  0.00  0.00    +0.139 C 
ATOM     10  C   UNL     1       3.928   1.023   0.083  0.00  0.00    +0.040 C 
ATOM     11  C   UNL     1       2.929   0.497   0.914  0.00  0.00    +0.136 C 
ATOM     12  C   UNL     1       5.199   0.428   0.095  0.00  0.00    +0.017 C 
ATOM     13  C   UNL     1       3.213  -0.570   1.772  0.00  0.00    +0.038 C 
ATOM     14  C   UNL     1       5.476  -0.644   0.944  0.00  0.00    +0.064 C 
ATOM     15  C   UNL     1       4.485  -1.139   1.787  0.00  0.00    +0.019 C 
ATOM     16  H   UNL     1      -1.784   1.725  -1.242  0.00  0.00    -0.080 HD
ENDROOT
BRANCH   2  17
ATOM     17  C   UNL     1      -2.754   0.203  -0.309  0.00  0.00    -0.053 C 
ATOM     18  C   UNL     1      -3.157  -0.496  -1.609  0.00  0.00    -0.016 C 
ATOM     19  C   UNL     1      -3.916   1.063   0.206  0.00  0.00    +0.005 C 
ATOM     20  C   UNL     1      -4.328  -1.447  -1.359  0.00  0.00    +0.024 C 
ATOM     21  C   UNL     1      -5.235   0.329   0.222  0.00  0.00    -0.028 C 
ATOM     22  C   UNL     1      -5.440  -0.830  -0.549  0.00  0.00    -0.026 C 
ATOM     23  C   UNL     1      -6.296   0.851   0.977  0.00  0.00    -0.004 C 
ATOM     24  C   UNL     1      -6.692  -1.463  -0.519  0.00  0.00    +0.006 C 
ATOM     25  C   UNL     1      -7.538   0.218   0.990  0.00  0.00    +0.010 C 
ATOM     26  C   UNL     1      -7.736  -0.940   0.244  0.00  0.00    +0.068 C 
BRANCH  26  28
ATOM     27  N   UNL     1     -10.040  -2.124   0.273  0.00  0.00    -0.191 NA
ATOM     28  C   UNL     1      -9.007  -1.593   0.260  0.00  0.00    +0.100 C 
ENDBRANCH  26  28
ENDBRANCH   2  17
BRANCH   9  29
ATOM     29  O   UNL     1       4.697   3.116  -0.827  0.00  0.00    -0.380 OA
ATOM     30  H   UNL     1       4.488   3.850  -1.426  0.00  0.00    +0.211 HD
ENDBRANCH   9  29
BRANCH  14  31
ATOM     31  N   UNL     1       6.778  -1.231   0.951  0.00  0.00    -0.219 N 
ATOM     32  H   UNL     1       7.383  -1.111   1.718  0.00  0.00    +0.173 HD
BRANCH  31  33
ATOM     33  S   UNL     1       7.260  -2.156  -0.420  0.00  0.00    +0.056 S 
ATOM     34  O   UNL     1       6.638  -1.585  -1.600  0.00  0.00    -0.154 OA
ATOM     35  O   UNL     1       8.685  -2.419  -0.392  0.00  0.00    -0.154 OA
ATOM     36  C   UNL     1       6.416  -3.685  -0.080  0.00  0.00    +0.200 C 
ENDBRANCH  31  33
ENDBRANCH  14  31
TORSDOF 5
