REMARK  Name = 127714
REMARK  3 active torsions:
REMARK  status: ('A' for Active; 'I' for Inactive)
REMARK    1  A    between atoms: C_5  and  C_12
REMARK    2  A    between atoms: C_10  and  N_23
REMARK    3  A    between atoms: C_15  and  N_20
REMARK                            x       y       z     vdW  Elec       q    Type
REMARK                         _______ _______ _______ _____ _____    ______ ____
ROOT
ATOM      1  O   UNL     1       0.053   0.376   0.280  0.00  0.00    -0.453 OA
ATOM      2  O   UNL     1      -2.051  -2.985  -0.657  0.00  0.00    -0.286 OA
ATOM      3  C   UNL     1      -2.096  -0.684  -0.117  0.00  0.00    +0.075 C 
ATOM      4  C   UNL     1      -1.316   0.426   0.201  0.00  0.00    +0.148 C 
ATOM      5  C   UNL     1       0.685  -0.831   0.025  0.00  0.00    +0.148 C 
ATOM      6  C   UNL     1      -1.429  -1.969  -0.378  0.00  0.00    +0.202 C 
ATOM      7  C   UNL     1       0.045  -1.970  -0.283  0.00  0.00    +0.080 C 
ATOM      8  C   UNL     1      -3.487  -0.575  -0.183  0.00  0.00    +0.030 C 
ATOM      9  C   UNL     1      -1.924   1.656   0.455  0.00  0.00    +0.039 C 
ATOM     10  C   UNL     1      -4.093   0.656   0.071  0.00  0.00    +0.143 C 
ATOM     11  C   UNL     1      -3.313   1.769   0.389  0.00  0.00    +0.027 C 
ENDROOT
BRANCH   5  12
ATOM     12  C   UNL     1       2.156  -0.774   0.143  0.00  0.00    +0.036 C 
ATOM     13  C   UNL     1       2.840   0.408  -0.156  0.00  0.00    +0.027 C 
ATOM     14  C   UNL     1       2.871  -1.901   0.556  0.00  0.00    +0.003 C 
ATOM     15  C   UNL     1       4.229   0.461  -0.044  0.00  0.00    +0.143 C 
ATOM     16  C   UNL     1       4.261  -1.848   0.668  0.00  0.00    +0.002 C 
ATOM     17  C   UNL     1       4.940  -0.667   0.368  0.00  0.00    +0.024 C 
BRANCH  15  20
ATOM     18  O   UNL     1       6.171   1.689  -0.240  0.00  0.00    -0.126 OA
ATOM     19  O   UNL     1       4.264   2.666  -0.718  0.00  0.00    -0.126 OA
ATOM     20  N   UNL     1       4.921   1.663  -0.349  0.00  0.00    +0.058 N 
ENDBRANCH  15  20
ENDBRANCH   5  12
BRANCH  10  23
ATOM     21  O   UNL     1      -6.032   1.892   0.240  0.00  0.00    -0.126 OA
ATOM     22  O   UNL     1      -6.191  -0.235  -0.281  0.00  0.00    -0.126 OA
ATOM     23  N   UNL     1      -5.506   0.777   0.007  0.00  0.00    +0.058 N 
ENDBRANCH  10  23
TORSDOF 3
