REMARK  Name = 127734
REMARK  6 active torsions:
REMARK  status: ('A' for Active; 'I' for Inactive)
REMARK    1  A    between atoms: N_2  and  C1*_13
REMARK    2  A    between atoms: N_4  and  N_22
REMARK    3  A    between atoms: C2*_11  and  O2*_15
REMARK    4  A    between atoms: C3*_12  and  O3*_17
REMARK    5  A    between atoms: C4*_14  and  C5*_19
REMARK    6  A    between atoms: C5*_19  and  O5*_20
REMARK                            x       y       z     vdW  Elec       q    Type
REMARK                         _______ _______ _______ _____ _____    ______ ____
ROOT
ATOM      1  O   UNL     1       0.895   2.297   0.873  0.00  0.00    -0.193 OA
ATOM      2  N   UNL     1       0.065   0.203   0.369  0.00  0.00    -0.178 N 
ATOM      3  N   UNL     1       2.429   0.683   0.434  0.00  0.00    -0.304 NA
ATOM      4  N   UNL     1       3.996  -0.975  -0.019  0.00  0.00    -0.253 N 
ATOM      5  C   UNL     1       0.362  -1.109   0.033  0.00  0.00    +0.084 C 
ATOM      6  C   UNL     1       1.124   1.123   0.575  0.00  0.00    +0.276 C 
ATOM      7  C   UNL     1       1.610  -1.551  -0.109  0.00  0.00    +0.067 C 
ATOM      8  C   UNL     1       2.692  -0.558   0.116  0.00  0.00    +0.209 C 
ATOM      9  H   UNL     1       4.228  -1.915  -0.194  0.00  0.00    +0.169 HD
ENDROOT
BRANCH   2  13
ATOM     10  O4* UNL     1      -2.067  -0.537   0.981  0.00  0.00    -0.332 OA
ATOM     11  C2* UNL     1      -1.931   0.983  -0.831  0.00  0.00    +0.188 C 
ATOM     12  C3* UNL     1      -3.381   0.596  -0.631  0.00  0.00    +0.171 C 
ATOM     13  C1* UNL     1      -1.312   0.586   0.498  0.00  0.00    +0.236 C 
ATOM     14  C4* UNL     1      -3.260  -0.686   0.180  0.00  0.00    +0.175 C 
BRANCH  11  15
ATOM     15  O2* UNL     1      -1.777   2.359  -1.113  0.00  0.00    -0.378 OA
ATOM     16  H2* UNL     1      -2.186   2.562  -1.969  0.00  0.00    +0.211 HD
ENDBRANCH  11  15
BRANCH  12  17
ATOM     17  O3* UNL     1      -4.045   1.567   0.177  0.00  0.00    -0.379 OA
ATOM     18  H3* UNL     1      -4.134   2.395  -0.320  0.00  0.00    +0.211 HD
ENDBRANCH  12  17
BRANCH  14  19
ATOM     19  C5* UNL     1      -3.100  -1.931  -0.682  0.00  0.00    +0.169 C 
BRANCH  19  20
ATOM     20  O5* UNL     1      -2.986  -3.059   0.168  0.00  0.00    -0.379 OA
ATOM     21  H5* UNL     1      -2.883  -3.860  -0.370  0.00  0.00    +0.211 HD
ENDBRANCH  19  20
ENDBRANCH  14  19
ENDBRANCH   2  13
BRANCH   4  22
ATOM     22  N   UNL     1       4.952   0.000   0.106  0.00  0.00    -0.229 NA
ATOM     23  C   UNL     1       5.731   0.009  -1.125  0.00  0.00    +0.106 C 
ATOM     24  H   UNL     1       5.558  -0.206   0.900  0.00  0.00    +0.145 HD
ENDBRANCH   4  22
TORSDOF 6
