REMARK  Name = 127792
REMARK  5 active torsions:
REMARK  status: ('A' for Active; 'I' for Inactive)
REMARK    1  A    between atoms: C_2  and  C_18
REMARK    2  A    between atoms: C_3  and  O_16
REMARK    3  A    between atoms: C_5  and  N_8
REMARK    4  A    between atoms: C_18  and  N_20
REMARK    5  A    between atoms: C_21  and  C_24
REMARK                            x       y       z     vdW  Elec       q    Type
REMARK                         _______ _______ _______ _____ _____    ______ ____
ROOT
ATOM      1  O   UNL     1      -0.623   0.832   0.712  0.00  0.00    -0.335 OA
ATOM      2  C   UNL     1      -1.658   1.349  -0.148  0.00  0.00    +0.163 C 
ATOM      3  C   UNL     1      -1.097   2.617  -0.774  0.00  0.00    +0.143 C 
ATOM      4  C   UNL     1       0.390   2.350  -0.817  0.00  0.00    +0.083 C 
ATOM      5  C   UNL     1       0.609   1.511   0.431  0.00  0.00    +0.202 C 
ENDROOT
BRANCH   5   8
ATOM      6  O   UNL     1       3.333   1.910   1.158  0.00  0.00    -0.252 OA
ATOM      7  O   UNL     1       4.500  -2.313  -0.239  0.00  0.00    -0.270 OA
ATOM      8  N   UNL     1       1.657   0.545   0.275  0.00  0.00    -0.219 N 
ATOM      9  N   UNL     1       3.901  -0.198   0.457  0.00  0.00    -0.236 N 
ATOM     10  C   UNL     1       1.342  -0.692  -0.272  0.00  0.00    +0.071 C 
ATOM     11  C   UNL     1       2.982   0.836   0.666  0.00  0.00    +0.315 C 
ATOM     12  C   UNL     1       2.224  -1.679  -0.471  0.00  0.00    +0.047 C 
ATOM     13  C   UNL     1       3.642  -1.448  -0.084  0.00  0.00    +0.250 C 
ATOM     14  C   UNL     1       1.864  -3.004  -1.063  0.00  0.00    +0.037 C 
ATOM     15  H   UNL     1       4.832  -0.019   0.722  0.00  0.00    +0.159 HD
ENDBRANCH   5   8
BRANCH   3  16
ATOM     16  O   UNL     1      -1.360   3.734   0.072  0.00  0.00    -0.382 OA
ATOM     17  H   UNL     1      -2.315   3.903   0.098  0.00  0.00    +0.210 HD
ENDBRANCH   3  16
BRANCH   2  18
ATOM     18  C   UNL     1      -1.990   0.276  -1.177  0.00  0.00    +0.122 C 
BRANCH  18  20
ATOM     19  O   UNL     1      -4.772  -0.262  -0.646  0.00  0.00    -0.274 OA
ATOM     20  N   UNL     1      -2.546  -0.912  -0.540  0.00  0.00    -0.301 N 
ATOM     21  C   UNL     1      -3.899  -1.070  -0.333  0.00  0.00    +0.233 C 
ATOM     22  H   UNL     1      -1.934  -1.626  -0.248  0.00  0.00    +0.150 HD
BRANCH  21  24
ATOM     23  I   UNL     1      -4.270  -2.009   2.436  0.00  0.00    -0.064 I 
ATOM     24  C   UNL     1      -4.231  -2.375   0.355  0.00  0.00    +0.147 C 
ENDBRANCH  21  24
ENDBRANCH  18  20
ENDBRANCH   2  18
TORSDOF 5
