REMARK  Name = 127706
REMARK  7 active torsions:
REMARK  status: ('A' for Active; 'I' for Inactive)
REMARK    1  A    between atoms: C_1  and  C_9
REMARK    2  A    between atoms: C_1  and  N_15
REMARK    3  A    between atoms: C_1  and  C_25
REMARK    4  A    between atoms: C_4  and  C_11
REMARK    5  A    between atoms: C_11  and  O_12
REMARK    6  A    between atoms: C_16  and  C_20
REMARK    7  A    between atoms: C_25  and  C_28
REMARK                            x       y       z     vdW  Elec       q    Type
REMARK                         _______ _______ _______ _____ _____    ______ ____
ROOT
ATOM      1  C   UNL     1       0.269   0.857   0.668  0.00  0.00    +0.155 C 
ENDROOT
BRANCH   1   9
ATOM      2  O   UNL     1      -0.287  -0.659   2.400  0.00  0.00    -0.273 OA
ATOM      3  N   UNL     1       1.470  -1.284   1.006  0.00  0.00    -0.270 N 
ATOM      4  C   UNL     1       2.245  -1.095  -0.231  0.00  0.00    +0.175 C 
ATOM      5  C   UNL     1       3.720  -1.473  -0.081  0.00  0.00    +0.031 C 
ATOM      6  C   UNL     1       1.689  -2.540   1.733  0.00  0.00    +0.094 C 
ATOM      7  C   UNL     1       3.935  -2.798   0.646  0.00  0.00    +0.004 C 
ATOM      8  C   UNL     1       3.168  -2.818   1.962  0.00  0.00    +0.022 C 
ATOM      9  C   UNL     1       0.450  -0.427   1.438  0.00  0.00    +0.244 C 
BRANCH   4  11
ATOM     10  O   UNL     1       0.575  -2.596  -1.106  0.00  0.00    -0.248 OA
ATOM     11  C   UNL     1       1.563  -1.900  -1.298  0.00  0.00    +0.335 C 
BRANCH  11  12
ATOM     12  O   UNL     1       2.213  -1.728  -2.485  0.00  0.00    -0.443 OA
ATOM     13  C   UNL     1       1.665  -2.444  -3.596  0.00  0.00    +0.256 C 
ENDBRANCH  11  12
ENDBRANCH   4  11
ENDBRANCH   1   9
BRANCH   1  15
ATOM     14  O   UNL     1      -1.722  -0.268  -1.120  0.00  0.00    -0.273 OA
ATOM     15  N   UNL     1      -1.149   1.068   0.700  0.00  0.00    -0.297 N 
ATOM     16  C   UNL     1      -2.033   0.485  -0.201  0.00  0.00    +0.241 C 
ATOM     17  H   UNL     1      -1.517   1.658   1.398  0.00  0.00    +0.150 HD
BRANCH  16  20
ATOM     18  O   UNL     1      -5.577  -1.744  -1.052  0.00  0.00    -0.275 OA
ATOM     19  N   UNL     1      -4.253   0.182  -0.918  0.00  0.00    -0.298 N 
ATOM     20  C   UNL     1      -3.457   0.852   0.072  0.00  0.00    +0.149 C 
ATOM     21  C   UNL     1      -3.967   0.291   1.386  0.00  0.00    +0.039 C 
ATOM     22  C   UNL     1      -4.495  -1.097   1.024  0.00  0.00    +0.087 C 
ATOM     23  C   UNL     1      -4.877  -0.961  -0.429  0.00  0.00    +0.223 C 
ATOM     24  H   UNL     1      -4.347   0.498  -1.845  0.00  0.00    +0.150 HD
ENDBRANCH  16  20
ENDBRANCH   1  15
BRANCH   1  25
ATOM     25  C   UNL     1       1.063   1.980   1.322  0.00  0.00    +0.071 C 
BRANCH  25  28
ATOM     26  N   UNL     1       2.545   3.572   0.036  0.00  0.00    -0.319 N 
ATOM     27  N   UNL     1       1.123   4.863  -1.080  0.00  0.00    -0.315 N 
ATOM     28  C   UNL     1       1.296   3.129   0.370  0.00  0.00    +0.040 C 
ATOM     29  C   UNL     1       0.435   3.942  -0.330  0.00  0.00    +0.069 C 
ATOM     30  C   UNL     1       2.391   4.613  -0.836  0.00  0.00    +0.182 C 
ATOM     31  H   UNL     1       3.399   3.207   0.364  0.00  0.00    +0.148 HD
ATOM     32  H   UNL     1       0.750   5.557  -1.670  0.00  0.00    +0.148 HD
ENDBRANCH  25  28
ENDBRANCH   1  25
TORSDOF 7
