REMARK  Name = 127766
REMARK  10 active torsions:
REMARK  status: ('A' for Active; 'I' for Inactive)
REMARK    1  A    between atoms: C_1  and  C_16
REMARK    2  A    between atoms: C_4  and  O_7
REMARK    3  A    between atoms: C_5  and  O_9
REMARK    4  A    between atoms: O_9  and  P_10
REMARK    5  A    between atoms: P_10  and  O_12
REMARK    6  A    between atoms: P_10  and  O_14
REMARK    7  A    between atoms: C_16  and  CA_17
REMARK    8  A    between atoms: CA_17  and  N_18
REMARK    9  A    between atoms: CA_17  and  C_23
REMARK   10  A    between atoms: C_23  and  O_24
REMARK                            x       y       z     vdW  Elec       q    Type
REMARK                         _______ _______ _______ _____ _____    ______ ____
ROOT
ATOM      1  C   UNL     1      -1.084   0.463   0.707  0.00  0.00    -0.021 C 
ATOM      2  C   UNL     1      -0.750  -0.878   0.796  0.00  0.00    +0.035 C 
ATOM      3  C   UNL     1      -0.141   1.422   0.376  0.00  0.00    -0.001 C 
ATOM      4  C   UNL     1       0.566  -1.272   0.548  0.00  0.00    +0.168 C 
ATOM      5  C   UNL     1       1.527  -0.318   0.213  0.00  0.00    +0.182 C 
ATOM      6  C   UNL     1       1.174   1.029   0.128  0.00  0.00    +0.040 C 
ENDROOT
BRANCH   4   7
ATOM      7  O   UNL     1       0.899  -2.590   0.633  0.00  0.00    -0.503 OA
ATOM      8  H   UNL     1       0.247  -3.224   0.858  0.00  0.00    +0.292 HD
ENDBRANCH   4   7
BRANCH   5   9
ATOM      9  O   UNL     1       2.814  -0.690  -0.033  0.00  0.00    -0.400 OA
BRANCH   9  10
ATOM     10  P   UNL     1       4.016   0.319  -0.430  0.00  0.00    +0.528 P 
ATOM     11  O   UNL     1       3.805   1.103  -1.692  0.00  0.00    -0.216 OA
BRANCH  10  12
ATOM     12  O   UNL     1       4.255   1.195   0.908  0.00  0.00    -0.293 OA
ATOM     13  H   UNL     1       4.380   0.602   1.666  0.00  0.00    +0.223 HD
ENDBRANCH  10  12
BRANCH  10  14
ATOM     14  O   UNL     1       5.306  -0.658  -0.457  0.00  0.00    -0.293 OA
ATOM     15  H   UNL     1       5.375  -1.127   0.389  0.00  0.00    +0.223 HD
ENDBRANCH  10  14
ENDBRANCH   9  10
ENDBRANCH   5   9
BRANCH   1  16
ATOM     16  C   UNL     1      -2.509   0.888   0.977  0.00  0.00    +0.015 C 
BRANCH  16  17
ATOM     17  CA  UNL     1      -3.382   0.888  -0.287  0.00  0.00    +0.040 C 
BRANCH  17  18
ATOM     18  N   UNL     1      -4.554   1.735  -0.079  0.00  0.00    +0.389 N 
ATOM     19  H1  UNL     1      -4.253   2.682   0.150  0.00  0.00    -0.088 HD
ATOM     20  H2  UNL     1      -5.112   1.361   0.689  0.00  0.00    -0.088 HD
ATOM     21  H3  UNL     1      -5.116   1.753  -0.930  0.00  0.00    -0.088 HD
ENDBRANCH  17  18
BRANCH  17  23
ATOM     22  OXT UNL     1      -4.943  -0.979  -0.190  0.00  0.00    -0.253 OA
ATOM     23  C   UNL     1      -3.902  -0.499  -0.622  0.00  0.00    +0.293 C 
BRANCH  23  24
ATOM     24  O   UNL     1      -3.096  -1.157  -1.496  0.00  0.00    -0.482 OA
ATOM     25  H   UNL     1      -2.309  -0.752  -1.802  0.00  0.00    +0.295 HD
ENDBRANCH  23  24
ENDBRANCH  17  23
ENDBRANCH  16  17
ENDBRANCH   1  16
TORSDOF 10
