REMARK  Name = 127867
REMARK  4 active torsions:
REMARK  status: ('A' for Active; 'I' for Inactive)
REMARK    1  A    between atoms: C_1  and  C_5
REMARK    2  A    between atoms: C_2  and  C_16
REMARK    3  A    between atoms: C_2  and  C_25
REMARK    4  A    between atoms: C_17  and  C_23
REMARK                            x       y       z     vdW  Elec       q    Type
REMARK                         _______ _______ _______ _____ _____    ______ ____
ROOT
ATOM      1  C   UNL     1      -0.272  -0.332   0.403  0.00  0.00    +0.013 C 
ATOM      2  C   UNL     1       0.930   0.347   0.311  0.00  0.00    +0.086 C 
ENDROOT
BRANCH   1   5
ATOM      3  N   UNL     1      -3.253   1.609   0.819  0.00  0.00    -0.312 N 
ATOM      4  C   UNL     1      -2.779  -0.391  -0.048  0.00  0.00    +0.015 C 
ATOM      5  C   UNL     1      -1.579   0.202   0.435  0.00  0.00    +0.017 C 
ATOM      6  C   UNL     1      -3.813   0.512   0.205  0.00  0.00    +0.048 C 
ATOM      7  C   UNL     1      -1.903   1.431   0.963  0.00  0.00    +0.062 C 
ATOM      8  C   UNL     1      -3.084  -1.614  -0.679  0.00  0.00    +0.001 C 
ATOM      9  C   UNL     1      -5.144   0.252  -0.142  0.00  0.00    +0.015 C 
ATOM     10  C   UNL     1      -4.411  -1.887  -1.032  0.00  0.00    +0.000 C 
ATOM     11  C   UNL     1      -5.423  -0.967  -0.767  0.00  0.00    +0.001 C 
ATOM     12  H   UNL     1      -3.750   2.406   1.112  0.00  0.00    +0.152 HD
ENDBRANCH   1   5
BRANCH   2  16
ATOM     13  N   UNL     1       2.237  -1.531   0.959  0.00  0.00    -0.273 N 
ATOM     14  N   UNL     1       3.448  -2.108   0.885  0.00  0.00    -0.157 NA
ATOM     15  N   UNL     1       5.455  -1.397  -0.206  0.00  0.00    -0.341 N 
ATOM     16  C   UNL     1       2.216  -0.377   0.296  0.00  0.00    +0.096 A 
ATOM     17  C   UNL     1       3.395  -0.125  -0.248  0.00  0.00    +0.119 A 
ATOM     18  C   UNL     1       4.151  -1.246   0.147  0.00  0.00    +0.156 A 
ATOM     19  H   UNL     1       1.466  -1.911   1.440  0.00  0.00    +0.189 HD
ATOM     20  H   UNL     1       5.955  -2.194   0.087  0.00  0.00    +0.144 HD
ATOM     21  H   UNL     1       5.900  -0.712  -0.755  0.00  0.00    +0.144 HD
BRANCH  17  23
ATOM     22  N   UNL     1       4.106   1.918  -1.673  0.00  0.00    -0.191 NA
ATOM     23  C   UNL     1       3.785   0.998  -1.031  0.00  0.00    +0.105 C 
ENDBRANCH  17  23
ENDBRANCH   2  16
BRANCH   2  25
ATOM     24  N   UNL     1       0.982   2.933   0.171  0.00  0.00    -0.191 NA
ATOM     25  C   UNL     1       0.957   1.774   0.234  0.00  0.00    +0.102 C 
ENDBRANCH   2  25
TORSDOF 4
