REMARK  Name = 127812
REMARK  7 active torsions:
REMARK  status: ('A' for Active; 'I' for Inactive)
REMARK    1  A    between atoms: C_1  and  C_4
REMARK    2  A    between atoms: C_1  and  C_10
REMARK    3  A    between atoms: C_1  and  O_25
REMARK    4  A    between atoms: C_1  and  C_27
REMARK    5  A    between atoms: C_10  and  S_13
REMARK    6  A    between atoms: S_13  and  C_19
REMARK    7  A    between atoms: C_27  and  N_28
REMARK                            x       y       z     vdW  Elec       q    Type
REMARK                         _______ _______ _______ _____ _____    ______ ____
ROOT
ATOM      1  C   UNL     1      -1.860  -0.458  -0.295  0.00  0.00    +0.138 C 
ENDROOT
BRANCH   1   4
ATOM      2  F   UNL     1      -2.239   1.594  -2.202  0.00  0.00    -0.204 F 
ATOM      3  F   UNL     1      -4.814   4.198   0.793  0.00  0.00    -0.204 F 
ATOM      4  C   UNL     1      -2.670   0.819   0.000  0.00  0.00    +0.032 C 
ATOM      5  C   UNL     1      -2.795   1.756  -0.993  0.00  0.00    +0.141 C 
ATOM      6  C   UNL     1      -3.226   0.957   1.246  0.00  0.00    +0.003 C 
ATOM      7  C   UNL     1      -3.528   2.911  -0.722  0.00  0.00    +0.059 C 
ATOM      8  C   UNL     1      -3.959   2.112   1.517  0.00  0.00    +0.030 C 
ATOM      9  C   UNL     1      -4.111   3.089   0.533  0.00  0.00    +0.142 C 
ENDBRANCH   1   4
BRANCH   1  10
ATOM     10  C   UNL     1      -0.294  -0.217  -0.126  0.00  0.00    +0.073 C 
ATOM     11  C   UNL     1       0.071   0.227   1.308  0.00  0.00    +0.014 C 
ATOM     12  C   UNL     1       0.306   0.792  -1.120  0.00  0.00    +0.014 C 
BRANCH  10  13
ATOM     13  S   UNL     1       0.637  -1.806  -0.400  0.00  0.00    -0.092 S 
BRANCH  13  19
ATOM     14  N   UNL     1       2.949  -0.783  -1.280  0.00  0.00    -0.140 NA
ATOM     15  N   UNL     1       4.226  -0.329  -1.163  0.00  0.00    -0.130 NA
ATOM     16  N   UNL     1       6.118   0.130   0.148  0.00  0.00    -0.149 N 
ATOM     17  N   UNL     1       6.779   0.156   1.318  0.00  0.00    -0.148 NA
ATOM     18  N   UNL     1       8.075   0.954  -0.389  0.00  0.00    -0.203 NA
ATOM     19  C   UNL     1       2.307  -1.227  -0.180  0.00  0.00    +0.128 C 
ATOM     20  C   UNL     1       2.885  -1.244   1.073  0.00  0.00    +0.030 C 
ATOM     21  C   UNL     1       4.184  -0.782   1.192  0.00  0.00    +0.040 C 
ATOM     22  C   UNL     1       4.817  -0.334   0.050  0.00  0.00    +0.178 C 
ATOM     23  C   UNL     1       6.901   0.608  -0.861  0.00  0.00    +0.192 C 
ATOM     24  C   UNL     1       7.955   0.662   0.940  0.00  0.00    +0.219 C 
ENDBRANCH  13  19
ENDBRANCH  10  13
ENDBRANCH   1  10
BRANCH   1  25
ATOM     25  O   UNL     1      -2.070  -0.795  -1.684  0.00  0.00    -0.380 OA
ATOM     26  H   UNL     1      -1.570  -1.598  -1.900  0.00  0.00    +0.211 HD
ENDBRANCH   1  25
BRANCH   1  27
ATOM     27  C   UNL     1      -2.390  -1.681   0.530  0.00  0.00    +0.150 C 
BRANCH  27  28
ATOM     28  N   UNL     1      -3.806  -2.016   0.327  0.00  0.00    -0.188 N 
ATOM     29  N   UNL     1      -4.305  -2.051  -0.902  0.00  0.00    -0.154 NA
ATOM     30  N   UNL     1      -5.864  -2.551   0.696  0.00  0.00    -0.203 NA
ATOM     31  C   UNL     1      -4.711  -2.307   1.275  0.00  0.00    +0.186 C 
ATOM     32  C   UNL     1      -5.568  -2.383  -0.626  0.00  0.00    +0.218 C 
ENDBRANCH  27  28
ENDBRANCH   1  27
TORSDOF 7
