REMARK  Name = 127839
REMARK  6 active torsions:
REMARK  status: ('A' for Active; 'I' for Inactive)
REMARK    1  A    between atoms: C_1  and  C_6
REMARK    2  A    between atoms: C_1  and  N_15
REMARK    3  A    between atoms: C_1  and  C_20
REMARK    4  A    between atoms: C_5  and  C_10
REMARK    5  A    between atoms: N_15  and  C_18
REMARK    6  A    between atoms: C_20  and  C_23
REMARK                            x       y       z     vdW  Elec       q    Type
REMARK                         _______ _______ _______ _____ _____    ______ ____
ROOT
ATOM      1  C   UNL     1       1.838  -1.307   0.293  0.00  0.00    +0.023 C 
ENDROOT
BRANCH   1   6
ATOM      2  O   UNL     1      -1.674   0.540  -1.625  0.00  0.00    -0.273 OA
ATOM      3  O   UNL     1       0.786  -0.806  -1.833  0.00  0.00    -0.277 OA
ATOM      4  N   UNL     1      -0.279  -0.129   0.127  0.00  0.00    -0.256 N 
ATOM      5  C   UNL     1      -1.414   0.459  -0.428  0.00  0.00    +0.246 C 
ATOM      6  C   UNL     1       0.750  -0.725  -0.606  0.00  0.00    +0.208 C 
ATOM      7  H   UNL     1      -0.197  -0.125   1.108  0.00  0.00    +0.157 HD
BRANCH   5  10
ATOM      8  O   UNL     1      -5.641   1.061  -0.589  0.00  0.00    -0.275 OA
ATOM      9  N   UNL     1      -3.427   1.620  -0.069  0.00  0.00    -0.298 N 
ATOM     10  C   UNL     1      -2.319   1.022   0.620  0.00  0.00    +0.149 C 
ATOM     11  C   UNL     1      -2.963  -0.050   1.479  0.00  0.00    +0.039 C 
ATOM     12  C   UNL     1      -4.236  -0.426   0.721  0.00  0.00    +0.087 C 
ATOM     13  C   UNL     1      -4.569   0.826  -0.053  0.00  0.00    +0.223 C 
ATOM     14  H   UNL     1      -3.384   2.500  -0.508  0.00  0.00    +0.150 HD
ENDBRANCH   5  10
ENDBRANCH   1   6
BRANCH   1  15
ATOM     15  N   UNL     1       1.846  -2.757   0.090  0.00  0.00    +0.391 N 
ATOM     16  H   UNL     1       2.563  -3.174   0.684  0.00  0.00    -0.084 HD
ATOM     17  H   UNL     1       2.043  -2.950  -0.892  0.00  0.00    -0.084 HD
BRANCH  15  18
ATOM     18  C   UNL     1       0.553  -3.330   0.429  0.00  0.00    -0.081 C 
ATOM     19  C   UNL     1       0.549  -4.835   0.223  0.00  0.00    -0.026 C 
ENDBRANCH  15  18
ENDBRANCH   1  15
BRANCH   1  20
ATOM     20  C   UNL     1       3.216  -0.728  -0.061  0.00  0.00    +0.030 C 
BRANCH  20  23
ATOM     21  N   UNL     1       4.046   1.549  -0.635  0.00  0.00    -0.319 N 
ATOM     22  N   UNL     1       3.069   2.865   0.863  0.00  0.00    -0.315 N 
ATOM     23  C   UNL     1       3.290   0.767   0.154  0.00  0.00    +0.036 C 
ATOM     24  C   UNL     1       2.695   1.561   1.066  0.00  0.00    +0.069 C 
ATOM     25  C   UNL     1       3.883   2.824  -0.168  0.00  0.00    +0.182 C 
ATOM     26  H   UNL     1       4.603   1.263  -1.394  0.00  0.00    +0.148 HD
ATOM     27  H   UNL     1       2.789   3.657   1.377  0.00  0.00    +0.148 HD
ENDBRANCH  20  23
ENDBRANCH   1  20
TORSDOF 6
