REMARK  Name = 127884
REMARK  6 active torsions:
REMARK  status: ('A' for Active; 'I' for Inactive)
REMARK    1  A    between atoms: C_4  and  C_14
REMARK    2  A    between atoms: C_5  and  C_8
REMARK    3  A    between atoms: C_14  and  CA_15
REMARK    4  A    between atoms: CA_15  and  N_16
REMARK    5  A    between atoms: CA_15  and  C_21
REMARK    6  A    between atoms: C_21  and  O_22
REMARK                            x       y       z     vdW  Elec       q    Type
REMARK                         _______ _______ _______ _____ _____    ______ ____
ROOT
ATOM      1  O   UNL     1       0.616  -2.317   0.545  0.00  0.00    -0.376 OA
ATOM      2  O   UNL     1      -2.642  -1.908  -0.597  0.00  0.00    -0.265 OA
ATOM      3  N   UNL     1      -0.701  -2.783   0.353  0.00  0.00    -0.184 N 
ATOM      4  C   UNL     1      -0.602  -0.668  -0.515  0.00  0.00    +0.072 A 
ATOM      5  C   UNL     1       0.574  -1.040  -0.002  0.00  0.00    +0.173 A 
ATOM      6  C   UNL     1      -1.468  -1.834  -0.277  0.00  0.00    +0.284 A 
ATOM      7  H   UNL     1      -1.027  -3.668   0.634  0.00  0.00    +0.211 HD
ENDROOT
BRANCH   5   8
ATOM      8  C   UNL     1       1.825  -0.279   0.043  0.00  0.00    +0.037 C 
ATOM      9  C   UNL     1       2.109   0.553   1.132  0.00  0.00    +0.003 C 
ATOM     10  C   UNL     1       2.749  -0.375  -1.004  0.00  0.00    +0.003 C 
ATOM     11  C   UNL     1       3.300   1.278   1.174  0.00  0.00    +0.000 C 
ATOM     12  C   UNL     1       3.940   0.350  -0.962  0.00  0.00    +0.000 C 
ATOM     13  C   UNL     1       4.215   1.177   0.127  0.00  0.00    +0.000 C 
ENDBRANCH   5   8
BRANCH   4  14
ATOM     14  C   UNL     1      -1.066   0.546  -1.224  0.00  0.00    +0.023 C 
BRANCH  14  15
ATOM     15  CA  UNL     1      -1.604   1.611  -0.261  0.00  0.00    +0.040 C 
BRANCH  15  16
ATOM     16  N   UNL     1      -2.062   2.780  -1.010  0.00  0.00    +0.389 N 
ATOM     17  H1  UNL     1      -1.294   3.145  -1.573  0.00  0.00    -0.088 HD
ATOM     18  H2  UNL     1      -2.379   3.498  -0.359  0.00  0.00    -0.088 HD
ATOM     19  H3  UNL     1      -2.834   2.511  -1.621  0.00  0.00    -0.088 HD
ENDBRANCH  15  16
BRANCH  15  21
ATOM     20  OXT UNL     1      -3.967   1.214   0.200  0.00  0.00    -0.253 OA
ATOM     21  C   UNL     1      -2.797   1.127   0.548  0.00  0.00    +0.293 C 
BRANCH  21  22
ATOM     22  O   UNL     1      -2.420   0.569   1.729  0.00  0.00    -0.482 OA
ATOM     23  H   UNL     1      -1.512   0.522   1.957  0.00  0.00    +0.295 HD
ENDBRANCH  21  22
ENDBRANCH  15  21
ENDBRANCH  14  15
ENDBRANCH   4  14
TORSDOF 6
