REMARK  Name = 127829
REMARK  10 active torsions:
REMARK  status: ('A' for Active; 'I' for Inactive)
REMARK    1  A    between atoms: C_3  and  C_29
REMARK    2  A    between atoms: C_8  and  O_23
REMARK    3  A    between atoms: C_18  and  O_25
REMARK    4  A    between atoms: C_19  and  O_27
REMARK    5  A    between atoms: C_29  and  C_31
REMARK    6  A    between atoms: C_31  and  C_32
REMARK    7  A    between atoms: C_32  and  C_33
REMARK    8  A    between atoms: C_33  and  C_34
REMARK    9  A    between atoms: C_33  and  O_39
REMARK   10  A    between atoms: C_34  and  O_37
REMARK                            x       y       z     vdW  Elec       q    Type
REMARK                         _______ _______ _______ _____ _____    ______ ____
ROOT
ATOM      1  C   UNL     1       0.864  -0.371   0.954  0.00  0.00    +0.028 C 
ATOM      2  C   UNL     1       0.208  -0.735  -0.425  0.00  0.00    +0.017 C 
ATOM      3  C   UNL     1       2.367  -0.574   0.634  0.00  0.00    +0.003 C 
ATOM      4  C   UNL     1      -3.505   0.233   0.614  0.00  0.00    +0.017 C 
ATOM      5  C   UNL     1      -1.310  -0.725  -0.304  0.00  0.00    -0.053 C 
ATOM      6  C   UNL     1      -1.942   0.154   0.513  0.00  0.00    -0.050 C 
ATOM      7  C   UNL     1      -4.241  -0.952  -0.150  0.00  0.00    +0.006 C 
ATOM      8  C   UNL     1       0.412   1.035   1.381  0.00  0.00    +0.115 C 
ATOM      9  C   UNL     1       0.930  -2.066  -0.732  0.00  0.00    +0.004 C 
ATOM     10  C   UNL     1       2.377  -1.857  -0.234  0.00  0.00    +0.000 C 
ATOM     11  C   UNL     1      -1.134   1.129   1.400  0.00  0.00    +0.051 C 
ATOM     12  C   UNL     1      -5.800  -0.752  -0.417  0.00  0.00    +0.027 C 
ATOM     13  C   UNL     1      -2.048  -1.670  -1.201  0.00  0.00    +0.021 C 
ATOM     14  C   UNL     1      -3.485  -1.253  -1.463  0.00  0.00    +0.005 C 
ATOM     15  C   UNL     1      -3.933   1.591   0.003  0.00  0.00    +0.035 C 
ATOM     16  C   UNL     1       0.454  -1.356   2.106  0.00  0.00    +0.003 C 
ATOM     17  C   UNL     1       0.519   0.228  -1.613  0.00  0.00    +0.004 C 
ATOM     18  C   UNL     1      -6.074   0.664  -0.991  0.00  0.00    +0.137 C 
ATOM     19  C   UNL     1      -5.438   1.778  -0.160  0.00  0.00    +0.137 C 
ATOM     20  C   UNL     1      -3.873   0.188   2.116  0.00  0.00    +0.004 C 
ATOM     21  C   UNL     1      -6.642  -0.998   0.863  0.00  0.00    +0.002 C 
ATOM     22  C   UNL     1      -6.333  -1.807  -1.429  0.00  0.00    +0.002 C 
ENDROOT
BRANCH   8  23
ATOM     23  O   UNL     1       0.922   2.066   0.543  0.00  0.00    -0.384 OA
ATOM     24  H   UNL     1       1.891   2.018   0.524  0.00  0.00    +0.210 HD
ENDBRANCH   8  23
BRANCH  18  25
ATOM     25  O   UNL     1      -7.479   0.924  -1.053  0.00  0.00    -0.382 OA
ATOM     26  H   UNL     1      -7.914   0.232  -1.576  0.00  0.00    +0.210 HD
ENDBRANCH  18  25
BRANCH  19  27
ATOM     27  O   UNL     1      -5.663   3.033  -0.811  0.00  0.00    -0.382 OA
ATOM     28  H   UNL     1      -5.261   3.745  -0.288  0.00  0.00    +0.210 HD
ENDBRANCH  19  27
BRANCH   3  29
ATOM     29  C   UNL     1       3.316  -0.657   1.823  0.00  0.00    +0.000 C 
ATOM     30  C   UNL     1       3.211   0.618   2.666  0.00  0.00    +0.000 C 
BRANCH  29  31
ATOM     31  C   UNL     1       4.756  -0.914   1.334  0.00  0.00    +0.003 C 
BRANCH  31  32
ATOM     32  C   UNL     1       5.269   0.145   0.345  0.00  0.00    +0.032 C 
BRANCH  32  33
ATOM     33  C   UNL     1       6.721  -0.120  -0.080  0.00  0.00    +0.135 C 
BRANCH  33  34
ATOM     34  C   UNL     1       7.283   0.869  -1.133  0.00  0.00    +0.113 C 
ATOM     35  C   UNL     1       7.346   2.313  -0.628  0.00  0.00    +0.032 C 
ATOM     36  C   UNL     1       6.514   0.810  -2.456  0.00  0.00    +0.032 C 
BRANCH  34  37
ATOM     37  O   UNL     1       8.636   0.479  -1.413  0.00  0.00    -0.384 OA
ATOM     38  H   UNL     1       9.156   0.504  -0.594  0.00  0.00    +0.210 HD
ENDBRANCH  34  37
ENDBRANCH  33  34
BRANCH  33  39
ATOM     39  O   UNL     1       6.794  -1.450  -0.603  0.00  0.00    -0.382 OA
ATOM     40  H   UNL     1       6.444  -2.075   0.051  0.00  0.00    +0.210 HD
ENDBRANCH  33  39
ENDBRANCH  32  33
ENDBRANCH  31  32
ENDBRANCH  29  31
ENDBRANCH   3  29
TORSDOF 10
