REMARK  Name = 127850
REMARK  8 active torsions:
REMARK  status: ('A' for Active; 'I' for Inactive)
REMARK    1  A    between atoms: C_2  and  C_14
REMARK    2  A    between atoms: C_9  and  O_27
REMARK    3  A    between atoms: C_10  and  O_29
REMARK    4  A    between atoms: C_14  and  O_15
REMARK    5  A    between atoms: O_15  and  C_16
REMARK    6  A    between atoms: C_16  and  C_17
REMARK    7  A    between atoms: C_20  and  O_23
REMARK    8  A    between atoms: C_22  and  O_25
REMARK                            x       y       z     vdW  Elec       q    Type
REMARK                         _______ _______ _______ _____ _____    ______ ____
ROOT
ATOM      1  N   UNL     1       1.774  -2.666  -0.234  0.00  0.00    +0.395 N 
ATOM      2  C   UNL     1       1.338  -1.265  -0.288  0.00  0.00    +0.063 C 
ATOM      3  C   UNL     1       2.470  -0.261  -0.204  0.00  0.00    -0.032 C 
ATOM      4  C   UNL     1       4.115  -2.119  -0.685  0.00  0.00    +0.003 C 
ATOM      5  C   UNL     1       3.799  -0.668  -0.428  0.00  0.00    -0.027 C 
ATOM      6  C   UNL     1       2.889  -2.905  -1.147  0.00  0.00    -0.076 C 
ATOM      7  C   UNL     1       2.205   1.100   0.020  0.00  0.00    +0.034 C 
ATOM      8  C   UNL     1       4.838   0.271  -0.367  0.00  0.00    +0.035 C 
ATOM      9  C   UNL     1       3.245   2.029   0.066  0.00  0.00    +0.167 C 
ATOM     10  C   UNL     1       4.560   1.614  -0.122  0.00  0.00    +0.167 C 
ATOM     11  H   UNL     1       0.993  -3.268  -0.497  0.00  0.00    -0.083 HD
ATOM     12  H   UNL     1       2.082  -2.874   0.716  0.00  0.00    -0.083 HD
ENDROOT
BRANCH   2  14
ATOM     13  O   UNL     1       0.683  -1.261   2.029  0.00  0.00    -0.252 OA
ATOM     14  C   UNL     1       0.376  -1.124   0.852  0.00  0.00    +0.301 C 
BRANCH  14  15
ATOM     15  O   UNL     1      -0.863  -0.825   0.368  0.00  0.00    -0.445 OA
BRANCH  15  16
ATOM     16  C   UNL     1      -1.886  -0.662   1.356  0.00  0.00    +0.235 C 
BRANCH  16  17
ATOM     17  C   UNL     1      -3.181  -0.339   0.671  0.00  0.00    +0.024 C 
ATOM     18  C   UNL     1      -3.519   0.988   0.428  0.00  0.00    +0.039 C 
ATOM     19  C   UNL     1      -4.032  -1.369   0.285  0.00  0.00    +0.003 C 
ATOM     20  C   UNL     1      -4.724   1.288  -0.208  0.00  0.00    +0.167 C 
ATOM     21  C   UNL     1      -5.236  -1.069  -0.350  0.00  0.00    +0.040 C 
ATOM     22  C   UNL     1      -5.582   0.260  -0.597  0.00  0.00    +0.167 C 
BRANCH  20  23
ATOM     23  O   UNL     1      -5.051   2.589  -0.444  0.00  0.00    -0.503 OA
ATOM     24  H   UNL     1      -4.468   3.274  -0.179  0.00  0.00    +0.292 HD
ENDBRANCH  20  23
BRANCH  22  25
ATOM     25  O   UNL     1      -6.761   0.540  -1.219  0.00  0.00    -0.503 OA
ATOM     26  H   UNL     1      -7.001   1.430  -1.389  0.00  0.00    +0.292 HD
ENDBRANCH  22  25
ENDBRANCH  16  17
ENDBRANCH  15  16
ENDBRANCH  14  15
ENDBRANCH   2  14
BRANCH   9  27
ATOM     27  O   UNL     1       2.959   3.342   0.294  0.00  0.00    -0.503 OA
ATOM     28  H   UNL     1       2.071   3.613   0.420  0.00  0.00    +0.292 HD
ENDBRANCH   9  27
BRANCH  10  29
ATOM     29  O   UNL     1       5.583   2.512  -0.074  0.00  0.00    -0.503 OA
ATOM     30  H   UNL     1       6.466   2.224  -0.201  0.00  0.00    +0.292 HD
ENDBRANCH  10  29
TORSDOF 8
