REMARK  Name = 127857
REMARK  3 active torsions:
REMARK  status: ('A' for Active; 'I' for Inactive)
REMARK    1  A    between atoms: N_3  and  O_12
REMARK    2  A    between atoms: C_4  and  S_8
REMARK    3  A    between atoms: O_12  and  C_14
REMARK                            x       y       z     vdW  Elec       q    Type
REMARK                         _______ _______ _______ _____ _____    ______ ____
ROOT
ATOM      1  O   UNL     1       0.097  -1.384  -1.671  0.00  0.00    -0.270 OA
ATOM      2  O   UNL     1      -1.270   2.523   0.358  0.00  0.00    -0.271 OA
ATOM      3  N   UNL     1      -0.864   0.451  -0.615  0.00  0.00    -0.060 N 
ATOM      4  C   UNL     1       1.427   0.417  -0.737  0.00  0.00    +0.224 C 
ATOM      5  C   UNL     1       0.970   1.759  -0.155  0.00  0.00    +0.122 C 
ATOM      6  C   UNL     1       0.157  -0.307  -1.098  0.00  0.00    +0.286 C 
ATOM      7  C   UNL     1      -0.532   1.658  -0.087  0.00  0.00    +0.266 C 
ENDROOT
BRANCH   4   8
ATOM      8  S   UNL     1       2.351  -0.533   0.425  0.00  0.00    +0.030 S 
ATOM      9  O   UNL     1       3.694   0.393   0.440  0.00  0.00    -0.069 OA
ATOM     10  O   UNL     1       2.678  -1.818  -0.169  0.00  0.00    -0.069 OA
ATOM     11  O   UNL     1       1.708  -0.441   1.724  0.00  0.00    -0.069 OA
ENDBRANCH   4   8
BRANCH   3  12
ATOM     12  O   UNL     1      -2.174   0.015  -0.660  0.00  0.00    -0.337 OA
BRANCH  12  14
ATOM     13  O   UNL     1      -1.789  -0.919   1.421  0.00  0.00    -0.248 OA
ATOM     14  C   UNL     1      -2.514  -0.682   0.463  0.00  0.00    +0.341 C 
ATOM     15  C   UNL     1      -3.941  -1.131   0.363  0.00  0.00    +0.123 C 
ENDBRANCH  12  14
ENDBRANCH   3  12
TORSDOF 3
