REMARK  Name = 127894
REMARK  5 active torsions:
REMARK  status: ('A' for Active; 'I' for Inactive)
REMARK    1  A    between atoms: C_5  and  C_17
REMARK    2  A    between atoms: CA_10  and  C_14
REMARK    3  A    between atoms: C_14  and  O_15
REMARK    4  A    between atoms: C_17  and  C_18
REMARK    5  A    between atoms: C_18  and  C_23
REMARK                            x       y       z     vdW  Elec       q    Type
REMARK                         _______ _______ _______ _____ _____    ______ ____
ROOT
ATOM      1  N   UNL     1       3.739  -0.591  -1.042  0.00  0.00    +0.392 N 
ATOM      2  C   UNL     1       1.764  -0.477   1.150  0.00  0.00    -0.004 C 
ATOM      3  C   UNL     1       1.984  -1.741   0.294  0.00  0.00    -0.021 C 
ATOM      4  C   UNL     1       0.505   0.302   0.727  0.00  0.00    -0.000 C 
ATOM      5  C   UNL     1      -0.742  -0.592   0.722  0.00  0.00    +0.001 C 
ATOM      6  C   UNL     1       0.715  -2.602   0.231  0.00  0.00    -0.002 C 
ATOM      7  C   UNL     1      -0.530  -1.817  -0.175  0.00  0.00    -0.000 C 
ATOM      8  C   UNL     1       3.018   0.411   1.109  0.00  0.00    -0.011 C 
ATOM      9  C   UNL     1       2.509  -1.387  -1.110  0.00  0.00    -0.081 C 
ATOM     10  CA  UNL     1       3.508   0.660  -0.319  0.00  0.00    +0.040 C 
ATOM     11  H1  UNL     1       4.052  -0.377  -1.989  0.00  0.00    -0.084 HD
ATOM     12  H2  UNL     1       4.450  -1.129  -0.547  0.00  0.00    -0.084 HD
ENDROOT
BRANCH  10  14
ATOM     13  OXT UNL     1       5.863   0.952  -0.767  0.00  0.00    -0.253 OA
ATOM     14  C   UNL     1       4.819   1.382  -0.300  0.00  0.00    +0.293 C 
BRANCH  14  15
ATOM     15  O   UNL     1       4.694   2.585   0.312  0.00  0.00    -0.482 OA
ATOM     16  H   UNL     1       3.863   2.855   0.649  0.00  0.00    +0.295 HD
ENDBRANCH  14  15
ENDBRANCH  10  14
BRANCH   5  17
ATOM     17  C   UNL     1      -1.970   0.198   0.272  0.00  0.00    +0.016 C 
BRANCH  17  18
ATOM     18  C   UNL     1      -3.240  -0.645   0.380  0.00  0.00    +0.102 C 
BRANCH  18  23
ATOM     19  N   UNL     1      -4.880   0.123  -1.286  0.00  0.00    -0.114 NA
ATOM     20  N   UNL     1      -5.181   0.838   0.842  0.00  0.00    -0.091 NA
ATOM     21  N   UNL     1      -5.948   0.917  -1.122  0.00  0.00    -0.140 N 
ATOM     22  N   UNL     1      -6.165   1.364   0.122  0.00  0.00    -0.022 NA
ATOM     23  C   UNL     1      -4.460   0.120  -0.037  0.00  0.00    +0.050 C 
ATOM     24  H   UNL     1      -6.538   1.157  -1.873  0.00  0.00    +0.197 HD
ENDBRANCH  18  23
ENDBRANCH  17  18
ENDBRANCH   5  17
TORSDOF 5
