REMARK  Name = 127834
REMARK  6 active torsions:
REMARK  status: ('A' for Active; 'I' for Inactive)
REMARK    1  A    between atoms: C_1  and  C_5
REMARK    2  A    between atoms: C_1  and  N_15
REMARK    3  A    between atoms: C_1  and  C_25
REMARK    4  A    between atoms: C_6  and  C_11
REMARK    5  A    between atoms: C_16  and  C_19
REMARK    6  A    between atoms: C_25  and  C_26
REMARK                            x       y       z     vdW  Elec       q    Type
REMARK                         _______ _______ _______ _____ _____    ______ ____
ROOT
ATOM      1  C   UNL     1       0.276  -0.832  -0.401  0.00  0.00    +0.149 C 
ENDROOT
BRANCH   1   5
ATOM      2  S   UNL     1       4.468   0.981   0.438  0.00  0.00    -0.110 S 
ATOM      3  O   UNL     1       0.453   0.521  -2.345  0.00  0.00    -0.273 OA
ATOM      4  N   UNL     1       2.124   0.753  -0.756  0.00  0.00    -0.262 N 
ATOM      5  C   UNL     1       0.949   0.208  -1.261  0.00  0.00    +0.244 C 
ATOM      6  C   UNL     1       2.747   0.415   0.518  0.00  0.00    +0.201 C 
ATOM      7  C   UNL     1       2.866   1.763  -1.503  0.00  0.00    +0.106 C 
ATOM      8  C   UNL     1       4.348   1.508  -1.289  0.00  0.00    +0.081 C 
BRANCH   6  11
ATOM      9  O   UNL     1       1.119   1.941   1.365  0.00  0.00    -0.273 OA
ATOM     10  N   UNL     1       2.606   0.999   2.847  0.00  0.00    -0.327 N 
ATOM     11  C   UNL     1       2.064   1.192   1.598  0.00  0.00    +0.248 C 
ATOM     12  H   UNL     1       2.226   1.467   3.625  0.00  0.00    +0.145 HD
ATOM     13  H   UNL     1       3.373   0.394   2.963  0.00  0.00    +0.145 HD
ENDBRANCH   6  11
ENDBRANCH   1   5
BRANCH   1  15
ATOM     14  O   UNL     1      -1.704   0.057   1.528  0.00  0.00    -0.277 OA
ATOM     15  N   UNL     1      -1.126  -0.615  -0.626  0.00  0.00    -0.300 N 
ATOM     16  C   UNL     1      -2.004  -0.187   0.362  0.00  0.00    +0.203 C 
ATOM     17  H   UNL     1      -1.484  -0.779  -1.528  0.00  0.00    +0.150 HD
BRANCH  16  19
ATOM     18  N   UNL     1      -4.215   0.448   0.977  0.00  0.00    +0.391 N 
ATOM     19  C   UNL     1      -3.399  -0.018  -0.145  0.00  0.00    +0.017 C 
ATOM     20  C   UNL     1      -3.510   1.058  -1.222  0.00  0.00    -0.015 C 
ATOM     21  C   UNL     1      -4.440   2.106  -0.629  0.00  0.00    -0.025 C 
ATOM     22  C   UNL     1      -5.226   1.333   0.408  0.00  0.00    -0.081 C 
ATOM     23  H   UNL     1      -3.637   0.956   1.647  0.00  0.00    -0.084 HD
ATOM     24  H   UNL     1      -4.642  -0.334   1.473  0.00  0.00    -0.084 HD
ENDBRANCH  16  19
ENDBRANCH   1  15
BRANCH   1  25
ATOM     25  C   UNL     1       0.731  -2.237  -0.796  0.00  0.00    +0.029 C 
BRANCH  25  26
ATOM     26  C   UNL     1       0.045  -3.377  -0.018  0.00  0.00    +0.002 C 
ATOM     27  C   UNL     1       0.292  -3.287   1.489  0.00  0.00    +0.000 C 
ATOM     28  C   UNL     1       0.538  -4.729  -0.540  0.00  0.00    +0.000 C 
ENDBRANCH  25  26
ENDBRANCH   1  25
TORSDOF 6
