127857
  -OEChem-03292013323D

 22 22  0     1  0  0  0  0  0999 V2000
    2.3513   -0.5335    0.4249 S   0  0  0  0  0  0  0  0  0  0  0  0
   -2.1737    0.0150   -0.6604 O   0  0  0  0  0  0  0  0  0  0  0  0
    3.6942    0.3928    0.4395 O   0  0  0  0  0  0  0  0  0  0  0  0
    0.0969   -1.3838   -1.6713 O   0  0  0  0  0  0  0  0  0  0  0  0
    2.6777   -1.8179   -0.1690 O   0  0  0  0  0  0  0  0  0  0  0  0
    1.7085   -0.4411    1.7238 O   0  0  0  0  0  0  0  0  0  0  0  0
   -1.2701    2.5231    0.3578 O   0  0  0  0  0  0  0  0  0  0  0  0
   -1.7888   -0.9195    1.4208 O   0  0  0  0  0  0  0  0  0  0  0  0
   -0.8635    0.4508   -0.6154 N   0  0  0  0  0  0  0  0  0  0  0  0
    1.4271    0.4175   -0.7372 C   0  0  2  0  0  0  0  0  0  0  0  0
    0.9695    1.7587   -0.1554 C   0  0  0  0  0  0  0  0  0  0  0  0
    0.1568   -0.3071   -1.0977 C   0  0  0  0  0  0  0  0  0  0  0  0
   -0.5318    1.6577   -0.0868 C   0  0  0  0  0  0  0  0  0  0  0  0
   -2.5135   -0.6822    0.4634 C   0  0  0  0  0  0  0  0  0  0  0  0
   -3.9406   -1.1305    0.3631 C   0  0  0  0  0  0  0  0  0  0  0  0
    2.0361    0.5513   -1.6366 H   0  0  0  0  0  0  0  0  0  0  0  0
    1.2226    2.5752   -0.8404 H   0  0  0  0  0  0  0  0  0  0  0  0
    1.3767    1.9883    0.8327 H   0  0  0  0  0  0  0  0  0  0  0  0
    4.2427    0.3578   -0.3792 H   0  0  0  0  0  0  0  0  0  0  0  0
   -4.0637   -1.7838   -0.5044 H   0  0  0  0  0  0  0  0  0  0  0  0
   -4.2084   -1.6921    1.2627 H   0  0  0  0  0  0  0  0  0  0  0  0
   -4.5977   -0.2606    0.2870 H   0  0  0  0  0  0  0  0  0  0  0  0
  1  3  1  0  0  0  0
  1  5  2  0  0  0  0
  1  6  2  0  0  0  0
  1 10  1  0  0  0  0
  2  9  1  0  0  0  0
  2 14  1  0  0  0  0
  3 19  1  0  0  0  0
  4 12  2  0  0  0  0
  7 13  2  0  0  0  0
  8 14  2  0  0  0  0
  9 12  1  0  0  0  0
  9 13  1  0  0  0  0
 10 11  1  0  0  0  0
 10 12  1  0  0  0  0
 10 16  1  0  0  0  0
 11 13  1  0  0  0  0
 11 17  1  0  0  0  0
 11 18  1  0  0  0  0
 14 15  1  0  0  0  0
 15 20  1  0  0  0  0
 15 21  1  0  0  0  0
 15 22  1  0  0  0  0
M  END
> <PUBCHEM_COMPOUND_CID>
127857

> <PUBCHEM_CONFORMER_RMSD>
0.6

> <PUBCHEM_CONFORMER_DIVERSEORDER>
1
13
8
3
9
17
15
11
16
4
14
2
5
10
6
12
7

> <PUBCHEM_MMFF94_PARTIAL_CHARGES>
16
1 1.38
10 0.17
11 0.06
12 0.57
13 0.57
14 0.66
15 0.06
19 0.5
2 -0.19
3 -0.68
4 -0.57
5 -0.65
6 -0.65
7 -0.57
8 -0.57
9 -0.08

> <PUBCHEM_EFFECTIVE_ROTOR_COUNT>
3.6

> <PUBCHEM_PHARMACOPHORE_FEATURES>
8
1 3 acceptor
1 4 acceptor
1 5 acceptor
1 6 acceptor
1 7 acceptor
1 8 acceptor
4 1 3 5 6 anion
5 9 10 11 12 13 rings

> <PUBCHEM_HEAVY_ATOM_COUNT>
15

> <PUBCHEM_ATOM_DEF_STEREO_COUNT>
0

> <PUBCHEM_ATOM_UDEF_STEREO_COUNT>
1

> <PUBCHEM_BOND_DEF_STEREO_COUNT>
0

> <PUBCHEM_BOND_UDEF_STEREO_COUNT>
0

> <PUBCHEM_ISOTOPIC_ATOM_COUNT>
0

> <PUBCHEM_COMPONENT_COUNT>
1

> <PUBCHEM_CACTVS_TAUTO_COUNT>
4

> <PUBCHEM_CONFORMER_ID>
0001F37100000001

> <PUBCHEM_MMFF94_ENERGY>
22.8122

> <PUBCHEM_FEATURE_SELFOVERLAP>
40.654

> <PUBCHEM_SHAPE_FINGERPRINT>
10219947 1 18201722881264030991
11086676 242 18341062881666235561
11471102 22 18341618147812192970
12251169 10 18200879581678711903
12808571 1 14620505774711721168
14252887 29 18410302435881409907
14787075 74 17898852611120891464
15076042 46 18339353046685213032
15309172 13 17989202659587326470
15775835 57 17418372510492933066
16945 1 18337402637627589836
20201158 50 17967531306715304163
20645477 70 18116150155186570663
20653085 51 11959439150203166930
20671657 53 17022618688858387638
20871998 184 18272366421538655612
20871998 22 18411145718328960118
21028194 46 11167942488996548999
21524375 3 11167949056233737605
23380061 451 18114752641183438439
2748010 2 18057599867947822116
3250762 1 17697330520419678191
5084963 1 17059756871903823492
528862 383 18119525689562911124
81228 2 18122085134106142553

> <PUBCHEM_SHAPE_MULTIPOLES>
266.48
4.9
1.92
1.24
1.52
0.94
-0.01
-2.24
-1.31
0.05
-0.07
-0.13
-0.4
0.11

> <PUBCHEM_SHAPE_SELFOVERLAP>
540.333

> <PUBCHEM_SHAPE_VOLUME>
155.7

> <PUBCHEM_COORDINATE_TYPE>
2
5
10

$$$$
