REMARK  Name = 127803
REMARK  4 active torsions:
REMARK  status: ('A' for Active; 'I' for Inactive)
REMARK    1  A    between atoms: C_17  and  S_20
REMARK    2  A    between atoms: S_20  and  C_22
REMARK    3  A    between atoms: C_22  and  C_24
REMARK    4  A    between atoms: C_26  and  O_30
REMARK                            x       y       z     vdW  Elec       q    Type
REMARK                         _______ _______ _______ _____ _____    ______ ____
ROOT
ATOM      1  O   UNL     1      -7.189   0.906   0.377  0.00  0.00    -0.295 OA
ATOM      2  N   UNL     1      -0.541  -1.794  -0.687  0.00  0.00    -0.307 N 
ATOM      3  N   UNL     1       0.042   0.292  -0.195  0.00  0.00    -0.307 N 
ATOM      4  C   UNL     1      -5.504  -0.788  -0.147  0.00  0.00    +0.070 C 
ATOM      5  C   UNL     1      -4.846   1.603   0.418  0.00  0.00    +0.070 C 
ATOM      6  C   UNL     1      -4.004  -0.588  -0.183  0.00  0.00    -0.018 C 
ATOM      7  C   UNL     1      -3.641   0.735   0.129  0.00  0.00    -0.018 C 
ATOM      8  C   UNL     1      -6.007   0.614   0.235  0.00  0.00    +0.156 C 
ATOM      9  C   UNL     1      -6.058  -1.171  -1.519  0.00  0.00    +0.012 C 
ATOM     10  C   UNL     1      -5.917  -1.788   0.932  0.00  0.00    +0.012 C 
ATOM     11  C   UNL     1      -4.982   2.741  -0.594  0.00  0.00    +0.012 C 
ATOM     12  C   UNL     1      -4.840   2.123   1.855  0.00  0.00    +0.012 C 
ATOM     13  C   UNL     1      -3.050  -1.560  -0.483  0.00  0.00    +0.011 C 
ATOM     14  C   UNL     1      -2.304   1.139   0.153  0.00  0.00    +0.011 C 
ATOM     15  C   UNL     1      -1.720  -1.133  -0.452  0.00  0.00    +0.059 C 
ATOM     16  C   UNL     1      -1.329   0.170  -0.147  0.00  0.00    +0.059 C 
ATOM     17  C   UNL     1       0.481  -0.902  -0.521  0.00  0.00    +0.226 C 
ATOM     18  H   UNL     1      -0.447  -2.744  -0.931  0.00  0.00    +0.149 HD
ATOM     19  H   UNL     1       0.577   1.100  -0.022  0.00  0.00    +0.149 HD
ENDROOT
BRANCH  17  20
ATOM     20  S   UNL     1       2.211  -1.308  -0.722  0.00  0.00    +0.085 S 
ATOM     21  O   UNL     1       2.410  -2.677  -0.130  0.00  0.00    -0.252 OA
BRANCH  20  22
ATOM     22  C   UNL     1       2.880  -0.115   0.468  0.00  0.00    +0.140 C 
BRANCH  22  24
ATOM     23  N   UNL     1       4.861  -1.055   1.467  0.00  0.00    -0.247 NA
ATOM     24  C   UNL     1       4.377  -0.193   0.550  0.00  0.00    +0.072 C 
ATOM     25  C   UNL     1       5.157   0.587  -0.282  0.00  0.00    +0.027 C 
ATOM     26  C   UNL     1       6.538   0.475  -0.164  0.00  0.00    +0.137 C 
ATOM     27  C   UNL     1       4.551   1.520  -1.276  0.00  0.00    +0.035 C 
ATOM     28  C   UNL     1       7.081  -0.401   0.769  0.00  0.00    +0.057 C 
ATOM     29  C   UNL     1       6.208  -1.137   1.553  0.00  0.00    +0.102 C 
BRANCH  26  30
ATOM     30  O   UNL     1       7.370   1.213  -0.950  0.00  0.00    -0.472 OA
ATOM     31  C   UNL     1       7.767   2.490  -0.455  0.00  0.00    +0.252 C 
ENDBRANCH  26  30
ENDBRANCH  22  24
ENDBRANCH  20  22
ENDBRANCH  17  20
TORSDOF 4
