REMARK  Name = 127835
REMARK  7 active torsions:
REMARK  status: ('A' for Active; 'I' for Inactive)
REMARK    1  A    between atoms: C_2  and  O_18
REMARK    2  A    between atoms: C_3  and  O_22
REMARK    3  A    between atoms: C_4  and  N_6
REMARK    4  A    between atoms: C_5  and  C_26
REMARK    5  A    between atoms: O_18  and  C_20
REMARK    6  A    between atoms: O_22  and  C_24
REMARK    7  A    between atoms: C_26  and  O_27
REMARK                            x       y       z     vdW  Elec       q    Type
REMARK                         _______ _______ _______ _____ _____    ______ ____
ROOT
ATOM      1  O   UNL     1       0.652   1.280  -0.656  0.00  0.00    -0.331 OA
ATOM      2  C   UNL     1       1.104  -0.377   0.988  0.00  0.00    +0.257 C 
ATOM      3  C   UNL     1       2.359  -0.181   0.162  0.00  0.00    +0.242 C 
ATOM      4  C   UNL     1       0.346   0.915   0.701  0.00  0.00    +0.240 C 
ATOM      5  C   UNL     1       1.874   0.621  -1.047  0.00  0.00    +0.190 C 
ENDROOT
BRANCH   4   6
ATOM      6  N   UNL     1      -1.097   0.859   0.903  0.00  0.00    -0.246 N 
ATOM      7  N   UNL     1      -3.073   1.043   1.932  0.00  0.00    -0.242 NA
ATOM      8  N   UNL     1      -1.839   0.043  -1.263  0.00  0.00    -0.228 NA
ATOM      9  N   UNL     1      -4.267  -0.196  -1.342  0.00  0.00    -0.229 NA
ATOM     10  C   UNL     1      -2.043   0.462  -0.005  0.00  0.00    +0.152 C 
ATOM     11  C   UNL     1      -1.771   1.197   2.051  0.00  0.00    +0.223 C 
ATOM     12  C   UNL     1      -3.257   0.584   0.652  0.00  0.00    +0.140 C 
ATOM     13  C   UNL     1      -4.398   0.236  -0.065  0.00  0.00    +0.143 C 
ATOM     14  C   UNL     1      -3.014  -0.264  -1.854  0.00  0.00    +0.253 C 
ATOM     15  N   UNL     1      -5.671   0.330   0.523  0.00  0.00    -0.342 N 
ATOM     16  H   UNL     1      -6.471   0.082   0.006  0.00  0.00    +0.144 HD
ATOM     17  H   UNL     1      -5.763   0.645   1.451  0.00  0.00    +0.144 HD
ENDBRANCH   4   6
BRANCH   2  18
ATOM     18  O   UNL     1       0.392  -1.509   0.503  0.00  0.00    -0.444 OA
BRANCH  18  20
ATOM     19  O   UNL     1       2.125  -2.895   1.146  0.00  0.00    -0.250 OA
ATOM     20  C   UNL     1       1.023  -2.714   0.646  0.00  0.00    +0.318 C 
ATOM     21  C   UNL     1       0.160  -3.808   0.095  0.00  0.00    +0.121 C 
ENDBRANCH  18  20
ENDBRANCH   2  18
BRANCH   3  22
ATOM     22  O   UNL     1       3.271   0.613   0.918  0.00  0.00    -0.446 OA
BRANCH  22  24
ATOM     23  O   UNL     1       4.733   0.661  -0.871  0.00  0.00    -0.250 OA
ATOM     24  C   UNL     1       4.423   0.963   0.274  0.00  0.00    +0.318 C 
ATOM     25  C   UNL     1       5.280   1.791   1.183  0.00  0.00    +0.121 C 
ENDBRANCH  22  24
ENDBRANCH   3  22
BRANCH   5  26
ATOM     26  C   UNL     1       1.569  -0.245  -2.261  0.00  0.00    +0.171 C 
BRANCH  26  27
ATOM     27  O   UNL     1       1.120   0.591  -3.314  0.00  0.00    -0.379 OA
ATOM     28  H   UNL     1       0.923   0.050  -4.094  0.00  0.00    +0.211 HD
ENDBRANCH  26  27
ENDBRANCH   5  26
TORSDOF 7
