127852
  -OEChem-03292013323D

 33 32  0     1  0  0  0  0  0999 V2000
   -0.1817    0.6823    1.8390 O   0  0  0  0  0  0  0  0  0  0  0  0
    3.2015   -1.5425   -1.4018 O   0  0  0  0  0  0  0  0  0  0  0  0
    1.4543    2.2878   -1.4315 O   0  0  0  0  0  0  0  0  0  0  0  0
   -2.9544    0.5602    1.4413 O   0  0  0  0  0  0  0  0  0  0  0  0
    2.0833    0.8308    0.2724 N   0  0  0  0  0  0  0  0  0  0  0  0
   -1.2952   -0.2168   -0.0018 N   0  0  0  0  0  0  0  0  0  0  0  0
   -4.9570   -0.1891   -0.2270 N   0  0  0  0  0  0  0  0  0  0  0  0
    3.8108   -2.6729    0.5090 N   0  0  0  0  0  0  0  0  0  0  0  0
    1.1262   -0.2130    0.0058 C   0  0  1  0  0  0  0  0  0  0  0  0
    1.6544   -1.5790    0.4419 C   0  0  0  0  0  0  0  0  0  0  0  0
   -0.1640    0.1274    0.7426 C   0  0  0  0  0  0  0  0  0  0  0  0
    2.9522   -1.9203   -0.2598 C   0  0  0  0  0  0  0  0  0  0  0  0
    2.1651    1.9970   -0.4730 C   0  0  0  0  0  0  0  0  0  0  0  0
   -2.6150    0.0199    0.3919 C   0  0  0  0  0  0  0  0  0  0  0  0
   -3.5941   -0.4642   -0.6588 C   0  0  0  0  0  0  0  0  0  0  0  0
    3.2339    2.9277    0.0342 C   0  0  0  0  0  0  0  0  0  0  0  0
   -5.9205   -0.6353   -1.2244 C   0  0  0  0  0  0  0  0  0  0  0  0
    0.9349   -0.2157   -1.0747 H   0  0  0  0  0  0  0  0  0  0  0  0
    1.8068   -1.5938    1.5285 H   0  0  0  0  0  0  0  0  0  0  0  0
    0.9272   -2.3652    0.2075 H   0  0  0  0  0  0  0  0  0  0  0  0
    2.6743    0.7356    1.0937 H   0  0  0  0  0  0  0  0  0  0  0  0
   -1.1510   -0.6768   -0.8974 H   0  0  0  0  0  0  0  0  0  0  0  0
   -3.3737    0.0599   -1.5961 H   0  0  0  0  0  0  0  0  0  0  0  0
   -3.4397   -1.5396   -0.8060 H   0  0  0  0  0  0  0  0  0  0  0  0
    3.4465    3.6896   -0.7209 H   0  0  0  0  0  0  0  0  0  0  0  0
    2.8873    3.4134    0.9503 H   0  0  0  0  0  0  0  0  0  0  0  0
    4.1550    2.3750    0.2407 H   0  0  0  0  0  0  0  0  0  0  0  0
   -5.1399   -0.6744    0.6512 H   0  0  0  0  0  0  0  0  0  0  0  0
    3.5785   -2.9755    1.4495 H   0  0  0  0  0  0  0  0  0  0  0  0
    4.7151   -2.9605    0.1497 H   0  0  0  0  0  0  0  0  0  0  0  0
   -5.7757   -0.1137   -2.1761 H   0  0  0  0  0  0  0  0  0  0  0  0
   -6.9340   -0.4116   -0.8775 H   0  0  0  0  0  0  0  0  0  0  0  0
   -5.8529   -1.7150   -1.3933 H   0  0  0  0  0  0  0  0  0  0  0  0
  1 11  2  0  0  0  0
  2 12  2  0  0  0  0
  3 13  2  0  0  0  0
  4 14  2  0  0  0  0
  5  9  1  0  0  0  0
  5 13  1  0  0  0  0
  5 21  1  0  0  0  0
  6 11  1  0  0  0  0
  6 14  1  0  0  0  0
  6 22  1  0  0  0  0
  7 15  1  0  0  0  0
  7 17  1  0  0  0  0
  7 28  1  0  0  0  0
  8 12  1  0  0  0  0
  8 29  1  0  0  0  0
  8 30  1  0  0  0  0
  9 10  1  0  0  0  0
  9 11  1  0  0  0  0
  9 18  1  0  0  0  0
 10 12  1  0  0  0  0
 10 19  1  0  0  0  0
 10 20  1  0  0  0  0
 13 16  1  0  0  0  0
 14 15  1  0  0  0  0
 15 23  1  0  0  0  0
 15 24  1  0  0  0  0
 16 25  1  0  0  0  0
 16 26  1  0  0  0  0
 16 27  1  0  0  0  0
 17 31  1  0  0  0  0
 17 32  1  0  0  0  0
 17 33  1  0  0  0  0
M  END
> <PUBCHEM_COMPOUND_CID>
127852

> <PUBCHEM_CONFORMER_RMSD>
0.8

> <PUBCHEM_CONFORMER_DIVERSEORDER>
1
56
190
166
128
125
78
189
118
186
142
157
147
151
178
81
5
167
79
126
103
182
158
48
106
188
191
45
73
80
40
160
145
96
155
127
108
195
50
153
187
138
12
180
69
136
116
121
184
75
93
90
112
172
23
64
131
26
115
154
65
14
173
132
59
181
113
107
185
63
170
114
143
10
60
135
176
109
47
41
168
152
91
174
193
86
28
101
71
21
84
159
8
148
171
44
32
95
162
120
161
149
37
129
169
43
150
13
29
122
194
196
130
72
83
94
102
87
183
124
163
164
7
92
20
33
177
24
146
9
139
192
61
110
82
105
38
134
15
144
140
51
19
16
66
22
117
179
35
17
104
98
42
6
88
68
62
175
123
74
30
165
25
53
54
156
46
52
77
119
11
100
141
39
85
89
2
4
70
57
111
58
133
137
36
97
76
3
67
34
55
99
49
18
27
31

> <PUBCHEM_MMFF94_PARTIAL_CHARGES>
22
1 -0.57
10 0.06
11 0.57
12 0.57
13 0.57
14 0.57
15 0.33
16 0.06
17 0.27
2 -0.57
21 0.37
22 0.37
28 0.36
29 0.37
3 -0.57
30 0.37
4 -0.57
5 -0.73
6 -0.49
7 -0.9
8 -0.8
9 0.36

> <PUBCHEM_EFFECTIVE_ROTOR_COUNT>
9

> <PUBCHEM_PHARMACOPHORE_FEATURES>
9
1 1 acceptor
1 2 acceptor
1 3 acceptor
1 4 acceptor
1 5 donor
1 6 donor
1 7 cation
1 7 donor
1 8 donor

> <PUBCHEM_HEAVY_ATOM_COUNT>
17

> <PUBCHEM_ATOM_DEF_STEREO_COUNT>
1

> <PUBCHEM_ATOM_UDEF_STEREO_COUNT>
0

> <PUBCHEM_BOND_DEF_STEREO_COUNT>
0

> <PUBCHEM_BOND_UDEF_STEREO_COUNT>
0

> <PUBCHEM_ISOTOPIC_ATOM_COUNT>
0

> <PUBCHEM_COMPONENT_COUNT>
1

> <PUBCHEM_CACTVS_TAUTO_COUNT>
12

> <PUBCHEM_CONFORMER_ID>
0001F36C00000001

> <PUBCHEM_MMFF94_ENERGY>
32.4462

> <PUBCHEM_FEATURE_SELFOVERLAP>
45.677

> <PUBCHEM_SHAPE_FINGERPRINT>
12616999 72 18270955868822167827
13955234 65 18338796818239559491
14178000 15 18412260606151016112
14178000 29 18128826244164618158
14181834 199 18412553106545691292
14863182 85 16917071040254351038
15477762 27 18411699850999599550
15502722 9 18337397152790705418
15842332 3 17916606270676731593
1813 80 18199192784976599590
18186145 218 17748832908238797793
18222031 100 18269838619106664078
20369508 70 18114172000075596130
20388580 30 18271525308038975030
20645477 70 18411698798880344215
20671657 53 18337110042817103846
21618674 54 18265328602734687471
2255824 54 18411422804107875266
23419403 2 15505981985364020082
23532345 12 18059017172689976121
23559900 14 18408318904162535419
23598291 2 18200327523693788041
3004659 81 18131631171351938231
3060560 45 18187077351822284834
312423 11 18201733842373907481
42630746 31 18412539946723646172
5281201 14 18334007281681623781
6025842 7 18340201985594539311
6049 1 17604165778073556569
633830 44 18260536819829234455
7364860 26 18412830204950876584
7615 1 18059868229086861505
81228 2 17469906389217651136
81539 233 18189619513326991828

> <PUBCHEM_SHAPE_MULTIPOLES>
306.45
9.44
2.68
1.25
15.52
0.5
-0.11
-2.26
3.16
-5.57
0.44
0.36
0.18
-0.6

> <PUBCHEM_SHAPE_SELFOVERLAP>
594.484

> <PUBCHEM_SHAPE_VOLUME>
183.8

> <PUBCHEM_COORDINATE_TYPE>
2
5
10

$$$$
