127884
  -OEChem-03292013323D

 30 31  0     1  0  0  0  0  0999 V2000
    0.6160   -2.3166    0.5455 O   0  0  0  0  0  0  0  0  0  0  0  0
   -2.6423   -1.9076   -0.5967 O   0  0  0  0  0  0  0  0  0  0  0  0
   -2.4197    0.5686    1.7290 O   0  0  0  0  0  0  0  0  0  0  0  0
   -3.9671    1.2135    0.2003 O   0  0  0  0  0  0  0  0  0  0  0  0
   -0.7008   -2.7826    0.3534 N   0  0  0  0  0  0  0  0  0  0  0  0
   -2.0624    2.7797   -1.0099 N   0  0  0  0  0  0  0  0  0  0  0  0
   -1.0656    0.5456   -1.2240 C   0  0  0  0  0  0  0  0  0  0  0  0
   -0.6019   -0.6683   -0.5155 C   0  0  0  0  0  0  0  0  0  0  0  0
   -1.6042    1.6109   -0.2606 C   0  0  2  0  0  0  0  0  0  0  0  0
    0.5739   -1.0402   -0.0016 C   0  0  0  0  0  0  0  0  0  0  0  0
   -1.4675   -1.8337   -0.2774 C   0  0  0  0  0  0  0  0  0  0  0  0
    1.8251   -0.2788    0.0425 C   0  0  0  0  0  0  0  0  0  0  0  0
   -2.7967    1.1273    0.5479 C   0  0  0  0  0  0  0  0  0  0  0  0
    2.1088    0.5530    1.1323 C   0  0  0  0  0  0  0  0  0  0  0  0
    2.7494   -0.3752   -1.0044 C   0  0  0  0  0  0  0  0  0  0  0  0
    3.2996    1.2780    1.1743 C   0  0  0  0  0  0  0  0  0  0  0  0
    3.9402    0.3499   -0.9622 C   0  0  0  0  0  0  0  0  0  0  0  0
    4.2152    1.1766    0.1272 C   0  0  0  0  0  0  0  0  0  0  0  0
   -0.2352    0.9659   -1.8062 H   0  0  0  0  0  0  0  0  0  0  0  0
   -1.8348    0.2684   -1.9569 H   0  0  0  0  0  0  0  0  0  0  0  0
   -0.8209    1.9401    0.4326 H   0  0  0  0  0  0  0  0  0  0  0  0
   -0.9535   -3.7093    0.6715 H   0  0  0  0  0  0  0  0  0  0  0  0
   -1.2949    3.1497   -1.5698 H   0  0  0  0  0  0  0  0  0  0  0  0
   -2.3230    3.5225   -0.3620 H   0  0  0  0  0  0  0  0  0  0  0  0
    1.4051    0.6438    1.9567 H   0  0  0  0  0  0  0  0  0  0  0  0
    2.5502   -1.0150   -1.8611 H   0  0  0  0  0  0  0  0  0  0  0  0
    3.5138    1.9220    2.0223 H   0  0  0  0  0  0  0  0  0  0  0  0
    4.6534    0.2711   -1.7776 H   0  0  0  0  0  0  0  0  0  0  0  0
    5.1424    1.7413    0.1599 H   0  0  0  0  0  0  0  0  0  0  0  0
   -3.1911    0.2534    2.2464 H   0  0  0  0  0  0  0  0  0  0  0  0
  1  5  1  0  0  0  0
  1 10  1  0  0  0  0
  2 11  2  0  0  0  0
  3 13  1  0  0  0  0
  3 30  1  0  0  0  0
  4 13  2  0  0  0  0
  5 11  1  0  0  0  0
  5 22  1  0  0  0  0
  6  9  1  0  0  0  0
  6 23  1  0  0  0  0
  6 24  1  0  0  0  0
  7  8  1  0  0  0  0
  7  9  1  0  0  0  0
  7 19  1  0  0  0  0
  7 20  1  0  0  0  0
  8 10  2  0  0  0  0
  8 11  1  0  0  0  0
  9 13  1  0  0  0  0
  9 21  1  0  0  0  0
 10 12  1  0  0  0  0
 12 14  2  0  0  0  0
 12 15  1  0  0  0  0
 14 16  1  0  0  0  0
 14 25  1  0  0  0  0
 15 17  2  0  0  0  0
 15 26  1  0  0  0  0
 16 18  2  0  0  0  0
 16 27  1  0  0  0  0
 17 18  1  0  0  0  0
 17 28  1  0  0  0  0
 18 29  1  0  0  0  0
M  END
> <PUBCHEM_COMPOUND_CID>
127884

> <PUBCHEM_CONFORMER_RMSD>
0.6

> <PUBCHEM_CONFORMER_DIVERSEORDER>
1
9
24
35
20
2
33
27
11
10
8
34
30
6
17
31
15
22
13
23
19
26
32
14
28
29
18
16
12
25
5
4
7
3
21

> <PUBCHEM_MMFF94_PARTIAL_CHARGES>
27
1 -0.11
10 0.05
11 0.62
12 0.03
13 0.66
14 -0.15
15 -0.15
16 -0.15
17 -0.15
18 -0.15
2 -0.57
22 0.37
23 0.36
24 0.36
25 0.15
26 0.15
27 0.15
28 0.15
29 0.15
3 -0.65
30 0.5
4 -0.57
5 -0.39
6 -0.99
7 0.14
8 -0.12
9 0.33

> <PUBCHEM_EFFECTIVE_ROTOR_COUNT>
4

> <PUBCHEM_PHARMACOPHORE_FEATURES>
9
1 2 acceptor
1 3 acceptor
1 4 acceptor
1 5 donor
1 6 cation
1 6 donor
3 3 4 13 anion
5 1 5 8 10 11 rings
6 12 14 15 16 17 18 rings

> <PUBCHEM_HEAVY_ATOM_COUNT>
18

> <PUBCHEM_ATOM_DEF_STEREO_COUNT>
1

> <PUBCHEM_ATOM_UDEF_STEREO_COUNT>
0

> <PUBCHEM_BOND_DEF_STEREO_COUNT>
0

> <PUBCHEM_BOND_UDEF_STEREO_COUNT>
0

> <PUBCHEM_ISOTOPIC_ATOM_COUNT>
0

> <PUBCHEM_COMPONENT_COUNT>
1

> <PUBCHEM_CACTVS_TAUTO_COUNT>
2

> <PUBCHEM_CONFORMER_ID>
0001F38C00000001

> <PUBCHEM_MMFF94_ENERGY>
35.4949

> <PUBCHEM_FEATURE_SELFOVERLAP>
45.729

> <PUBCHEM_SHAPE_FINGERPRINT>
10165383 225 18267039279302296956
10498660 4 18408595972402541109
10608611 8 18129659832955273176
11132069 177 18412266163738197421
12173636 292 18410570673768778076
13380535 21 18341054038444708454
13693222 15 12901551247556668652
13764800 53 18410014350960326800
14386348 128 18340772550540839344
14614273 12 18189034503983753647
14787075 74 18131063892298205809
15309172 13 18335425633979358729
15490181 7 18265612083060062351
15775835 57 18411702054032674064
16945 1 18263643038218410782
17357779 13 17913472804318989207
18186145 218 18201442441701486212
18219364 16 18341330015641987696
18981168 100 18339346475348300910
19049666 15 18272371997070921726
20510252 161 18267861864233778730
20600515 1 17321795979180970118
20645477 56 18410578401074423620
20671657 1 18196933271116761746
21501502 16 18412257329280951238
21524375 3 18341331080788374798
22802520 49 17989492922383583588
23402539 116 18125424561083056206
23419403 2 12888394491503097651
23557571 272 18056198209576114374
23559900 14 18202005396683188886
238 59 17907838631654792453
25 1 18059017181427681524
2748010 2 17972599875057247877
350125 39 18263640671559607366
458136 41 18196107546621715267
495365 180 17831840370921554701
6442390 28 18411992368268831987
7808743 9 18335424603694168772
81228 2 18193837269568767122

> <PUBCHEM_SHAPE_MULTIPOLES>
336.99
6.55
2.55
1.21
3.38
0.72
-0.13
-3.34
-0.18
-2.01
0.05
0.15
-0.33
0.34

> <PUBCHEM_SHAPE_SELFOVERLAP>
720.8

> <PUBCHEM_SHAPE_VOLUME>
186.5

> <PUBCHEM_COORDINATE_TYPE>
2
5
10

$$$$
