REMARK  Name = 127868
REMARK  7 active torsions:
REMARK  status: ('A' for Active; 'I' for Inactive)
REMARK    1  A    between atoms: C_2  and  C_3
REMARK    2  A    between atoms: C_2  and  C_12
REMARK    3  A    between atoms: C_6  and  N_11
REMARK    4  A    between atoms: C_12  and  CA_13
REMARK    5  A    between atoms: CA_13  and  N_14
REMARK    6  A    between atoms: CA_13  and  C_19
REMARK    7  A    between atoms: C_19  and  O_20
REMARK                            x       y       z     vdW  Elec       q    Type
REMARK                         _______ _______ _______ _____ _____    ______ ____
ROOT
ATOM      1  O   UNL     1      -1.129  -0.573  -1.627  0.00  0.00    -0.291 OA
ATOM      2  C   UNL     1      -0.950   0.334  -0.814  0.00  0.00    +0.172 C 
ENDROOT
BRANCH   2   3
ATOM      3  C   UNL     1       0.437   0.660  -0.371  0.00  0.00    +0.036 C 
ATOM      4  C   UNL     1       1.375  -0.346  -0.346  0.00  0.00    +0.027 C 
ATOM      5  C   UNL     1       0.723   1.955  -0.003  0.00  0.00    +0.003 C 
ATOM      6  C   UNL     1       2.672  -0.041   0.070  0.00  0.00    +0.143 C 
ATOM      7  C   UNL     1       2.019   2.260   0.412  0.00  0.00    +0.002 C 
ATOM      8  C   UNL     1       2.994   1.263   0.448  0.00  0.00    +0.024 C 
BRANCH   6  11
ATOM      9  O   UNL     1       4.822  -0.753   0.481  0.00  0.00    -0.126 OA
ATOM     10  O   UNL     1       3.350  -2.219  -0.240  0.00  0.00    -0.126 OA
ATOM     11  N   UNL     1       3.665  -1.055   0.105  0.00  0.00    +0.058 N 
ENDBRANCH   6  11
ENDBRANCH   2   3
BRANCH   2  12
ATOM     12  C   UNL     1      -2.133   1.110  -0.260  0.00  0.00    +0.058 C 
BRANCH  12  13
ATOM     13  CA  UNL     1      -3.424   0.291  -0.303  0.00  0.00    +0.043 C 
BRANCH  13  14
ATOM     14  N   UNL     1      -4.523   1.097   0.235  0.00  0.00    +0.389 N 
ATOM     15  H1  UNL     1      -4.634   1.940  -0.328  0.00  0.00    -0.088 HD
ATOM     16  H2  UNL     1      -4.313   1.357   1.199  0.00  0.00    -0.088 HD
ATOM     17  H3  UNL     1      -5.387   0.555   0.209  0.00  0.00    -0.088 HD
ENDBRANCH  13  14
BRANCH  13  19
ATOM     18  OXT UNL     1      -3.010  -0.951   1.759  0.00  0.00    -0.253 OA
ATOM     19  C   UNL     1      -3.304  -0.948   0.570  0.00  0.00    +0.293 C 
BRANCH  19  20
ATOM     20  O   UNL     1      -3.583  -2.085  -0.118  0.00  0.00    -0.482 OA
ATOM     21  H   UNL     1      -3.804  -2.040  -1.028  0.00  0.00    +0.295 HD
ENDBRANCH  19  20
ENDBRANCH  13  19
ENDBRANCH  12  13
ENDBRANCH   2  12
TORSDOF 7
