REMARK  Name = 127875
REMARK  6 active torsions:
REMARK  status: ('A' for Active; 'I' for Inactive)
REMARK    1  A    between atoms: C_2  and  O_17
REMARK    2  A    between atoms: C_3  and  O_19
REMARK    3  A    between atoms: C_4  and  C_22
REMARK    4  A    between atoms: C_5  and  N_10
REMARK    5  A    between atoms: C_11  and  C_16
REMARK    6  A    between atoms: C_22  and  O_23
REMARK                            x       y       z     vdW  Elec       q    Type
REMARK                         _______ _______ _______ _____ _____    ______ ____
ROOT
ATOM      1  N   UNL     1       0.562   1.582  -0.069  0.00  0.00    +0.398 N 
ATOM      2  C   UNL     1       2.021  -0.942   0.319  0.00  0.00    +0.145 C 
ATOM      3  C   UNL     1       0.514  -0.819   0.589  0.00  0.00    +0.136 C 
ATOM      4  C   UNL     1       2.686   0.429   0.477  0.00  0.00    +0.107 C 
ATOM      5  C   UNL     1      -0.127   0.302  -0.248  0.00  0.00    +0.043 C 
ATOM      6  C   UNL     1       1.990   1.490  -0.381  0.00  0.00    -0.065 C 
ATOM      7  H   UNL     1       0.457   1.879   0.901  0.00  0.00    -0.082 HD
ATOM      8  H   UNL     1       0.144   2.255  -0.711  0.00  0.00    -0.082 HD
ENDROOT
BRANCH   5  10
ATOM      9  O   UNL     1      -2.485  -1.046  -1.282  0.00  0.00    -0.266 OA
ATOM     10  N   UNL     1      -1.500   0.514   0.139  0.00  0.00    -0.316 N 
ATOM     11  C   UNL     1      -2.563  -0.181  -0.413  0.00  0.00    +0.316 C 
ATOM     12  H   UNL     1      -1.692   1.187   0.832  0.00  0.00    +0.147 HD
BRANCH  11  16
ATOM     13  F   UNL     1      -3.727   1.212   1.109  0.00  0.00    -0.162 F 
ATOM     14  F   UNL     1      -4.526  -0.789   0.770  0.00  0.00    -0.162 F 
ATOM     15  F   UNL     1      -4.719   0.738  -0.773  0.00  0.00    -0.162 F 
ATOM     16  C   UNL     1      -3.878   0.243   0.171  0.00  0.00    +0.469 C 
ENDBRANCH  11  16
ENDBRANCH   5  10
BRANCH   2  17
ATOM     17  O   UNL     1       2.242  -1.461  -0.996  0.00  0.00    -0.382 OA
ATOM     18  H   UNL     1       1.815  -2.328  -1.077  0.00  0.00    +0.210 HD
ENDBRANCH   2  17
BRANCH   3  19
ATOM     19  O   UNL     1      -0.095  -2.073   0.293  0.00  0.00    -0.382 OA
ATOM     20  H   UNL     1       0.319  -2.768   0.828  0.00  0.00    +0.210 HD
ENDBRANCH   3  19
BRANCH   4  22
ATOM     21  O   UNL     1       4.691   1.010  -0.742  0.00  0.00    -0.250 OA
ATOM     22  C   UNL     1       4.141   0.350   0.128  0.00  0.00    +0.314 C 
BRANCH  22  23
ATOM     23  O   UNL     1       4.773  -0.560   0.909  0.00  0.00    -0.480 OA
ATOM     24  H   UNL     1       4.292  -1.033   1.559  0.00  0.00    +0.295 HD
ENDBRANCH  22  23
ENDBRANCH   4  22
TORSDOF 6
