127867
  -OEChem-03292013323D

 31 33  0     0  0  0  0  0  0999 V2000
   -3.2527    1.6088    0.8190 N   0  0  0  0  0  0  0  0  0  0  0  0
    2.2366   -1.5306    0.9587 N   0  0  0  0  0  0  0  0  0  0  0  0
    3.4477   -2.1084    0.8848 N   0  0  0  0  0  0  0  0  0  0  0  0
    5.4550   -1.3975   -0.2061 N   0  0  0  0  0  0  0  0  0  0  0  0
    0.9822    2.9325    0.1709 N   0  0  0  0  0  0  0  0  0  0  0  0
    4.1058    1.9179   -1.6731 N   0  0  0  0  0  0  0  0  0  0  0  0
   -2.7787   -0.3913   -0.0482 C   0  0  0  0  0  0  0  0  0  0  0  0
   -1.5791    0.2020    0.4355 C   0  0  0  0  0  0  0  0  0  0  0  0
   -3.8135    0.5117    0.2049 C   0  0  0  0  0  0  0  0  0  0  0  0
   -1.9028    1.4309    0.9626 C   0  0  0  0  0  0  0  0  0  0  0  0
   -0.2719   -0.3319    0.4031 C   0  0  0  0  0  0  0  0  0  0  0  0
   -3.0844   -1.6136   -0.6792 C   0  0  0  0  0  0  0  0  0  0  0  0
   -5.1440    0.2522   -0.1424 C   0  0  0  0  0  0  0  0  0  0  0  0
    0.9297    0.3469    0.3110 C   0  0  0  0  0  0  0  0  0  0  0  0
    2.2160   -0.3768    0.2959 C   0  0  0  0  0  0  0  0  0  0  0  0
   -4.4108   -1.8866   -1.0322 C   0  0  0  0  0  0  0  0  0  0  0  0
   -5.4232   -0.9668   -0.7668 C   0  0  0  0  0  0  0  0  0  0  0  0
    3.3948   -0.1254   -0.2477 C   0  0  0  0  0  0  0  0  0  0  0  0
    4.1509   -1.2455    0.1467 C   0  0  0  0  0  0  0  0  0  0  0  0
    0.9571    1.7739    0.2336 C   0  0  0  0  0  0  0  0  0  0  0  0
    3.7854    0.9975   -1.0311 C   0  0  0  0  0  0  0  0  0  0  0  0
   -1.3306    2.1948    1.4684 H   0  0  0  0  0  0  0  0  0  0  0  0
   -3.7658    2.4226    1.1285 H   0  0  0  0  0  0  0  0  0  0  0  0
   -0.2394   -1.4203    0.3947 H   0  0  0  0  0  0  0  0  0  0  0  0
   -2.3083   -2.3426   -0.8946 H   0  0  0  0  0  0  0  0  0  0  0  0
   -5.9329    0.9678    0.0635 H   0  0  0  0  0  0  0  0  0  0  0  0
   -4.6525   -2.8277   -1.5192 H   0  0  0  0  0  0  0  0  0  0  0  0
   -6.4468   -1.1994   -1.0496 H   0  0  0  0  0  0  0  0  0  0  0  0
    1.5220   -2.0021    1.5014 H   0  0  0  0  0  0  0  0  0  0  0  0
    5.9952   -2.2077    0.0812 H   0  0  0  0  0  0  0  0  0  0  0  0
    5.9607   -0.7208   -0.7696 H   0  0  0  0  0  0  0  0  0  0  0  0
  1  9  1  0  0  0  0
  1 10  1  0  0  0  0
  1 23  1  0  0  0  0
  2  3  1  0  0  0  0
  2 15  1  0  0  0  0
  2 29  1  0  0  0  0
  3 19  2  0  0  0  0
  4 19  1  0  0  0  0
  4 30  1  0  0  0  0
  4 31  1  0  0  0  0
  5 20  3  0  0  0  0
  6 21  3  0  0  0  0
  7  8  1  0  0  0  0
  7  9  1  0  0  0  0
  7 12  2  0  0  0  0
  8 10  2  0  0  0  0
  8 11  1  0  0  0  0
  9 13  2  0  0  0  0
 10 22  1  0  0  0  0
 11 14  2  3  0  0  0
 11 24  1  0  0  0  0
 12 16  1  0  0  0  0
 12 25  1  0  0  0  0
 13 17  1  0  0  0  0
 13 26  1  0  0  0  0
 14 15  1  0  0  0  0
 14 20  1  0  0  0  0
 15 18  2  0  0  0  0
 16 17  2  0  0  0  0
 16 27  1  0  0  0  0
 17 28  1  0  0  0  0
 18 19  1  0  0  0  0
 18 21  1  0  0  0  0
M  END
> <PUBCHEM_COMPOUND_CID>
127867

> <PUBCHEM_CONFORMER_RMSD>
0.6

> <PUBCHEM_CONFORMER_DIVERSEORDER>
4
16
25
6
33
2
17
28
14
34
20
5
15
30
1
35
9
3
27
11
12
32
29
19
13
31
26
7
24
21
36
18
8
22
10
23

> <PUBCHEM_MMFF94_PARTIAL_CHARGES>
30
1 0.03
10 -0.3
11 -0.1
12 -0.15
13 -0.15
14 0.11
15 -0.2
16 -0.15
17 -0.15
18 0.02
19 0.37
2 0.3
20 0.49
21 0.54
22 0.15
23 0.27
24 0.15
25 0.15
26 0.15
27 0.15
28 0.15
29 0.27
3 -0.71
30 0.4
31 0.4
4 -0.88
5 -0.56
6 -0.56
8 -0.05
9 -0.15

> <PUBCHEM_EFFECTIVE_ROTOR_COUNT>
2

> <PUBCHEM_PHARMACOPHORE_FEATURES>
10
1 1 cation
1 1 donor
1 2 donor
1 4 donor
1 5 acceptor
1 6 acceptor
3 3 4 19 cation
5 1 7 8 9 10 rings
5 2 3 15 18 19 rings
6 7 9 12 13 16 17 rings

> <PUBCHEM_HEAVY_ATOM_COUNT>
21

> <PUBCHEM_ATOM_DEF_STEREO_COUNT>
0

> <PUBCHEM_ATOM_UDEF_STEREO_COUNT>
0

> <PUBCHEM_BOND_DEF_STEREO_COUNT>
0

> <PUBCHEM_BOND_UDEF_STEREO_COUNT>
1

> <PUBCHEM_ISOTOPIC_ATOM_COUNT>
0

> <PUBCHEM_COMPONENT_COUNT>
1

> <PUBCHEM_CACTVS_TAUTO_COUNT>
8

> <PUBCHEM_CONFORMER_ID>
0001F37B00000004

> <PUBCHEM_MMFF94_ENERGY>
44.0453

> <PUBCHEM_FEATURE_SELFOVERLAP>
50.838

> <PUBCHEM_SHAPE_FINGERPRINT>
10616163 171 18272369750344544879
11578080 2 18268686377812441760
12107183 9 17619067235446866483
12236239 1 18411700967464048322
12553582 1 18337380565732718027
12616971 3 18335992981873666392
12788726 201 18131081419843502265
13167823 11 18410855447459914515
13288520 33 18130786737763137147
13760787 5 18261401039504030529
14386348 63 16128656344700378990
14576447 43 18340767138807933580
15342816 4 18341336617422926862
15537594 2 18341343287528314275
17349148 13 17703789232631989797
17492 89 18269549619210191695
17804303 29 17846212263680572339
17834072 33 18410013247122011668
18186145 218 16588032307443980640
18222031 100 18412257307805699170
18681886 176 18343297072784095594
19862831 5 18187076265627712043
200 152 18334574616200477107
20281475 54 18411417289105791873
20612939 158 18041003951254838324
20645477 70 18113620071182212554
21033648 29 15574712508286361271
21267235 1 18341899575734498803
21634736 98 18270112560456997155
21709351 56 18187645752442178270
221490 88 18265334091549768243
22646028 1 18341891896490930235
23402539 116 18271239426414996267
23522609 53 18126315080214365945
23557571 272 17845936204541707224
23559900 14 18201143447484681729
25147074 1 18342189859931980289
2916195 48 12540996117653641758
29717793 49 18341895160312693142
3004659 81 18408881815577262782
335352 9 18343579617418503661
3411729 13 17416389069448576560
351380 3 18272367590271101727
4214541 1 18271804584350834073
465052 167 18130227163754608007
474 4 17749961084420518756
5104073 3 17988925621886872107
559249 180 18269550551265210371
633830 44 17530966852190063169
67856867 119 18410568531081412912
7164475 11 18263365781363821604
7471813 234 18335699404375603556
960060 61 18334296487166736012
9709674 26 18194958763371901187
9981440 41 17545592817698048233

> <PUBCHEM_SHAPE_MULTIPOLES>
402.28
11.82
2.31
1.04
1.75
0.61
0.21
-4.41
3.13
-0.93
0.02
-0.43
0.11
-2.1

> <PUBCHEM_SHAPE_SELFOVERLAP>
899.457

> <PUBCHEM_SHAPE_VOLUME>
210.7

> <PUBCHEM_COORDINATE_TYPE>
2
5
10

$$$$
