127894
  -OEChem-03292013323D

 41 43  0     1  0  0  0  0  0999 V2000
    4.6943    2.5846    0.3119 O   0  0  0  0  0  0  0  0  0  0  0  0
    5.8630    0.9520   -0.7672 O   0  0  0  0  0  0  0  0  0  0  0  0
    3.7387   -0.5908   -1.0425 N   0  0  0  0  0  0  0  0  0  0  0  0
   -4.8804    0.1227   -1.2856 N   0  0  0  0  0  0  0  0  0  0  0  0
   -5.1813    0.8382    0.8416 N   0  0  0  0  0  0  0  0  0  0  0  0
   -5.9480    0.9167   -1.1224 N   0  0  0  0  0  0  0  0  0  0  0  0
   -6.1652    1.3640    0.1222 N   0  0  0  0  0  0  0  0  0  0  0  0
    1.7637   -0.4767    1.1500 C   0  0  2  0  0  0  0  0  0  0  0  0
    1.9844   -1.7410    0.2938 C   0  0  1  0  0  0  0  0  0  0  0  0
    0.5051    0.3017    0.7267 C   0  0  0  0  0  0  0  0  0  0  0  0
   -0.7418   -0.5924    0.7216 C   0  0  2  0  0  0  0  0  0  0  0  0
    0.7147   -2.6016    0.2314 C   0  0  0  0  0  0  0  0  0  0  0  0
   -0.5301   -1.8169   -0.1752 C   0  0  0  0  0  0  0  0  0  0  0  0
    3.0178    0.4113    1.1087 C   0  0  0  0  0  0  0  0  0  0  0  0
    2.5086   -1.3867   -1.1104 C   0  0  0  0  0  0  0  0  0  0  0  0
    3.5077    0.6602   -0.3193 C   0  0  1  0  0  0  0  0  0  0  0  0
   -1.9699    0.1978    0.2723 C   0  0  0  0  0  0  0  0  0  0  0  0
   -3.2399   -0.6449    0.3802 C   0  0  0  0  0  0  0  0  0  0  0  0
    4.8187    1.3816   -0.3001 C   0  0  0  0  0  0  0  0  0  0  0  0
   -4.4600    0.1204   -0.0375 C   0  0  0  0  0  0  0  0  0  0  0  0
    1.6141   -0.7918    2.1921 H   0  0  0  0  0  0  0  0  0  0  0  0
    2.7595   -2.3476    0.7848 H   0  0  0  0  0  0  0  0  0  0  0  0
    0.6389    0.7439   -0.2676 H   0  0  0  0  0  0  0  0  0  0  0  0
    0.3502    1.1389    1.4191 H   0  0  0  0  0  0  0  0  0  0  0  0
   -0.9104   -0.9411    1.7499 H   0  0  0  0  0  0  0  0  0  0  0  0
    0.5418   -3.0412    1.2225 H   0  0  0  0  0  0  0  0  0  0  0  0
    0.8613   -3.4419   -0.4577 H   0  0  0  0  0  0  0  0  0  0  0  0
   -0.4529   -1.5117   -1.2256 H   0  0  0  0  0  0  0  0  0  0  0  0
   -1.3742   -2.5098   -0.1076 H   0  0  0  0  0  0  0  0  0  0  0  0
    3.8134   -0.0766    1.6895 H   0  0  0  0  0  0  0  0  0  0  0  0
    2.8151    1.3613    1.6188 H   0  0  0  0  0  0  0  0  0  0  0  0
    2.7287   -2.3086   -1.6613 H   0  0  0  0  0  0  0  0  0  0  0  0
    1.7584   -0.8488   -1.7008 H   0  0  0  0  0  0  0  0  0  0  0  0
    2.8039    1.2811   -0.8863 H   0  0  0  0  0  0  0  0  0  0  0  0
   -1.8397    0.5493   -0.7597 H   0  0  0  0  0  0  0  0  0  0  0  0
   -2.0771    1.0962    0.8940 H   0  0  0  0  0  0  0  0  0  0  0  0
    4.4501   -1.1362   -0.5540 H   0  0  0  0  0  0  0  0  0  0  0  0
   -3.3749   -0.9900    1.4125 H   0  0  0  0  0  0  0  0  0  0  0  0
   -3.1868   -1.5378   -0.2506 H   0  0  0  0  0  0  0  0  0  0  0  0
    5.5447    3.0729    0.3364 H   0  0  0  0  0  0  0  0  0  0  0  0
   -6.5564    1.1643   -1.8955 H   0  0  0  0  0  0  0  0  0  0  0  0
  1 19  1  0  0  0  0
  1 40  1  0  0  0  0
  2 19  2  0  0  0  0
  3 15  1  0  0  0  0
  3 16  1  0  0  0  0
  3 37  1  0  0  0  0
  4  6  1  0  0  0  0
  4 20  2  0  0  0  0
  5  7  2  0  0  0  0
  5 20  1  0  0  0  0
  6  7  1  0  0  0  0
  6 41  1  0  0  0  0
  8  9  1  0  0  0  0
  8 10  1  0  0  0  0
  8 14  1  0  0  0  0
  8 21  1  0  0  0  0
  9 12  1  0  0  0  0
  9 15  1  0  0  0  0
  9 22  1  0  0  0  0
 10 11  1  0  0  0  0
 10 23  1  0  0  0  0
 10 24  1  0  0  0  0
 11 13  1  0  0  0  0
 11 17  1  0  0  0  0
 11 25  1  0  0  0  0
 12 13  1  0  0  0  0
 12 26  1  0  0  0  0
 12 27  1  0  0  0  0
 13 28  1  0  0  0  0
 13 29  1  0  0  0  0
 14 16  1  0  0  0  0
 14 30  1  0  0  0  0
 14 31  1  0  0  0  0
 15 32  1  0  0  0  0
 15 33  1  0  0  0  0
 16 19  1  0  0  0  0
 16 34  1  0  0  0  0
 17 18  1  0  0  0  0
 17 35  1  0  0  0  0
 17 36  1  0  0  0  0
 18 20  1  0  0  0  0
 18 38  1  0  0  0  0
 18 39  1  0  0  0  0
M  END
> <PUBCHEM_COMPOUND_CID>
127894

> <PUBCHEM_CONFORMER_RMSD>
0.8

> <PUBCHEM_CONFORMER_DIVERSEORDER>
1
8
6
3
10
4
11
5
2
12
7
9

> <PUBCHEM_MMFF94_PARTIAL_CHARGES>
15
1 -0.65
15 0.27
16 0.33
18 0.18
19 0.66
2 -0.57
20 0.34
3 -0.9
37 0.36
4 -0.71
40 0.5
41 0.27
5 -0.23
6 0.57
7 -0.42

> <PUBCHEM_EFFECTIVE_ROTOR_COUNT>
5.6

> <PUBCHEM_PHARMACOPHORE_FEATURES>
9
1 1 acceptor
1 2 acceptor
1 3 cation
1 3 donor
3 1 2 19 anion
3 4 5 20 cation
5 4 5 6 7 20 rings
6 3 8 9 14 15 16 rings
6 8 9 10 11 12 13 rings

> <PUBCHEM_HEAVY_ATOM_COUNT>
20

> <PUBCHEM_ATOM_DEF_STEREO_COUNT>
4

> <PUBCHEM_ATOM_UDEF_STEREO_COUNT>
0

> <PUBCHEM_BOND_DEF_STEREO_COUNT>
0

> <PUBCHEM_BOND_UDEF_STEREO_COUNT>
0

> <PUBCHEM_ISOTOPIC_ATOM_COUNT>
0

> <PUBCHEM_COMPONENT_COUNT>
1

> <PUBCHEM_CACTVS_TAUTO_COUNT>
2

> <PUBCHEM_CONFORMER_ID>
0001F39600000001

> <PUBCHEM_MMFF94_ENERGY>
25.0277

> <PUBCHEM_FEATURE_SELFOVERLAP>
45.781

> <PUBCHEM_SHAPE_FINGERPRINT>
10498660 4 18410859883949868530
11796584 16 13326855522118867493
11961588 58 17988074612449978238
12403259 118 17532376554803303384
12596602 18 12757149082350472181
12633257 1 15068626032062615494
12670543 26 17989495104010594742
12730499 353 18409739447378985915
12769317 202 18412538829768834104
12969540 114 18336255821129652703
13685833 64 10519987067018306204
13911852 28 9006519185583566632
13955234 65 18115025173806994979
14123256 34 9943532941860275136
1420 369 9439412332218069896
14251732 14 16343417410335650663
14251757 5 17344896641493588663
14252887 29 9439399103930080838
14341114 176 12324236179192609764
14366163 111 18412547595654342048
14528608 73 18272365378325585701
14774955 27 18335416880930799109
15183329 4 15769498643206339649
15188451 53 12685102514305885233
15885798 251 9367348141121197667
1601671 61 18259984889823092804
17834072 32 18336547243488172784
17870717 6 14979954775276092053
1813 80 11815905556729125554
18222031 100 13758351163799986155
18335252 114 18409441471459495604
193927 3 11671787099723948183
19784866 34 18335137592224772243
20388580 30 12463573997814757794
20612939 158 18342178808601143875
20645477 70 18129945576903135991
20715895 44 18340769347065293208
21150785 3 18272927250669445053
21452121 103 17894908503850673298
21521239 73 17275114907965625470
21637258 2 12967139276711759820
22289505 5 18273496762805847936
23402655 69 18202563986084372119
23559900 14 18412831257329224994
25122255 55 11599717420213065445
25147074 1 17702113464714940098
270888 7 18262237854169306620
2838139 119 18334569170488167380
2916195 48 17822009805298411185
293599 30 18335985345490288338
3472631 163 18262238944974624140
4340502 62 16732986414090866467
4990 188 17131833157571001023
5104073 3 17967537844230522771
543368 44 18343021103944915297
633830 44 18342458097872089047
636775 8 10810434021150133792
7970288 3 10159711178577692060
960060 61 17275103916352939093

> <PUBCHEM_SHAPE_MULTIPOLES>
374.95
13.68
2.06
1.1
13.54
0.43
-0.08
-10.07
-3.56
-1.86
-0.01
-0.02
0.02
0.24

> <PUBCHEM_SHAPE_SELFOVERLAP>
783.097

> <PUBCHEM_SHAPE_VOLUME>
210.3

> <PUBCHEM_COORDINATE_TYPE>
2
5
10

$$$$
