REMARK  Name = 127824
REMARK  8 active torsions:
REMARK  status: ('A' for Active; 'I' for Inactive)
REMARK    1  A    between atoms: N_1  and  N_2
REMARK    2  A    between atoms: N_1  and  C_4
REMARK    3  A    between atoms: N_2  and  C_15
REMARK    4  A    between atoms: C_3  and  C_12
REMARK    5  A    between atoms: C_6  and  O_9
REMARK    6  A    between atoms: C_12  and  O_13
REMARK    7  A    between atoms: C_16  and  C_22
REMARK    8  A    between atoms: C_22  and  O_23
REMARK                            x       y       z     vdW  Elec       q    Type
REMARK                         _______ _______ _______ _____ _____    ______ ____
ROOT
ATOM      1  N   UNL     1       0.205   0.446  -0.522  0.00  0.00    -0.128 NA
ENDROOT
BRANCH   1   3
ATOM      2  C   UNL     1       3.792  -0.327  -0.090  0.00  0.00    +0.110 C 
ATOM      3  C   UNL     1       1.587   0.617  -0.329  0.00  0.00    +0.089 C 
ATOM      4  C   UNL     1       2.420  -0.497  -0.279  0.00  0.00    +0.028 C 
ATOM      5  C   UNL     1       4.323   0.955   0.049  0.00  0.00    +0.140 C 
ATOM      6  C   UNL     1       2.112   1.898  -0.192  0.00  0.00    +0.021 C 
ATOM      7  C   UNL     1       3.483   2.068  -0.003  0.00  0.00    +0.038 C 
BRANCH   5   8
ATOM      8  O   UNL     1       5.661   1.142   0.234  0.00  0.00    -0.505 OA
ATOM      9  H   UNL     1       6.236   0.403   0.271  0.00  0.00    +0.292 HD
ENDBRANCH   5   8
BRANCH   2  11
ATOM     10  O   UNL     1       5.833  -1.537  -0.394  0.00  0.00    -0.245 OA
ATOM     11  C   UNL     1       4.652  -1.502  -0.039  0.00  0.00    +0.341 C 
BRANCH  11  12
ATOM     12  O   UNL     1       4.008  -2.594   0.454  0.00  0.00    -0.477 OA
ATOM     13  H   UNL     1       3.110  -2.531   0.714  0.00  0.00    +0.295 HD
ENDBRANCH  11  12
ENDBRANCH   2  11
ENDBRANCH   1   3
BRANCH   1  14
ATOM     14  N   UNL     1      -0.370   0.332   0.586  0.00  0.00    -0.128 NA
BRANCH  14  15
ATOM     15  C   UNL     1      -1.746   0.163   0.395  0.00  0.00    +0.089 C 
ATOM     16  C   UNL     1      -4.488  -0.176   0.015  0.00  0.00    +0.076 C 
ATOM     17  C   UNL     1      -2.277  -1.119   0.257  0.00  0.00    +0.018 C 
ATOM     18  C   UNL     1      -2.585   1.276   0.343  0.00  0.00    +0.018 C 
ATOM     19  C   UNL     1      -3.649  -1.289   0.067  0.00  0.00    +0.008 C 
ATOM     20  C   UNL     1      -3.957   1.106   0.153  0.00  0.00    +0.008 C 
BRANCH  16  22
ATOM     21  O   UNL     1      -6.494  -1.438  -0.316  0.00  0.00    -0.245 OA
ATOM     22  C   UNL     1      -5.918  -0.353  -0.182  0.00  0.00    +0.338 C 
BRANCH  22  23
ATOM     23  O   UNL     1      -6.591   0.830  -0.207  0.00  0.00    -0.477 OA
ATOM     24  H   UNL     1      -6.124   1.636  -0.103  0.00  0.00    +0.295 HD
ENDBRANCH  22  23
ENDBRANCH  16  22
ENDBRANCH  14  15
ENDBRANCH   1  14
TORSDOF 8
