REMARK  Name = 127866
REMARK  7 active torsions:
REMARK  status: ('A' for Active; 'I' for Inactive)
REMARK    1  A    between atoms: O_1  and  C_4
REMARK    2  A    between atoms: O_1  and  C_19
REMARK    3  A    between atoms: C_3  and  C_12
REMARK    4  A    between atoms: C_5  and  C_16
REMARK    5  A    between atoms: C_16  and  O_17
REMARK    6  A    between atoms: C_22  and  C_25
REMARK    7  A    between atoms: C_26  and  C_35
REMARK                            x       y       z     vdW  Elec       q    Type
REMARK                         _______ _______ _______ _____ _____    ______ ____
ROOT
ATOM      1  O   UNL     1       1.455   1.741  -0.989  0.00  0.00    -0.451 OA
ENDROOT
BRANCH   1   4
ATOM      2  N   UNL     1       4.334   0.726   1.004  0.00  0.00    -0.407 NA
ATOM      3  C   UNL     1       3.383   1.467   0.389  0.00  0.00    +0.142 C 
ATOM      4  C   UNL     1       2.379   0.939  -0.397  0.00  0.00    +0.173 C 
ATOM      5  C   UNL     1       2.350  -0.439  -0.561  0.00  0.00    +0.100 C 
ATOM      6  C   UNL     1       4.303  -0.610   0.843  0.00  0.00    +0.117 C 
ATOM      7  C   UNL     1       3.316  -1.243   0.059  0.00  0.00    +0.106 C 
ATOM      8  C   UNL     1       5.262  -1.409   1.459  0.00  0.00    +0.028 C 
ATOM      9  C   UNL     1       3.314  -2.641  -0.087  0.00  0.00    -0.015 C 
ATOM     10  C   UNL     1       5.260  -2.799   1.314  0.00  0.00    +0.002 C 
ATOM     11  C   UNL     1       4.285  -3.416   0.540  0.00  0.00    -0.004 C 
BRANCH   3  12
ATOM     12  C   UNL     1       3.459   2.944   0.597  0.00  0.00    +0.056 C 
ATOM     13  C   UNL     1       4.730   3.661   0.269  0.00  0.00    +0.008 C 
ATOM     14  C   UNL     1       3.517   3.843  -0.596  0.00  0.00    +0.008 C 
ENDBRANCH   3  12
BRANCH   5  16
ATOM     15  O   UNL     1       0.190  -1.374  -0.986  0.00  0.00    -0.245 OA
ATOM     16  C   UNL     1       1.293  -1.011  -1.393  0.00  0.00    +0.338 C 
BRANCH  16  17
ATOM     17  O   UNL     1       1.661  -1.104  -2.697  0.00  0.00    -0.477 OA
ATOM     18  H   UNL     1       2.511  -0.816  -2.966  0.00  0.00    +0.295 HD
ENDBRANCH  16  17
ENDBRANCH   5  16
ENDBRANCH   1   4
BRANCH   1  19
ATOM     19  C   UNL     1       0.123   1.542  -0.662  0.00  0.00    +0.145 C 
ATOM     20  C   UNL     1      -0.225   1.369   0.664  0.00  0.00    +0.037 C 
ATOM     21  C   UNL     1      -0.821   1.522  -1.672  0.00  0.00    +0.037 C 
ATOM     22  C   UNL     1      -2.534   1.144  -0.011  0.00  0.00    +0.001 C 
ATOM     23  C   UNL     1      -1.566   1.168   0.993  0.00  0.00    +0.003 C 
ATOM     24  C   UNL     1      -2.161   1.321  -1.344  0.00  0.00    +0.003 C 
BRANCH  22  25
ATOM     25  C   UNL     1      -3.925   0.937   0.330  0.00  0.00    +0.009 C 
ATOM     26  C   UNL     1      -4.487  -0.341   0.389  0.00  0.00    +0.065 C 
ATOM     27  C   UNL     1      -4.718   2.054   0.605  0.00  0.00    +0.001 C 
ATOM     28  C   UNL     1      -5.832  -0.501   0.722  0.00  0.00    +0.010 C 
ATOM     29  C   UNL     1      -6.063   1.895   0.937  0.00  0.00    +0.000 C 
ATOM     30  C   UNL     1      -6.620   0.617   0.996  0.00  0.00    +0.001 C 
BRANCH  26  35
ATOM     31  N   UNL     1      -3.035  -2.188   1.049  0.00  0.00    -0.110 NA
ATOM     32  N   UNL     1      -3.599  -2.038  -1.139  0.00  0.00    -0.087 NA
ATOM     33  N   UNL     1      -2.508  -3.153   0.282  0.00  0.00    -0.140 N 
ATOM     34  N   UNL     1      -2.816  -3.103  -1.021  0.00  0.00    -0.022 NA
ATOM     35  C   UNL     1      -3.706  -1.520   0.113  0.00  0.00    +0.073 C 
ATOM     36  H   UNL     1      -1.929  -3.856   0.655  0.00  0.00    +0.197 HD
ENDBRANCH  26  35
ENDBRANCH  22  25
ENDBRANCH   1  19
TORSDOF 7
