127835
  -OEChem-03292013323D

 42 44  0     1  0  0  0  0  0999 V2000
    0.6516    1.2803   -0.6562 O   0  0  0  0  0  0  0  0  0  0  0  0
    0.3923   -1.5090    0.5032 O   0  0  0  0  0  0  0  0  0  0  0  0
    3.2714    0.6131    0.9178 O   0  0  0  0  0  0  0  0  0  0  0  0
    1.1202    0.5906   -3.3137 O   0  0  0  0  0  0  0  0  0  0  0  0
    2.1246   -2.8953    1.1463 O   0  0  0  0  0  0  0  0  0  0  0  0
    4.7326    0.6606   -0.8708 O   0  0  0  0  0  0  0  0  0  0  0  0
   -1.0973    0.8590    0.9027 N   0  0  0  0  0  0  0  0  0  0  0  0
   -3.0728    1.0427    1.9321 N   0  0  0  0  0  0  0  0  0  0  0  0
   -1.8394    0.0433   -1.2630 N   0  0  0  0  0  0  0  0  0  0  0  0
   -4.2669   -0.1959   -1.3421 N   0  0  0  0  0  0  0  0  0  0  0  0
   -5.6712    0.3303    0.5229 N   0  0  0  0  0  0  0  0  0  0  0  0
    1.1036   -0.3774    0.9879 C   0  0  1  0  0  0  0  0  0  0  0  0
    2.3589   -0.1806    0.1623 C   0  0  1  0  0  0  0  0  0  0  0  0
    0.3459    0.9154    0.7008 C   0  0  1  0  0  0  0  0  0  0  0  0
    1.8736    0.6214   -1.0470 C   0  0  1  0  0  0  0  0  0  0  0  0
    1.5692   -0.2450   -2.2612 C   0  0  0  0  0  0  0  0  0  0  0  0
   -2.0431    0.4619   -0.0048 C   0  0  0  0  0  0  0  0  0  0  0  0
   -1.7707    1.1972    2.0511 C   0  0  0  0  0  0  0  0  0  0  0  0
   -3.2572    0.5837    0.6521 C   0  0  0  0  0  0  0  0  0  0  0  0
    1.0227   -2.7136    0.6464 C   0  0  0  0  0  0  0  0  0  0  0  0
    4.4235    0.9632    0.2737 C   0  0  0  0  0  0  0  0  0  0  0  0
   -4.3978    0.2360   -0.0647 C   0  0  0  0  0  0  0  0  0  0  0  0
    0.1603   -3.8083    0.0953 C   0  0  0  0  0  0  0  0  0  0  0  0
    5.2802    1.7908    1.1833 C   0  0  0  0  0  0  0  0  0  0  0  0
   -3.0143   -0.2643   -1.8544 C   0  0  0  0  0  0  0  0  0  0  0  0
    1.2798   -0.4894    2.0643 H   0  0  0  0  0  0  0  0  0  0  0  0
    2.8776   -1.0912   -0.1486 H   0  0  0  0  0  0  0  0  0  0  0  0
    0.7240    1.7300    1.3317 H   0  0  0  0  0  0  0  0  0  0  0  0
    2.5372    1.4354   -1.3509 H   0  0  0  0  0  0  0  0  0  0  0  0
    0.7764   -0.9692   -2.0550 H   0  0  0  0  0  0  0  0  0  0  0  0
    2.4654   -0.7769   -2.5949 H   0  0  0  0  0  0  0  0  0  0  0  0
   -1.2575    1.5465    2.9366 H   0  0  0  0  0  0  0  0  0  0  0  0
    0.9363    0.0168   -4.0770 H   0  0  0  0  0  0  0  0  0  0  0  0
   -0.0203   -3.6360   -0.9687 H   0  0  0  0  0  0  0  0  0  0  0  0
   -0.7837   -3.8477    0.6446 H   0  0  0  0  0  0  0  0  0  0  0  0
    0.6726   -4.7676    0.2115 H   0  0  0  0  0  0  0  0  0  0  0  0
    5.5444    1.2118    2.0718 H   0  0  0  0  0  0  0  0  0  0  0  0
    4.7491    2.7043    1.4623 H   0  0  0  0  0  0  0  0  0  0  0  0
    6.2006    2.0683    0.6617 H   0  0  0  0  0  0  0  0  0  0  0  0
   -2.9466   -0.6142   -2.8789 H   0  0  0  0  0  0  0  0  0  0  0  0
   -5.7715    0.6533    1.4757 H   0  0  0  0  0  0  0  0  0  0  0  0
   -6.4850    0.0726   -0.0187 H   0  0  0  0  0  0  0  0  0  0  0  0
  1 14  1  0  0  0  0
  1 15  1  0  0  0  0
  2 12  1  0  0  0  0
  2 20  1  0  0  0  0
  3 13  1  0  0  0  0
  3 21  1  0  0  0  0
  4 16  1  0  0  0  0
  4 33  1  0  0  0  0
  5 20  2  0  0  0  0
  6 21  2  0  0  0  0
  7 14  1  0  0  0  0
  7 17  1  0  0  0  0
  7 18  1  0  0  0  0
  8 18  2  0  0  0  0
  8 19  1  0  0  0  0
  9 17  2  0  0  0  0
  9 25  1  0  0  0  0
 10 22  1  0  0  0  0
 10 25  2  0  0  0  0
 11 22  1  0  0  0  0
 11 41  1  0  0  0  0
 11 42  1  0  0  0  0
 12 13  1  0  0  0  0
 12 14  1  0  0  0  0
 12 26  1  0  0  0  0
 13 15  1  0  0  0  0
 13 27  1  0  0  0  0
 14 28  1  0  0  0  0
 15 16  1  0  0  0  0
 15 29  1  0  0  0  0
 16 30  1  0  0  0  0
 16 31  1  0  0  0  0
 17 19  1  0  0  0  0
 18 32  1  0  0  0  0
 19 22  2  0  0  0  0
 20 23  1  0  0  0  0
 21 24  1  0  0  0  0
 23 34  1  0  0  0  0
 23 35  1  0  0  0  0
 23 36  1  0  0  0  0
 24 37  1  0  0  0  0
 24 38  1  0  0  0  0
 24 39  1  0  0  0  0
 25 40  1  0  0  0  0
M  END
> <PUBCHEM_COMPOUND_CID>
127835

> <PUBCHEM_CONFORMER_RMSD>
0.8

> <PUBCHEM_CONFORMER_DIVERSEORDER>
1
21
7
26
29
22
27
4
25
31
14
19
12
24
3
10
23
8
18
28
6
2
11
15
20
16
5
30
13
17
9

> <PUBCHEM_MMFF94_PARTIAL_CHARGES>
30
1 -0.56
10 -0.62
11 -0.9
12 0.28
13 0.28
14 0.54
15 0.28
16 0.28
17 0.11
18 0.04
19 0.23
2 -0.43
20 0.66
21 0.66
22 0.41
23 0.06
24 0.06
25 0.47
3 -0.43
32 0.15
33 0.4
4 -0.68
40 0.15
41 0.4
42 0.4
5 -0.57
6 -0.57
7 0.05
8 -0.57
9 -0.57

> <PUBCHEM_EFFECTIVE_ROTOR_COUNT>
7

> <PUBCHEM_PHARMACOPHORE_FEATURES>
13
1 1 acceptor
1 11 cation
1 11 donor
1 4 acceptor
1 4 donor
1 5 acceptor
1 6 acceptor
3 7 8 18 cation
3 7 9 17 cation
3 9 10 25 cation
5 1 12 13 14 15 rings
5 7 8 17 18 19 rings
6 9 10 17 19 22 25 rings

> <PUBCHEM_HEAVY_ATOM_COUNT>
25

> <PUBCHEM_ATOM_DEF_STEREO_COUNT>
4

> <PUBCHEM_ATOM_UDEF_STEREO_COUNT>
0

> <PUBCHEM_BOND_DEF_STEREO_COUNT>
0

> <PUBCHEM_BOND_UDEF_STEREO_COUNT>
0

> <PUBCHEM_ISOTOPIC_ATOM_COUNT>
0

> <PUBCHEM_COMPONENT_COUNT>
1

> <PUBCHEM_CACTVS_TAUTO_COUNT>
3

> <PUBCHEM_CONFORMER_ID>
0001F35B00000001

> <PUBCHEM_MMFF94_ENERGY>
55.9944

> <PUBCHEM_FEATURE_SELFOVERLAP>
66.58

> <PUBCHEM_SHAPE_FINGERPRINT>
11578080 2 18194114114565977788
121448 382 18342171232273448634
12236239 1 18130787854444208217
12293681 25 17558863734451670414
12403260 363 15213020483666038285
12553582 1 16844994767951875345
12592029 89 17967527973999906978
12788726 201 17346318147019290953
13052359 8 18191020303962760474
13583140 156 18340497686210108897
13911987 19 18187372081347672348
14787075 74 17916860339256331208
14863182 85 18260560995335305102
16945 1 18113902641501937272
17138139 8 17910642661363376463
17349148 13 17458347420400285280
1813 80 17765158271994204854
204376 136 18334294309897937240
21033648 29 17750218335671423092
21421861 104 17986961743442412771
23402539 116 18059851809226421776
23419403 2 16911716646239223546
34934 24 17704354360070896849
3493558 16 16892835896933573564
4340502 62 18410864273970947563
474 4 18271807981723323616
59755656 520 18340197583812138814
633830 44 18272939319211399192

> <PUBCHEM_SHAPE_MULTIPOLES>
454.37
8.94
2.43
2.12
1.01
3.03
-1.49
-4.74
0.18
-1.45
1.62
-0.1
0.2
-0.86

> <PUBCHEM_SHAPE_SELFOVERLAP>
977.463

> <PUBCHEM_SHAPE_VOLUME>
245.2

> <PUBCHEM_COORDINATE_TYPE>
2
5
10

$$$$
