REMARK  Name = 127852
REMARK  6 active torsions:
REMARK  status: ('A' for Active; 'I' for Inactive)
REMARK    1  A    between atoms: C_1  and  C_5
REMARK    2  A    between atoms: C_1  and  N_14
REMARK    3  A    between atoms: C_1  and  C_18
REMARK    4  A    between atoms: C_6  and  C_8
REMARK    5  A    between atoms: C_8  and  N_9
REMARK    6  A    between atoms: C_18  and  C_21
REMARK                            x       y       z     vdW  Elec       q    Type
REMARK                         _______ _______ _______ _____ _____    ______ ____
ROOT
ATOM      1  C   UNL     1       1.126  -0.213   0.006  0.00  0.00    +0.158 C 
ENDROOT
BRANCH   1   5
ATOM      2  O   UNL     1      -0.182   0.682   1.839  0.00  0.00    -0.273 OA
ATOM      3  O   UNL     1      -2.954   0.560   1.441  0.00  0.00    -0.277 OA
ATOM      4  N   UNL     1      -1.295  -0.217  -0.002  0.00  0.00    -0.256 N 
ATOM      5  C   UNL     1      -0.164   0.127   0.743  0.00  0.00    +0.246 C 
ATOM      6  C   UNL     1      -2.615   0.020   0.392  0.00  0.00    +0.207 C 
ATOM      7  H   UNL     1      -1.152  -0.660  -0.869  0.00  0.00    +0.157 HD
BRANCH   6   8
ATOM      8  C   UNL     1      -3.594  -0.464  -0.659  0.00  0.00    +0.006 C 
BRANCH   8   9
ATOM      9  N   UNL     1      -4.957  -0.189  -0.227  0.00  0.00    +0.388 N 
ATOM     10  C   UNL     1      -5.920  -0.635  -1.224  0.00  0.00    -0.105 C 
ATOM     11  H   UNL     1      -5.065   0.815  -0.084  0.00  0.00    -0.084 HD
ATOM     12  H   UNL     1      -5.131  -0.694   0.642  0.00  0.00    -0.084 HD
ENDBRANCH   8   9
ENDBRANCH   6   8
ENDBRANCH   1   5
BRANCH   1  14
ATOM     13  O   UNL     1       1.454   2.288  -1.431  0.00  0.00    -0.275 OA
ATOM     14  N   UNL     1       2.083   0.831   0.272  0.00  0.00    -0.298 N 
ATOM     15  C   UNL     1       2.165   1.997  -0.473  0.00  0.00    +0.223 C 
ATOM     16  C   UNL     1       3.234   2.928   0.034  0.00  0.00    +0.095 C 
ATOM     17  H   UNL     1       2.711   0.710   1.021  0.00  0.00    +0.150 HD
ENDBRANCH   1  14
BRANCH   1  18
ATOM     18  C   UNL     1       1.654  -1.579   0.442  0.00  0.00    +0.114 C 
BRANCH  18  21
ATOM     19  O   UNL     1       3.201  -1.542  -1.402  0.00  0.00    -0.275 OA
ATOM     20  N   UNL     1       3.811  -2.673   0.509  0.00  0.00    -0.329 N 
ATOM     21  C   UNL     1       2.952  -1.920  -0.260  0.00  0.00    +0.222 C 
ATOM     22  H   UNL     1       4.683  -2.949   0.146  0.00  0.00    +0.145 HD
ATOM     23  H   UNL     1       3.552  -2.935   1.422  0.00  0.00    +0.145 HD
ENDBRANCH  18  21
ENDBRANCH   1  18
TORSDOF 6
