127829
  -OEChem-03292013323D

 87 90  0     1  0  0  0  0  0999 V2000
    0.9223    2.0664    0.5433 O   0  0  0  0  0  0  0  0  0  0  0  0
   -7.4794    0.9245   -1.0534 O   0  0  0  0  0  0  0  0  0  0  0  0
   -5.6626    3.0333   -0.8106 O   0  0  0  0  0  0  0  0  0  0  0  0
    6.7941   -1.4502   -0.6032 O   0  0  0  0  0  0  0  0  0  0  0  0
    8.6363    0.4791   -1.4126 O   0  0  0  0  0  0  0  0  0  0  0  0
    0.8641   -0.3706    0.9544 C   0  0  1  0  0  0  0  0  0  0  0  0
    0.2082   -0.7351   -0.4247 C   0  0  2  0  0  0  0  0  0  0  0  0
    2.3667   -0.5744    0.6336 C   0  0  2  0  0  0  0  0  0  0  0  0
   -3.5052    0.2333    0.6138 C   0  0  2  0  0  0  0  0  0  0  0  0
   -1.3099   -0.7249   -0.3041 C   0  0  0  0  0  0  0  0  0  0  0  0
   -1.9417    0.1540    0.5135 C   0  0  0  0  0  0  0  0  0  0  0  0
   -4.2409   -0.9523   -0.1503 C   0  0  1  0  0  0  0  0  0  0  0  0
    0.4125    1.0353    1.3814 C   0  0  2  0  0  0  0  0  0  0  0  0
    0.9301   -2.0658   -0.7321 C   0  0  0  0  0  0  0  0  0  0  0  0
    2.3770   -1.8568   -0.2336 C   0  0  0  0  0  0  0  0  0  0  0  0
   -1.1338    1.1287    1.4000 C   0  0  0  0  0  0  0  0  0  0  0  0
   -5.7997   -0.7520   -0.4170 C   0  0  0  0  0  0  0  0  0  0  0  0
   -2.0483   -1.6701   -1.2010 C   0  0  0  0  0  0  0  0  0  0  0  0
   -3.4847   -1.2529   -1.4633 C   0  0  0  0  0  0  0  0  0  0  0  0
   -3.9327    1.5905    0.0028 C   0  0  0  0  0  0  0  0  0  0  0  0
    3.3159   -0.6570    1.8232 C   0  0  1  0  0  0  0  0  0  0  0  0
    0.4535   -1.3558    2.1056 C   0  0  0  0  0  0  0  0  0  0  0  0
    0.5189    0.2275   -1.6132 C   0  0  0  0  0  0  0  0  0  0  0  0
   -6.0741    0.6639   -0.9910 C   0  0  2  0  0  0  0  0  0  0  0  0
   -5.4378    1.7779   -0.1598 C   0  0  2  0  0  0  0  0  0  0  0  0
   -3.8732    0.1880    2.1163 C   0  0  0  0  0  0  0  0  0  0  0  0
    4.7562   -0.9142    1.3337 C   0  0  0  0  0  0  0  0  0  0  0  0
   -6.6418   -0.9982    0.8633 C   0  0  0  0  0  0  0  0  0  0  0  0
   -6.3335   -1.8067   -1.4292 C   0  0  0  0  0  0  0  0  0  0  0  0
    3.2106    0.6178    2.6656 C   0  0  0  0  0  0  0  0  0  0  0  0
    5.2685    0.1453    0.3453 C   0  0  0  0  0  0  0  0  0  0  0  0
    6.7215   -0.1200   -0.0798 C   0  0  2  0  0  0  0  0  0  0  0  0
    7.2827    0.8686   -1.1325 C   0  0  0  0  0  0  0  0  0  0  0  0
    7.3458    2.3131   -0.6284 C   0  0  0  0  0  0  0  0  0  0  0  0
    6.5145    0.8097   -2.4561 C   0  0  0  0  0  0  0  0  0  0  0  0
    2.6768    0.2692    0.0099 H   0  0  0  0  0  0  0  0  0  0  0  0
   -4.1391   -1.8566    0.4690 H   0  0  0  0  0  0  0  0  0  0  0  0
    0.7470    1.2842    2.3895 H   0  0  0  0  0  0  0  0  0  0  0  0
    0.9189   -2.3281   -1.7959 H   0  0  0  0  0  0  0  0  0  0  0  0
    0.4679   -2.9056   -0.1996 H   0  0  0  0  0  0  0  0  0  0  0  0
    2.6950   -2.7435    0.3259 H   0  0  0  0  0  0  0  0  0  0  0  0
    3.0612   -1.7391   -1.0814 H   0  0  0  0  0  0  0  0  0  0  0  0
   -1.4375    2.1555    1.1709 H   0  0  0  0  0  0  0  0  0  0  0  0
   -1.4170    0.9296    2.4395 H   0  0  0  0  0  0  0  0  0  0  0  0
   -1.5469   -1.7531   -2.1719 H   0  0  0  0  0  0  0  0  0  0  0  0
   -2.0295   -2.6697   -0.7491 H   0  0  0  0  0  0  0  0  0  0  0  0
   -3.5082   -0.3830   -2.1305 H   0  0  0  0  0  0  0  0  0  0  0  0
   -3.9388   -2.0839   -2.0101 H   0  0  0  0  0  0  0  0  0  0  0  0
   -3.4571    1.7277   -0.9791 H   0  0  0  0  0  0  0  0  0  0  0  0
   -3.5579    2.4266    0.6079 H   0  0  0  0  0  0  0  0  0  0  0  0
    3.0610   -1.5061    2.4690 H   0  0  0  0  0  0  0  0  0  0  0  0
   -0.6294   -1.4766    2.1994 H   0  0  0  0  0  0  0  0  0  0  0  0
    0.8626   -2.3617    1.9679 H   0  0  0  0  0  0  0  0  0  0  0  0
    0.8055   -1.0024    3.0800 H   0  0  0  0  0  0  0  0  0  0  0  0
    0.1679   -0.2024   -2.5603 H   0  0  0  0  0  0  0  0  0  0  0  0
    0.0119    1.1935   -1.5171 H   0  0  0  0  0  0  0  0  0  0  0  0
    1.5854    0.4234   -1.7504 H   0  0  0  0  0  0  0  0  0  0  0  0
   -5.7087    0.7325   -2.0228 H   0  0  0  0  0  0  0  0  0  0  0  0
   -5.9136    1.8623    0.8227 H   0  0  0  0  0  0  0  0  0  0  0  0
   -4.9409    0.2114    2.3058 H   0  0  0  0  0  0  0  0  0  0  0  0
   -3.4755   -0.7161    2.5918 H   0  0  0  0  0  0  0  0  0  0  0  0
   -3.4862    1.0559    2.6612 H   0  0  0  0  0  0  0  0  0  0  0  0
    5.4256   -0.9445    2.2031 H   0  0  0  0  0  0  0  0  0  0  0  0
    4.8074   -1.9108    0.8822 H   0  0  0  0  0  0  0  0  0  0  0  0
   -6.6971   -0.1286    1.5189 H   0  0  0  0  0  0  0  0  0  0  0  0
   -6.2506   -1.8451    1.4373 H   0  0  0  0  0  0  0  0  0  0  0  0
   -7.6853   -1.2360    0.6222 H   0  0  0  0  0  0  0  0  0  0  0  0
   -5.9591   -1.6307   -2.4431 H   0  0  0  0  0  0  0  0  0  0  0  0
   -7.4269   -1.7727   -1.5078 H   0  0  0  0  0  0  0  0  0  0  0  0
   -6.0577   -2.8218   -1.1223 H   0  0  0  0  0  0  0  0  0  0  0  0
    0.6397    2.9192    0.9150 H   0  0  0  0  0  0  0  0  0  0  0  0
    2.3738    0.5756    3.3647 H   0  0  0  0  0  0  0  0  0  0  0  0
    3.1451    1.5243    2.0572 H   0  0  0  0  0  0  0  0  0  0  0  0
    4.1015    0.7236    3.2965 H   0  0  0  0  0  0  0  0  0  0  0  0
    4.6490    0.1219   -0.5541 H   0  0  0  0  0  0  0  0  0  0  0  0
    5.1885    1.1427    0.7878 H   0  0  0  0  0  0  0  0  0  0  0  0
   -7.8112    1.0594   -0.1500 H   0  0  0  0  0  0  0  0  0  0  0  0
   -6.6235    3.1346   -0.9206 H   0  0  0  0  0  0  0  0  0  0  0  0
    7.3754   -0.0964    0.8017 H   0  0  0  0  0  0  0  0  0  0  0  0
    6.8385   -2.0636    0.1496 H   0  0  0  0  0  0  0  0  0  0  0  0
    6.3495    2.7300   -0.4530 H   0  0  0  0  0  0  0  0  0  0  0  0
    7.9167    2.3718    0.3052 H   0  0  0  0  0  0  0  0  0  0  0  0
    7.8619    2.9599   -1.3475 H   0  0  0  0  0  0  0  0  0  0  0  0
    7.0027    1.4317   -3.2159 H   0  0  0  0  0  0  0  0  0  0  0  0
    6.4997   -0.2068   -2.8643 H   0  0  0  0  0  0  0  0  0  0  0  0
    5.4836    1.1609   -2.3529 H   0  0  0  0  0  0  0  0  0  0  0  0
    8.9945    1.0835   -2.0851 H   0  0  0  0  0  0  0  0  0  0  0  0
  1 13  1  0  0  0  0
  1 71  1  0  0  0  0
  2 24  1  0  0  0  0
  2 77  1  0  0  0  0
  3 25  1  0  0  0  0
  3 78  1  0  0  0  0
  4 32  1  0  0  0  0
  4 80  1  0  0  0  0
  5 33  1  0  0  0  0
  5 87  1  0  0  0  0
  6  7  1  0  0  0  0
  6  8  1  0  0  0  0
  6 13  1  0  0  0  0
  6 22  1  0  0  0  0
  7 10  1  0  0  0  0
  7 14  1  0  0  0  0
  7 23  1  0  0  0  0
  8 15  1  0  0  0  0
  8 21  1  0  0  0  0
  8 36  1  0  0  0  0
  9 11  1  0  0  0  0
  9 12  1  0  0  0  0
  9 20  1  0  0  0  0
  9 26  1  0  0  0  0
 10 11  2  0  0  0  0
 10 18  1  0  0  0  0
 11 16  1  0  0  0  0
 12 17  1  0  0  0  0
 12 19  1  0  0  0  0
 12 37  1  0  0  0  0
 13 16  1  0  0  0  0
 13 38  1  0  0  0  0
 14 15  1  0  0  0  0
 14 39  1  0  0  0  0
 14 40  1  0  0  0  0
 15 41  1  0  0  0  0
 15 42  1  0  0  0  0
 16 43  1  0  0  0  0
 16 44  1  0  0  0  0
 17 24  1  0  0  0  0
 17 28  1  0  0  0  0
 17 29  1  0  0  0  0
 18 19  1  0  0  0  0
 18 45  1  0  0  0  0
 18 46  1  0  0  0  0
 19 47  1  0  0  0  0
 19 48  1  0  0  0  0
 20 25  1  0  0  0  0
 20 49  1  0  0  0  0
 20 50  1  0  0  0  0
 21 27  1  0  0  0  0
 21 30  1  0  0  0  0
 21 51  1  0  0  0  0
 22 52  1  0  0  0  0
 22 53  1  0  0  0  0
 22 54  1  0  0  0  0
 23 55  1  0  0  0  0
 23 56  1  0  0  0  0
 23 57  1  0  0  0  0
 24 25  1  0  0  0  0
 24 58  1  0  0  0  0
 25 59  1  0  0  0  0
 26 60  1  0  0  0  0
 26 61  1  0  0  0  0
 26 62  1  0  0  0  0
 27 31  1  0  0  0  0
 27 63  1  0  0  0  0
 27 64  1  0  0  0  0
 28 65  1  0  0  0  0
 28 66  1  0  0  0  0
 28 67  1  0  0  0  0
 29 68  1  0  0  0  0
 29 69  1  0  0  0  0
 29 70  1  0  0  0  0
 30 72  1  0  0  0  0
 30 73  1  0  0  0  0
 30 74  1  0  0  0  0
 31 32  1  0  0  0  0
 31 75  1  0  0  0  0
 31 76  1  0  0  0  0
 32 33  1  0  0  0  0
 32 79  1  0  0  0  0
 33 34  1  0  0  0  0
 33 35  1  0  0  0  0
 34 81  1  0  0  0  0
 34 82  1  0  0  0  0
 34 83  1  0  0  0  0
 35 84  1  0  0  0  0
 35 85  1  0  0  0  0
 35 86  1  0  0  0  0
M  END
> <PUBCHEM_COMPOUND_CID>
127829

> <PUBCHEM_CONFORMER_RMSD>
1

> <PUBCHEM_CONFORMER_DIVERSEORDER>
7
11
9
13
1
12
4
6
5
14
8
10
2
3

> <PUBCHEM_MMFF94_PARTIAL_CHARGES>
21
1 -0.68
10 -0.28
11 -0.28
13 0.28
16 0.14
18 0.14
2 -0.68
24 0.28
25 0.28
3 -0.68
32 0.28
33 0.28
4 -0.68
5 -0.68
7 0.14
71 0.4
77 0.4
78 0.4
80 0.4
87 0.4
9 0.14

> <PUBCHEM_EFFECTIVE_ROTOR_COUNT>
7.2

> <PUBCHEM_PHARMACOPHORE_FEATURES>
17
1 1 acceptor
1 1 donor
1 2 acceptor
1 2 donor
1 3 acceptor
1 3 donor
1 30 hydrophobe
1 4 acceptor
1 4 donor
1 5 acceptor
1 5 donor
3 17 28 29 hydrophobe
3 33 34 35 hydrophobe
5 6 7 8 14 15 rings
6 6 7 10 11 13 16 rings
6 9 10 11 12 18 19 rings
6 9 12 17 20 24 25 rings

> <PUBCHEM_HEAVY_ATOM_COUNT>
35

> <PUBCHEM_ATOM_DEF_STEREO_COUNT>
9

> <PUBCHEM_ATOM_UDEF_STEREO_COUNT>
1

> <PUBCHEM_BOND_DEF_STEREO_COUNT>
0

> <PUBCHEM_BOND_UDEF_STEREO_COUNT>
0

> <PUBCHEM_ISOTOPIC_ATOM_COUNT>
0

> <PUBCHEM_COMPONENT_COUNT>
1

> <PUBCHEM_CACTVS_TAUTO_COUNT>
1

> <PUBCHEM_CONFORMER_ID>
0001F35500000007

> <PUBCHEM_MMFF94_ENERGY>
147.0071

> <PUBCHEM_FEATURE_SELFOVERLAP>
86.402

> <PUBCHEM_SHAPE_FINGERPRINT>
10670039 82 17632583721113662640
10906281 52 18334303023943508315
10940486 97 18198337549276102383
11007060 377 18335985375502500890
11181472 205 18189892007648405749
11456790 92 15068609506099839724
11578080 2 18122906430204726389
11991303 11 17418084468548125414
12011746 2 17489580152130683107
12166972 35 17703785959482120353
12236239 1 18260542299305619171
12539765 74 18040718030787224258
12645989 146 14692565546145224001
13782708 43 15267337440056386678
13811026 1 17275101731042767056
14028597 1 8862674494832129004
14117953 113 17917983972169624789
14461889 52 12612750199110815496
14849402 71 17385730226525723261
14856354 85 18410574037140127711
14955137 171 16702016530010898802
15183329 4 17561369470153895570
15198563 99 16845302592263596840
15276724 80 17313375678564643516
15361156 5 18411978096625289879
15461852 350 18272360998034184895
15840311 113 16588024572033982470
16994733 274 17894345566761477100
17686467 74 17604149333129018317
18681886 176 18201992270002271912
19841028 212 11455627456949878100
20105231 36 17418098749568169703
2026 5 14404918951213813148
20511986 3 15574708110129132595
21033648 29 17630579307701177329
21130935 74 15864346905205239963
21150785 3 18408040732031219950
21267235 1 17561082544558010603
21521721 280 16588021303642790402
21682296 61 14764357028689405276
21781051 124 17274544351156072534
21792961 116 17560807606896103382
23522609 53 18115032900468828068
23559900 14 16844995922749459034
23569943 247 14117249312479163062
23576562 1 18265048218484413837
24771293 8 14635158958055065150
3383291 50 15769772459850498494
3418910 222 18114195133339574045
394071 54 16225768510896452790
4058900 60 18339647732934529402
4073 2 18040718035377467683
4093350 32 17022897913752471602
4169191 19 16588029021546196620
437815 12 15913612770372337826
445580 37 18272652329122075513
4616759 239 12829485918710260397
5104073 3 13190883269876919292
5265222 85 18341891947814610902
5758199 1 17022903449701266602
59755656 215 17418093204775446086
6328613 192 17967814946366022732

> <PUBCHEM_SHAPE_MULTIPOLES>
690.94
21.39
2.1
2.05
18.04
0.05
0.09
1.07
-11.87
-1.5
-0.35
1.92
0.58
0.3

> <PUBCHEM_SHAPE_SELFOVERLAP>
1444.319

> <PUBCHEM_SHAPE_VOLUME>
390.2

> <PUBCHEM_COORDINATE_TYPE>
2
5
10

$$$$
