127824
  -OEChem-03292013323D

 31 32  0     0  0  0  0  0  0999 V2000
    5.6606    1.1416    0.2342 O   0  0  0  0  0  0  0  0  0  0  0  0
    4.0082   -2.5940    0.4541 O   0  0  0  0  0  0  0  0  0  0  0  0
   -6.5907    0.8304   -0.2066 O   0  0  0  0  0  0  0  0  0  0  0  0
    5.8329   -1.5372   -0.3944 O   0  0  0  0  0  0  0  0  0  0  0  0
   -6.4942   -1.4380   -0.3155 O   0  0  0  0  0  0  0  0  0  0  0  0
    0.2054    0.4459   -0.5217 N   0  0  0  0  0  0  0  0  0  0  0  0
   -0.3705    0.3324    0.5858 N   0  0  0  0  0  0  0  0  0  0  0  0
    3.7918   -0.3270   -0.0898 C   0  0  0  0  0  0  0  0  0  0  0  0
    1.5872    0.6165   -0.3293 C   0  0  0  0  0  0  0  0  0  0  0  0
    2.4203   -0.4967   -0.2792 C   0  0  0  0  0  0  0  0  0  0  0  0
    4.3233    0.9553    0.0485 C   0  0  0  0  0  0  0  0  0  0  0  0
    2.1116    1.8978   -0.1921 C   0  0  0  0  0  0  0  0  0  0  0  0
   -1.7455    0.1628    0.3947 C   0  0  0  0  0  0  0  0  0  0  0  0
    3.4831    2.0677   -0.0028 C   0  0  0  0  0  0  0  0  0  0  0  0
   -4.4884   -0.1763    0.0153 C   0  0  0  0  0  0  0  0  0  0  0  0
   -2.2773   -1.1193    0.2567 C   0  0  0  0  0  0  0  0  0  0  0  0
   -2.5853    1.2755    0.3433 C   0  0  0  0  0  0  0  0  0  0  0  0
   -3.6488   -1.2888    0.0669 C   0  0  0  0  0  0  0  0  0  0  0  0
   -3.9567    1.1059    0.1535 C   0  0  0  0  0  0  0  0  0  0  0  0
    4.6515   -1.5015   -0.0394 C   0  0  0  0  0  0  0  0  0  0  0  0
   -5.9184   -0.3530   -0.1822 C   0  0  0  0  0  0  0  0  0  0  0  0
    1.9859   -1.4860   -0.4030 H   0  0  0  0  0  0  0  0  0  0  0  0
    1.4643    2.7698   -0.2318 H   0  0  0  0  0  0  0  0  0  0  0  0
    3.8833    3.0726    0.1030 H   0  0  0  0  0  0  0  0  0  0  0  0
   -1.6312   -1.9925    0.2964 H   0  0  0  0  0  0  0  0  0  0  0  0
   -2.1799    2.2783    0.4509 H   0  0  0  0  0  0  0  0  0  0  0  0
   -4.0433   -2.2960   -0.0384 H   0  0  0  0  0  0  0  0  0  0  0  0
   -4.5740    1.9993    0.1199 H   0  0  0  0  0  0  0  0  0  0  0  0
    5.8412    2.0944    0.3087 H   0  0  0  0  0  0  0  0  0  0  0  0
    4.5944   -3.3800    0.4846 H   0  0  0  0  0  0  0  0  0  0  0  0
   -7.5539    0.7003   -0.3397 H   0  0  0  0  0  0  0  0  0  0  0  0
  1 11  1  0  0  0  0
  1 29  1  0  0  0  0
  2 20  1  0  0  0  0
  2 30  1  0  0  0  0
  3 21  1  0  0  0  0
  3 31  1  0  0  0  0
  4 20  2  0  0  0  0
  5 21  2  0  0  0  0
  6  7  2  0  0  0  0
  6  9  1  0  0  0  0
  7 13  1  0  0  0  0
  8 10  1  0  0  0  0
  8 11  2  0  0  0  0
  8 20  1  0  0  0  0
  9 10  2  0  0  0  0
  9 12  1  0  0  0  0
 10 22  1  0  0  0  0
 11 14  1  0  0  0  0
 12 14  2  0  0  0  0
 12 23  1  0  0  0  0
 13 16  2  0  0  0  0
 13 17  1  0  0  0  0
 14 24  1  0  0  0  0
 15 18  2  0  0  0  0
 15 19  1  0  0  0  0
 15 21  1  0  0  0  0
 16 18  1  0  0  0  0
 16 25  1  0  0  0  0
 17 19  2  0  0  0  0
 17 26  1  0  0  0  0
 18 27  1  0  0  0  0
 19 28  1  0  0  0  0
M  END
> <PUBCHEM_COMPOUND_CID>
127824

> <PUBCHEM_CONFORMER_RMSD>
0.6

> <PUBCHEM_CONFORMER_DIVERSEORDER>
1
10
12
8
3
6
11
9
5
7
2
4

> <PUBCHEM_MMFF94_PARTIAL_CHARGES>
31
1 -0.53
10 -0.15
11 0.08
12 -0.15
13 0.18
14 -0.15
15 0.09
16 -0.15
17 -0.15
18 -0.15
19 -0.15
2 -0.65
20 0.63
21 0.63
22 0.15
23 0.15
24 0.15
25 0.15
26 0.15
27 0.15
28 0.15
29 0.45
3 -0.65
30 0.5
31 0.5
4 -0.57
5 -0.57
6 -0.18
7 -0.18
8 0.09
9 0.18

> <PUBCHEM_EFFECTIVE_ROTOR_COUNT>
4

> <PUBCHEM_PHARMACOPHORE_FEATURES>
9
1 1 donor
1 2 acceptor
1 3 acceptor
1 4 acceptor
1 5 acceptor
3 2 4 20 anion
3 3 5 21 anion
6 13 15 16 17 18 19 rings
6 8 9 10 11 12 14 rings

> <PUBCHEM_HEAVY_ATOM_COUNT>
21

> <PUBCHEM_ATOM_DEF_STEREO_COUNT>
0

> <PUBCHEM_ATOM_UDEF_STEREO_COUNT>
0

> <PUBCHEM_BOND_DEF_STEREO_COUNT>
0

> <PUBCHEM_BOND_UDEF_STEREO_COUNT>
0

> <PUBCHEM_ISOTOPIC_ATOM_COUNT>
0

> <PUBCHEM_COMPONENT_COUNT>
1

> <PUBCHEM_CACTVS_TAUTO_COUNT>
6

> <PUBCHEM_CONFORMER_ID>
0001F35000000001

> <PUBCHEM_MMFF94_ENERGY>
63.7206

> <PUBCHEM_FEATURE_SELFOVERLAP>
45.787

> <PUBCHEM_SHAPE_FINGERPRINT>
10595046 47 18341332292391190765
11858739 19 18413108342305377775
12107183 9 17835807399967748392
12166972 35 18341617022510357753
12236239 1 18343584044965127273
12516196 113 18131349730239152201
12616971 3 17632850936751354301
13073987 5 18341895173319180585
13167372 99 18272376326319127513
13167823 11 18413107268553069070
13533116 47 18413107264442614346
13668630 136 17917999364530378902
13911852 28 18121217580803820114
14251764 18 18407758149311649656
14341114 176 18411425015815195852
15183329 4 18335417929287791785
15196674 1 18411420604815152641
17834072 33 18413107272826768502
17844677 252 18411707560186489937
17857418 61 18411980256334131779
1813 80 17022905644519291092
18335252 98 18116441534410386451
19427546 62 18118686758729510804
200 152 18130787871687263857
20028762 73 18272931588133792254
20645477 70 18412547583312934526
21065198 48 18272095976264937808
21267235 1 18411708668303499767
220451 1 18272096036657860071
221357 26 18334293149813993324
2215653 11 18187365428247846119
23402539 116 18342736321890742701
23536379 177 18412263939488333729
23559900 14 18337669818831956625
239999 70 18343026584454963070
29717793 49 18272373057299895268
300161 21 18343298201584780872
3004659 81 18335139774210193626
3421961 26 18338795616466621098
351380 180 18411419527153076629
3545911 37 18410012173417461576
4073 2 18114749355386076250
4214541 1 18411139104338040329
465052 167 18272937098692175998
5104073 3 18342744000553673377
542803 24 16732984240990479301
559249 180 18339359652608820795
59755656 215 17749385940922958251
67856867 119 18269272533231095561
7495541 125 17489303131198588929
960060 61 17894922814982286790
9709674 26 18262244446453274834
9971528 1 18040155136525628444

> <PUBCHEM_SHAPE_MULTIPOLES>
392.86
16.24
2.01
0.66
10.04
0.34
0.01
3.57
-0.99
-2.25
0.08
0.01
0
-0.14

> <PUBCHEM_SHAPE_SELFOVERLAP>
856.08

> <PUBCHEM_SHAPE_VOLUME>
212.8

> <PUBCHEM_COORDINATE_TYPE>
2
5
10

$$$$
