REMARK  Name = 127991
REMARK  6 active torsions:
REMARK  status: ('A' for Active; 'I' for Inactive)
REMARK    1  A    between atoms: C_1  and  C_14
REMARK    2  A    between atoms: C_4  and  O_9
REMARK    3  A    between atoms: C_5  and  O_7
REMARK    4  A    between atoms: O_9  and  S_10
REMARK    5  A    between atoms: C_14  and  C_15
REMARK    6  A    between atoms: C_15  and  N_16
REMARK                            x       y       z     vdW  Elec       q    Type
REMARK                         _______ _______ _______ _____ _____    ______ ____
ROOT
ATOM      1  C   UNL     1       1.321  -0.854  -0.495  0.00  0.00    -0.021 C 
ATOM      2  C   UNL     1       0.217  -0.080  -0.855  0.00  0.00    +0.039 C 
ATOM      3  C   UNL     1       1.137  -2.049   0.200  0.00  0.00    -0.001 C 
ATOM      4  C   UNL     1      -1.069  -0.501  -0.519  0.00  0.00    +0.209 C 
ATOM      5  C   UNL     1      -1.253  -1.696   0.176  0.00  0.00    +0.171 C 
ATOM      6  C   UNL     1      -0.149  -2.470   0.536  0.00  0.00    +0.040 C 
ENDROOT
BRANCH   5   7
ATOM      7  O   UNL     1      -2.505  -2.118   0.508  0.00  0.00    -0.503 OA
ATOM      8  H   UNL     1      -3.251  -1.604   0.270  0.00  0.00    +0.292 HD
ENDBRANCH   5   7
BRANCH   4   9
ATOM      9  O   UNL     1      -2.139   0.263  -0.877  0.00  0.00    -0.319 OA
BRANCH   9  10
ATOM     10  S   UNL     1      -2.671   1.422   0.161  0.00  0.00    +0.282 S 
ATOM     11  O   UNL     1      -4.020   1.999  -0.556  0.00  0.00    -0.105 OA
ATOM     12  O   UNL     1      -3.064   0.794   1.409  0.00  0.00    -0.012 OA
ATOM     13  O   UNL     1      -1.691   2.492   0.165  0.00  0.00    -0.105 OA
ENDBRANCH   9  10
ENDBRANCH   4   9
BRANCH   1  14
ATOM     14  C   UNL     1       2.696  -0.403  -0.854  0.00  0.00    +0.003 C 
BRANCH  14  15
ATOM     15  C   UNL     1       3.320   0.474   0.241  0.00  0.00    -0.077 C 
BRANCH  15  16
ATOM     16  N   UNL     1       4.655   0.930  -0.133  0.00  0.00    +0.383 N 
ATOM     17  C   UNL     1       5.214   1.796   0.895  0.00  0.00    -0.106 C 
ATOM     18  H   UNL     1       4.598   1.446  -1.011  0.00  0.00    -0.085 HD
ATOM     19  H   UNL     1       5.260   0.115  -0.238  0.00  0.00    -0.085 HD
ENDBRANCH  15  16
ENDBRANCH  14  15
ENDBRANCH   1  14
TORSDOF 6
