127992
  -OEChem-03292013323D

 29 29  0     0  0  0  0  0  0999 V2000
   -3.3562   -0.7146   -0.4173 S   0  0  0  0  0  0  0  0  0  0  0  0
   -2.6139    0.3040    0.6379 O   0  0  0  0  0  0  0  0  0  0  0  0
   -1.2826    2.1203   -0.9905 O   0  0  0  0  0  0  0  0  0  0  0  0
   -4.9448   -0.3997   -0.2129 O   0  0  0  0  0  0  0  0  0  0  0  0
   -2.9970   -0.3363   -1.7716 O   0  0  0  0  0  0  0  0  0  0  0  0
   -3.1211   -2.0712    0.0422 O   0  0  0  0  0  0  0  0  0  0  0  0
    5.1095   -0.3456   -0.3062 N   0  0  0  0  0  0  0  0  0  0  0  0
    3.0237    0.5485    0.6855 C   0  0  0  0  0  0  0  0  0  0  0  0
    1.5339    0.4863    0.6706 C   0  0  0  0  0  0  0  0  0  0  0  0
    3.6520   -0.3965   -0.3487 C   0  0  0  0  0  0  0  0  0  0  0  0
    0.8086    1.3400   -0.1605 C   0  0  0  0  0  0  0  0  0  0  0  0
    0.8656   -0.4252    1.4882 C   0  0  0  0  0  0  0  0  0  0  0  0
   -0.5851    1.2822   -0.1741 C   0  0  0  0  0  0  0  0  0  0  0  0
   -1.2533    0.3706    0.6435 C   0  0  0  0  0  0  0  0  0  0  0  0
   -0.5280   -0.4830    1.4747 C   0  0  0  0  0  0  0  0  0  0  0  0
    5.6887   -1.2796   -1.2607 C   0  0  0  0  0  0  0  0  0  0  0  0
    3.3534    1.5792    0.4986 H   0  0  0  0  0  0  0  0  0  0  0  0
    3.3907    0.3015    1.6908 H   0  0  0  0  0  0  0  0  0  0  0  0
    3.3016   -0.1183   -1.3509 H   0  0  0  0  0  0  0  0  0  0  0  0
    3.3082   -1.4212   -0.1566 H   0  0  0  0  0  0  0  0  0  0  0  0
    1.3237    2.0514   -0.8016 H   0  0  0  0  0  0  0  0  0  0  0  0
    1.4192   -1.0968    2.1391 H   0  0  0  0  0  0  0  0  0  0  0  0
   -1.0415   -1.1946    2.1155 H   0  0  0  0  0  0  0  0  0  0  0  0
    5.4320   -0.5788    0.6325 H   0  0  0  0  0  0  0  0  0  0  0  0
    5.3859   -1.0394   -2.2851 H   0  0  0  0  0  0  0  0  0  0  0  0
    5.4052   -2.3130   -1.0360 H   0  0  0  0  0  0  0  0  0  0  0  0
    6.7804   -1.2141   -1.2175 H   0  0  0  0  0  0  0  0  0  0  0  0
   -2.2329    1.9625   -0.8555 H   0  0  0  0  0  0  0  0  0  0  0  0
   -5.2477   -0.3537    0.7243 H   0  0  0  0  0  0  0  0  0  0  0  0
  1  2  1  0  0  0  0
  1  4  1  0  0  0  0
  1  5  2  0  0  0  0
  1  6  2  0  0  0  0
  2 14  1  0  0  0  0
  3 13  1  0  0  0  0
  3 28  1  0  0  0  0
  4 29  1  0  0  0  0
  7 10  1  0  0  0  0
  7 16  1  0  0  0  0
  7 24  1  0  0  0  0
  8  9  1  0  0  0  0
  8 10  1  0  0  0  0
  8 17  1  0  0  0  0
  8 18  1  0  0  0  0
  9 11  2  0  0  0  0
  9 12  1  0  0  0  0
 10 19  1  0  0  0  0
 10 20  1  0  0  0  0
 11 13  1  0  0  0  0
 11 21  1  0  0  0  0
 12 15  2  0  0  0  0
 12 22  1  0  0  0  0
 13 14  2  0  0  0  0
 14 15  1  0  0  0  0
 15 23  1  0  0  0  0
 16 25  1  0  0  0  0
 16 26  1  0  0  0  0
 16 27  1  0  0  0  0
M  END
> <PUBCHEM_COMPOUND_CID>
127992

> <PUBCHEM_CONFORMER_RMSD>
0.6

> <PUBCHEM_CONFORMER_DIVERSEORDER>
3
41
37
35
27
31
28
10
39
11
25
33
32
20
5
26
21
40
22
4
30
12
8
16
34
9
36
38
18
29
24
14
6
17
23
19
7
13
15
2
1

> <PUBCHEM_MMFF94_PARTIAL_CHARGES>
22
1 1.67
10 0.27
11 -0.15
12 -0.15
13 0.08
14 0.08
15 -0.15
16 0.27
2 -0.27
21 0.15
22 0.15
23 0.15
24 0.36
28 0.45
29 0.5
3 -0.53
4 -0.68
5 -0.65
6 -0.65
7 -0.9
8 0.14
9 -0.14

> <PUBCHEM_EFFECTIVE_ROTOR_COUNT>
5

> <PUBCHEM_PHARMACOPHORE_FEATURES>
8
1 3 donor
1 4 acceptor
1 5 acceptor
1 6 acceptor
1 7 cation
1 7 donor
4 1 4 5 6 anion
6 9 11 12 13 14 15 rings

> <PUBCHEM_HEAVY_ATOM_COUNT>
16

> <PUBCHEM_ATOM_DEF_STEREO_COUNT>
0

> <PUBCHEM_ATOM_UDEF_STEREO_COUNT>
0

> <PUBCHEM_BOND_DEF_STEREO_COUNT>
0

> <PUBCHEM_BOND_UDEF_STEREO_COUNT>
0

> <PUBCHEM_ISOTOPIC_ATOM_COUNT>
0

> <PUBCHEM_COMPONENT_COUNT>
1

> <PUBCHEM_CACTVS_TAUTO_COUNT>
9

> <PUBCHEM_CONFORMER_ID>
0001F3F800000003

> <PUBCHEM_MMFF94_ENERGY>
28.0622

> <PUBCHEM_FEATURE_SELFOVERLAP>
40.653

> <PUBCHEM_SHAPE_FINGERPRINT>
10465860 250 15769777952680691770
106641 1 12391217331844360086
11206711 2 17749097868528490116
11769659 78 17418370324428205056
12251169 10 11959726084062075584
124424 183 15913325806205902401
12596602 18 13254788041172174190
12633257 1 14835850659030209511
12670543 26 17894908486470233638
12670546 177 17676491695782459174
13288520 33 18060143128283726262
14123255 352 11097854112121697598
14911166 2 17676489466593971848
15375462 189 15051727556873355142
16945 1 17894622664955218217
18186145 218 17822562914901632001
187816 3 17676209073843459752
193927 3 17489321788726576126
19784866 140 18187079529370359843
19784866 240 17988933274753617270
200 152 18060139830118043304
20112054 13 10375879579671034515
20300324 65 18187650180706570812
20374829 77 18410009936061169410
20645477 56 11674883281665915576
20871999 31 18114184099362231812
21637258 2 17489577952975604286
22182313 1 17389398313464515656
22620623 9 18339626859519818245
22713019 99 18408042926828158234
22926399 37 15719397230700852492
23379529 103 17831868215094827587
23402539 116 18187929439575063388
23402655 69 17385990746530634125
23500284 214 8358258155048354772
23557571 272 18271248222872320820
23559900 14 18059567044394388312
25147074 1 17460303357313005840
26918003 58 16415480424353267338
2838139 119 13551464895576101646
3286 77 17847062198996028144
4259306 186 18201998811638591726
474 4 11241976983814801326
5104073 3 14045169874755219927
57096353 35 17530682091800481474
58807428 26 12319739137933308716
76465 3 16271632490601633167

> <PUBCHEM_SHAPE_MULTIPOLES>
298.79
9.57
1.52
1.34
8.14
0.03
-0.05
5.74
3.6
-0.31
0.42
-0.15
0.06
0.68

> <PUBCHEM_SHAPE_SELFOVERLAP>
597.756

> <PUBCHEM_SHAPE_VOLUME>
177.3

> <PUBCHEM_COORDINATE_TYPE>
2
5
10

$$$$
