REMARK  Name = 127912
REMARK  7 active torsions:
REMARK  status: ('A' for Active; 'I' for Inactive)
REMARK    1  A    between atoms: C_1  and  N_3
REMARK    2  A    between atoms: C_1  and  C_18
REMARK    3  A    between atoms: C_18  and  C_19
REMARK    4  A    between atoms: C_19  and  C_20
REMARK    5  A    between atoms: C_20  and  N_22
REMARK    6  A    between atoms: C_23  and  C_25
REMARK    7  A    between atoms: C_26  and  N_31
REMARK                            x       y       z     vdW  Elec       q    Type
REMARK                         _______ _______ _______ _____ _____    ______ ____
ROOT
ATOM      1  C   UNL     1      -0.486   3.333  -1.540  0.00  0.00    -0.077 C 
ENDROOT
BRANCH   1   3
ATOM      2  S   UNL     1       5.694  -0.405   1.855  0.00  0.00    +0.014 S 
ATOM      3  N   UNL     1       0.357   2.727  -0.510  0.00  0.00    +0.389 N 
ATOM      4  N   UNL     1       2.586   1.218   0.455  0.00  0.00    -0.297 N 
ATOM      5  N   UNL     1       4.489   0.730   1.807  0.00  0.00    -0.194 NA
ATOM      6  C   UNL     1       0.400   1.267  -0.671  0.00  0.00    -0.055 C 
ATOM      7  C   UNL     1       1.716   3.282  -0.562  0.00  0.00    -0.055 C 
ATOM      8  C   UNL     1       1.242   0.626   0.433  0.00  0.00    +0.069 C 
ATOM      9  C   UNL     1       2.603   2.682   0.533  0.00  0.00    +0.069 C 
ATOM     10  C   UNL     1       3.690   0.459   0.773  0.00  0.00    +0.140 A 
ATOM     11  C   UNL     1       4.025  -0.686  -0.029  0.00  0.00    +0.040 A 
ATOM     12  C   UNL     1       5.174  -1.297   0.478  0.00  0.00    +0.050 A 
ATOM     13  C   UNL     1       3.413  -1.248  -1.171  0.00  0.00    +0.003 C 
ATOM     14  C   UNL     1       5.733  -2.443  -0.108  0.00  0.00    +0.008 C 
ATOM     15  C   UNL     1       3.962  -2.390  -1.762  0.00  0.00    +0.000 C 
ATOM     16  C   UNL     1       5.107  -2.978  -1.236  0.00  0.00    +0.001 C 
ATOM     17  H   UNL     1      -0.048   2.942   0.401  0.00  0.00    -0.080 HD
ENDBRANCH   1   3
BRANCH   1  18
ATOM     18  C   UNL     1      -1.930   2.833  -1.464  0.00  0.00    -0.021 C 
BRANCH  18  19
ATOM     19  C   UNL     1      -2.596   3.126  -0.114  0.00  0.00    +0.019 C 
BRANCH  19  20
ATOM     20  C   UNL     1      -4.053   2.671  -0.073  0.00  0.00    +0.090 C 
BRANCH  20  22
ATOM     21  O   UNL     1      -4.051   0.639   1.954  0.00  0.00    -0.270 OA
ATOM     22  N   UNL     1      -4.195   1.256  -0.277  0.00  0.00    -0.301 N 
ATOM     23  C   UNL     1      -4.182   0.342   0.770  0.00  0.00    +0.247 C 
ATOM     24  H   UNL     1      -4.305   0.920  -1.196  0.00  0.00    +0.150 HD
BRANCH  23  25
ATOM     25  C   UNL     1      -4.314  -1.089   0.391  0.00  0.00    +0.066 C 
ATOM     26  C   UNL     1      -3.191  -1.846   0.124  0.00  0.00    +0.046 C 
ATOM     27  C   UNL     1      -5.588  -1.618   0.319  0.00  0.00    +0.006 C 
ATOM     28  C   UNL     1      -3.347  -3.186  -0.229  0.00  0.00    +0.014 C 
ATOM     29  C   UNL     1      -5.744  -2.958  -0.034  0.00  0.00    +0.000 C 
ATOM     30  C   UNL     1      -4.624  -3.743  -0.308  0.00  0.00    +0.001 C 
BRANCH  26  31
ATOM     31  N   UNL     1      -1.889  -1.302   0.198  0.00  0.00    -0.357 N 
ATOM     32  H   UNL     1      -1.764  -0.358   0.446  0.00  0.00    +0.142 HD
ATOM     33  H   UNL     1      -1.107  -1.867   0.002  0.00  0.00    +0.142 HD
ENDBRANCH  26  31
ENDBRANCH  23  25
ENDBRANCH  20  22
ENDBRANCH  19  20
ENDBRANCH  18  19
ENDBRANCH   1  18
TORSDOF 7
