REMARK  Name = 127986
REMARK  15 active torsions:
REMARK  status: ('A' for Active; 'I' for Inactive)
REMARK    1  A    between atoms: C_2  and  O_16
REMARK    2  A    between atoms: C_3  and  O_21
REMARK    3  A    between atoms: C_4  and  C_26
REMARK    4  A    between atoms: C_5  and  N_6
REMARK    5  A    between atoms: C_10  and  C_13
REMARK    6  A    between atoms: O_16  and  C_17
REMARK    7  A    between atoms: C_17  and  C_18
REMARK    8  A    between atoms: C_18  and  C_19
REMARK    9  A    between atoms: O_21  and  C_22
REMARK   10  A    between atoms: C_22  and  C_23
REMARK   11  A    between atoms: C_23  and  C_24
REMARK   12  A    between atoms: C_26  and  O_27
REMARK   13  A    between atoms: O_27  and  C_28
REMARK   14  A    between atoms: C_28  and  C_29
REMARK   15  A    between atoms: C_29  and  C_30
REMARK                            x       y       z     vdW  Elec       q    Type
REMARK                         _______ _______ _______ _____ _____    ______ ____
ROOT
ATOM      1  O   UNL     1      -1.051   0.402   0.972  0.00  0.00    -0.332 OA
ATOM      2  C   UNL     1       0.427   1.671  -0.397  0.00  0.00    +0.176 C 
ATOM      3  C   UNL     1       0.654   0.195  -0.659  0.00  0.00    +0.192 C 
ATOM      4  C   UNL     1      -0.934   1.673   0.291  0.00  0.00    +0.176 C 
ATOM      5  C   UNL     1       0.064  -0.429   0.596  0.00  0.00    +0.240 C 
ENDROOT
BRANCH   5   6
ATOM      6  N   UNL     1      -0.387  -1.808   0.420  0.00  0.00    -0.172 N 
ATOM      7  N   UNL     1       0.351  -2.896   0.687  0.00  0.00    -0.120 NA
ATOM      8  N   UNL     1      -1.538  -3.735  -0.021  0.00  0.00    -0.191 NA
ATOM      9  C   UNL     1      -1.520  -2.369  -0.006  0.00  0.00    +0.250 C 
ATOM     10  C   UNL     1      -0.340  -4.037   0.423  0.00  0.00    +0.104 C 
BRANCH  10  13
ATOM     11  O   UNL     1       1.336  -5.579   1.059  0.00  0.00    -0.259 OA
ATOM     12  N   UNL     1      -0.634  -6.438   0.298  0.00  0.00    -0.317 N 
ATOM     13  C   UNL     1       0.188  -5.347   0.611  0.00  0.00    +0.307 C 
ATOM     14  H   UNL     1      -0.299  -7.356   0.417  0.00  0.00    +0.146 HD
ATOM     15  H   UNL     1      -1.546  -6.286  -0.040  0.00  0.00    +0.146 HD
ENDBRANCH  10  13
ENDBRANCH   5   6
BRANCH   2  16
ATOM     16  O   UNL     1       1.409   2.148   0.523  0.00  0.00    -0.351 OA
BRANCH  16  17
ATOM     17  C   UNL     1       1.537   3.559   0.455  0.00  0.00    +0.142 C 
BRANCH  17  18
ATOM     18  C   UNL     1       2.609   4.003   1.441  0.00  0.00    +0.032 C 
BRANCH  18  19
ATOM     19  C   UNL     1       3.966   3.386   1.114  0.00  0.00    +0.003 C 
ATOM     20  C   UNL     1       5.042   3.867   2.075  0.00  0.00    +0.000 C 
ENDBRANCH  18  19
ENDBRANCH  17  18
ENDBRANCH  16  17
ENDBRANCH   2  16
BRANCH   3  21
ATOM     21  O   UNL     1       2.019  -0.135  -0.821  0.00  0.00    -0.349 OA
BRANCH  21  22
ATOM     22  C   UNL     1       2.488   0.174  -2.130  0.00  0.00    +0.142 C 
BRANCH  22  23
ATOM     23  C   UNL     1       3.953  -0.226  -2.234  0.00  0.00    +0.032 C 
BRANCH  23  24
ATOM     24  C   UNL     1       4.811   0.507  -1.208  0.00  0.00    +0.003 C 
ATOM     25  C   UNL     1       6.266   0.073  -1.287  0.00  0.00    +0.000 C 
ENDBRANCH  23  24
ENDBRANCH  22  23
ENDBRANCH  21  22
ENDBRANCH   3  21
BRANCH   4  26
ATOM     26  C   UNL     1      -2.094   1.803  -0.686  0.00  0.00    +0.174 C 
BRANCH  26  27
ATOM     27  O   UNL     1      -3.307   1.784   0.044  0.00  0.00    -0.351 OA
BRANCH  27  28
ATOM     28  C   UNL     1      -4.438   1.901  -0.811  0.00  0.00    +0.142 C 
BRANCH  28  29
ATOM     29  C   UNL     1      -5.701   1.895   0.039  0.00  0.00    +0.032 C 
BRANCH  29  30
ATOM     30  C   UNL     1      -6.958   2.002  -0.819  0.00  0.00    +0.003 C 
ATOM     31  C   UNL     1      -8.218   1.952   0.030  0.00  0.00    +0.000 C 
ENDBRANCH  29  30
ENDBRANCH  28  29
ENDBRANCH  27  28
ENDBRANCH  26  27
ENDBRANCH   4  26
TORSDOF 15
