REMARK  Name = 127933
REMARK  5 active torsions:
REMARK  status: ('A' for Active; 'I' for Inactive)
REMARK    1  A    between atoms: C_2  and  C_16
REMARK    2  A    between atoms: C_6  and  C_13
REMARK    3  A    between atoms: C_16  and  O_17
REMARK    4  A    between atoms: C_16  and  C_19
REMARK    5  A    between atoms: C_19  and  N_20
REMARK                            x       y       z     vdW  Elec       q    Type
REMARK                         _______ _______ _______ _____ _____    ______ ____
ROOT
ATOM      1  N   UNL     1       2.704  -1.083  -0.114  0.00  0.00    -0.311 N 
ATOM      2  C   UNL     1      -1.226   0.129   0.157  0.00  0.00    +0.002 C 
ATOM      3  C   UNL     1       0.526  -1.540   0.034  0.00  0.00    +0.015 C 
ATOM      4  C   UNL     1       1.459  -0.503  -0.027  0.00  0.00    +0.053 C 
ATOM      5  C   UNL     1      -0.843  -1.217   0.128  0.00  0.00    -0.001 C 
ATOM      6  C   UNL     1       1.090   0.847   0.001  0.00  0.00    +0.066 C 
ATOM      7  C   UNL     1      -0.272   1.143   0.095  0.00  0.00    +0.004 C 
ATOM      8  C   UNL     1       1.255  -2.761  -0.018  0.00  0.00    +0.017 C 
ATOM      9  C   UNL     1       2.591  -2.447  -0.109  0.00  0.00    +0.062 C 
ATOM     10  H   UNL     1       3.554  -0.588  -0.170  0.00  0.00    +0.152 HD
ENDROOT
BRANCH   6  13
ATOM     11  O   UNL     1       3.300   1.712  -0.127  0.00  0.00    -0.270 OA
ATOM     12  N   UNL     1       1.607   3.219  -0.027  0.00  0.00    -0.325 N 
ATOM     13  C   UNL     1       2.077   1.911  -0.063  0.00  0.00    +0.244 C 
ATOM     14  H   UNL     1       2.241   3.971  -0.067  0.00  0.00    +0.145 HD
ATOM     15  H   UNL     1       0.640   3.393   0.040  0.00  0.00    +0.145 HD
ENDBRANCH   6  13
BRANCH   2  16
ATOM     16  C   UNL     1      -2.674   0.479   0.255  0.00  0.00    +0.111 C 
BRANCH  16  17
ATOM     17  O   UNL     1      -3.186  -0.001   1.505  0.00  0.00    -0.382 OA
ATOM     18  H   UNL     1      -2.668   0.377   2.233  0.00  0.00    +0.211 HD
ENDBRANCH  16  17
BRANCH  16  19
ATOM     19  C   UNL     1      -3.498  -0.122  -0.900  0.00  0.00    -0.052 C 
BRANCH  19  20
ATOM     20  N   UNL     1      -4.911   0.232  -0.791  0.00  0.00    +0.382 N 
ATOM     21  H   UNL     1      -5.426  -0.180  -1.569  0.00  0.00    -0.089 HD
ATOM     22  H   UNL     1      -5.010   1.247  -0.818  0.00  0.00    -0.089 HD
ATOM     23  H   UNL     1      -5.284  -0.123   0.090  0.00  0.00    -0.089 HD
ENDBRANCH  19  20
ENDBRANCH  16  19
ENDBRANCH   2  16
TORSDOF 5
