REMARK  Name = 127969
REMARK  6 active torsions:
REMARK  status: ('A' for Active; 'I' for Inactive)
REMARK    1  A    between atoms: N_3  and  C_14
REMARK    2  A    between atoms: C_14  and  C_16
REMARK    3  A    between atoms: C_16  and  C_17
REMARK    4  A    between atoms: C_17  and  C_19
REMARK    5  A    between atoms: C_19  and  O_20
REMARK    6  A    between atoms: O_20  and  C_21
REMARK                            x       y       z     vdW  Elec       q    Type
REMARK                         _______ _______ _______ _____ _____    ______ ____
ROOT
ATOM      1  O   UNL     1       0.640   1.833  -1.028  0.00  0.00    -0.272 OA
ATOM      2  O   UNL     1       1.028  -2.821  -0.585  0.00  0.00    -0.252 OA
ATOM      3  N   UNL     1       0.811  -0.500  -0.816  0.00  0.00    -0.205 N 
ATOM      4  N   UNL     1       2.791  -1.498   0.160  0.00  0.00    -0.228 N 
ATOM      5  N   UNL     1       3.353   1.959   0.227  0.00  0.00    -0.239 NA
ATOM      6  N   UNL     1       4.486   0.145   0.855  0.00  0.00    -0.240 NA
ATOM      7  C   UNL     1       2.563   0.889  -0.081  0.00  0.00    +0.192 C 
ATOM      8  C   UNL     1       3.279  -0.207   0.314  0.00  0.00    +0.136 C 
ATOM      9  C   UNL     1       1.268   0.837  -0.680  0.00  0.00    +0.255 C 
ATOM     10  C   UNL     1       1.514  -1.696  -0.423  0.00  0.00    +0.318 C 
ATOM     11  C   UNL     1       4.500   1.460   0.788  0.00  0.00    +0.203 C 
ATOM     12  C   UNL     1       3.592  -2.635   0.596  0.00  0.00    +0.123 C 
ATOM     13  C   UNL     1       3.062   3.357   0.013  0.00  0.00    +0.092 C 
ENDROOT
BRANCH   3  14
ATOM     14  C   UNL     1      -0.505  -0.684  -1.417  0.00  0.00    +0.167 C 
BRANCH  14  16
ATOM     15  O   UNL     1      -1.344  -1.162   0.783  0.00  0.00    -0.294 OA
ATOM     16  C   UNL     1      -1.558  -0.673  -0.326  0.00  0.00    +0.182 C 
BRANCH  16  17
ATOM     17  C   UNL     1      -2.909  -0.111  -0.724  0.00  0.00    +0.176 C 
BRANCH  17  19
ATOM     18  O   UNL     1      -3.840  -0.496   1.492  0.00  0.00    -0.250 OA
ATOM     19  C   UNL     1      -3.978  -0.104   0.342  0.00  0.00    +0.325 C 
BRANCH  19  20
ATOM     20  O   UNL     1      -5.119   0.434  -0.186  0.00  0.00    -0.448 OA
BRANCH  20  21
ATOM     21  C   UNL     1      -6.229   0.531   0.714  0.00  0.00    +0.209 C 
ATOM     22  C   UNL     1      -7.405   1.141  -0.018  0.00  0.00    +0.051 C 
ENDBRANCH  20  21
ENDBRANCH  19  20
ENDBRANCH  17  19
ENDBRANCH  16  17
ENDBRANCH  14  16
ENDBRANCH   3  14
TORSDOF 6
