127912
  -OEChem-03292013323D

 56 59  0     0  0  0  0  0  0999 V2000
    5.6939   -0.4053    1.8545 S   0  0  0  0  0  0  0  0  0  0  0  0
   -4.0514    0.6390    1.9544 O   0  0  0  0  0  0  0  0  0  0  0  0
    0.3572    2.7265   -0.5099 N   0  0  0  0  0  0  0  0  0  0  0  0
    2.5856    1.2177    0.4546 N   0  0  0  0  0  0  0  0  0  0  0  0
    4.4889    0.7297    1.8071 N   0  0  0  0  0  0  0  0  0  0  0  0
   -4.1946    1.2559   -0.2772 N   0  0  0  0  0  0  0  0  0  0  0  0
   -1.8890   -1.3020    0.1983 N   0  0  0  0  0  0  0  0  0  0  0  0
    0.4004    1.2670   -0.6714 C   0  0  0  0  0  0  0  0  0  0  0  0
    1.7157    3.2819   -0.5618 C   0  0  0  0  0  0  0  0  0  0  0  0
    1.2421    0.6265    0.4330 C   0  0  0  0  0  0  0  0  0  0  0  0
    2.6033    2.6823    0.5330 C   0  0  0  0  0  0  0  0  0  0  0  0
   -0.4858    3.3327   -1.5397 C   0  0  0  0  0  0  0  0  0  0  0  0
   -1.9301    2.8332   -1.4641 C   0  0  0  0  0  0  0  0  0  0  0  0
    3.6903    0.4590    0.7730 C   0  0  0  0  0  0  0  0  0  0  0  0
   -2.5963    3.1259   -0.1140 C   0  0  0  0  0  0  0  0  0  0  0  0
    4.0248   -0.6860   -0.0290 C   0  0  0  0  0  0  0  0  0  0  0  0
   -4.0525    2.6714   -0.0735 C   0  0  0  0  0  0  0  0  0  0  0  0
    5.1736   -1.2971    0.4781 C   0  0  0  0  0  0  0  0  0  0  0  0
    3.4126   -1.2483   -1.1707 C   0  0  0  0  0  0  0  0  0  0  0  0
    5.7331   -2.4432   -0.1080 C   0  0  0  0  0  0  0  0  0  0  0  0
    3.9619   -2.3904   -1.7625 C   0  0  0  0  0  0  0  0  0  0  0  0
    5.1070   -2.9784   -1.2361 C   0  0  0  0  0  0  0  0  0  0  0  0
   -4.1822    0.3417    0.7699 C   0  0  0  0  0  0  0  0  0  0  0  0
   -4.3139   -1.0888    0.3910 C   0  0  0  0  0  0  0  0  0  0  0  0
   -3.1908   -1.8460    0.1241 C   0  0  0  0  0  0  0  0  0  0  0  0
   -5.5882   -1.6179    0.3189 C   0  0  0  0  0  0  0  0  0  0  0  0
   -3.3472   -3.1864   -0.2290 C   0  0  0  0  0  0  0  0  0  0  0  0
   -5.7444   -2.9583   -0.0344 C   0  0  0  0  0  0  0  0  0  0  0  0
   -4.6239   -3.7425   -0.3084 C   0  0  0  0  0  0  0  0  0  0  0  0
   -0.5934    0.8308   -0.5993 H   0  0  0  0  0  0  0  0  0  0  0  0
    0.8083    0.9970   -1.6543 H   0  0  0  0  0  0  0  0  0  0  0  0
    2.1718    3.0951   -1.5435 H   0  0  0  0  0  0  0  0  0  0  0  0
    1.6824    4.3686   -0.4181 H   0  0  0  0  0  0  0  0  0  0  0  0
    1.2592   -0.4596    0.2965 H   0  0  0  0  0  0  0  0  0  0  0  0
    0.7676    0.7997    1.4083 H   0  0  0  0  0  0  0  0  0  0  0  0
    2.2544    2.9982    1.5241 H   0  0  0  0  0  0  0  0  0  0  0  0
    3.6233    3.0651    0.4056 H   0  0  0  0  0  0  0  0  0  0  0  0
   -0.0896    3.1342   -2.5442 H   0  0  0  0  0  0  0  0  0  0  0  0
   -0.4942    4.4226   -1.4104 H   0  0  0  0  0  0  0  0  0  0  0  0
   -2.0062    1.7741   -1.7293 H   0  0  0  0  0  0  0  0  0  0  0  0
   -2.4983    3.3595   -2.2431 H   0  0  0  0  0  0  0  0  0  0  0  0
   -2.0474    2.6259    0.6927 H   0  0  0  0  0  0  0  0  0  0  0  0
   -2.5556    4.2030    0.0874 H   0  0  0  0  0  0  0  0  0  0  0  0
   -4.6300    3.1726   -0.8576 H   0  0  0  0  0  0  0  0  0  0  0  0
   -4.4947    2.9421    0.8916 H   0  0  0  0  0  0  0  0  0  0  0  0
    2.5308   -0.8034   -1.6215 H   0  0  0  0  0  0  0  0  0  0  0  0
   -4.2990    0.9165   -1.2293 H   0  0  0  0  0  0  0  0  0  0  0  0
    6.6270   -2.9056    0.2986 H   0  0  0  0  0  0  0  0  0  0  0  0
    3.4914   -2.8178   -2.6438 H   0  0  0  0  0  0  0  0  0  0  0  0
    5.5222   -3.8649   -1.7082 H   0  0  0  0  0  0  0  0  0  0  0  0
   -6.4653   -1.0135    0.5310 H   0  0  0  0  0  0  0  0  0  0  0  0
   -2.4826   -3.8089   -0.4453 H   0  0  0  0  0  0  0  0  0  0  0  0
   -6.7385   -3.3913   -0.0962 H   0  0  0  0  0  0  0  0  0  0  0  0
   -4.7457   -4.7860   -0.5835 H   0  0  0  0  0  0  0  0  0  0  0  0
   -1.7523   -0.3971    0.6270 H   0  0  0  0  0  0  0  0  0  0  0  0
   -1.0879   -1.8942    0.0224 H   0  0  0  0  0  0  0  0  0  0  0  0
  1  5  1  0  0  0  0
  1 18  1  0  0  0  0
  2 23  2  0  0  0  0
  3  8  1  0  0  0  0
  3  9  1  0  0  0  0
  3 12  1  0  0  0  0
  4 10  1  0  0  0  0
  4 11  1  0  0  0  0
  4 14  1  0  0  0  0
  5 14  2  0  0  0  0
  6 17  1  0  0  0  0
  6 23  1  0  0  0  0
  6 47  1  0  0  0  0
  7 25  1  0  0  0  0
  7 55  1  0  0  0  0
  7 56  1  0  0  0  0
  8 10  1  0  0  0  0
  8 30  1  0  0  0  0
  8 31  1  0  0  0  0
  9 11  1  0  0  0  0
  9 32  1  0  0  0  0
  9 33  1  0  0  0  0
 10 34  1  0  0  0  0
 10 35  1  0  0  0  0
 11 36  1  0  0  0  0
 11 37  1  0  0  0  0
 12 13  1  0  0  0  0
 12 38  1  0  0  0  0
 12 39  1  0  0  0  0
 13 15  1  0  0  0  0
 13 40  1  0  0  0  0
 13 41  1  0  0  0  0
 14 16  1  0  0  0  0
 15 17  1  0  0  0  0
 15 42  1  0  0  0  0
 15 43  1  0  0  0  0
 16 18  1  0  0  0  0
 16 19  2  0  0  0  0
 17 44  1  0  0  0  0
 17 45  1  0  0  0  0
 18 20  2  0  0  0  0
 19 21  1  0  0  0  0
 19 46  1  0  0  0  0
 20 22  1  0  0  0  0
 20 48  1  0  0  0  0
 21 22  2  0  0  0  0
 21 49  1  0  0  0  0
 22 50  1  0  0  0  0
 23 24  1  0  0  0  0
 24 25  1  0  0  0  0
 24 26  2  0  0  0  0
 25 27  2  0  0  0  0
 26 28  1  0  0  0  0
 26 51  1  0  0  0  0
 27 29  1  0  0  0  0
 27 52  1  0  0  0  0
 28 29  2  0  0  0  0
 28 53  1  0  0  0  0
 29 54  1  0  0  0  0
M  END
> <PUBCHEM_COMPOUND_CID>
127912

> <PUBCHEM_CONFORMER_RMSD>
1.2

> <PUBCHEM_CONFORMER_DIVERSEORDER>
1
109
130
36
144
9
101
146
57
18
163
102
47
114
161
33
110
53
46
26
126
96
65
7
154
140
4
131
68
85
137
74
17
61
121
153
80
67
56
168
44
162
23
115
51
123
167
62
95
76
89
160
106
54
129
63
169
49
134
58
100
119
118
117
78
45
127
97
81
72
152
8
139
148
103
73
83
41
136
133
32
151
155
164
125
64
70
40
132
157
24
94
31
108
124
79
165
156
170
93
3
30
138
10
50
82
113
149
35
60
39
141
52
112
150
13
20
27
37
55
158
172
120
69
143
147
2
122
22
48
116
128
29
6
28
75
104
21
14
90
77
16
34
135
105
12
38
107
5
88
171
99
145
87
19
25
142
159
15
166
86
92
42
98
66
43
91
59
84
71
111
11

> <PUBCHEM_MMFF94_PARTIAL_CHARGES>
37
1 0.18
10 0.37
11 0.37
12 0.27
14 0.37
17 0.3
18 0.04
19 -0.15
2 -0.57
20 -0.15
21 -0.15
22 -0.15
23 0.54
24 0.09
25 0.1
26 -0.15
27 -0.15
28 -0.15
29 -0.15
3 -0.81
4 -0.82
46 0.15
47 0.37
48 0.15
49 0.15
5 -0.51
50 0.15
51 0.15
52 0.15
53 0.15
54 0.15
55 0.4
56 0.4
6 -0.73
7 -0.9
8 0.27
9 0.27

> <PUBCHEM_EFFECTIVE_ROTOR_COUNT>
9.2

> <PUBCHEM_PHARMACOPHORE_FEATURES>
10
1 2 acceptor
1 3 cation
1 6 donor
1 7 cation
1 7 donor
3 4 5 14 cation
5 1 5 14 16 18 rings
6 16 18 19 20 21 22 rings
6 24 25 26 27 28 29 rings
6 3 4 8 9 10 11 rings

> <PUBCHEM_HEAVY_ATOM_COUNT>
29

> <PUBCHEM_ATOM_DEF_STEREO_COUNT>
0

> <PUBCHEM_ATOM_UDEF_STEREO_COUNT>
0

> <PUBCHEM_BOND_DEF_STEREO_COUNT>
0

> <PUBCHEM_BOND_UDEF_STEREO_COUNT>
0

> <PUBCHEM_ISOTOPIC_ATOM_COUNT>
0

> <PUBCHEM_COMPONENT_COUNT>
1

> <PUBCHEM_CACTVS_TAUTO_COUNT>
3

> <PUBCHEM_CONFORMER_ID>
0001F3A800000001

> <PUBCHEM_MMFF94_ENERGY>
80.7701

> <PUBCHEM_FEATURE_SELFOVERLAP>
50.804

> <PUBCHEM_SHAPE_FINGERPRINT>
10864689 126 17834115247303818892
10928967 22 18187088303967245505
10940486 97 18115600218330546596
11014199 57 18264492960928377179
11069576 57 17829329438809340029
11285246 1 18115595979513849523
11455722 242 18335424561419391678
11513181 2 18264498449479558173
12107183 9 18341625767643397809
12422481 6 18272103690479563643
12717326 68 18056477481324422783
13402501 40 18197499519588846206
13561361 72 18411134697754400790
1361 87 17913220758526763174
13947930 73 17908696238446815014
14114206 34 16588020191463116309
14117953 113 18336262346182228429
14347332 77 18339643442757799655
14950920 106 17846786199949795497
15361156 5 18260562120822166152
15927050 60 17331110595517160829
17492 89 18338519767427550123
17909252 39 18265903634156851384
18608769 82 18338798893563630134
19301679 30 18265901431418942131
21585480 29 17700394056109714291
22122407 14 16128364944212796057
23379529 103 18338239267245093476
23572383 38 18201716215364218998
25222932 49 18114446908869724722
32027 91 18056197960726915414
3383291 50 18337669708075501201
437795 70 18335712598151445514
437795 96 18270680836017606439
4435113 14 17843976840503724246
508706 21 18338228254922111725
563151 74 16987693810826176520
56633871 153 18338807796946205003
8863177 126 18341895135202395422

> <PUBCHEM_SHAPE_MULTIPOLES>
569.88
15.45
5.32
1.44
1.41
0.72
0.11
-14.36
3.25
-3.97
-2.11
1.54
0.16
1.76

> <PUBCHEM_SHAPE_SELFOVERLAP>
1204.908

> <PUBCHEM_SHAPE_VOLUME>
320.4

> <PUBCHEM_COORDINATE_TYPE>
2
5
10

$$$$
