REMARK  Name = 12797285
REMARK  11 active torsions:
REMARK  status: ('A' for Active; 'I' for Inactive)
REMARK    1  A    between atoms: S_1  and  S_2
REMARK    2  A    between atoms: S_1  and  C_17
REMARK    3  A    between atoms: S_2  and  C_3
REMARK    4  A    between atoms: C_3  and  C_4
REMARK    5  A    between atoms: C_4  and  C_12
REMARK    6  A    between atoms: C_8  and  C_14
REMARK    7  A    between atoms: C_14  and  O_15
REMARK    8  A    between atoms: C_17  and  C_18
REMARK    9  A    between atoms: C_18  and  C_26
REMARK   10  A    between atoms: C_22  and  C_28
REMARK   11  A    between atoms: C_28  and  O_29
REMARK                            x       y       z     vdW  Elec       q    Type
REMARK                         _______ _______ _______ _____ _____    ______ ____
ROOT
ATOM      1  S   UNL     1       1.413  -2.518  -0.689  0.00  0.00    -0.082 S 
ENDROOT
BRANCH   1   2
ATOM      2  S   UNL     1      -0.026  -3.984  -0.665  0.00  0.00    -0.082 S 
BRANCH   2   3
ATOM      3  C   UNL     1      -1.478  -3.055  -0.078  0.00  0.00    +0.078 C 
BRANCH   3   4
ATOM      4  C   UNL     1      -1.835  -1.904  -1.016  0.00  0.00    +0.088 C 
ATOM      5  C   UNL     1      -2.183  -2.423  -2.405  0.00  0.00    +0.011 C 
BRANCH   4  12
ATOM      6  O   UNL     1      -4.171  -1.493  -0.811  0.00  0.00    -0.275 OA
ATOM      7  N   UNL     1      -2.743  -0.055   0.308  0.00  0.00    -0.271 N 
ATOM      8  C   UNL     1      -3.777   0.688   1.017  0.00  0.00    +0.174 C 
ATOM      9  C   UNL     1      -3.029   1.451   2.104  0.00  0.00    +0.033 C 
ATOM     10  C   UNL     1      -1.645   1.668   1.497  0.00  0.00    +0.024 C 
ATOM     11  C   UNL     1      -1.410   0.394   0.700  0.00  0.00    +0.094 C 
ATOM     12  C   UNL     1      -3.031  -1.143  -0.501  0.00  0.00    +0.226 C 
BRANCH   8  14
ATOM     13  O   UNL     1      -3.851   2.102  -0.943  0.00  0.00    -0.248 OA
ATOM     14  C   UNL     1      -4.415   1.613   0.025  0.00  0.00    +0.332 C 
BRANCH  14  15
ATOM     15  O   UNL     1      -5.712   1.841   0.347  0.00  0.00    -0.479 OA
ATOM     16  H   UNL     1      -6.084   1.434   1.105  0.00  0.00    +0.295 HD
ENDBRANCH  14  15
ENDBRANCH   8  14
ENDBRANCH   4  12
ENDBRANCH   3   4
ENDBRANCH   2   3
ENDBRANCH   1   2
BRANCH   1  17
ATOM     17  C   UNL     1       2.098  -2.646   0.980  0.00  0.00    +0.078 C 
BRANCH  17  18
ATOM     18  C   UNL     1       3.217  -1.630   1.214  0.00  0.00    +0.088 C 
ATOM     19  C   UNL     1       3.779  -1.763   2.627  0.00  0.00    +0.011 C 
BRANCH  18  26
ATOM     20  O   UNL     1       1.786   0.196   1.747  0.00  0.00    -0.275 OA
ATOM     21  N   UNL     1       3.352   0.534   0.076  0.00  0.00    -0.271 N 
ATOM     22  C   UNL     1       3.100   1.958  -0.102  0.00  0.00    +0.174 C 
ATOM     23  C   UNL     1       4.291   2.463  -0.908  0.00  0.00    +0.033 C 
ATOM     24  C   UNL     1       4.714   1.242  -1.721  0.00  0.00    +0.024 C 
ATOM     25  C   UNL     1       4.452   0.083  -0.772  0.00  0.00    +0.094 C 
ATOM     26  C   UNL     1       2.713  -0.219   1.049  0.00  0.00    +0.226 C 
BRANCH  22  28
ATOM     27  O   UNL     1       1.397   1.275  -1.677  0.00  0.00    -0.248 OA
ATOM     28  C   UNL     1       1.817   2.087  -0.866  0.00  0.00    +0.332 C 
BRANCH  28  29
ATOM     29  O   UNL     1       1.177   3.236  -0.537  0.00  0.00    -0.479 OA
ATOM     30  H   UNL     1       1.554   3.818   0.095  0.00  0.00    +0.295 HD
ENDBRANCH  28  29
ENDBRANCH  22  28
ENDBRANCH  18  26
ENDBRANCH  17  18
ENDBRANCH   1  17
TORSDOF 11
