REMARK  Name = 127992
REMARK  6 active torsions:
REMARK  status: ('A' for Active; 'I' for Inactive)
REMARK    1  A    between atoms: C_1  and  C_14
REMARK    2  A    between atoms: C_4  and  O_7
REMARK    3  A    between atoms: C_5  and  O_9
REMARK    4  A    between atoms: O_9  and  S_10
REMARK    5  A    between atoms: C_14  and  C_15
REMARK    6  A    between atoms: C_15  and  N_16
REMARK                            x       y       z     vdW  Elec       q    Type
REMARK                         _______ _______ _______ _____ _____    ______ ____
ROOT
ATOM      1  C   UNL     1       1.534   0.486   0.671  0.00  0.00    -0.021 C 
ATOM      2  C   UNL     1       0.809   1.340  -0.161  0.00  0.00    +0.036 C 
ATOM      3  C   UNL     1       0.866  -0.425   1.488  0.00  0.00    -0.001 C 
ATOM      4  C   UNL     1      -0.585   1.282  -0.174  0.00  0.00    +0.170 C 
ATOM      5  C   UNL     1      -1.253   0.371   0.643  0.00  0.00    +0.209 C 
ATOM      6  C   UNL     1      -0.528  -0.483   1.475  0.00  0.00    +0.043 C 
ENDROOT
BRANCH   4   7
ATOM      7  O   UNL     1      -1.283   2.120  -0.991  0.00  0.00    -0.503 OA
ATOM      8  H   UNL     1      -0.826   2.730  -1.537  0.00  0.00    +0.292 HD
ENDBRANCH   4   7
BRANCH   5   9
ATOM      9  O   UNL     1      -2.614   0.304   0.638  0.00  0.00    -0.319 OA
BRANCH   9  10
ATOM     10  S   UNL     1      -3.356  -0.715  -0.417  0.00  0.00    +0.282 S 
ATOM     11  O   UNL     1      -4.945  -0.400  -0.213  0.00  0.00    -0.105 OA
ATOM     12  O   UNL     1      -2.997  -0.336  -1.772  0.00  0.00    -0.105 OA
ATOM     13  O   UNL     1      -3.121  -2.071   0.042  0.00  0.00    -0.012 OA
ENDBRANCH   9  10
ENDBRANCH   5   9
BRANCH   1  14
ATOM     14  C   UNL     1       3.024   0.548   0.685  0.00  0.00    +0.003 C 
BRANCH  14  15
ATOM     15  C   UNL     1       3.652  -0.397  -0.349  0.00  0.00    -0.077 C 
BRANCH  15  16
ATOM     16  N   UNL     1       5.109  -0.346  -0.306  0.00  0.00    +0.383 N 
ATOM     17  C   UNL     1       5.689  -1.280  -1.261  0.00  0.00    -0.106 C 
ATOM     18  H   UNL     1       5.425  -0.589   0.633  0.00  0.00    -0.085 HD
ATOM     19  H   UNL     1       5.410   0.598  -0.549  0.00  0.00    -0.085 HD
ENDBRANCH  15  16
ENDBRANCH  14  15
ENDBRANCH   1  14
TORSDOF 6
