REMARK  Name = 127945
REMARK  5 active torsions:
REMARK  status: ('A' for Active; 'I' for Inactive)
REMARK    1  A    between atoms: C_4  and  O_12
REMARK    2  A    between atoms: C_5  and  N_16
REMARK    3  A    between atoms: C_6  and  O_14
REMARK    4  A    between atoms: N_16  and  N_17
REMARK    5  A    between atoms: N_17  and  C_20
REMARK                            x       y       z     vdW  Elec       q    Type
REMARK                         _______ _______ _______ _____ _____    ______ ____
ROOT
ATOM      1  C   UNL     1      -1.864   0.519   0.060  0.00  0.00    +0.035 A 
ATOM      2  C   UNL     1      -0.497   0.768  -0.210  0.00  0.00    +0.023 A 
ATOM      3  C   UNL     1      -1.424  -1.873   0.018  0.00  0.00    +0.047 A 
ATOM      4  C   UNL     1      -2.312  -0.807   0.171  0.00  0.00    +0.133 A 
ATOM      5  C   UNL     1       0.382  -0.317  -0.361  0.00  0.00    +0.123 A 
ATOM      6  C   UNL     1      -0.080  -1.629  -0.247  0.00  0.00    +0.149 A 
ATOM      7  C   UNL     1      -2.743   1.604   0.210  0.00  0.00    +0.003 C 
ATOM      8  C   UNL     1      -0.049   2.095  -0.322  0.00  0.00    +0.002 C 
ATOM      9  C   UNL     1      -1.916  -3.280   0.141  0.00  0.00    +0.037 C 
ATOM     10  C   UNL     1      -2.280   2.916   0.097  0.00  0.00    +0.000 C 
ATOM     11  C   UNL     1      -0.936   3.160  -0.169  0.00  0.00    +0.000 C 
ENDROOT
BRANCH   4  12
ATOM     12  O   UNL     1      -3.627  -1.078   0.431  0.00  0.00    -0.506 OA
ATOM     13  H   UNL     1      -4.237  -0.375   0.537  0.00  0.00    +0.292 HD
ENDBRANCH   4  12
BRANCH   6  14
ATOM     14  O   UNL     1       0.785  -2.674  -0.395  0.00  0.00    -0.504 OA
ATOM     15  H   UNL     1       0.473  -3.554  -0.318  0.00  0.00    +0.292 HD
ENDBRANCH   6  14
BRANCH   5  16
ATOM     16  N   UNL     1       1.746  -0.109  -0.630  0.00  0.00    -0.121 NA
BRANCH  16  17
ATOM     17  N   UNL     1       2.379  -0.026   0.444  0.00  0.00    -0.073 NA
BRANCH  17  20
ATOM     18  O   UNL     1       4.277   0.277  -0.869  0.00  0.00    -0.250 OA
ATOM     19  N   UNL     1       4.436   0.275   1.404  0.00  0.00    -0.311 N 
ATOM     20  C   UNL     1       3.724   0.180   0.227  0.00  0.00    +0.336 C 
ATOM     21  H   UNL     1       5.409   0.422   1.380  0.00  0.00    +0.147 HD
ATOM     22  H   UNL     1       3.971   0.194   2.268  0.00  0.00    +0.147 HD
ENDBRANCH  17  20
ENDBRANCH  16  17
ENDBRANCH   5  16
TORSDOF 5
