REMARK  Name = 12804717
REMARK  5 active torsions:
REMARK  status: ('A' for Active; 'I' for Inactive)
REMARK    1  A    between atoms: C_4  and  O_18
REMARK    2  A    between atoms: C_8  and  C_22
REMARK    3  A    between atoms: C_14  and  O_20
REMARK    4  A    between atoms: C_22  and  C_24
REMARK    5  A    between atoms: C_24  and  O_25
REMARK                            x       y       z     vdW  Elec       q    Type
REMARK                         _______ _______ _______ _____ _____    ______ ____
ROOT
ATOM      1  O   UNL     1      -2.220   0.622   0.412  0.00  0.00    -0.355 OA
ATOM      2  O   UNL     1       0.573   2.184   0.500  0.00  0.00    -0.289 OA
ATOM      3  O   UNL     1       1.432  -3.043  -0.197  0.00  0.00    -0.291 OA
ATOM      4  C   UNL     1      -0.017  -0.037   1.279  0.00  0.00    +0.175 C 
ATOM      5  C   UNL     1      -0.112  -1.339   0.479  0.00  0.00    +0.098 C 
ATOM      6  C   UNL     1      -1.421   0.528   1.597  0.00  0.00    +0.147 C 
ATOM      7  C   UNL     1      -1.053  -1.187  -0.720  0.00  0.00    +0.041 C 
ATOM      8  C   UNL     1      -2.400  -0.609  -0.290  0.00  0.00    +0.127 C 
ATOM      9  C   UNL     1       0.849   0.989   0.550  0.00  0.00    +0.203 C 
ATOM     10  C   UNL     1       1.235  -1.845  -0.006  0.00  0.00    +0.176 C 
ATOM     11  C   UNL     1       2.100   0.503  -0.072  0.00  0.00    +0.074 C 
ATOM     12  C   UNL     1       2.296  -0.859  -0.310  0.00  0.00    +0.041 C 
ATOM     13  C   UNL     1      -2.170  -0.227   2.701  0.00  0.00    +0.035 C 
ATOM     14  C   UNL     1       3.099   1.424  -0.412  0.00  0.00    +0.137 C 
ATOM     15  C   UNL     1       3.498  -1.299  -0.876  0.00  0.00    +0.003 C 
ATOM     16  C   UNL     1       4.294   0.980  -0.978  0.00  0.00    +0.037 C 
ATOM     17  C   UNL     1       4.494  -0.380  -1.207  0.00  0.00    +0.003 C 
ENDROOT
BRANCH   4  18
ATOM     18  O   UNL     1       0.686  -0.291   2.496  0.00  0.00    -0.377 OA
ATOM     19  H   UNL     1       0.196  -0.941   3.023  0.00  0.00    +0.211 HD
ENDBRANCH   4  18
BRANCH  14  20
ATOM     20  O   UNL     1       2.973   2.764  -0.191  0.00  0.00    -0.505 OA
ATOM     21  H   UNL     1       2.187   3.104   0.188  0.00  0.00    +0.292 HD
ENDBRANCH  14  20
BRANCH   8  22
ATOM     22  C   UNL     1      -3.278  -0.321  -1.502  0.00  0.00    +0.139 C 
BRANCH  22  24
ATOM     23  O   UNL     1      -5.199   0.082  -0.056  0.00  0.00    -0.250 OA
ATOM     24  C   UNL     1      -4.601   0.277  -1.104  0.00  0.00    +0.316 C 
BRANCH  24  25
ATOM     25  O   UNL     1      -5.058   1.086  -2.094  0.00  0.00    -0.480 OA
ATOM     26  H   UNL     1      -4.556   1.198  -2.877  0.00  0.00    +0.295 HD
ENDBRANCH  24  25
ENDBRANCH  22  24
ENDBRANCH   8  22
TORSDOF 5
