REMARK  Name = 128082
REMARK  6 active torsions:
REMARK  status: ('A' for Active; 'I' for Inactive)
REMARK    1  A    between atoms: C_2  and  C_7
REMARK    2  A    between atoms: C_2  and  C_24
REMARK    3  A    between atoms: N_6  and  C_13
REMARK    4  A    between atoms: C_14  and  O_18
REMARK    5  A    between atoms: N_23  and  C_30
REMARK    6  A    between atoms: C_31  and  O_35
REMARK                            x       y       z     vdW  Elec       q    Type
REMARK                         _______ _______ _______ _____ _____    ______ ____
ROOT
ATOM      1  O   UNL     1      -0.124   3.962  -0.810  0.00  0.00    -0.287 OA
ATOM      2  C   UNL     1       0.009   2.811  -0.369  0.00  0.00    +0.196 C 
ENDROOT
BRANCH   2   5
ATOM      3  N   UNL     1       3.288  -0.935  -0.281  0.00  0.00    -0.302 N 
ATOM      4  N   UNL     1       5.035   0.380   0.118  0.00  0.00    -0.302 N 
ATOM      5  C   UNL     1       1.335   2.226  -0.235  0.00  0.00    +0.040 C 
ATOM      6  C   UNL     1       2.782   0.338  -0.221  0.00  0.00    +0.060 C 
ATOM      7  C   UNL     1       3.892   1.140   0.029  0.00  0.00    +0.060 C 
ATOM      8  C   UNL     1       1.488   0.841  -0.359  0.00  0.00    +0.019 C 
ATOM      9  C   UNL     1       2.430   3.057   0.016  0.00  0.00    +0.005 C 
ATOM     10  C   UNL     1       3.720   2.529   0.151  0.00  0.00    +0.016 C 
ATOM     11  C   UNL     1       4.637  -0.858  -0.073  0.00  0.00    +0.229 C 
ATOM     12  H   UNL     1       2.772  -1.758  -0.445  0.00  0.00    +0.150 HD
ATOM     13  H   UNL     1       5.953   0.694   0.287  0.00  0.00    +0.150 HD
BRANCH  11  15
ATOM     14  O   UNL     1       7.567  -1.167   0.328  0.00  0.00    -0.226 OA
ATOM     15  N   UNL     1       5.405  -1.994  -0.081  0.00  0.00    -0.240 N 
ATOM     16  C   UNL     1       6.785  -2.084   0.113  0.00  0.00    +0.404 C 
ATOM     17  H   UNL     1       4.931  -2.841  -0.243  0.00  0.00    +0.156 HD
BRANCH  16  18
ATOM     18  O   UNL     1       7.169  -3.397   0.028  0.00  0.00    -0.431 OA
ATOM     19  C   UNL     1       8.566  -3.657   0.207  0.00  0.00    +0.257 C 
ENDBRANCH  16  18
ENDBRANCH  11  15
ENDBRANCH   2   5
BRANCH   2  22
ATOM     20  N   UNL     1      -3.875  -0.189  -1.207  0.00  0.00    -0.302 N 
ATOM     21  N   UNL     1      -4.662  -0.029   0.866  0.00  0.00    -0.302 N 
ATOM     22  C   UNL     1      -1.233   2.072   0.010  0.00  0.00    +0.040 C 
ATOM     23  C   UNL     1      -3.006   0.643  -0.549  0.00  0.00    +0.060 C 
ATOM     24  C   UNL     1      -3.519   0.727   0.743  0.00  0.00    +0.060 C 
ATOM     25  C   UNL     1      -1.851   1.309  -0.960  0.00  0.00    +0.019 C 
ATOM     26  C   UNL     1      -1.690   2.195   1.304  0.00  0.00    +0.005 C 
ATOM     27  C   UNL     1      -2.852   1.518   1.694  0.00  0.00    +0.016 C 
ATOM     28  C   UNL     1      -4.846  -0.564  -0.321  0.00  0.00    +0.229 C 
ATOM     29  H   UNL     1      -3.811  -0.467  -2.149  0.00  0.00    +0.150 HD
ATOM     30  H   UNL     1      -5.220  -0.145   1.668  0.00  0.00    +0.150 HD
BRANCH  28  32
ATOM     31  O   UNL     1      -7.139  -1.631   1.243  0.00  0.00    -0.226 OA
ATOM     32  N   UNL     1      -5.855  -1.405  -0.713  0.00  0.00    -0.240 N 
ATOM     33  C   UNL     1      -6.913  -1.878   0.065  0.00  0.00    +0.404 C 
ATOM     34  H   UNL     1      -5.830  -1.710  -1.649  0.00  0.00    +0.156 HD
BRANCH  33  35
ATOM     35  O   UNL     1      -7.705  -2.696  -0.698  0.00  0.00    -0.431 OA
ATOM     36  C   UNL     1      -8.842  -3.265  -0.038  0.00  0.00    +0.257 C 
ENDBRANCH  33  35
ENDBRANCH  28  32
ENDBRANCH   2  22
TORSDOF 6
