REMARK  Name = 128087
REMARK  6 active torsions:
REMARK  status: ('A' for Active; 'I' for Inactive)
REMARK    1  A    between atoms: C_6  and  O_17
REMARK    2  A    between atoms: C_8  and  C_23
REMARK    3  A    between atoms: C_11  and  O_19
REMARK    4  A    between atoms: C_14  and  C_22
REMARK    5  A    between atoms: C_23  and  O_24
REMARK    6  A    between atoms: O_24  and  C_27
REMARK                            x       y       z     vdW  Elec       q    Type
REMARK                         _______ _______ _______ _____ _____    ______ ____
ROOT
ATOM      1  O   UNL     1      -0.131  -1.898  -1.383  0.00  0.00    -0.236 OA
ATOM      2  N   UNL     1      -1.250  -3.189   1.013  0.00  0.00    +0.388 N 
ATOM      3  N   UNL     1       1.090  -1.771  -0.693  0.00  0.00    -0.239 N 
ATOM      4  C   UNL     1      -1.161  -1.742   0.815  0.00  0.00    -0.024 C 
ATOM      5  C   UNL     1       0.020  -2.540   1.325  0.00  0.00    -0.051 C 
ATOM      6  C   UNL     1      -1.128  -1.197  -0.604  0.00  0.00    +0.196 C 
ATOM      7  C   UNL     1       1.182  -2.745   0.396  0.00  0.00    +0.109 C 
ATOM      8  C   UNL     1      -0.802   0.329  -0.703  0.00  0.00    +0.122 C 
ATOM      9  C   UNL     1       0.669   0.607  -0.414  0.00  0.00    +0.037 C 
ATOM     10  C   UNL     1       1.576  -0.476  -0.413  0.00  0.00    +0.081 C 
ATOM     11  C   UNL     1       1.154   1.902  -0.180  0.00  0.00    +0.131 C 
ATOM     12  C   UNL     1       2.930  -0.249  -0.128  0.00  0.00    +0.022 C 
ATOM     13  C   UNL     1       2.506   2.115   0.093  0.00  0.00    +0.040 C 
ATOM     14  C   UNL     1       3.391   1.042   0.125  0.00  0.00    +0.047 C 
ATOM     15  H   UNL     1      -1.316  -3.805   0.202  0.00  0.00    -0.084 HD
ATOM     16  H   UNL     1      -1.883  -3.795   1.535  0.00  0.00    -0.084 HD
ENDROOT
BRANCH   6  17
ATOM     17  O   UNL     1      -2.409  -1.401  -1.211  0.00  0.00    -0.363 OA
ATOM     18  H   UNL     1      -2.642  -2.342  -1.165  0.00  0.00    +0.213 HD
ENDBRANCH   6  17
BRANCH  11  19
ATOM     19  O   UNL     1       0.357   3.004  -0.245  0.00  0.00    -0.506 OA
ATOM     20  H   UNL     1      -0.558   2.911  -0.425  0.00  0.00    +0.292 HD
ENDBRANCH  11  19
BRANCH  14  22
ATOM     21  O   UNL     1       5.636   0.361   0.437  0.00  0.00    -0.283 OA
ATOM     22  C   UNL     1       4.800   1.268   0.407  0.00  0.00    +0.234 C 
ENDBRANCH  14  22
BRANCH   8  23
ATOM     23  C   UNL     1      -1.805   1.150   0.128  0.00  0.00    +0.219 C 
BRANCH  23  24
ATOM     24  O   UNL     1      -3.108   0.780  -0.271  0.00  0.00    -0.434 OA
BRANCH  24  27
ATOM     25  O   UNL     1      -4.011   2.262   1.242  0.00  0.00    -0.227 OA
ATOM     26  N   UNL     1      -5.359   0.973  -0.103  0.00  0.00    -0.295 N 
ATOM     27  C   UNL     1      -4.146   1.413   0.367  0.00  0.00    +0.398 C 
ATOM     28  H   UNL     1      -5.394   0.287  -0.809  0.00  0.00    +0.148 HD
ATOM     29  H   UNL     1      -6.194   1.342   0.266  0.00  0.00    +0.148 HD
ENDBRANCH  24  27
ENDBRANCH  23  24
ENDBRANCH   8  23
TORSDOF 6
