128051
  -OEChem-03292013323D

 56 59  0     0  0  0  0  0  0999 V2000
   -2.5238   -3.2950    4.1911 S   0  0  0  0  0  0  0  0  0  0  0  0
    6.9609   -1.5787    1.7408 S   0  0  0  0  0  0  0  0  0  0  0  0
   -3.9239    0.4972   -0.4617 O   0  0  0  0  0  0  0  0  0  0  0  0
   -4.3435   -3.8908   -2.1931 O   0  0  0  0  0  0  0  0  0  0  0  0
    0.3703    0.3269    2.4763 O   0  0  0  0  0  0  0  0  0  0  0  0
   -3.6650    4.8663    1.2656 O   0  0  0  0  0  0  0  0  0  0  0  0
    5.1482    0.4028   -2.2577 O   0  0  0  0  0  0  0  0  0  0  0  0
    0.3207   -1.8318    1.6312 N   0  0  0  0  0  0  0  0  0  0  0  0
    5.3603    0.5947    0.0434 N   0  0  0  0  0  0  0  0  0  0  0  0
   -1.0654    0.4647   -0.6577 C   0  0  0  0  0  0  0  0  0  0  0  0
    0.3988    0.4566   -0.7545 C   0  0  0  0  0  0  0  0  0  0  0  0
   -1.9032   -0.6918   -1.0668 C   0  0  0  0  0  0  0  0  0  0  0  0
   -1.7032    1.5669   -0.1769 C   0  0  0  0  0  0  0  0  0  0  0  0
    1.1867    0.0129    0.3008 C   0  0  0  0  0  0  0  0  0  0  0  0
   -3.2908   -0.6146   -0.9475 C   0  0  0  0  0  0  0  0  0  0  0  0
   -3.1712    1.5953   -0.0715 C   0  0  0  0  0  0  0  0  0  0  0  0
    0.9805    0.9076   -1.9339 C   0  0  0  0  0  0  0  0  0  0  0  0
   -1.3494   -1.8776   -1.5772 C   0  0  0  0  0  0  0  0  0  0  0  0
   -0.9745    2.7681    0.2549 C   0  0  0  0  0  0  0  0  0  0  0  0
    2.5758    0.0197    0.1754 C   0  0  0  0  0  0  0  0  0  0  0  0
    3.1673    0.4706   -1.0047 C   0  0  0  0  0  0  0  0  0  0  0  0
    2.3697    0.9146   -2.0593 C   0  0  0  0  0  0  0  0  0  0  0  0
   -4.1125   -1.6821   -1.3229 C   0  0  0  0  0  0  0  0  0  0  0  0
   -3.8162    2.6721    0.4001 C   0  0  0  0  0  0  0  0  0  0  0  0
    0.6074   -0.4659    1.5506 C   0  0  0  0  0  0  0  0  0  0  0  0
   -2.1661   -2.9476   -1.9540 C   0  0  0  0  0  0  0  0  0  0  0  0
   -3.5481   -2.8498   -1.8269 C   0  0  0  0  0  0  0  0  0  0  0  0
   -1.6005    3.8526    0.7280 C   0  0  0  0  0  0  0  0  0  0  0  0
   -3.0767    3.8808    0.8347 C   0  0  0  0  0  0  0  0  0  0  0  0
    4.6157    0.4776   -1.1361 C   0  0  0  0  0  0  0  0  0  0  0  0
   -0.2759   -2.4526    2.7921 C   0  0  0  0  0  0  0  0  0  0  0  0
    6.8044    0.6399    0.0754 C   0  0  0  0  0  0  0  0  0  0  0  0
   -1.7976   -2.4719    2.7410 C   0  0  0  0  0  0  0  0  0  0  0  0
    7.4407   -0.7377    0.2012 C   0  0  0  0  0  0  0  0  0  0  0  0
    0.3732    1.2573   -2.7651 H   0  0  0  0  0  0  0  0  0  0  0  0
   -0.2750   -1.9956   -1.6932 H   0  0  0  0  0  0  0  0  0  0  0  0
    3.1693   -0.3623    1.0020 H   0  0  0  0  0  0  0  0  0  0  0  0
    0.1079    2.8040    0.2002 H   0  0  0  0  0  0  0  0  0  0  0  0
    2.8108    1.2739   -2.9854 H   0  0  0  0  0  0  0  0  0  0  0  0
   -5.1920   -1.6010   -1.2214 H   0  0  0  0  0  0  0  0  0  0  0  0
   -4.8979    2.6960    0.4791 H   0  0  0  0  0  0  0  0  0  0  0  0
   -1.7073   -3.8518   -2.3452 H   0  0  0  0  0  0  0  0  0  0  0  0
   -1.0497    4.7313    1.0433 H   0  0  0  0  0  0  0  0  0  0  0  0
    0.5282   -2.4239    0.8321 H   0  0  0  0  0  0  0  0  0  0  0  0
    0.0712   -1.9211    3.6857 H   0  0  0  0  0  0  0  0  0  0  0  0
    0.1191   -3.4739    2.8333 H   0  0  0  0  0  0  0  0  0  0  0  0
    4.8901    0.7108    0.9344 H   0  0  0  0  0  0  0  0  0  0  0  0
    7.1601    1.1200   -0.8430 H   0  0  0  0  0  0  0  0  0  0  0  0
    7.0939    1.2832    0.9140 H   0  0  0  0  0  0  0  0  0  0  0  0
   -2.1390   -2.9956    1.8417 H   0  0  0  0  0  0  0  0  0  0  0  0
   -2.1907   -1.4509    2.6890 H   0  0  0  0  0  0  0  0  0  0  0  0
   -3.7833   -4.6160   -2.5191 H   0  0  0  0  0  0  0  0  0  0  0  0
    8.5312   -0.6469    0.1858 H   0  0  0  0  0  0  0  0  0  0  0  0
    7.1433   -1.3753   -0.6377 H   0  0  0  0  0  0  0  0  0  0  0  0
   -2.0398   -2.4454    5.1091 H   0  0  0  0  0  0  0  0  0  0  0  0
    7.4799   -0.6712    2.5808 H   0  0  0  0  0  0  0  0  0  0  0  0
  1 33  1  0  0  0  0
  1 55  1  0  0  0  0
  2 34  1  0  0  0  0
  2 56  1  0  0  0  0
  3 15  1  0  0  0  0
  3 16  1  0  0  0  0
  4 27  1  0  0  0  0
  4 52  1  0  0  0  0
  5 25  2  0  0  0  0
  6 29  2  0  0  0  0
  7 30  2  0  0  0  0
  8 25  1  0  0  0  0
  8 31  1  0  0  0  0
  8 44  1  0  0  0  0
  9 30  1  0  0  0  0
  9 32  1  0  0  0  0
  9 47  1  0  0  0  0
 10 11  1  0  0  0  0
 10 12  1  0  0  0  0
 10 13  2  0  0  0  0
 11 14  2  0  0  0  0
 11 17  1  0  0  0  0
 12 15  2  0  0  0  0
 12 18  1  0  0  0  0
 13 16  1  0  0  0  0
 13 19  1  0  0  0  0
 14 20  1  0  0  0  0
 14 25  1  0  0  0  0
 15 23  1  0  0  0  0
 16 24  2  0  0  0  0
 17 22  2  0  0  0  0
 17 35  1  0  0  0  0
 18 26  2  0  0  0  0
 18 36  1  0  0  0  0
 19 28  2  0  0  0  0
 19 38  1  0  0  0  0
 20 21  2  0  0  0  0
 20 37  1  0  0  0  0
 21 22  1  0  0  0  0
 21 30  1  0  0  0  0
 22 39  1  0  0  0  0
 23 27  2  0  0  0  0
 23 40  1  0  0  0  0
 24 29  1  0  0  0  0
 24 41  1  0  0  0  0
 26 27  1  0  0  0  0
 26 42  1  0  0  0  0
 28 29  1  0  0  0  0
 28 43  1  0  0  0  0
 31 33  1  0  0  0  0
 31 45  1  0  0  0  0
 31 46  1  0  0  0  0
 32 34  1  0  0  0  0
 32 48  1  0  0  0  0
 32 49  1  0  0  0  0
 33 50  1  0  0  0  0
 33 51  1  0  0  0  0
 34 53  1  0  0  0  0
 34 54  1  0  0  0  0
M  END
> <PUBCHEM_COMPOUND_CID>
128051

> <PUBCHEM_CONFORMER_RMSD>
1

> <PUBCHEM_CONFORMER_DIVERSEORDER>
1
24
27
5
16
6
25
3
31
19
14
10
22
20
30
4
29
11
15
13
2
28
9
26
23
21
7
8
18
12
17

> <PUBCHEM_MMFF94_PARTIAL_CHARGES>
47
1 -0.41
10 -0.06
11 0.03
12 0.03
14 0.09
15 0.08
16 0.08
17 -0.15
18 -0.15
19 -0.15
2 -0.41
20 -0.15
21 0.09
22 -0.15
23 -0.15
24 -0.14
25 0.54
26 -0.15
27 0.08
28 -0.14
29 0.54
3 -0.16
30 0.54
31 0.3
32 0.3
33 0.23
34 0.23
35 0.15
36 0.15
37 0.15
38 0.15
39 0.15
4 -0.53
40 0.15
41 0.15
42 0.15
43 0.15
44 0.37
47 0.37
5 -0.57
52 0.45
55 0.18
56 0.18
6 -0.57
7 -0.57
8 -0.73
9 -0.73

> <PUBCHEM_EFFECTIVE_ROTOR_COUNT>
9

> <PUBCHEM_PHARMACOPHORE_FEATURES>
11
1 3 acceptor
1 4 donor
1 5 acceptor
1 6 acceptor
1 7 acceptor
1 8 donor
1 9 donor
6 11 14 17 20 21 22 rings
6 12 15 18 23 26 27 rings
6 13 16 19 24 28 29 rings
6 3 10 12 13 15 16 rings

> <PUBCHEM_HEAVY_ATOM_COUNT>
34

> <PUBCHEM_ATOM_DEF_STEREO_COUNT>
0

> <PUBCHEM_ATOM_UDEF_STEREO_COUNT>
0

> <PUBCHEM_BOND_DEF_STEREO_COUNT>
0

> <PUBCHEM_BOND_UDEF_STEREO_COUNT>
0

> <PUBCHEM_ISOTOPIC_ATOM_COUNT>
0

> <PUBCHEM_COMPONENT_COUNT>
1

> <PUBCHEM_CACTVS_TAUTO_COUNT>
12

> <PUBCHEM_CONFORMER_ID>
0001F43300000001

> <PUBCHEM_MMFF94_ENERGY>
100.7081

> <PUBCHEM_FEATURE_SELFOVERLAP>
55.879

> <PUBCHEM_SHAPE_FINGERPRINT>
10319926 262 18060123324959761736
10411042 1 17984694778331392455
11443803 9 18268987588617012329
11445158 3 15648493032839692204
12741549 16 16415475004394814259
12788726 201 18410568492568949979
131258 38 15947430706567956235
13782708 43 17059482080096997798
14415360 78 9704682783774114513
14844126 61 18342737442312678599
15361156 5 18262813865666583526
19319366 153 17972035842993815737
20775438 99 16610518733077040767
21033650 10 18268733678761201380
21639891 77 17704064118828331248
23419403 2 17178007397798566451
23522609 53 18189074044655954708
23559900 14 17697300074124816447
3504750 166 18194103154679233414
3610482 184 18189074070055986484
469060 322 17986692547487330375
563151 248 18265899055858506570
59755656 520 17605014562522250124
6700243 42 17487085454974606508
77296 10 18059289860849693542
9896288 288 18340492153948924145
9981440 41 18199197204170476981

> <PUBCHEM_SHAPE_MULTIPOLES>
668.09
12.42
4.83
3.14
30.88
1.28
1.48
-1.61
-1.05
-8.74
3.39
-2.57
-3.7
-3.61

> <PUBCHEM_SHAPE_SELFOVERLAP>
1436.633

> <PUBCHEM_SHAPE_VOLUME>
372.6

> <PUBCHEM_COORDINATE_TYPE>
2
5
10

$$$$
