REMARK  Name = 128069
REMARK  5 active torsions:
REMARK  status: ('A' for Active; 'I' for Inactive)
REMARK    1  A    between atoms: N_5  and  N_22
REMARK    2  A    between atoms: C_23  and  C_25
REMARK    3  A    between atoms: C_25  and  C_26
REMARK    4  A    between atoms: C_26  and  S_27
REMARK    5  A    between atoms: S_27  and  C_30
REMARK                            x       y       z     vdW  Elec       q    Type
REMARK                         _______ _______ _______ _____ _____    ______ ____
ROOT
ATOM      1 CL   UNL     1      -2.859   5.026  -0.726  0.00  0.00    -0.082 Cl
ATOM      2  O   UNL     1      -4.690  -0.354   0.806  0.00  0.00    -0.453 OA
ATOM      3  O   UNL     1      -0.266   0.894  -1.255  0.00  0.00    -0.251 OA
ATOM      4  N   UNL     1      -1.677   0.139   0.464  0.00  0.00    -0.235 N 
ATOM      5  N   UNL     1       0.616  -0.441   0.384  0.00  0.00    -0.218 N 
ATOM      6  C   UNL     1      -2.017  -1.054   1.257  0.00  0.00    +0.129 C 
ATOM      7  C   UNL     1      -2.925  -1.940   0.460  0.00  0.00    +0.033 C 
ATOM      8  C   UNL     1      -2.733   1.111   0.243  0.00  0.00    +0.091 C 
ATOM      9  C   UNL     1      -4.228  -1.505   0.222  0.00  0.00    +0.143 C 
ATOM     10  C   UNL     1      -4.109   0.842   0.428  0.00  0.00    +0.159 C 
ATOM     11  C   UNL     1      -0.429   0.256  -0.209  0.00  0.00    +0.324 C 
ATOM     12  C   UNL     1      -2.493  -3.146  -0.100  0.00  0.00    +0.000 C 
ATOM     13  C   UNL     1      -2.385   2.432  -0.112  0.00  0.00    +0.029 C 
ATOM     14  C   UNL     1      -5.117  -2.278  -0.524  0.00  0.00    +0.037 C 
ATOM     15  C   UNL     1      -5.066   1.860   0.259  0.00  0.00    +0.040 C 
ATOM     16  C   UNL     1      -3.372  -3.915  -0.865  0.00  0.00    -0.000 C 
ATOM     17  C   UNL     1      -3.346   3.431  -0.296  0.00  0.00    +0.059 C 
ATOM     18  C   UNL     1      -4.683  -3.483  -1.073  0.00  0.00    +0.003 C 
ATOM     19  C   UNL     1      -4.689   3.145  -0.112  0.00  0.00    +0.015 C 
ATOM     20  H   UNL     1       0.473  -0.945   1.218  0.00  0.00    +0.174 HD
ENDROOT
BRANCH   5  22
ATOM     21  O   UNL     1       2.967  -0.203   1.811  0.00  0.00    -0.274 OA
ATOM     22  N   UNL     1       1.854  -0.415  -0.213  0.00  0.00    -0.233 N 
ATOM     23  C   UNL     1       2.977  -0.292   0.586  0.00  0.00    +0.240 C 
ATOM     24  H   UNL     1       1.940  -0.482  -1.191  0.00  0.00    +0.173 HD
BRANCH  23  25
ATOM     25  C   UNL     1       4.249  -0.255  -0.243  0.00  0.00    +0.112 C 
BRANCH  25  26
ATOM     26  C   UNL     1       5.512  -0.120   0.590  0.00  0.00    +0.160 C 
BRANCH  26  27
ATOM     27  S   UNL     1       6.964  -0.021  -0.412  0.00  0.00    -0.010 S 
ATOM     28  O   UNL     1       7.132  -1.292  -1.094  0.00  0.00    -0.173 OA
ATOM     29  O   UNL     1       6.911   1.221  -1.164  0.00  0.00    -0.173 OA
BRANCH  27  30
ATOM     30  C   UNL     1       8.275   0.128   0.780  0.00  0.00    +0.151 C 
ATOM     31  C   UNL     1       9.626   0.228   0.108  0.00  0.00    +0.027 C 
ENDBRANCH  27  30
ENDBRANCH  26  27
ENDBRANCH  25  26
ENDBRANCH  23  25
ENDBRANCH   5  22
TORSDOF 5
