REMARK  Name = 128015
REMARK  7 active torsions:
REMARK  status: ('A' for Active; 'I' for Inactive)
REMARK    1  A    between atoms: C_1  and  C_2
REMARK    2  A    between atoms: C_1  and  C_12
REMARK    3  A    between atoms: C_5  and  C_9
REMARK    4  A    between atoms: C_9  and  O_10
REMARK    5  A    between atoms: C_12  and  N_14
REMARK    6  A    between atoms: C_12  and  C_19
REMARK    7  A    between atoms: C_19  and  O_20
REMARK                            x       y       z     vdW  Elec       q    Type
REMARK                         _______ _______ _______ _____ _____    ______ ____
ROOT
ATOM      1  C   UNL     1      -1.498  -0.642  -1.170  0.00  0.00    +0.017 C 
ENDROOT
BRANCH   1   2
ATOM      2  C   UNL     1      -0.116  -0.889  -0.607  0.00  0.00    -0.023 C 
ATOM      3  C   UNL     1       0.808   0.142  -0.604  0.00  0.00    +0.002 C 
ATOM      4  C   UNL     1       0.196  -2.141  -0.106  0.00  0.00    -0.004 C 
ATOM      5  C   UNL     1       2.082  -0.086  -0.085  0.00  0.00    +0.075 C 
ATOM      6  C   UNL     1       1.471  -2.369   0.413  0.00  0.00    -0.000 C 
ATOM      7  C   UNL     1       2.414  -1.342   0.423  0.00  0.00    +0.006 C 
BRANCH   5   9
ATOM      8  O   UNL     1       4.220   0.893   0.359  0.00  0.00    -0.245 OA
ATOM      9  C   UNL     1       3.067   0.985  -0.074  0.00  0.00    +0.338 C 
BRANCH   9  10
ATOM     10  O   UNL     1       2.583   2.141  -0.607  0.00  0.00    -0.477 OA
ATOM     11  H   UNL     1       1.703   2.178  -0.927  0.00  0.00    +0.295 HD
ENDBRANCH   9  10
ENDBRANCH   5   9
ENDBRANCH   1   2
BRANCH   1  12
ATOM     12  C   UNL     1      -2.551  -0.138  -0.155  0.00  0.00    +0.047 C 
ATOM     13  C   UNL     1      -2.843  -1.181   0.935  0.00  0.00    -0.011 C 
BRANCH  12  14
ATOM     14  N   UNL     1      -3.820   0.085  -0.866  0.00  0.00    +0.390 N 
ATOM     15  H   UNL     1      -4.120  -0.785  -1.306  0.00  0.00    -0.088 HD
ATOM     16  H   UNL     1      -3.688   0.800  -1.581  0.00  0.00    -0.088 HD
ATOM     17  H   UNL     1      -4.531   0.393  -0.203  0.00  0.00    -0.088 HD
ENDBRANCH  12  14
BRANCH  12  19
ATOM     18  O   UNL     1      -2.359   2.292  -0.016  0.00  0.00    -0.253 OA
ATOM     19  C   UNL     1      -2.148   1.193   0.485  0.00  0.00    +0.295 C 
BRANCH  19  20
ATOM     20  O   UNL     1      -1.506   1.058   1.675  0.00  0.00    -0.482 OA
ATOM     21  H   UNL     1      -1.359   0.206   2.034  0.00  0.00    +0.295 HD
ENDBRANCH  19  20
ENDBRANCH  12  19
ENDBRANCH   1  12
TORSDOF 7
