REMARK  Name = 12800099
REMARK  4 active torsions:
REMARK  status: ('A' for Active; 'I' for Inactive)
REMARK    1  A    between atoms: N9_1  and  C1*_11
REMARK    2  A    between atoms: C3*_12  and  O3*_15
REMARK    3  A    between atoms: C4*_14  and  C5*_17
REMARK    4  A    between atoms: C5*_17  and  O5*_18
REMARK                            x       y       z     vdW  Elec       q    Type
REMARK                         _______ _______ _______ _____ _____    ______ ____
ROOT
ATOM      1  N9  A   A   1      -0.128  -0.064   0.149  0.00  0.00    -0.249 N 
ATOM      2  N7  A   A   1      -1.581  -1.688   0.636  0.00  0.00    -0.242 NA
ATOM      3  N3  A   A   1      -1.679   1.723  -0.403  0.00  0.00    -0.228 NA
ATOM      4  N1  A   A   1      -3.997   0.988  -0.190  0.00  0.00    -0.229 NA
ATOM      5  C4  A   A   1      -1.375   0.474  -0.021  0.00  0.00    +0.152 C 
ATOM      6  C8  A   A   1      -0.308  -1.366   0.544  0.00  0.00    +0.223 C 
ATOM      7  C5  A   A   1      -2.259  -0.548   0.286  0.00  0.00    +0.140 C 
ATOM      8  C6  A   A   1      -3.616  -0.255   0.191  0.00  0.00    +0.143 C 
ATOM      9  C2  A   A   1      -3.019   1.887  -0.460  0.00  0.00    +0.253 C 
ATOM     10  N6  A   A   1      -4.583  -1.232   0.485  0.00  0.00    -0.342 N 
ATOM     11  H61 A   A   1      -5.541  -1.013   0.415  0.00  0.00    +0.144 HD
ATOM     12  H62 A   A   1      -4.303  -2.134   0.763  0.00  0.00    +0.144 HD
ENDROOT
BRANCH   1  14
ATOM     13  O4* A   A   1       2.128   0.101   0.880  0.00  0.00    -0.335 OA
ATOM     14  C1* A   A   1       1.158   0.610  -0.050  0.00  0.00    +0.197 C 
ATOM     15  C3* A   A   1       2.846  -0.551  -1.278  0.00  0.00    +0.144 C 
ATOM     16  C2* A   A   1       1.726   0.449  -1.458  0.00  0.00    +0.083 C 
ATOM     17  C4* A   A   1       3.297  -0.326   0.157  0.00  0.00    +0.173 C 
BRANCH  15  18
ATOM     18  O3* A   A   1       2.332  -1.873  -1.399  0.00  0.00    -0.382 OA
ATOM     19  H3* A   A   1       2.042  -2.025  -2.312  0.00  0.00    +0.210 HD
ENDBRANCH  15  18
BRANCH  17  20
ATOM     20  C5* A   A   1       4.356   0.763   0.282  0.00  0.00    +0.169 C 
BRANCH  20  21
ATOM     21  O5* A   A   1       4.704   0.909   1.649  0.00  0.00    -0.379 OA
ATOM     22  H5* A   A   1       5.378   1.600   1.739  0.00  0.00    +0.211 HD
ENDBRANCH  20  21
ENDBRANCH  17  20
ENDBRANCH   1  14
TORSDOF 4
