REMARK  Name = 128002
REMARK  14 active torsions:
REMARK  status: ('A' for Active; 'I' for Inactive)
REMARK    1  A    between atoms: C_1  and  O_2
REMARK    2  A    between atoms: C_1  and  C_4
REMARK    3  A    between atoms: C_1  and  C_15
REMARK    4  A    between atoms: C_4  and  O_5
REMARK    5  A    between atoms: C_4  and  C_7
REMARK    6  A    between atoms: C_7  and  O_8
REMARK    7  A    between atoms: C_7  and  C_10
REMARK    8  A    between atoms: C_10  and  O_11
REMARK    9  A    between atoms: C_10  and  C_14
REMARK   10  A    between atoms: C_15  and  N_16
REMARK   11  A    between atoms: N_16  and  C_18
REMARK   12  A    between atoms: N_16  and  C_21
REMARK   13  A    between atoms: C_18  and  C_20
REMARK   14  A    between atoms: C_21  and  C_23
REMARK                            x       y       z     vdW  Elec       q    Type
REMARK                         _______ _______ _______ _____ _____    ______ ____
ROOT
ATOM      1  C   UNL     1      -0.042   0.413   1.071  0.00  0.00    +0.119 C 
ENDROOT
BRANCH   1   2
ATOM      2  O   UNL     1       0.676   0.968   2.179  0.00  0.00    -0.384 OA
ATOM      3  H   UNL     1       0.138   0.895   2.983  0.00  0.00    +0.210 HD
ENDBRANCH   1   2
BRANCH   1   4
ATOM      4  C   UNL     1      -1.389   1.151   0.956  0.00  0.00    +0.165 C 
BRANCH   4   5
ATOM      5  O   UNL     1      -1.115   2.558   0.885  0.00  0.00    -0.380 OA
ATOM      6  H   UNL     1      -0.573   2.820   1.646  0.00  0.00    +0.211 HD
ENDBRANCH   4   5
BRANCH   4   7
ATOM      7  C   UNL     1      -2.249   0.768  -0.263  0.00  0.00    +0.174 C 
BRANCH   7   8
ATOM      8  O   UNL     1      -3.400   1.625  -0.294  0.00  0.00    -0.379 OA
ATOM      9  H   UNL     1      -3.114   2.552  -0.276  0.00  0.00    +0.211 HD
ENDBRANCH   7   8
BRANCH   7  10
ATOM     10  C   UNL     1      -2.747  -0.681  -0.293  0.00  0.00    +0.205 C 
BRANCH  10  11
ATOM     11  O   UNL     1      -3.443  -0.947   0.917  0.00  0.00    -0.375 OA
ATOM     12  H   UNL     1      -2.856  -0.779   1.671  0.00  0.00    +0.211 HD
ENDBRANCH  10  11
BRANCH  10  14
ATOM     13  O   UNL     1      -4.857  -1.270  -1.339  0.00  0.00    -0.286 OA
ATOM     14  C   UNL     1      -3.679  -0.948  -1.458  0.00  0.00    +0.239 C 
ENDBRANCH  10  14
ENDBRANCH   7  10
ENDBRANCH   4   7
ENDBRANCH   1   4
BRANCH   1  15
ATOM     15  C   UNL     1       0.839   0.546  -0.176  0.00  0.00    -0.045 C 
BRANCH  15  16
ATOM     16  N   UNL     1       2.098  -0.175   0.009  0.00  0.00    +0.390 N 
ATOM     17  H   UNL     1       2.439   0.009   0.952  0.00  0.00    -0.080 HD
BRANCH  16  18
ATOM     18  C   UNL     1       3.101   0.294  -0.947  0.00  0.00    -0.059 C 
BRANCH  18  20
ATOM     19 CL   UNL     1       4.899   2.203  -1.643  0.00  0.00    -0.116 Cl
ATOM     20  C   UNL     1       3.691   1.615  -0.475  0.00  0.00    +0.072 C 
ENDBRANCH  18  20
ENDBRANCH  16  18
BRANCH  16  21
ATOM     21  C   UNL     1       1.889  -1.615  -0.137  0.00  0.00    -0.059 C 
BRANCH  21  23
ATOM     22 CL   UNL     1       2.745  -4.130   0.409  0.00  0.00    -0.116 Cl
ATOM     23  C   UNL     1       2.982  -2.376   0.598  0.00  0.00    +0.072 C 
ENDBRANCH  21  23
ENDBRANCH  16  21
ENDBRANCH  15  16
ENDBRANCH   1  15
TORSDOF 14
