REMARK  Name = 128019
REMARK  10 active torsions:
REMARK  status: ('A' for Active; 'I' for Inactive)
REMARK    1  A    between atoms: C_1  and  C_14
REMARK    2  A    between atoms: C_2  and  C_24
REMARK    3  A    between atoms: C_3  and  C_8
REMARK    4  A    between atoms: C_14  and  CA_15
REMARK    5  A    between atoms: CA_15  and  N_16
REMARK    6  A    between atoms: CA_15  and  C_21
REMARK    7  A    between atoms: C_21  and  O_22
REMARK    8  A    between atoms: C_24  and  P_25
REMARK    9  A    between atoms: P_25  and  O_27
REMARK   10  A    between atoms: P_25  and  O_29
REMARK                            x       y       z     vdW  Elec       q    Type
REMARK                         _______ _______ _______ _____ _____    ______ ____
ROOT
ATOM      1  C   UNL     1       1.030   0.927   1.094  0.00  0.00    -0.024 C 
ATOM      2  C   UNL     1       1.069  -1.467   0.964  0.00  0.00    -0.010 C 
ATOM      3  C   UNL     1      -0.998  -0.264   0.621  0.00  0.00    +0.000 C 
ATOM      4  C   UNL     1       1.738  -0.261   1.167  0.00  0.00    -0.008 C 
ATOM      5  C   UNL     1      -0.329   0.943   0.824  0.00  0.00    -0.004 C 
ATOM      6  C   UNL     1      -0.299  -1.469   0.691  0.00  0.00    -0.004 C 
ENDROOT
BRANCH   3   8
ATOM      7 CL   UNL     1      -1.860  -0.112  -2.337  0.00  0.00    -0.082 Cl
ATOM      8  C   UNL     1      -2.417  -0.266   0.339  0.00  0.00    +0.011 C 
ATOM      9  C   UNL     1      -2.911  -0.201  -0.966  0.00  0.00    +0.058 C 
ATOM     10  C   UNL     1      -3.306  -0.337   1.413  0.00  0.00    +0.001 C 
ATOM     11  C   UNL     1      -4.287  -0.207  -1.195  0.00  0.00    +0.011 C 
ATOM     12  C   UNL     1      -4.682  -0.343   1.185  0.00  0.00    +0.000 C 
ATOM     13  C   UNL     1      -5.173  -0.278  -0.119  0.00  0.00    +0.001 C 
ENDBRANCH   3   8
BRANCH   1  14
ATOM     14  C   UNL     1       1.755   2.235   1.314  0.00  0.00    +0.015 C 
BRANCH  14  15
ATOM     15  CA  UNL     1       2.318   2.832   0.015  0.00  0.00    +0.040 C 
BRANCH  15  16
ATOM     16  N   UNL     1       3.378   3.787   0.329  0.00  0.00    +0.389 N 
ATOM     17  H1  UNL     1       4.113   3.318   0.857  0.00  0.00    -0.088 HD
ATOM     18  H2  UNL     1       2.994   4.551   0.885  0.00  0.00    -0.088 HD
ATOM     19  H3  UNL     1       3.766   4.160  -0.538  0.00  0.00    -0.088 HD
ENDBRANCH  15  16
BRANCH  15  21
ATOM     20  OXT UNL     1       1.000   4.781  -0.615  0.00  0.00    -0.253 OA
ATOM     21  C   UNL     1       1.263   3.595  -0.767  0.00  0.00    +0.293 C 
BRANCH  21  22
ATOM     22  O   UNL     1       0.648   2.820  -1.698  0.00  0.00    -0.482 OA
ATOM     23  H   UNL     1       0.879   1.915  -1.781  0.00  0.00    +0.295 HD
ENDBRANCH  21  22
ENDBRANCH  15  21
ENDBRANCH  14  15
ENDBRANCH   1  14
BRANCH   2  24
ATOM     24  C   UNL     1       1.817  -2.756   1.036  0.00  0.00    +0.142 C 
BRANCH  24  25
ATOM     25  P   UNL     1       2.506  -3.292  -0.549  0.00  0.00    +0.341 P 
ATOM     26  O   UNL     1       3.469  -2.322  -1.136  0.00  0.00    -0.258 OA
BRANCH  25  27
ATOM     27  O   UNL     1       1.184  -3.597  -1.413  0.00  0.00    -0.323 OA
ATOM     28  H   UNL     1       1.439  -3.897  -2.300  0.00  0.00    +0.220 HD
ENDBRANCH  25  27
BRANCH  25  29
ATOM     29  O   UNL     1       3.088  -4.750  -0.196  0.00  0.00    -0.323 OA
ATOM     30  H   UNL     1       3.489  -5.139  -0.989  0.00  0.00    +0.220 HD
ENDBRANCH  25  29
ENDBRANCH  24  25
ENDBRANCH   2  24
TORSDOF 10
