REMARK  Name = 128066
REMARK  11 active torsions:
REMARK  status: ('A' for Active; 'I' for Inactive)
REMARK    1  A    between atoms: N_1  and  C_3
REMARK    2  A    between atoms: N_1  and  C_17
REMARK    3  A    between atoms: C_3  and  S_6
REMARK    4  A    between atoms: S_6  and  C_7
REMARK    5  A    between atoms: C_7  and  C_8
REMARK    6  A    between atoms: C_8  and  C_9
REMARK    7  A    between atoms: C_9  and  C_12
REMARK    8  A    between atoms: C_17  and  C_18
REMARK    9  A    between atoms: C_18  and  S_19
REMARK   10  A    between atoms: S_19  and  C_20
REMARK   11  A    between atoms: C_20  and  C_21
REMARK                            x       y       z     vdW  Elec       q    Type
REMARK                         _______ _______ _______ _____ _____    ______ ____
ROOT
ATOM      1  N   UNL     1      -3.969  -1.946  -2.033  0.00  0.00    -0.380 N 
ATOM      2  C   UNL     1      -3.361  -1.820  -0.810  0.00  0.00    +0.146 C 
ATOM      3  H   UNL     1      -4.708  -1.345  -2.280  0.00  0.00    +0.158 HD
ATOM      4  H   UNL     1      -3.666  -2.639  -2.664  0.00  0.00    +0.158 HD
ENDROOT
BRANCH   2   5
ATOM      5  N   UNL     1      -2.389  -2.501  -0.303  0.00  0.00    -0.216 NA
BRANCH   5   6
ATOM      6  C   UNL     1      -1.955  -2.126   1.036  0.00  0.00    +0.126 C 
BRANCH   6   7
ATOM      7  C   UNL     1      -0.835  -3.060   1.466  0.00  0.00    +0.081 C 
BRANCH   7   8
ATOM      8  S   UNL     1       0.565  -2.955   0.316  0.00  0.00    -0.134 S 
BRANCH   8   9
ATOM      9  C   UNL     1       0.977  -1.212   0.560  0.00  0.00    +0.084 C 
BRANCH   9  10
ATOM     10  C   UNL     1       2.381  -0.894   0.124  0.00  0.00    -0.011 C 
ATOM     11  C   UNL     1       2.630  -0.496  -1.189  0.00  0.00    -0.003 C 
ATOM     12  C   UNL     1       3.434  -0.997   1.033  0.00  0.00    -0.003 C 
ATOM     13  C   UNL     1       3.932  -0.201  -1.594  0.00  0.00    -0.000 C 
ATOM     14  C   UNL     1       4.736  -0.702   0.629  0.00  0.00    -0.000 C 
ATOM     15  C   UNL     1       4.984  -0.304  -0.685  0.00  0.00    -0.000 C 
ENDBRANCH   9  10
ENDBRANCH   8   9
ENDBRANCH   7   8
ENDBRANCH   6   7
ENDBRANCH   5   6
ENDBRANCH   2   5
BRANCH   2  16
ATOM     16  S   UNL     1      -4.072  -0.523   0.173  0.00  0.00    -0.081 S 
BRANCH  16  17
ATOM     17  C   UNL     1      -3.058   0.894  -0.305  0.00  0.00    +0.065 C 
BRANCH  17  18
ATOM     18  C   UNL     1      -3.179   2.014   0.728  0.00  0.00    +0.018 C 
BRANCH  18  19
ATOM     19  C   UNL     1      -2.328   3.242   0.377  0.00  0.00    +0.043 C 
BRANCH  19  22
ATOM     20  N   UNL     1      -0.131   3.199  -0.865  0.00  0.00    -0.319 N 
ATOM     21  N   UNL     1       1.295   2.290   0.575  0.00  0.00    -0.315 N 
ATOM     22  C   UNL     1      -0.856   2.932   0.262  0.00  0.00    +0.037 C 
ATOM     23  C   UNL     1       0.045   2.371   1.136  0.00  0.00    +0.069 C 
ATOM     24  C   UNL     1       1.155   2.797  -0.630  0.00  0.00    +0.182 C 
ATOM     25  H   UNL     1      -0.471   3.606  -1.694  0.00  0.00    +0.148 HD
ATOM     26  H   UNL     1       2.115   1.932   0.985  0.00  0.00    +0.148 HD
ENDBRANCH  19  22
ENDBRANCH  18  19
ENDBRANCH  17  18
ENDBRANCH  16  17
ENDBRANCH   2  16
TORSDOF 11
