REMARK  Name = 128055
REMARK  9 active torsions:
REMARK  status: ('A' for Active; 'I' for Inactive)
REMARK    1  A    between atoms: N_1  and  C_4
REMARK    2  A    between atoms: N_1  and  C_18
REMARK    3  A    between atoms: C_4  and  C_9
REMARK    4  A    between atoms: C_10  and  C_12
REMARK    5  A    between atoms: C_12  and  N_14
REMARK    6  A    between atoms: C_18  and  C_20
REMARK    7  A    between atoms: C_18  and  C_23
REMARK    8  A    between atoms: C_20  and  C_22
REMARK    9  A    between atoms: C_23  and  C_24
REMARK                            x       y       z     vdW  Elec       q    Type
REMARK                         _______ _______ _______ _____ _____    ______ ____
ROOT
ATOM      1  N   UNL     1      -0.009  -1.763  -1.190  0.00  0.00    +0.397 N 
ATOM      2  H   UNL     1       0.142  -1.445  -2.148  0.00  0.00    -0.083 HD
ATOM      3  H   UNL     1      -0.436  -2.689  -1.187  0.00  0.00    -0.083 HD
ENDROOT
BRANCH   1   4
ATOM      4  C   UNL     1       1.278  -1.839  -0.503  0.00  0.00    +0.018 C 
ATOM      5  C   UNL     1       1.979  -3.143  -0.864  0.00  0.00    -0.014 C 
BRANCH   4   9
ATOM      6  O   UNL     1       1.963  -0.118  -2.061  0.00  0.00    -0.277 OA
ATOM      7  O   UNL     1       3.896   1.645  -1.060  0.00  0.00    -0.277 OA
ATOM      8  N   UNL     1       2.945  -0.170   0.053  0.00  0.00    -0.259 N 
ATOM      9  C   UNL     1       2.084  -0.626  -0.949  0.00  0.00    +0.208 C 
ATOM     10  C   UNL     1       3.795   0.933  -0.063  0.00  0.00    +0.207 C 
ATOM     11  H   UNL     1       2.953  -0.663   0.905  0.00  0.00    +0.157 HD
BRANCH  10  12
ATOM     12  C   UNL     1       4.618   1.160   1.198  0.00  0.00    +0.013 C 
ATOM     13  C   UNL     1       4.982   2.629   1.381  0.00  0.00    -0.015 C 
BRANCH  12  14
ATOM     14  N   UNL     1       5.824   0.345   1.064  0.00  0.00    +0.387 N 
ATOM     15  H   UNL     1       5.561  -0.633   0.943  0.00  0.00    -0.089 HD
ATOM     16  H   UNL     1       6.395   0.443   1.904  0.00  0.00    -0.089 HD
ATOM     17  H   UNL     1       6.356   0.658   0.253  0.00  0.00    -0.089 HD
ENDBRANCH  12  14
ENDBRANCH  10  12
ENDBRANCH   4   9
ENDBRANCH   1   4
BRANCH   1  18
ATOM     18  C   UNL     1      -0.902  -0.835  -0.514  0.00  0.00    +0.004 C 
BRANCH  18  20
ATOM     19  O   UNL     1      -2.160  -2.614   0.534  0.00  0.00    -0.297 OA
ATOM     20  C   UNL     1      -1.475  -1.600   0.676  0.00  0.00    +0.148 C 
BRANCH  20  22
ATOM     21 CL   UNL     1      -2.491  -1.505   3.127  0.00  0.00    -0.105 Cl
ATOM     22  C   UNL     1      -1.159  -1.071   2.051  0.00  0.00    +0.157 C 
ENDBRANCH  20  22
ENDBRANCH  18  20
BRANCH  18  23
ATOM     23  C   UNL     1      -1.998  -0.360  -1.479  0.00  0.00    +0.012 C 
BRANCH  23  24
ATOM     24  C   UNL     1      -2.967   0.601  -0.832  0.00  0.00    -0.024 C 
ATOM     25  C   UNL     1      -4.111   0.117  -0.197  0.00  0.00    -0.004 C 
ATOM     26  C   UNL     1      -2.717   1.973  -0.868  0.00  0.00    -0.004 C 
ATOM     27  C   UNL     1      -5.005   1.005   0.401  0.00  0.00    -0.000 C 
ATOM     28  C   UNL     1      -3.612   2.861  -0.270  0.00  0.00    -0.000 C 
ATOM     29  C   UNL     1      -4.756   2.377   0.365  0.00  0.00    -0.000 C 
ENDBRANCH  23  24
ENDBRANCH  18  23
ENDBRANCH   1  18
TORSDOF 9
