REMARK  Name = 128077
REMARK  8 active torsions:
REMARK  status: ('A' for Active; 'I' for Inactive)
REMARK    1  A    between atoms: C_11  and  O_26
REMARK    2  A    between atoms: C_22  and  O_24
REMARK    3  A    between atoms: O_26  and  C_32
REMARK    4  A    between atoms: C_28  and  O_33
REMARK    5  A    between atoms: C_29  and  O_35
REMARK    6  A    between atoms: C_30  and  O_37
REMARK    7  A    between atoms: C_31  and  C_39
REMARK    8  A    between atoms: C_39  and  O_40
REMARK                            x       y       z     vdW  Elec       q    Type
REMARK                         _______ _______ _______ _____ _____    ______ ____
ROOT
ATOM      1  O   UNL     1      -3.087  -0.707  -1.818  0.00  0.00    -0.440 OA
ATOM      2  O   UNL     1      -1.254   2.252   0.303  0.00  0.00    -0.454 OA
ATOM      3  O   UNL     1      -4.098  -2.618  -2.645  0.00  0.00    -0.245 OA
ATOM      4  C   UNL     1      -2.503  -0.244  -0.559  0.00  0.00    +0.198 C 
ATOM      5  C   UNL     1      -1.044   0.086  -0.808  0.00  0.00    +0.056 C 
ATOM      6  C   UNL     1      -2.688  -1.442   0.316  0.00  0.00    +0.028 C 
ATOM      7  C   UNL     1      -3.292   0.961  -0.087  0.00  0.00    +0.056 C 
ATOM      8  C   UNL     1      -0.513   1.296  -0.349  0.00  0.00    +0.148 C 
ATOM      9  C   UNL     1      -3.310  -2.451  -0.396  0.00  0.00    +0.076 C 
ATOM     10  C   UNL     1      -2.621   2.117   0.328  0.00  0.00    +0.148 C 
ATOM     11  C   UNL     1       1.676   0.701  -1.191  0.00  0.00    +0.144 C 
ATOM     12  C   UNL     1      -0.186  -0.811  -1.469  0.00  0.00    +0.006 C 
ATOM     13  C   UNL     1       0.840   1.600  -0.534  0.00  0.00    +0.074 C 
ATOM     14  C   UNL     1      -3.567  -1.990  -1.752  0.00  0.00    +0.342 C 
ATOM     15  C   UNL     1      -2.337  -1.638   1.643  0.00  0.00    -0.000 C 
ATOM     16  C   UNL     1       1.162  -0.504  -1.661  0.00  0.00    +0.037 C 
ATOM     17  C   UNL     1      -4.696   0.945  -0.021  0.00  0.00    +0.006 C 
ATOM     18  C   UNL     1      -3.611  -3.681   0.159  0.00  0.00    +0.006 C 
ATOM     19  C   UNL     1      -3.331   3.224   0.805  0.00  0.00    +0.074 C 
ATOM     20  C   UNL     1      -2.628  -2.873   2.231  0.00  0.00    -0.000 C 
ATOM     21  C   UNL     1      -5.405   2.052   0.449  0.00  0.00    +0.037 C 
ATOM     22  C   UNL     1      -4.722   3.191   0.863  0.00  0.00    +0.137 C 
ATOM     23  C   UNL     1      -3.261  -3.887   1.494  0.00  0.00    +0.000 C 
ENDROOT
BRANCH  22  24
ATOM     24  O   UNL     1      -5.410   4.271   1.324  0.00  0.00    -0.505 OA
ATOM     25  H   UNL     1      -4.949   5.037   1.602  0.00  0.00    +0.292 HD
ENDBRANCH  22  24
BRANCH  11  26
ATOM     26  O   UNL     1       2.990   1.000  -1.374  0.00  0.00    -0.450 OA
BRANCH  26  32
ATOM     27  O   UNL     1       3.747   0.037   0.613  0.00  0.00    -0.316 OA
ATOM     28  C   UNL     1       6.416  -0.176  -0.411  0.00  0.00    +0.173 C 
ATOM     29  C   UNL     1       6.105  -0.304   1.080  0.00  0.00    +0.169 C 
ATOM     30  C   UNL     1       5.342   0.642  -1.128  0.00  0.00    +0.210 C 
ATOM     31  C   UNL     1       4.678  -0.832   1.268  0.00  0.00    +0.177 C 
ATOM     32  C   UNL     1       3.946   0.110  -0.798  0.00  0.00    +0.318 C 
BRANCH  28  33
ATOM     33  O   UNL     1       7.683   0.450  -0.596  0.00  0.00    -0.379 OA
ATOM     34  H   UNL     1       8.368  -0.066  -0.143  0.00  0.00    +0.211 HD
ENDBRANCH  28  33
BRANCH  29  35
ATOM     35  O   UNL     1       6.214   0.976   1.705  0.00  0.00    -0.379 OA
ATOM     36  H   UNL     1       7.115   1.317   1.590  0.00  0.00    +0.211 HD
ENDBRANCH  29  35
BRANCH  30  37
ATOM     37  O   UNL     1       5.541   0.547  -2.538  0.00  0.00    -0.377 OA
ATOM     38  H   UNL     1       6.424   0.881  -2.763  0.00  0.00    +0.211 HD
ENDBRANCH  30  37
BRANCH  31  39
ATOM     39  C   UNL     1       4.277  -0.907   2.737  0.00  0.00    +0.169 C 
BRANCH  39  40
ATOM     40  O   UNL     1       2.948  -1.392   2.818  0.00  0.00    -0.379 OA
ATOM     41  H   UNL     1       2.680  -1.444   3.749  0.00  0.00    +0.211 HD
ENDBRANCH  39  40
ENDBRANCH  31  39
ENDBRANCH  26  32
ENDBRANCH  11  26
TORSDOF 8
