128015
  -OEChem-03292013323D

 29 29  0     1  0  0  0  0  0999 V2000
   -1.5062    1.0585    1.6749 O   0  0  0  0  0  0  0  0  0  0  0  0
   -2.3592    2.2915   -0.0162 O   0  0  0  0  0  0  0  0  0  0  0  0
    2.5833    2.1410   -0.6066 O   0  0  0  0  0  0  0  0  0  0  0  0
    4.2197    0.8931    0.3588 O   0  0  0  0  0  0  0  0  0  0  0  0
   -3.8197    0.0845   -0.8656 N   0  0  0  0  0  0  0  0  0  0  0  0
   -2.5515   -0.1380   -0.1550 C   0  0  2  0  0  0  0  0  0  0  0  0
   -1.4976   -0.6422   -1.1704 C   0  0  0  0  0  0  0  0  0  0  0  0
   -0.1158   -0.8888   -0.6068 C   0  0  0  0  0  0  0  0  0  0  0  0
   -2.8428   -1.1808    0.9355 C   0  0  0  0  0  0  0  0  0  0  0  0
   -2.1476    1.1930    0.4853 C   0  0  0  0  0  0  0  0  0  0  0  0
    0.8080    0.1423   -0.6043 C   0  0  0  0  0  0  0  0  0  0  0  0
    0.1963   -2.1413   -0.1062 C   0  0  0  0  0  0  0  0  0  0  0  0
    2.0824   -0.0860   -0.0853 C   0  0  0  0  0  0  0  0  0  0  0  0
    1.4706   -2.3695    0.4129 C   0  0  0  0  0  0  0  0  0  0  0  0
    2.4137   -1.3420    0.4233 C   0  0  0  0  0  0  0  0  0  0  0  0
    3.0665    0.9849   -0.0744 C   0  0  0  0  0  0  0  0  0  0  0  0
   -1.8502   -1.5666   -1.6503 H   0  0  0  0  0  0  0  0  0  0  0  0
   -1.4049    0.0833   -1.9920 H   0  0  0  0  0  0  0  0  0  0  0  0
   -3.6262   -0.8337    1.6212 H   0  0  0  0  0  0  0  0  0  0  0  0
   -1.9660   -1.3975    1.5546 H   0  0  0  0  0  0  0  0  0  0  0  0
   -3.1793   -2.1299    0.5012 H   0  0  0  0  0  0  0  0  0  0  0  0
   -4.5515    0.3420   -0.2038 H   0  0  0  0  0  0  0  0  0  0  0  0
   -4.1288   -0.7829   -1.3035 H   0  0  0  0  0  0  0  0  0  0  0  0
    0.5199    1.1081   -1.0094 H   0  0  0  0  0  0  0  0  0  0  0  0
   -0.5291   -2.9496   -0.1129 H   0  0  0  0  0  0  0  0  0  0  0  0
    1.7286   -3.3478    0.8081 H   0  0  0  0  0  0  0  0  0  0  0  0
    3.4011   -1.5404    0.8320 H   0  0  0  0  0  0  0  0  0  0  0  0
   -1.2522    1.9270    2.0536 H   0  0  0  0  0  0  0  0  0  0  0  0
    3.2544    2.8564   -0.5951 H   0  0  0  0  0  0  0  0  0  0  0  0
  1 10  1  0  0  0  0
  1 28  1  0  0  0  0
  2 10  2  0  0  0  0
  3 16  1  0  0  0  0
  3 29  1  0  0  0  0
  4 16  2  0  0  0  0
  5  6  1  0  0  0  0
  5 22  1  0  0  0  0
  5 23  1  0  0  0  0
  6  7  1  0  0  0  0
  6  9  1  0  0  0  0
  6 10  1  0  0  0  0
  7  8  1  0  0  0  0
  7 17  1  0  0  0  0
  7 18  1  0  0  0  0
  8 11  2  0  0  0  0
  8 12  1  0  0  0  0
  9 19  1  0  0  0  0
  9 20  1  0  0  0  0
  9 21  1  0  0  0  0
 11 13  1  0  0  0  0
 11 24  1  0  0  0  0
 12 14  2  0  0  0  0
 12 25  1  0  0  0  0
 13 15  2  0  0  0  0
 13 16  1  0  0  0  0
 14 15  1  0  0  0  0
 14 26  1  0  0  0  0
 15 27  1  0  0  0  0
M  END
> <PUBCHEM_COMPOUND_CID>
128015

> <PUBCHEM_CONFORMER_RMSD>
0.6

> <PUBCHEM_CONFORMER_DIVERSEORDER>
1
11
14
12
18
20
16
19
9
4
2
13
17
8
3
15
6
10
7
5

> <PUBCHEM_MMFF94_PARTIAL_CHARGES>
23
1 -0.65
10 0.66
11 -0.15
12 -0.15
13 0.09
14 -0.15
15 -0.15
16 0.63
2 -0.57
22 0.36
23 0.36
24 0.15
25 0.15
26 0.15
27 0.15
28 0.5
29 0.5
3 -0.65
4 -0.57
5 -0.99
6 0.33
7 0.14
8 -0.14

> <PUBCHEM_EFFECTIVE_ROTOR_COUNT>
4

> <PUBCHEM_PHARMACOPHORE_FEATURES>
9
1 1 acceptor
1 2 acceptor
1 3 acceptor
1 4 acceptor
1 5 cation
1 5 donor
3 1 2 10 anion
3 3 4 16 anion
6 8 11 12 13 14 15 rings

> <PUBCHEM_HEAVY_ATOM_COUNT>
16

> <PUBCHEM_ATOM_DEF_STEREO_COUNT>
1

> <PUBCHEM_ATOM_UDEF_STEREO_COUNT>
0

> <PUBCHEM_BOND_DEF_STEREO_COUNT>
0

> <PUBCHEM_BOND_UDEF_STEREO_COUNT>
0

> <PUBCHEM_ISOTOPIC_ATOM_COUNT>
0

> <PUBCHEM_COMPONENT_COUNT>
1

> <PUBCHEM_CACTVS_TAUTO_COUNT>
1

> <PUBCHEM_CONFORMER_ID>
0001F40F00000001

> <PUBCHEM_MMFF94_ENERGY>
39.0018

> <PUBCHEM_FEATURE_SELFOVERLAP>
45.79

> <PUBCHEM_SHAPE_FINGERPRINT>
12162725 195 18340482249406257467
12346645 44 18410852183569346422
12696612 119 18266180530592663078
13618510 140 18410011044020151084
13764800 53 18264776634601088034
14787075 74 17979640353195466991
15309172 13 18259986011088995494
15775835 57 18202005416955271417
16945 1 18411141350373834183
18186145 218 18272101486871222942
192875 21 18265874905009357777
20510252 161 17834398195860656106
21501502 16 18268425737884613481
21524375 3 18343021133634899638
22802520 49 12175623949498697939
22959321 28 18340495555088262011
23402539 116 18129371769155858990
23557571 272 15552446375590298310
305870 269 18409729526257356126
353137 74 18272372000727390817
4175511 71 17548993160559707478
474 4 18335138708726046796
6333272 397 18336266850658389974
7364860 26 18270963427912309694
74978 22 18194125118451037855

> <PUBCHEM_SHAPE_MULTIPOLES>
300.81
5.93
2.31
1.03
0.85
0.04
-0.12
-2.19
-0.29
0.69
-0.21
-0.57
-0.03
-0.36

> <PUBCHEM_SHAPE_SELFOVERLAP>
628.927

> <PUBCHEM_SHAPE_VOLUME>
169.9

> <PUBCHEM_COORDINATE_TYPE>
2
5
10

$$$$
