128019
  -OEChem-03292013323D

 41 42  0     1  0  0  0  0  0999 V2000
   -1.8599   -0.1117   -2.3366 Cl  0  0  0  0  0  0  0  0  0  0  0  0
    2.5063   -3.2919   -0.5495 P   0  0  0  0  0  0  0  0  0  0  0  0
    1.1838   -3.5969   -1.4135 O   0  0  0  0  0  0  0  0  0  0  0  0
    3.0877   -4.7500   -0.1959 O   0  0  0  0  0  0  0  0  0  0  0  0
    3.4689   -2.3222   -1.1359 O   0  0  0  0  0  0  0  0  0  0  0  0
    0.6483    2.8197   -1.6984 O   0  0  0  0  0  0  0  0  0  0  0  0
    1.0003    4.7813   -0.6150 O   0  0  0  0  0  0  0  0  0  0  0  0
    3.3779    3.7873    0.3285 N   0  0  0  0  0  0  0  0  0  0  0  0
    1.0298    0.9275    1.0943 C   0  0  0  0  0  0  0  0  0  0  0  0
    1.7549    2.2352    1.3143 C   0  0  0  0  0  0  0  0  0  0  0  0
    1.0689   -1.4674    0.9637 C   0  0  0  0  0  0  0  0  0  0  0  0
   -0.9977   -0.2637    0.6211 C   0  0  0  0  0  0  0  0  0  0  0  0
    1.7381   -0.2605    1.1669 C   0  0  0  0  0  0  0  0  0  0  0  0
   -0.3286    0.9430    0.8243 C   0  0  0  0  0  0  0  0  0  0  0  0
    2.3178    2.8319    0.0150 C   0  0  1  0  0  0  0  0  0  0  0  0
    1.8165   -2.7560    1.0365 C   0  0  0  0  0  0  0  0  0  0  0  0
   -0.2991   -1.4689    0.6909 C   0  0  0  0  0  0  0  0  0  0  0  0
   -2.4170   -0.2659    0.3389 C   0  0  0  0  0  0  0  0  0  0  0  0
    1.2626    3.5950   -0.7673 C   0  0  0  0  0  0  0  0  0  0  0  0
   -2.9111   -0.2009   -0.9661 C   0  0  0  0  0  0  0  0  0  0  0  0
   -3.3063   -0.3369    1.4135 C   0  0  0  0  0  0  0  0  0  0  0  0
   -4.2872   -0.2071   -1.1948 C   0  0  0  0  0  0  0  0  0  0  0  0
   -4.6823   -0.3430    1.1846 C   0  0  0  0  0  0  0  0  0  0  0  0
   -5.1727   -0.2779   -0.1194 C   0  0  0  0  0  0  0  0  0  0  0  0
    1.0816    2.9477    1.8105 H   0  0  0  0  0  0  0  0  0  0  0  0
    2.5657    2.0524    2.0336 H   0  0  0  0  0  0  0  0  0  0  0  0
    2.8049   -0.2562    1.3746 H   0  0  0  0  0  0  0  0  0  0  0  0
   -0.8684    1.8857    0.7737 H   0  0  0  0  0  0  0  0  0  0  0  0
    2.7494    2.0615   -0.6343 H   0  0  0  0  0  0  0  0  0  0  0  0
    2.6382   -2.6727    1.7581 H   0  0  0  0  0  0  0  0  0  0  0  0
    1.1616   -3.5473    1.4213 H   0  0  0  0  0  0  0  0  0  0  0  0
   -0.8173   -2.4124    0.5319 H   0  0  0  0  0  0  0  0  0  0  0  0
    4.1350    3.3090    0.8161 H   0  0  0  0  0  0  0  0  0  0  0  0
    3.0291    4.4902    0.9800 H   0  0  0  0  0  0  0  0  0  0  0  0
   -2.9442   -0.3886    2.4380 H   0  0  0  0  0  0  0  0  0  0  0  0
   -4.6865   -0.1571   -2.2047 H   0  0  0  0  0  0  0  0  0  0  0  0
   -5.3720   -0.3983    2.0218 H   0  0  0  0  0  0  0  0  0  0  0  0
   -6.2440   -0.2827   -0.2974 H   0  0  0  0  0  0  0  0  0  0  0  0
    1.2774   -3.8875   -2.3456 H   0  0  0  0  0  0  0  0  0  0  0  0
    3.5484   -5.2633   -0.8933 H   0  0  0  0  0  0  0  0  0  0  0  0
   -0.0232    3.3220   -2.2072 H   0  0  0  0  0  0  0  0  0  0  0  0
  1 20  1  0  0  0  0
  2  3  1  0  0  0  0
  2  4  1  0  0  0  0
  2  5  2  0  0  0  0
  2 16  1  0  0  0  0
  3 39  1  0  0  0  0
  4 40  1  0  0  0  0
  6 19  1  0  0  0  0
  6 41  1  0  0  0  0
  7 19  2  0  0  0  0
  8 15  1  0  0  0  0
  8 33  1  0  0  0  0
  8 34  1  0  0  0  0
  9 10  1  0  0  0  0
  9 13  2  0  0  0  0
  9 14  1  0  0  0  0
 10 15  1  0  0  0  0
 10 25  1  0  0  0  0
 10 26  1  0  0  0  0
 11 13  1  0  0  0  0
 11 16  1  0  0  0  0
 11 17  2  0  0  0  0
 12 14  2  0  0  0  0
 12 17  1  0  0  0  0
 12 18  1  0  0  0  0
 13 27  1  0  0  0  0
 14 28  1  0  0  0  0
 15 19  1  0  0  0  0
 15 29  1  0  0  0  0
 16 30  1  0  0  0  0
 16 31  1  0  0  0  0
 17 32  1  0  0  0  0
 18 20  1  0  0  0  0
 18 21  2  0  0  0  0
 20 22  2  0  0  0  0
 21 23  1  0  0  0  0
 21 35  1  0  0  0  0
 22 24  1  0  0  0  0
 22 36  1  0  0  0  0
 23 24  2  0  0  0  0
 23 37  1  0  0  0  0
 24 38  1  0  0  0  0
M  END
> <PUBCHEM_COMPOUND_CID>
128019

> <PUBCHEM_CONFORMER_RMSD>
0.8

> <PUBCHEM_CONFORMER_DIVERSEORDER>
1
90
62
111
61
53
101
25
94
81
46
26
64
72
106
88
69
100
93
63
86
84
70
87
92
73
89
45
35
52
83
37
85
59
36
44
91
57
96
27
95
99
48
82
78
110
74
58
41
40
77
49
31
80
66
11
43
79
54
107
9
15
34
32
75
67
39
109
30
8
42
17
104
60
98
28
33
103
97
68
51
105
24
76
14
108
65
20
50
23
7
102
56
55
29
22
71
38
16
13
12
21
47
18
2
19
6
5
10
3
4

> <PUBCHEM_MMFF94_PARTIAL_CHARGES>
34
1 -0.18
10 0.14
11 -0.14
13 -0.15
14 -0.15
15 0.33
16 0.14
17 -0.15
19 0.66
2 1.24
20 0.18
21 -0.15
22 -0.15
23 -0.15
24 -0.15
27 0.15
28 0.15
3 -0.77
32 0.15
33 0.36
34 0.36
35 0.15
36 0.15
37 0.15
38 0.15
39 0.5
4 -0.77
40 0.5
41 0.5
5 -0.7
6 -0.65
7 -0.57
8 -0.99
9 -0.14

> <PUBCHEM_EFFECTIVE_ROTOR_COUNT>
6

> <PUBCHEM_PHARMACOPHORE_FEATURES>
11
1 3 acceptor
1 4 acceptor
1 5 acceptor
1 6 acceptor
1 7 acceptor
1 8 cation
1 8 donor
3 6 7 19 anion
4 2 3 4 5 anion
6 18 20 21 22 23 24 rings
6 9 11 12 13 14 17 rings

> <PUBCHEM_HEAVY_ATOM_COUNT>
24

> <PUBCHEM_ATOM_DEF_STEREO_COUNT>
1

> <PUBCHEM_ATOM_UDEF_STEREO_COUNT>
0

> <PUBCHEM_BOND_DEF_STEREO_COUNT>
0

> <PUBCHEM_BOND_UDEF_STEREO_COUNT>
0

> <PUBCHEM_ISOTOPIC_ATOM_COUNT>
0

> <PUBCHEM_COMPONENT_COUNT>
1

> <PUBCHEM_CACTVS_TAUTO_COUNT>
1

> <PUBCHEM_CONFORMER_ID>
0001F41300000001

> <PUBCHEM_MMFF94_ENERGY>
25.1469

> <PUBCHEM_FEATURE_SELFOVERLAP>
55.916

> <PUBCHEM_SHAPE_FINGERPRINT>
11045515 52 18122350081568598298
12160290 23 17045686163667785931
12173636 292 17690844888170279441
12553582 1 17986105210662577539
12788726 201 17325483307383617867
133893 2 18269294442127648859
13681431 1 18411417267715299763
13690498 29 17264711118011267998
13899415 180 18122608479770683427
13911987 19 18045251360668523230
14251757 5 17544473059662341037
14556957 393 17831049861074618838
15806764 133 18114457852293608461
17539 30 17618218408291267634
1813 80 18129104407368232279
18785283 64 18336271252815499331
21344244 246 18341612685083687454
21524375 3 17683800291047724897
2255824 54 18343299275369179923
22907989 373 17475240098359187758
23557571 272 17617921549237847978
23559900 14 18335420150107994819
23566358 27 18341614858437528023
23598288 3 17109903153542495754
26353 1 18196089937155451798
27425 322 17555740155214216033
2748010 2 17908961245911439146
3060560 45 18264481948600380312
38695281 34 18194963169734059584
4353968 344 15959784926841035260
4409770 3 17113540311973201979
458136 41 18267312108736272315
46194498 28 18192124106642128007
474 4 18191861430489682897
5081480 168 18336828568336447773
621550 5 17751660766235697723
6287921 2 18260831557311443037
6786 2 17905062682574641398
7164475 11 17761503487054177542
81228 2 17620179945466769680
84936 31 18338514243919993327

> <PUBCHEM_SHAPE_MULTIPOLES>
465.3
7.19
5.69
1.72
9.38
0.67
0.57
-1.13
0.11
-10.56
1.94
0.61
-0.05
0.64

> <PUBCHEM_SHAPE_SELFOVERLAP>
964.976

> <PUBCHEM_SHAPE_VOLUME>
267.2

> <PUBCHEM_COORDINATE_TYPE>
2
5
10

$$$$
