128082
  -OEChem-03292013323D

 46 49  0     0  0  0  0  0  0999 V2000
   -0.1237    3.9615   -0.8104 O   0  0  0  0  0  0  0  0  0  0  0  0
    7.1688   -3.3965    0.0284 O   0  0  0  0  0  0  0  0  0  0  0  0
   -7.7052   -2.6955   -0.6978 O   0  0  0  0  0  0  0  0  0  0  0  0
    7.5673   -1.1669    0.3280 O   0  0  0  0  0  0  0  0  0  0  0  0
   -7.1388   -1.6313    1.2429 O   0  0  0  0  0  0  0  0  0  0  0  0
    3.2883   -0.9352   -0.2808 N   0  0  0  0  0  0  0  0  0  0  0  0
   -3.8751   -0.1889   -1.2070 N   0  0  0  0  0  0  0  0  0  0  0  0
    5.0355    0.3795    0.1178 N   0  0  0  0  0  0  0  0  0  0  0  0
   -4.6616   -0.0293    0.8656 N   0  0  0  0  0  0  0  0  0  0  0  0
    5.4053   -1.9937   -0.0814 N   0  0  0  0  0  0  0  0  0  0  0  0
   -5.8546   -1.4050   -0.7129 N   0  0  0  0  0  0  0  0  0  0  0  0
    1.3351    2.2262   -0.2348 C   0  0  0  0  0  0  0  0  0  0  0  0
   -1.2326    2.0724    0.0097 C   0  0  0  0  0  0  0  0  0  0  0  0
    2.7823    0.3380   -0.2206 C   0  0  0  0  0  0  0  0  0  0  0  0
   -3.0061    0.6431   -0.5488 C   0  0  0  0  0  0  0  0  0  0  0  0
    3.8923    1.1400    0.0291 C   0  0  0  0  0  0  0  0  0  0  0  0
   -3.5187    0.7269    0.7428 C   0  0  0  0  0  0  0  0  0  0  0  0
    0.0095    2.8107   -0.3690 C   0  0  0  0  0  0  0  0  0  0  0  0
    1.4884    0.8414   -0.3590 C   0  0  0  0  0  0  0  0  0  0  0  0
   -1.8510    1.3091   -0.9599 C   0  0  0  0  0  0  0  0  0  0  0  0
    2.4298    3.0569    0.0156 C   0  0  0  0  0  0  0  0  0  0  0  0
   -1.6903    2.1954    1.3038 C   0  0  0  0  0  0  0  0  0  0  0  0
    3.7200    2.5293    0.1509 C   0  0  0  0  0  0  0  0  0  0  0  0
   -2.8521    1.5176    1.6941 C   0  0  0  0  0  0  0  0  0  0  0  0
    4.6373   -0.8584   -0.0727 C   0  0  0  0  0  0  0  0  0  0  0  0
   -4.8461   -0.5639   -0.3207 C   0  0  0  0  0  0  0  0  0  0  0  0
    6.7846   -2.0840    0.1130 C   0  0  0  0  0  0  0  0  0  0  0  0
   -6.9127   -1.8783    0.0648 C   0  0  0  0  0  0  0  0  0  0  0  0
    8.5661   -3.6566    0.2074 C   0  0  0  0  0  0  0  0  0  0  0  0
   -8.8424   -3.2646   -0.0382 C   0  0  0  0  0  0  0  0  0  0  0  0
    0.6649    0.1670   -0.5594 H   0  0  0  0  0  0  0  0  0  0  0  0
   -1.4778    1.2264   -1.9739 H   0  0  0  0  0  0  0  0  0  0  0  0
    2.3002    4.1325    0.1159 H   0  0  0  0  0  0  0  0  0  0  0  0
   -1.1661    2.8102    2.0306 H   0  0  0  0  0  0  0  0  0  0  0  0
    4.5641    3.1828    0.3467 H   0  0  0  0  0  0  0  0  0  0  0  0
   -3.2247    1.6047    2.7097 H   0  0  0  0  0  0  0  0  0  0  0  0
    2.7585   -1.7799   -0.4493 H   0  0  0  0  0  0  0  0  0  0  0  0
   -3.8094   -0.4746   -2.1748 H   0  0  0  0  0  0  0  0  0  0  0  0
    4.9130   -2.8676   -0.2482 H   0  0  0  0  0  0  0  0  0  0  0  0
   -5.8276   -1.7182   -1.6800 H   0  0  0  0  0  0  0  0  0  0  0  0
    8.8853   -3.3389    1.2045 H   0  0  0  0  0  0  0  0  0  0  0  0
    8.7252   -4.7342    0.1148 H   0  0  0  0  0  0  0  0  0  0  0  0
    9.1478   -3.1477   -0.5670 H   0  0  0  0  0  0  0  0  0  0  0  0
   -9.5137   -2.4733    0.3085 H   0  0  0  0  0  0  0  0  0  0  0  0
   -9.3771   -3.8873   -0.7603 H   0  0  0  0  0  0  0  0  0  0  0  0
   -8.5197   -3.8934    0.7969 H   0  0  0  0  0  0  0  0  0  0  0  0
  1 18  2  0  0  0  0
  2 27  1  0  0  0  0
  2 29  1  0  0  0  0
  3 28  1  0  0  0  0
  3 30  1  0  0  0  0
  4 27  2  0  0  0  0
  5 28  2  0  0  0  0
  6 14  1  0  0  0  0
  6 25  1  0  0  0  0
  6 37  1  0  0  0  0
  7 15  1  0  0  0  0
  7 26  1  0  0  0  0
  7 38  1  0  0  0  0
  8 16  1  0  0  0  0
  8 25  2  0  0  0  0
  9 17  1  0  0  0  0
  9 26  2  0  0  0  0
 10 25  1  0  0  0  0
 10 27  1  0  0  0  0
 10 39  1  0  0  0  0
 11 26  1  0  0  0  0
 11 28  1  0  0  0  0
 11 40  1  0  0  0  0
 12 18  1  0  0  0  0
 12 19  2  0  0  0  0
 12 21  1  0  0  0  0
 13 18  1  0  0  0  0
 13 20  2  0  0  0  0
 13 22  1  0  0  0  0
 14 16  2  0  0  0  0
 14 19  1  0  0  0  0
 15 17  2  0  0  0  0
 15 20  1  0  0  0  0
 16 23  1  0  0  0  0
 17 24  1  0  0  0  0
 19 31  1  0  0  0  0
 20 32  1  0  0  0  0
 21 23  2  0  0  0  0
 21 33  1  0  0  0  0
 22 24  2  0  0  0  0
 22 34  1  0  0  0  0
 23 35  1  0  0  0  0
 24 36  1  0  0  0  0
 29 41  1  0  0  0  0
 29 42  1  0  0  0  0
 29 43  1  0  0  0  0
 30 44  1  0  0  0  0
 30 45  1  0  0  0  0
 30 46  1  0  0  0  0
M  END
> <PUBCHEM_COMPOUND_CID>
128082

> <PUBCHEM_CONFORMER_RMSD>
1

> <PUBCHEM_CONFORMER_DIVERSEORDER>
1
54
42
29
57
17
43
19
5
58
16
55
31
14
9
28
4
40
35
46
15
12
41
32
10
34
53
3
30
47
36
11
25
20
52
48
13
33
26
51
2
18
50
39
37
38
49
27
6
8
7
21
23
24
22
56
45
44

> <PUBCHEM_MMFF94_PARTIAL_CHARGES>
40
1 -0.57
10 -0.49
11 -0.49
12 0.09
13 0.09
14 -0.15
15 -0.15
16 0.23
17 0.23
18 0.4
19 -0.15
2 -0.43
20 -0.15
21 -0.15
22 -0.15
23 -0.15
24 -0.15
25 0.25
26 0.25
27 0.78
28 0.78
29 0.28
3 -0.43
30 0.28
31 0.15
32 0.15
33 0.15
34 0.15
35 0.15
36 0.15
37 0.27
38 0.27
39 0.37
4 -0.57
40 0.37
5 -0.57
6 0.03
7 0.03
8 -0.57
9 -0.57

> <PUBCHEM_EFFECTIVE_ROTOR_COUNT>
8

> <PUBCHEM_PHARMACOPHORE_FEATURES>
11
1 1 acceptor
1 10 donor
1 11 donor
1 4 acceptor
1 5 acceptor
1 6 donor
1 7 donor
5 6 8 14 16 25 rings
5 7 9 15 17 26 rings
6 12 14 16 19 21 23 rings
6 13 15 17 20 22 24 rings

> <PUBCHEM_HEAVY_ATOM_COUNT>
30

> <PUBCHEM_ATOM_DEF_STEREO_COUNT>
0

> <PUBCHEM_ATOM_UDEF_STEREO_COUNT>
0

> <PUBCHEM_BOND_DEF_STEREO_COUNT>
0

> <PUBCHEM_BOND_UDEF_STEREO_COUNT>
0

> <PUBCHEM_ISOTOPIC_ATOM_COUNT>
0

> <PUBCHEM_COMPONENT_COUNT>
1

> <PUBCHEM_CACTVS_TAUTO_COUNT>
99

> <PUBCHEM_CONFORMER_ID>
0001F45200000001

> <PUBCHEM_MMFF94_ENERGY>
70.6225

> <PUBCHEM_FEATURE_SELFOVERLAP>
56.111

> <PUBCHEM_SHAPE_FINGERPRINT>
10258705 36 17898861412174832347
10280341 67 10809635865232411198
10411042 1 18410009918966021140
10740516 88 17969797448348762867
11273773 46 18336540539619165663
11409948 35 18339358687106881839
11409948 8 18342162411755405858
11463208 1 17768535980996277782
117089 54 18409454665288253482
11761917 87 18115038510766820771
12166972 35 18113902679840210317
12559416 138 18268697330142726518
12645989 146 18410297999623687762
13248334 5 18049443939506703381
13533116 47 18270121361077641169
13540713 5 18338817644658563284
13782708 43 17968371368797160251
13974486 7 18336816555129239786
14344974 204 18197782107627796566
14359421 15 17748819701014760795
14931854 50 17385721370176421699
15064981 113 14201667629543761514
15152005 1 18411419471330117070
15152005 304 18410586079801923918
15152005 77 18202278079076719527
15347591 1 18411136930869090308
15510800 12 18113623412360658466
15685185 35 9151163256232899699
15803439 3 14346086299935004464
16728300 4 18201720657093249909
16992779 147 16342269546403861938
17780758 139 17773591612305062992
19301676 85 18262800795623036211
19315092 285 18202566181002792664
19841028 212 18410572924738128299
20028762 73 18342739598566154830
20165401 70 18269552909429551367
2026 5 18337388344816043135
20691028 202 9727334836925444570
20771845 140 16629977641463185927
20771845 171 17896042221031213620
208703 8 18410287004058848290
20982279 24 17677625314890862835
21130935 74 18268431412047997801
21307412 95 17458632250553491923
21344244 181 18041278889376123955
22002106 203 18411128143903793866
23389318 12 18186527605732033358
23522609 53 18051448152479545124
23523787 8 15140680297495725840
23523788 1 17560529408525721110
23569943 247 18341333397010767283
270888 7 9367342635057221420
27425 322 8286209344346057801
3411729 13 15552477235463545265
3472631 163 10953731210305696921
3504750 166 18273494585932252845
3918712 181 8142074348313633910
393628 194 10159394532266749762
406291 66 18411980256260850371
439807 62 18341051912947366003
4461854 278 17775286080009450814
44880568 143 17095514111136775877
46194498 28 17459462445925000845
474113 269 18272081722033172239
5104073 3 17846784009263539753
54039377 194 18410858742137771878
5718773 13 18409446981549030146
57527295 17 17386839526347069241
58260988 647 18261958561372975617
5874358 3 17024011668204166506
6327066 14 9007051370701434200
636775 8 18197505014124071238
6712543 237 15626227914161911655
7970288 3 18410290302678075638
96874 4 18200872985073454903

> <PUBCHEM_SHAPE_MULTIPOLES>
558.15
23.97
4.65
0.99
4.26
1.19
0.21
40.78
1.49
-3.14
-0.13
1.24
-0.31
-1.01

> <PUBCHEM_SHAPE_SELFOVERLAP>
1237.3

> <PUBCHEM_SHAPE_VOLUME>
300.4

> <PUBCHEM_COORDINATE_TYPE>
2
5
10

$$$$
