REMARK  Name = 12804716
REMARK  5 active torsions:
REMARK  status: ('A' for Active; 'I' for Inactive)
REMARK    1  A    between atoms: C_4  and  O_18
REMARK    2  A    between atoms: C_8  and  C_22
REMARK    3  A    between atoms: C_14  and  O_20
REMARK    4  A    between atoms: C_22  and  C_24
REMARK    5  A    between atoms: C_24  and  O_25
REMARK                            x       y       z     vdW  Elec       q    Type
REMARK                         _______ _______ _______ _____ _____    ______ ____
ROOT
ATOM      1  O   UNL     1      -2.499   0.750  -0.379  0.00  0.00    -0.355 OA
ATOM      2  O   UNL     1       1.397   2.432  -0.277  0.00  0.00    -0.289 OA
ATOM      3  O   UNL     1       0.886  -2.901  -0.021  0.00  0.00    -0.291 OA
ATOM      4  C   UNL     1      -0.068   0.535  -0.403  0.00  0.00    +0.175 C 
ATOM      5  C   UNL     1      -0.183  -0.771   0.387  0.00  0.00    +0.098 C 
ATOM      6  C   UNL     1      -1.272   1.452  -0.108  0.00  0.00    +0.147 C 
ATOM      7  C   UNL     1      -1.524  -1.445   0.089  0.00  0.00    +0.041 C 
ATOM      8  C   UNL     1      -2.678  -0.471   0.345  0.00  0.00    +0.127 C 
ATOM      9  C   UNL     1       1.280   1.211  -0.206  0.00  0.00    +0.203 C 
ATOM     10  C   UNL     1       0.997  -1.688   0.117  0.00  0.00    +0.176 C 
ATOM     11  C   UNL     1       2.466   0.338  -0.007  0.00  0.00    +0.074 C 
ATOM     12  C   UNL     1       2.334  -1.051   0.109  0.00  0.00    +0.041 C 
ATOM     13  C   UNL     1      -1.313   2.059   1.297  0.00  0.00    +0.035 C 
ATOM     14  C   UNL     1       3.741   0.917   0.024  0.00  0.00    +0.137 C 
ATOM     15  C   UNL     1       3.472  -1.855   0.239  0.00  0.00    +0.003 C 
ATOM     16  C   UNL     1       4.872   0.112   0.162  0.00  0.00    +0.037 C 
ATOM     17  C   UNL     1       4.739  -1.271   0.266  0.00  0.00    +0.003 C 
ENDROOT
BRANCH   4  18
ATOM     18  O   UNL     1      -0.082   0.226  -1.806  0.00  0.00    -0.377 OA
ATOM     19  H   UNL     1      -0.915  -0.215  -2.032  0.00  0.00    +0.211 HD
ENDBRANCH   4  18
BRANCH  14  20
ATOM     20  O   UNL     1       3.948   2.260  -0.084  0.00  0.00    -0.505 OA
ATOM     21  H   UNL     1       3.219   2.841  -0.178  0.00  0.00    +0.292 HD
ENDBRANCH  14  20
BRANCH   8  22
ATOM     22  C   UNL     1      -4.005  -1.075  -0.096  0.00  0.00    +0.139 C 
BRANCH  22  24
ATOM     23  O   UNL     1      -5.228   0.722   1.007  0.00  0.00    -0.250 OA
ATOM     24  C   UNL     1      -5.154  -0.129   0.133  0.00  0.00    +0.316 C 
BRANCH  24  25
ATOM     25  O   UNL     1      -6.127  -0.354  -0.787  0.00  0.00    -0.480 OA
ATOM     26  H   UNL     1      -6.014  -1.022  -1.434  0.00  0.00    +0.295 HD
ENDBRANCH  24  25
ENDBRANCH  22  24
ENDBRANCH   8  22
TORSDOF 5
