REMARK  Name = 128051
REMARK  10 active torsions:
REMARK  status: ('A' for Active; 'I' for Inactive)
REMARK    1  A    between atoms: C_1  and  C_9
REMARK    2  A    between atoms: C_2  and  C_26
REMARK    3  A    between atoms: C_5  and  C_34
REMARK    4  A    between atoms: C_19  and  O_22
REMARK    5  A    between atoms: N_25  and  C_28
REMARK    6  A    between atoms: C_28  and  C_29
REMARK    7  A    between atoms: C_29  and  S_30
REMARK    8  A    between atoms: N_33  and  C_36
REMARK    9  A    between atoms: C_36  and  C_37
REMARK   10  A    between atoms: C_37  and  S_38
REMARK                            x       y       z     vdW  Elec       q    Type
REMARK                         _______ _______ _______ _____ _____    ______ ____
ROOT
ATOM      1  C   UNL     1       0.399   0.457  -0.754  0.00  0.00    +0.004 C 
ATOM      2  C   UNL     1       1.187   0.013   0.301  0.00  0.00    +0.053 C 
ATOM      3  C   UNL     1       0.981   0.908  -1.934  0.00  0.00    +0.000 C 
ATOM      4  C   UNL     1       2.576   0.020   0.175  0.00  0.00    +0.009 C 
ATOM      5  C   UNL     1       3.167   0.471  -1.005  0.00  0.00    +0.053 C 
ATOM      6  C   UNL     1       2.370   0.915  -2.059  0.00  0.00    +0.005 C 
ENDROOT
BRANCH   1   9
ATOM      7  O   UNL     1      -3.924   0.497  -0.462  0.00  0.00    -0.458 OA
ATOM      8  O   UNL     1      -3.665   4.866   1.266  0.00  0.00    -0.291 OA
ATOM      9  C   UNL     1      -1.065   0.465  -0.658  0.00  0.00    +0.002 C 
ATOM     10  C   UNL     1      -1.903  -0.692  -1.067  0.00  0.00    +0.017 C 
ATOM     11  C   UNL     1      -1.703   1.567  -0.177  0.00  0.00    +0.031 C 
ATOM     12  C   UNL     1      -3.291  -0.615  -0.948  0.00  0.00    +0.144 C 
ATOM     13  C   UNL     1      -3.171   1.595  -0.071  0.00  0.00    +0.130 C 
ATOM     14  C   UNL     1      -1.349  -1.878  -1.577  0.00  0.00    +0.059 C 
ATOM     15  C   UNL     1      -0.975   2.768   0.255  0.00  0.00    +0.006 C 
ATOM     16  C   UNL     1      -4.112  -1.682  -1.323  0.00  0.00    +0.073 C 
ATOM     17  C   UNL     1      -3.816   2.672   0.400  0.00  0.00    +0.133 C 
ATOM     18  C   UNL     1      -2.166  -2.948  -1.954  0.00  0.00    +0.015 C 
ATOM     19  C   UNL     1      -3.548  -2.850  -1.827  0.00  0.00    +0.133 C 
ATOM     20  C   UNL     1      -1.601   3.853   0.728  0.00  0.00    +0.038 C 
ATOM     21  C   UNL     1      -3.077   3.881   0.835  0.00  0.00    +0.181 C 
BRANCH  19  22
ATOM     22  O   UNL     1      -4.343  -3.891  -2.193  0.00  0.00    -0.506 OA
ATOM     23  H   UNL     1      -5.274  -3.822  -2.107  0.00  0.00    +0.292 HD
ENDBRANCH  19  22
ENDBRANCH   1   9
BRANCH   2  26
ATOM     24  O   UNL     1       0.370   0.327   2.476  0.00  0.00    -0.270 OA
ATOM     25  N   UNL     1       0.321  -1.832   1.631  0.00  0.00    -0.300 N 
ATOM     26  C   UNL     1       0.607  -0.466   1.551  0.00  0.00    +0.246 C 
ATOM     27  H   UNL     1       0.536  -2.400   0.857  0.00  0.00    +0.150 HD
BRANCH  25  28
ATOM     28  C   UNL     1      -0.276  -2.453   2.792  0.00  0.00    +0.101 C 
BRANCH  28  29
ATOM     29  C   UNL     1      -1.798  -2.472   2.741  0.00  0.00    +0.075 C 
BRANCH  29  30
ATOM     30  S   UNL     1      -2.524  -3.295   4.191  0.00  0.00    -0.166 S 
ATOM     31  H   UNL     1      -3.880  -3.281   4.089  0.00  0.00    +0.102 HD
ENDBRANCH  29  30
ENDBRANCH  28  29
ENDBRANCH  25  28
ENDBRANCH   2  26
BRANCH   5  34
ATOM     32  O   UNL     1       5.148   0.403  -2.258  0.00  0.00    -0.270 OA
ATOM     33  N   UNL     1       5.360   0.595   0.043  0.00  0.00    -0.300 N 
ATOM     34  C   UNL     1       4.616   0.478  -1.136  0.00  0.00    +0.246 C 
ATOM     35  H   UNL     1       4.874   0.649   0.898  0.00  0.00    +0.150 HD
BRANCH  33  36
ATOM     36  C   UNL     1       6.804   0.640   0.075  0.00  0.00    +0.101 C 
BRANCH  36  37
ATOM     37  C   UNL     1       7.441  -0.738   0.201  0.00  0.00    +0.075 C 
BRANCH  37  38
ATOM     38  S   UNL     1       6.961  -1.579   1.741  0.00  0.00    -0.166 S 
ATOM     39  H   UNL     1       7.558  -2.799   1.796  0.00  0.00    +0.102 HD
ENDBRANCH  37  38
ENDBRANCH  36  37
ENDBRANCH  33  36
ENDBRANCH   5  34
TORSDOF 10
