128160
  -OEChem-03292013323D

 58 61  0     0  0  0  0  0  0999 V2000
   -3.2302    3.3961   -0.4600 O   0  0  0  0  0  0  0  0  0  0  0  0
    6.8458   -3.1903   -0.7502 O   0  0  0  0  0  0  0  0  0  0  0  0
    8.5517   -1.3089    0.3775 O   0  0  0  0  0  0  0  0  0  0  0  0
    1.3644    1.3210   -0.1150 N   0  0  0  0  0  0  0  0  0  0  0  0
   -1.4647    1.8831   -0.3588 N   0  0  0  0  0  0  0  0  0  0  0  0
    3.1850   -0.1742   -0.3254 N   0  0  0  0  0  0  0  0  0  0  0  0
    3.4959    2.0177    0.6264 N   0  0  0  0  0  0  0  0  0  0  0  0
    5.6176    2.7154    1.3665 N   0  0  0  0  0  0  0  0  0  0  0  0
   -9.1852   -2.4342   -0.0323 N   0  0  0  0  0  0  0  0  0  0  0  0
   -9.6362   -2.4812    1.1329 N   0  3  0  0  0  0  0  0  0  0  0  0
  -10.0522   -2.5291    2.1947 N   0  5  0  0  0  0  0  0  0  0  0  0
    0.4643    0.3305   -0.7094 C   0  0  0  0  0  0  0  0  0  0  0  0
    0.8168    2.6376    0.2233 C   0  0  0  0  0  0  0  0  0  0  0  0
   -0.9639    0.5145   -0.1942 C   0  0  0  0  0  0  0  0  0  0  0  0
   -0.4541    2.9157   -0.5762 C   0  0  0  0  0  0  0  0  0  0  0  0
    2.7183    1.0494    0.0678 C   0  0  0  0  0  0  0  0  0  0  0  0
   -2.8093    2.2470   -0.3218 C   0  0  0  0  0  0  0  0  0  0  0  0
    4.4909   -0.4436   -0.1514 C   0  0  0  0  0  0  0  0  0  0  0  0
    5.3642    0.4981    0.4173 C   0  0  0  0  0  0  0  0  0  0  0  0
    4.7981    1.7153    0.7860 C   0  0  0  0  0  0  0  0  0  0  0  0
   -3.7938    1.1697   -0.0893 C   0  0  0  0  0  0  0  0  0  0  0  0
    5.0207   -1.6738   -0.5332 C   0  0  0  0  0  0  0  0  0  0  0  0
    6.7277    0.2055    0.5942 C   0  0  0  0  0  0  0  0  0  0  0  0
    6.3756   -1.9723   -0.3606 C   0  0  0  0  0  0  0  0  0  0  0  0
    7.2302   -1.0319    0.2037 C   0  0  0  0  0  0  0  0  0  0  0  0
   -5.0088    1.3152   -0.6148 C   0  0  0  0  0  0  0  0  0  0  0  0
   -6.0995    0.3359   -0.4628 C   0  0  0  0  0  0  0  0  0  0  0  0
   -5.7948   -0.9700   -0.1151 C   0  0  0  0  0  0  0  0  0  0  0  0
   -7.4081    0.7406   -0.6706 C   0  0  0  0  0  0  0  0  0  0  0  0
    7.3194   -3.3034   -2.0906 C   0  0  0  0  0  0  0  0  0  0  0  0
    8.9321   -1.9073    1.6156 C   0  0  0  0  0  0  0  0  0  0  0  0
   -6.8273   -1.8968    0.0289 C   0  0  0  0  0  0  0  0  0  0  0  0
   -8.4404   -0.1863   -0.5264 C   0  0  0  0  0  0  0  0  0  0  0  0
   -8.1501   -1.5050   -0.1767 C   0  0  0  0  0  0  0  0  0  0  0  0
    0.4901    0.4358   -1.8008 H   0  0  0  0  0  0  0  0  0  0  0  0
    0.7734   -0.6931   -0.4677 H   0  0  0  0  0  0  0  0  0  0  0  0
    0.6043    2.6712    1.2987 H   0  0  0  0  0  0  0  0  0  0  0  0
    1.5336    3.4353   -0.0052 H   0  0  0  0  0  0  0  0  0  0  0  0
   -1.0089    0.2898    0.8786 H   0  0  0  0  0  0  0  0  0  0  0  0
   -1.6293   -0.1847   -0.7112 H   0  0  0  0  0  0  0  0  0  0  0  0
   -0.2381    2.9301   -1.6516 H   0  0  0  0  0  0  0  0  0  0  0  0
   -0.8539    3.9002   -0.3109 H   0  0  0  0  0  0  0  0  0  0  0  0
   -3.4981    0.3295    0.5243 H   0  0  0  0  0  0  0  0  0  0  0  0
    4.3660   -2.4229   -0.9761 H   0  0  0  0  0  0  0  0  0  0  0  0
    7.4201    0.9245    1.0235 H   0  0  0  0  0  0  0  0  0  0  0  0
   -5.2599    2.1936   -1.2054 H   0  0  0  0  0  0  0  0  0  0  0  0
    5.1538    3.5890    1.5877 H   0  0  0  0  0  0  0  0  0  0  0  0
    6.3579    2.4281    1.9942 H   0  0  0  0  0  0  0  0  0  0  0  0
   -4.7800   -1.3256    0.0323 H   0  0  0  0  0  0  0  0  0  0  0  0
   -7.6504    1.7645   -0.9421 H   0  0  0  0  0  0  0  0  0  0  0  0
    6.5133   -3.0942   -2.8011 H   0  0  0  0  0  0  0  0  0  0  0  0
    8.1582   -2.6214   -2.2621 H   0  0  0  0  0  0  0  0  0  0  0  0
    7.6653   -4.3289   -2.2463 H   0  0  0  0  0  0  0  0  0  0  0  0
   10.0129   -2.0712    1.5989 H   0  0  0  0  0  0  0  0  0  0  0  0
    8.6912   -1.2434    2.4519 H   0  0  0  0  0  0  0  0  0  0  0  0
    8.4335   -2.8729    1.7460 H   0  0  0  0  0  0  0  0  0  0  0  0
   -6.5907   -2.9236    0.2959 H   0  0  0  0  0  0  0  0  0  0  0  0
   -9.4679    0.1288   -0.6894 H   0  0  0  0  0  0  0  0  0  0  0  0
  1 17  2  0  0  0  0
  2 24  1  0  0  0  0
  2 30  1  0  0  0  0
  3 25  1  0  0  0  0
  3 31  1  0  0  0  0
  4 12  1  0  0  0  0
  4 13  1  0  0  0  0
  4 16  1  0  0  0  0
  5 14  1  0  0  0  0
  5 15  1  0  0  0  0
  5 17  1  0  0  0  0
  6 16  2  0  0  0  0
  6 18  1  0  0  0  0
  7 16  1  0  0  0  0
  7 20  2  0  0  0  0
  8 20  1  0  0  0  0
  8 47  1  0  0  0  0
  8 48  1  0  0  0  0
  9 10  2  0  0  0  0
  9 34  1  0  0  0  0
 10 11  2  0  0  0  0
 12 14  1  0  0  0  0
 12 35  1  0  0  0  0
 12 36  1  0  0  0  0
 13 15  1  0  0  0  0
 13 37  1  0  0  0  0
 13 38  1  0  0  0  0
 14 39  1  0  0  0  0
 14 40  1  0  0  0  0
 15 41  1  0  0  0  0
 15 42  1  0  0  0  0
 17 21  1  0  0  0  0
 18 19  1  0  0  0  0
 18 22  2  0  0  0  0
 19 20  1  0  0  0  0
 19 23  2  0  0  0  0
 21 26  2  3  0  0  0
 21 43  1  0  0  0  0
 22 24  1  0  0  0  0
 22 44  1  0  0  0  0
 23 25  1  0  0  0  0
 23 45  1  0  0  0  0
 24 25  2  0  0  0  0
 26 27  1  0  0  0  0
 26 46  1  0  0  0  0
 27 28  2  0  0  0  0
 27 29  1  0  0  0  0
 28 32  1  0  0  0  0
 28 49  1  0  0  0  0
 29 33  2  0  0  0  0
 29 50  1  0  0  0  0
 30 51  1  0  0  0  0
 30 52  1  0  0  0  0
 30 53  1  0  0  0  0
 31 54  1  0  0  0  0
 31 55  1  0  0  0  0
 31 56  1  0  0  0  0
 32 34  2  0  0  0  0
 32 57  1  0  0  0  0
 33 34  1  0  0  0  0
 33 58  1  0  0  0  0
M  CHG  2  10   1  11  -1
M  END
> <PUBCHEM_COMPOUND_CID>
128160

> <PUBCHEM_CONFORMER_RMSD>
1

> <PUBCHEM_CONFORMER_DIVERSEORDER>
2
25
17
14
35
12
23
22
13
21
11
5
27
32
33
34
16
18
36
31
9
30
20
19
28
24
1
26
29
3
6
10
15
8
7
4

> <PUBCHEM_MMFF94_PARTIAL_CHARGES>
43
1 -0.57
10 0.69
11 -0.37
12 0.37
13 0.37
14 0.3
15 0.3
16 0.72
17 0.62
18 0.31
2 -0.36
20 0.41
21 -0.14
22 -0.15
23 -0.15
24 0.08
25 0.08
26 -0.18
27 0.03
28 -0.15
29 -0.15
3 -0.36
30 0.28
31 0.28
32 -0.15
33 -0.15
34 0.18
4 -0.84
43 0.15
44 0.15
45 0.15
46 0.15
47 0.4
48 0.4
49 0.15
5 -0.66
50 0.15
57 0.15
58 0.15
6 -0.62
7 -0.62
8 -0.9
9 -0.5

> <PUBCHEM_EFFECTIVE_ROTOR_COUNT>
8.2

> <PUBCHEM_PHARMACOPHORE_FEATURES>
9
1 1 acceptor
1 2 acceptor
1 3 acceptor
1 8 donor
4 4 6 7 16 cation
6 18 19 22 23 24 25 rings
6 27 28 29 32 33 34 rings
6 4 5 12 13 14 15 rings
6 6 7 16 18 19 20 rings

> <PUBCHEM_HEAVY_ATOM_COUNT>
34

> <PUBCHEM_ATOM_DEF_STEREO_COUNT>
0

> <PUBCHEM_ATOM_UDEF_STEREO_COUNT>
0

> <PUBCHEM_BOND_DEF_STEREO_COUNT>
0

> <PUBCHEM_BOND_UDEF_STEREO_COUNT>
1

> <PUBCHEM_ISOTOPIC_ATOM_COUNT>
0

> <PUBCHEM_COMPONENT_COUNT>
1

> <PUBCHEM_CACTVS_TAUTO_COUNT>
3

> <PUBCHEM_CONFORMER_ID>
0001F4A000000002

> <PUBCHEM_MMFF94_ENERGY>
135.5072

> <PUBCHEM_FEATURE_SELFOVERLAP>
45.707

> <PUBCHEM_SHAPE_FINGERPRINT>
10258705 36 18412267216217026335
10411042 1 18408039628731936821
10740516 88 18339935839562375551
10816530 90 10737286874578736950
11409948 8 18272072904945134592
11411753 3 18267001909051148780
11456790 92 17489869336716245569
11607047 141 12606862306218793796
11607047 74 17898296249405736372
117089 54 18342181016219238620
12013929 94 18411982443485049488
13008946 119 17557123315789970256
13248334 5 17977102680681379021
13530399 1 12391217354016211866
13668630 136 18186796998623056445
13782708 43 18338515240595479652
13811026 1 18411697682441632725
14178184 131 18130218363620105887
14359421 15 17676481749176571515
15183329 4 14851603267721623165
15419008 91 18116689937976336357
15510794 2 18409724072070935557
15510800 12 18113625629486825651
16067689 302 18341332266505128324
16992779 147 16843583106517674808
16994733 274 10879989160121794517
1754911 235 11169911689074695555
17852330 53 16414376484767950199
1818759 1 18187368753333073323
18335252 98 18411697725186194224
20105231 36 17988929921666262438
2026 5 18336263462130452723
20982279 24 17967828171635951419
21130935 74 18343864411687814681
21267235 1 18411979148264588388
212700 22 18412257325091693607
22149856 69 15338852949033981905
23569943 247 17831579769807786330
23576562 1 14129639808155818967
25242607 90 18341325678368194115
2851757 41 18411424985693286158
306946 40 13758087260695358251
3383291 50 18409727352608895939
4461854 278 17918275367872392007
44880568 143 17749381542835114093
504579 68 14490477460981346164
54039377 194 18334015017207659663
5718773 13 18410855451907719877
58083652 198 16271628045574882513
636775 8 18408608036891471926
9831232 110 18339079277344120740
9962374 69 18341040891945382932

> <PUBCHEM_SHAPE_MULTIPOLES>
642.25
35.31
3.85
1.17
37.02
0.23
0.2
37.06
7.9
-0.52
-0.13
-0.5
0.83
4.84

> <PUBCHEM_SHAPE_SELFOVERLAP>
1389.169

> <PUBCHEM_SHAPE_VOLUME>
349.2

> <PUBCHEM_COORDINATE_TYPE>
2
5
10

$$$$
