128119
  -OEChem-03292013323D

 43 43  0     1  0  0  0  0  0999 V2000
    0.2206    1.2296    1.3490 O   0  0  0  0  0  0  0  0  0  0  0  0
   -1.2749    3.4816    0.6105 O   0  0  0  0  0  0  0  0  0  0  0  0
    6.5361    1.2736   -0.1864 O   0  0  0  0  0  0  0  0  0  0  0  0
    1.0879   -1.1541    0.3213 N   0  0  0  0  0  0  0  0  0  0  0  0
   -1.4057    1.3443   -0.3169 N   0  0  0  0  0  0  0  0  0  0  0  0
    4.2654   -0.2661   -0.4197 N   0  0  0  0  0  0  0  0  0  0  0  0
   -3.9789    3.5578   -0.3404 N   0  0  0  0  0  0  0  0  0  0  0  0
    5.4775   -0.7917   -0.1335 N   0  0  0  0  0  0  0  0  0  0  0  0
    7.7327   -0.6346    0.2629 N   0  0  0  0  0  0  0  0  0  0  0  0
   -0.3113   -0.7817    0.1027 C   0  0  1  0  0  0  0  0  0  0  0  0
   -1.2407   -1.6414    0.9745 C   0  0  0  0  0  0  0  0  0  0  0  0
   -2.6626   -1.6787    0.4657 C   0  0  0  0  0  0  0  0  0  0  0  0
   -0.4400    0.6982    0.4586 C   0  0  0  0  0  0  0  0  0  0  0  0
    1.9136   -0.7251   -0.7957 C   0  0  0  0  0  0  0  0  0  0  0  0
   -3.5847   -0.7272    0.9021 C   0  0  0  0  0  0  0  0  0  0  0  0
   -3.0537   -2.6642   -0.4408 C   0  0  0  0  0  0  0  0  0  0  0  0
   -4.8976   -0.7614    0.4323 C   0  0  0  0  0  0  0  0  0  0  0  0
   -4.3666   -2.6983   -0.9106 C   0  0  0  0  0  0  0  0  0  0  0  0
    3.3212   -1.1452   -0.4901 C   0  0  0  0  0  0  0  0  0  0  0  0
   -5.2886   -1.7468   -0.4739 C   0  0  0  0  0  0  0  0  0  0  0  0
   -1.7595    2.6865   -0.1924 C   0  0  0  0  0  0  0  0  0  0  0  0
   -2.8604    3.0916   -1.1455 C   0  0  0  0  0  0  0  0  0  0  0  0
    6.5704    0.0533   -0.0337 C   0  0  0  0  0  0  0  0  0  0  0  0
   -0.5702   -0.9395   -0.9529 H   0  0  0  0  0  0  0  0  0  0  0  0
   -0.8786   -2.6781    1.0155 H   0  0  0  0  0  0  0  0  0  0  0  0
   -1.2350   -1.2900    2.0152 H   0  0  0  0  0  0  0  0  0  0  0  0
    1.1574   -2.1685    0.4072 H   0  0  0  0  0  0  0  0  0  0  0  0
    1.8842    0.3596   -0.9421 H   0  0  0  0  0  0  0  0  0  0  0  0
    1.6159   -1.2242   -1.7244 H   0  0  0  0  0  0  0  0  0  0  0  0
   -3.2963    0.0421    1.6133 H   0  0  0  0  0  0  0  0  0  0  0  0
   -2.3441   -3.4093   -0.7905 H   0  0  0  0  0  0  0  0  0  0  0  0
   -1.8856    0.7921   -1.0229 H   0  0  0  0  0  0  0  0  0  0  0  0
   -5.6155   -0.0209    0.7728 H   0  0  0  0  0  0  0  0  0  0  0  0
   -4.6710   -3.4651   -1.6170 H   0  0  0  0  0  0  0  0  0  0  0  0
    3.5032   -2.2272   -0.3482 H   0  0  0  0  0  0  0  0  0  0  0  0
   -6.3108   -1.7732   -0.8399 H   0  0  0  0  0  0  0  0  0  0  0  0
   -3.1813    2.2572   -1.7756 H   0  0  0  0  0  0  0  0  0  0  0  0
   -2.4871    3.8894   -1.7950 H   0  0  0  0  0  0  0  0  0  0  0  0
   -3.7046    4.3908    0.1797 H   0  0  0  0  0  0  0  0  0  0  0  0
   -4.7379    3.8492   -0.9554 H   0  0  0  0  0  0  0  0  0  0  0  0
    5.5565   -1.7944    0.0013 H   0  0  0  0  0  0  0  0  0  0  0  0
    8.6181   -0.1506    0.3679 H   0  0  0  0  0  0  0  0  0  0  0  0
    7.7379   -1.6417    0.3847 H   0  0  0  0  0  0  0  0  0  0  0  0
  1 13  2  0  0  0  0
  2 21  2  0  0  0  0
  3 23  2  0  0  0  0
  4 10  1  0  0  0  0
  4 14  1  0  0  0  0
  4 27  1  0  0  0  0
  5 13  1  0  0  0  0
  5 21  1  0  0  0  0
  5 32  1  0  0  0  0
  6  8  1  0  0  0  0
  6 19  2  0  0  0  0
  7 22  1  0  0  0  0
  7 39  1  0  0  0  0
  7 40  1  0  0  0  0
  8 23  1  0  0  0  0
  8 41  1  0  0  0  0
  9 23  1  0  0  0  0
  9 42  1  0  0  0  0
  9 43  1  0  0  0  0
 10 11  1  0  0  0  0
 10 13  1  0  0  0  0
 10 24  1  0  0  0  0
 11 12  1  0  0  0  0
 11 25  1  0  0  0  0
 11 26  1  0  0  0  0
 12 15  2  0  0  0  0
 12 16  1  0  0  0  0
 14 19  1  0  0  0  0
 14 28  1  0  0  0  0
 14 29  1  0  0  0  0
 15 17  1  0  0  0  0
 15 30  1  0  0  0  0
 16 18  2  0  0  0  0
 16 31  1  0  0  0  0
 17 20  2  0  0  0  0
 17 33  1  0  0  0  0
 18 20  1  0  0  0  0
 18 34  1  0  0  0  0
 19 35  1  0  0  0  0
 20 36  1  0  0  0  0
 21 22  1  0  0  0  0
 22 37  1  0  0  0  0
 22 38  1  0  0  0  0
M  END
> <PUBCHEM_COMPOUND_CID>
128119

> <PUBCHEM_CONFORMER_RMSD>
1

> <PUBCHEM_CONFORMER_DIVERSEORDER>
1
31
83
56
30
32
35
26
12
48
60
67
75
70
44
28
39
25
80
53
87
49
50
69
76
84
59
46
86
82
23
79
14
11
62
65
34
52
78
73
74
51
37
57
22
72
43
13
71
6
9
7
8
81
42
77
29
20
45
15
41
16
38
88
4
85
47
40
2
61
54
24
66
27
21
55
17
68
18
58
64
10
19
63
33
5
36
3

> <PUBCHEM_MMFF94_PARTIAL_CHARGES>
36
1 -0.57
10 0.33
11 0.14
12 -0.14
13 0.57
14 0.33
15 -0.15
16 -0.15
17 -0.15
18 -0.15
19 0.33
2 -0.57
20 -0.15
21 0.57
22 0.33
23 0.69
27 0.36
3 -0.57
30 0.15
31 0.15
32 0.37
33 0.15
34 0.15
35 0.06
36 0.15
39 0.36
4 -0.9
40 0.36
41 0.37
42 0.37
43 0.37
5 -0.49
6 -0.51
7 -0.99
8 -0.37
9 -0.8

> <PUBCHEM_EFFECTIVE_ROTOR_COUNT>
11

> <PUBCHEM_PHARMACOPHORE_FEATURES>
12
1 1 acceptor
1 2 acceptor
1 3 acceptor
1 4 cation
1 4 donor
1 5 donor
1 6 acceptor
1 7 cation
1 7 donor
1 8 donor
1 9 donor
6 12 15 16 17 18 20 rings

> <PUBCHEM_HEAVY_ATOM_COUNT>
23

> <PUBCHEM_ATOM_DEF_STEREO_COUNT>
1

> <PUBCHEM_ATOM_UDEF_STEREO_COUNT>
0

> <PUBCHEM_BOND_DEF_STEREO_COUNT>
1

> <PUBCHEM_BOND_UDEF_STEREO_COUNT>
0

> <PUBCHEM_ISOTOPIC_ATOM_COUNT>
0

> <PUBCHEM_COMPONENT_COUNT>
1

> <PUBCHEM_CACTVS_TAUTO_COUNT>
9

> <PUBCHEM_CONFORMER_ID>
0001F47700000001

> <PUBCHEM_MMFF94_ENERGY>
45.3008

> <PUBCHEM_FEATURE_SELFOVERLAP>
60.959

> <PUBCHEM_SHAPE_FINGERPRINT>
10087517 78 18335139790946983789
11101153 10 18262244451349882396
12788726 201 18333724706745061491
14790565 3 17620761578987728129
16087824 20 18337953386718867293
21236236 1 18408886209154473452
2132832 1 18040724701003005580
23402539 116 18409167739971514582
23419403 2 17560221609873625273
23557571 272 18413111645467433788
23559900 14 18116150163628448674
23929065 36 18338500985430375400
266924 1 17968086474393915106
283562 15 18335139769852215403
4409770 3 18410004404501774311
497634 4 17560536039997254258
5171179 24 18200019776592571393
5283173 99 18410570661052732760
53917941 68 18042118765650811933
5969126 39 18341886420212514439
7226269 152 18187363263563509459
7237137 82 18408323267754213068

> <PUBCHEM_SHAPE_MULTIPOLES>
425.84
14.99
3.83
0.96
35.39
4.3
0.04
-4.76
-1.42
-6.61
-0.72
-0.57
0.03
0.15

> <PUBCHEM_SHAPE_SELFOVERLAP>
861.987

> <PUBCHEM_SHAPE_VOLUME>
245.5

> <PUBCHEM_COORDINATE_TYPE>
2
5
10

$$$$
