REMARK  Name = 128147
REMARK  17 active torsions:
REMARK  status: ('A' for Active; 'I' for Inactive)
REMARK    1  A    between atoms: C_1  and  C_17
REMARK    2  A    between atoms: C_2  and  C_4
REMARK    3  A    between atoms: C_3  and  C_6
REMARK    4  A    between atoms: C_5  and  C_7
REMARK    5  A    between atoms: C_7  and  O_8
REMARK    6  A    between atoms: C_7  and  C_10
REMARK    7  A    between atoms: C_10  and  C_11
REMARK    8  A    between atoms: C_11  and  C_12
REMARK    9  A    between atoms: C_12  and  C_14
REMARK   10  A    between atoms: C_14  and  O_15
REMARK   11  A    between atoms: C_17  and  O_18
REMARK   12  A    between atoms: C_17  and  C_20
REMARK   13  A    between atoms: C_20  and  C_21
REMARK   14  A    between atoms: C_22  and  C_23
REMARK   15  A    between atoms: C_23  and  C_24
REMARK   16  A    between atoms: C_24  and  C_26
REMARK   17  A    between atoms: C_26  and  O_27
REMARK                            x       y       z     vdW  Elec       q    Type
REMARK                         _______ _______ _______ _____ _____    ______ ____
ROOT
ATOM      1  C   UNL     1      -3.618  -1.671  -0.785  0.00  0.00    +0.003 C 
ATOM      2  C   UNL     1      -2.579  -1.673   0.065  0.00  0.00    -0.002 C 
ENDROOT
BRANCH   2   4
ATOM      3  C   UNL     1      -0.192  -2.010   0.509  0.00  0.00    -0.000 C 
ATOM      4  C   UNL     1      -1.231  -2.009  -0.340  0.00  0.00    -0.000 C 
BRANCH   3   6
ATOM      5  C   UNL     1       2.195  -2.347   0.954  0.00  0.00    +0.003 C 
ATOM      6  C   UNL     1       1.156  -2.345   0.104  0.00  0.00    -0.002 C 
BRANCH   5   7
ATOM      7  C   UNL     1       3.625  -2.684   0.613  0.00  0.00    +0.132 C 
BRANCH   7   8
ATOM      8  O   UNL     1       3.758  -3.089  -0.747  0.00  0.00    -0.380 OA
ATOM      9  H   UNL     1       4.686  -3.298  -0.933  0.00  0.00    +0.211 HD
ENDBRANCH   7   8
BRANCH   7  10
ATOM     10  C   UNL     1       4.589  -1.523   0.906  0.00  0.00    +0.034 C 
BRANCH  10  11
ATOM     11  C   UNL     1       4.321  -0.265   0.066  0.00  0.00    +0.014 C 
BRANCH  11  12
ATOM     12  C   UNL     1       5.339   0.840   0.330  0.00  0.00    +0.109 C 
BRANCH  12  14
ATOM     13  O   UNL     1       4.200   2.118  -1.373  0.00  0.00    -0.250 OA
ATOM     14  C   UNL     1       5.101   2.044  -0.547  0.00  0.00    +0.314 C 
BRANCH  14  15
ATOM     15  O   UNL     1       5.975   3.052  -0.308  0.00  0.00    -0.480 OA
ATOM     16  H   UNL     1       6.648   2.946   0.335  0.00  0.00    +0.295 HD
ENDBRANCH  14  15
ENDBRANCH  12  14
ENDBRANCH  11  12
ENDBRANCH  10  11
ENDBRANCH   7  10
ENDBRANCH   5   7
ENDBRANCH   3   6
ENDBRANCH   2   4
BRANCH   1  17
ATOM     17  C   UNL     1      -5.058  -1.350  -0.464  0.00  0.00    +0.137 C 
BRANCH  17  18
ATOM     18  O   UNL     1      -5.716  -0.910  -1.656  0.00  0.00    -0.380 OA
ATOM     19  H   UNL     1      -6.642  -0.701  -1.456  0.00  0.00    +0.211 HD
ENDBRANCH  17  18
BRANCH  17  20
ATOM     20  C   UNL     1      -5.358  -0.329   0.648  0.00  0.00    +0.059 C 
BRANCH  20  21
ATOM     21  C   UNL     1      -4.738   1.026   0.430  0.00  0.00    -0.028 C 
ATOM     22  C   UNL     1      -3.834   1.641   1.209  0.00  0.00    -0.030 C 
BRANCH  22  23
ATOM     23  C   UNL     1      -3.214   2.992   0.994  0.00  0.00    +0.037 C 
BRANCH  23  24
ATOM     24  C   UNL     1      -1.692   2.928   0.911  0.00  0.00    +0.114 C 
BRANCH  24  26
ATOM     25  O   UNL     1      -1.834   1.904  -1.279  0.00  0.00    -0.250 OA
ATOM     26  C   UNL     1      -1.209   2.091  -0.245  0.00  0.00    +0.314 C 
BRANCH  26  27
ATOM     27  O   UNL     1       0.016   1.568   0.006  0.00  0.00    -0.480 OA
ATOM     28  H   UNL     1       0.444   1.749   0.820  0.00  0.00    +0.295 HD
ENDBRANCH  26  27
ENDBRANCH  24  26
ENDBRANCH  23  24
ENDBRANCH  22  23
ENDBRANCH  20  21
ENDBRANCH  17  20
ENDBRANCH   1  17
TORSDOF 17
