REMARK  Name = 128145
REMARK  11 active torsions:
REMARK  status: ('A' for Active; 'I' for Inactive)
REMARK    1  A    between atoms: C_1  and  O_2
REMARK    2  A    between atoms: C_1  and  C_12
REMARK    3  A    between atoms: C_1  and  C_17
REMARK    4  A    between atoms: O_2  and  C_4
REMARK    5  A    between atoms: C_4  and  C_5
REMARK    6  A    between atoms: C_5  and  C_6
REMARK    7  A    between atoms: C_6  and  C_8
REMARK    8  A    between atoms: C_8  and  C_11
REMARK    9  A    between atoms: C_12  and  N_13
REMARK   10  A    between atoms: C_17  and  C_19
REMARK   11  A    between atoms: C_19  and  O_20
REMARK                            x       y       z     vdW  Elec       q    Type
REMARK                         _______ _______ _______ _____ _____    ______ ____
ROOT
ATOM      1  C   UNL     1      -1.838   0.318  -0.605  0.00  0.00    +0.160 C 
ENDROOT
BRANCH   1   2
ATOM      2  O   UNL     1      -0.623   0.167   0.136  0.00  0.00    -0.454 OA
BRANCH   2   4
ATOM      3  O   UNL     1       0.505  -0.333  -1.812  0.00  0.00    -0.250 OA
ATOM      4  C   UNL     1       0.478  -0.162  -0.601  0.00  0.00    +0.317 C 
BRANCH   4   5
ATOM      5  C   UNL     1       1.680  -0.244   0.317  0.00  0.00    +0.110 C 
BRANCH   5   6
ATOM      6  C   UNL     1       2.736  -1.258  -0.161  0.00  0.00    +0.022 C 
ATOM      7  C   UNL     1       2.305  -2.689   0.183  0.00  0.00    +0.001 C 
BRANCH   6   8
ATOM      8  C   UNL     1       4.101  -0.968   0.483  0.00  0.00    +0.115 C 
BRANCH   8  11
ATOM      9  O   UNL     1       4.450   0.910  -0.937  0.00  0.00    -0.246 OA
ATOM     10  O   UNL     1       5.437   0.863   1.122  0.00  0.00    -0.246 OA
ATOM     11  C   UNL     1       4.716   0.406   0.189  0.00  0.00    +0.365 C 
ENDBRANCH   8  11
ENDBRANCH   6   8
ENDBRANCH   5   6
ENDBRANCH   4   5
ENDBRANCH   2   4
ENDBRANCH   1   2
BRANCH   1  12
ATOM     12  C   UNL     1      -3.024  -0.033   0.288  0.00  0.00    -0.028 C 
BRANCH  12  13
ATOM     13  N   UNL     1      -3.241  -1.503   0.278  0.00  0.00    +0.388 N 
ATOM     14  C   UNL     1      -4.410  -1.887   1.195  0.00  0.00    -0.096 C 
ATOM     15  C   UNL     1      -1.987  -2.240   0.768  0.00  0.00    -0.096 C 
ATOM     16  C   UNL     1      -3.563  -1.996  -1.139  0.00  0.00    -0.096 C 
ENDBRANCH  12  13
ENDBRANCH   1  12
BRANCH   1  17
ATOM     17  C   UNL     1      -1.926   1.776  -1.054  0.00  0.00    +0.151 C 
BRANCH  17  19
ATOM     18  O   UNL     1      -3.037   3.091   0.643  0.00  0.00    -0.250 OA
ATOM     19  C   UNL     1      -1.993   2.709   0.130  0.00  0.00    +0.317 C 
BRANCH  19  20
ATOM     20  O   UNL     1      -0.765   3.072   0.578  0.00  0.00    -0.480 OA
ATOM     21  H   UNL     1       0.004   2.751   0.149  0.00  0.00    +0.295 HD
ENDBRANCH  19  20
ENDBRANCH  17  19
ENDBRANCH   1  17
TORSDOF 11
