REMARK  Name = 128139
REMARK  9 active torsions:
REMARK  status: ('A' for Active; 'I' for Inactive)
REMARK    1  A    between atoms: C_5  and  O_21
REMARK    2  A    between atoms: C_7  and  O_23
REMARK    3  A    between atoms: C_8  and  O_25
REMARK    4  A    between atoms: C_10  and  O_29
REMARK    5  A    between atoms: C_11  and  O_27
REMARK    6  A    between atoms: C_11  and  C_33
REMARK    7  A    between atoms: O_29  and  C_31
REMARK    8  A    between atoms: C_33  and  O_34
REMARK    9  A    between atoms: O_34  and  C_36
REMARK                            x       y       z     vdW  Elec       q    Type
REMARK                         _______ _______ _______ _____ _____    ______ ____
ROOT
ATOM      1  O   UNL     1       1.163   0.022   2.207  0.00  0.00    -0.331 OA
ATOM      2  C   UNL     1      -0.283   0.518   0.339  0.00  0.00    +0.102 C 
ATOM      3  C   UNL     1       0.764   1.559  -0.214  0.00  0.00    +0.012 C 
ATOM      4  C   UNL     1       2.216   1.153   0.278  0.00  0.00    +0.031 C 
ATOM      5  C   UNL     1       0.493  -0.604   1.092  0.00  0.00    +0.226 C 
ATOM      6  C   UNL     1       2.530  -0.245  -0.370  0.00  0.00    +0.047 C 
ATOM      7  C   UNL     1      -1.325   1.243   1.244  0.00  0.00    +0.120 C 
ATOM      8  C   UNL     1      -1.235   0.023  -0.790  0.00  0.00    +0.145 C 
ATOM      9  C   UNL     1      -2.023   2.139   0.212  0.00  0.00    +0.058 C 
ATOM     10  C   UNL     1       1.589  -1.298   0.258  0.00  0.00    +0.219 C 
ATOM     11  C   UNL     1      -2.221   1.198  -1.021  0.00  0.00    +0.155 C 
ATOM     12  C   UNL     1       0.384   3.028   0.092  0.00  0.00    +0.001 C 
ATOM     13  C   UNL     1       2.135   0.998   1.811  0.00  0.00    +0.145 C 
ATOM     14  C   UNL     1       4.042  -0.683  -0.444  0.00  0.00    +0.004 C 
ATOM     15  C   UNL     1       3.242   2.223  -0.142  0.00  0.00    +0.003 C 
ATOM     16  C   UNL     1      -1.109   3.345  -0.060  0.00  0.00    +0.005 C 
ATOM     17  C   UNL     1       4.898   0.513  -0.921  0.00  0.00    +0.000 C 
ATOM     18  C   UNL     1       4.690   1.762  -0.075  0.00  0.00    +0.000 C 
ATOM     19  C   UNL     1       4.191  -1.813  -1.492  0.00  0.00    +0.000 C 
ATOM     20  C   UNL     1       4.645  -1.230   0.869  0.00  0.00    +0.000 C 
ENDROOT
BRANCH   5  21
ATOM     21  O   UNL     1      -0.409  -1.591   1.590  0.00  0.00    -0.361 OA
ATOM     22  H   UNL     1      -1.101  -1.161   2.116  0.00  0.00    +0.213 HD
ENDBRANCH   5  21
BRANCH   7  23
ATOM     23  O   UNL     1      -2.263   0.347   1.829  0.00  0.00    -0.384 OA
ATOM     24  H   UNL     1      -1.811  -0.214   2.479  0.00  0.00    +0.210 HD
ENDBRANCH   7  23
BRANCH   8  25
ATOM     25  O   UNL     1      -0.573  -0.352  -1.984  0.00  0.00    -0.382 OA
ATOM     26  H   UNL     1       0.033  -1.087  -1.800  0.00  0.00    +0.210 HD
ENDBRANCH   8  25
BRANCH  11  27
ATOM     27  O   UNL     1      -1.922   1.860  -2.247  0.00  0.00    -0.381 OA
ATOM     28  H   UNL     1      -1.015   2.202  -2.217  0.00  0.00    +0.210 HD
ENDBRANCH  11  27
BRANCH  10  29
ATOM     29  O   UNL     1       1.043  -2.121  -0.765  0.00  0.00    -0.447 OA
BRANCH  29  31
ATOM     30  O   UNL     1       0.245  -3.690   0.731  0.00  0.00    -0.250 OA
ATOM     31  C   UNL     1       0.198  -3.111  -0.345  0.00  0.00    +0.318 C 
ATOM     32  C   UNL     1      -0.819  -3.396  -1.408  0.00  0.00    +0.121 C 
ENDBRANCH  29  31
ENDBRANCH  10  29
BRANCH  11  33
ATOM     33  C   UNL     1      -3.659   0.680  -1.125  0.00  0.00    +0.237 C 
BRANCH  33  34
ATOM     34  O   UNL     1      -3.953  -0.053   0.048  0.00  0.00    -0.446 OA
BRANCH  34  36
ATOM     35  O   UNL     1      -6.084  -0.492  -0.729  0.00  0.00    -0.250 OA
ATOM     36  C   UNL     1      -5.211  -0.592   0.122  0.00  0.00    +0.318 C 
ATOM     37  C   UNL     1      -5.379  -1.337   1.412  0.00  0.00    +0.121 C 
ENDBRANCH  34  36
ENDBRANCH  33  34
ENDBRANCH  11  33
TORSDOF 9
