128194
  -OEChem-03292013323D

 38 39  0     1  0  0  0  0  0999 V2000
    2.2365    0.6313    0.7775 O   0  0  0  0  0  0  0  0  0  0  0  0
    5.0508   -0.3474   -1.2205 O   0  0  0  0  0  0  0  0  0  0  0  0
    0.9746   -1.2178    0.0524 O   0  0  0  0  0  0  0  0  0  0  0  0
    4.3818   -1.4290    1.2132 O   0  0  0  0  0  0  0  0  0  0  0  0
   -0.1888   -0.6253    0.7018 O   0  0  0  0  0  0  0  0  0  0  0  0
    2.6678    3.2429   -0.1971 O   0  0  0  0  0  0  0  0  0  0  0  0
   -1.2782   -1.7134   -1.0248 O   0  0  0  0  0  0  0  0  0  0  0  0
   -3.6594   -0.8667   -0.1778 N   0  0  0  0  0  0  0  0  0  0  0  0
   -4.9280    1.1379    0.1258 N   0  0  0  0  0  0  0  0  0  0  0  0
    3.6997   -0.3212   -0.8122 C   0  0  2  0  0  0  0  0  0  0  0  0
    3.3540    0.9580   -0.0677 C   0  0  1  0  0  0  0  0  0  0  0  0
    3.3623   -1.3780    0.2202 C   0  0  2  0  0  0  0  0  0  0  0  0
    2.0920   -0.8020    0.8286 C   0  0  1  0  0  0  0  0  0  0  0  0
    2.9811    2.1075   -0.9872 C   0  0  0  0  0  0  0  0  0  0  0  0
   -2.5134   -0.4324    0.5910 C   0  0  2  0  0  0  0  0  0  0  0  0
   -2.4741    1.0924    0.5719 C   0  0  0  0  0  0  0  0  0  0  0  0
   -3.8377    1.6520    0.9703 C   0  0  0  0  0  0  0  0  0  0  0  0
   -1.2795   -1.0090   -0.0243 C   0  0  0  0  0  0  0  0  0  0  0  0
   -4.7617   -0.0548   -0.3507 C   0  0  0  0  0  0  0  0  0  0  0  0
   -5.8797   -0.6250   -1.1905 C   0  0  0  0  0  0  0  0  0  0  0  0
    3.0622   -0.4463   -1.6956 H   0  0  0  0  0  0  0  0  0  0  0  0
    4.1714    1.2744    0.5927 H   0  0  0  0  0  0  0  0  0  0  0  0
    3.2375   -2.3766   -0.2090 H   0  0  0  0  0  0  0  0  0  0  0  0
    1.9549   -1.1075    1.8719 H   0  0  0  0  0  0  0  0  0  0  0  0
    2.0896    1.8677   -1.5753 H   0  0  0  0  0  0  0  0  0  0  0  0
    3.7971    2.3638   -1.6696 H   0  0  0  0  0  0  0  0  0  0  0  0
   -2.6117   -0.8145    1.6132 H   0  0  0  0  0  0  0  0  0  0  0  0
    5.6083   -0.1703   -0.4442 H   0  0  0  0  0  0  0  0  0  0  0  0
    5.1721   -1.8134    0.7973 H   0  0  0  0  0  0  0  0  0  0  0  0
   -2.2120    1.4538   -0.4319 H   0  0  0  0  0  0  0  0  0  0  0  0
   -1.7046    1.4713    1.2546 H   0  0  0  0  0  0  0  0  0  0  0  0
   -4.0589    1.4204    2.0187 H   0  0  0  0  0  0  0  0  0  0  0  0
   -3.8159    2.7434    0.8782 H   0  0  0  0  0  0  0  0  0  0  0  0
   -3.6576   -1.8124   -0.5500 H   0  0  0  0  0  0  0  0  0  0  0  0
    3.4668    3.4844    0.3018 H   0  0  0  0  0  0  0  0  0  0  0  0
   -5.5050   -0.8386   -2.1957 H   0  0  0  0  0  0  0  0  0  0  0  0
   -6.7125    0.0800   -1.2620 H   0  0  0  0  0  0  0  0  0  0  0  0
   -6.2365   -1.5545   -0.7376 H   0  0  0  0  0  0  0  0  0  0  0  0
  1 11  1  0  0  0  0
  1 13  1  0  0  0  0
  2 10  1  0  0  0  0
  2 28  1  0  0  0  0
  3  5  1  0  0  0  0
  3 13  1  0  0  0  0
  4 12  1  0  0  0  0
  4 29  1  0  0  0  0
  5 18  1  0  0  0  0
  6 14  1  0  0  0  0
  6 35  1  0  0  0  0
  7 18  2  0  0  0  0
  8 15  1  0  0  0  0
  8 19  1  0  0  0  0
  8 34  1  0  0  0  0
  9 17  1  0  0  0  0
  9 19  2  0  0  0  0
 10 11  1  0  0  0  0
 10 12  1  0  0  0  0
 10 21  1  0  0  0  0
 11 14  1  0  0  0  0
 11 22  1  0  0  0  0
 12 13  1  0  0  0  0
 12 23  1  0  0  0  0
 13 24  1  0  0  0  0
 14 25  1  0  0  0  0
 14 26  1  0  0  0  0
 15 16  1  0  0  0  0
 15 18  1  0  0  0  0
 15 27  1  0  0  0  0
 16 17  1  0  0  0  0
 16 30  1  0  0  0  0
 16 31  1  0  0  0  0
 17 32  1  0  0  0  0
 17 33  1  0  0  0  0
 19 20  1  0  0  0  0
 20 36  1  0  0  0  0
 20 37  1  0  0  0  0
 20 38  1  0  0  0  0
M  END
> <PUBCHEM_COMPOUND_CID>
128194

> <PUBCHEM_CONFORMER_RMSD>
0.8

> <PUBCHEM_CONFORMER_DIVERSEORDER>
2
77
70
89
30
69
109
99
28
162
83
119
6
93
140
118
10
144
17
46
116
26
104
39
138
25
163
127
79
34
75
8
44
150
35
145
126
5
113
1
137
101
19
24
55
157
47
57
112
60
164
102
16
31
3
108
53
20
133
129
32
139
120
114
41
52
12
136
100
124
56
87
130
149
161
7
65
146
131
4
110
73
151
106
158
37
90
80
11
62
155
103
33
76
91
153
128
159
48
154
156
38
14
98
142
21
64
122
36
105
111
22
115
58
123
94
13
18
71
27
107
160
95
40
45
29
141
134
54
9
92
84
147
43
42
49
96
15
135
59
66
51
132
148
97
63
165
125
50
72
61
68
23
67
143
88
85
82
121
86
74
81
152
78
117

> <PUBCHEM_MMFF94_PARTIAL_CHARGES>
23
1 -0.56
10 0.28
11 0.28
12 0.28
13 0.56
14 0.28
15 0.43
17 0.25
18 0.66
19 0.44
2 -0.68
20 0.06
28 0.4
29 0.4
3 -0.28
34 0.4
35 0.4
4 -0.68
5 -0.15
6 -0.68
7 -0.57
8 -0.82
9 -0.7

> <PUBCHEM_EFFECTIVE_ROTOR_COUNT>
6.8

> <PUBCHEM_PHARMACOPHORE_FEATURES>
12
1 1 acceptor
1 2 acceptor
1 2 donor
1 4 acceptor
1 4 donor
1 6 acceptor
1 6 donor
1 7 acceptor
1 8 donor
3 8 9 19 cation
5 1 10 11 12 13 rings
6 8 9 15 16 17 19 rings

> <PUBCHEM_HEAVY_ATOM_COUNT>
20

> <PUBCHEM_ATOM_DEF_STEREO_COUNT>
5

> <PUBCHEM_ATOM_UDEF_STEREO_COUNT>
0

> <PUBCHEM_BOND_DEF_STEREO_COUNT>
0

> <PUBCHEM_BOND_UDEF_STEREO_COUNT>
0

> <PUBCHEM_ISOTOPIC_ATOM_COUNT>
0

> <PUBCHEM_COMPONENT_COUNT>
1

> <PUBCHEM_CACTVS_TAUTO_COUNT>
2

> <PUBCHEM_CONFORMER_ID>
0001F4C200000002

> <PUBCHEM_MMFF94_ENERGY>
43.2888

> <PUBCHEM_FEATURE_SELFOVERLAP>
60.913

> <PUBCHEM_SHAPE_FINGERPRINT>
10366900 7 17748832890536637001
11089746 13 18113892754154938423
12166972 35 18202281381784236880
12596602 18 12901554545854175709
12616971 3 18412830166544000065
13583140 156 17968104135415344259
14528608 73 18408038537640451167
15342168 16 17677616543221679124
17834072 33 18335136518704377343
18186145 218 18040432204733679954
21033648 29 16660636363161486269
212847 35 17967251975322743842
21503847 285 18187087269318164964
21709351 56 18339072697142947599
221357 26 18335137566169956764
22224240 67 9439112119169439766
22289505 5 18186800262523700276
22485316 2 8934999265816424403
23402539 116 17917138421561915551
23402655 69 18410580604239464278
23557571 272 17203616956186548993
23559900 14 18408882949337918042
3004659 81 18272370866977415368
3060560 45 18341901792518028558
351380 180 18335417941872104337
474 4 17968659444416152172
4990 188 16845573097771798415
5374978 207 12107779709671893943
633830 44 18335137596556493767
7832392 63 18410858797861173732
9971528 1 18341329994884199066
9981440 41 17688022433421872056

> <PUBCHEM_SHAPE_MULTIPOLES>
360.54
12.35
2.16
1.1
7.38
1.62
0.09
0.44
2.63
-1.61
0.11
-0.15
-0.06
-1.5

> <PUBCHEM_SHAPE_SELFOVERLAP>
737.885

> <PUBCHEM_SHAPE_VOLUME>
205.7

> <PUBCHEM_COORDINATE_TYPE>
2
5
10

$$$$
