REMARK  Name = 128155
REMARK  3 active torsions:
REMARK  status: ('A' for Active; 'I' for Inactive)
REMARK    1  A    between atoms: C_7  and  O_24
REMARK    2  A    between atoms: C_16  and  O_26
REMARK    3  A    between atoms: C_22  and  O_28
REMARK                            x       y       z     vdW  Elec       q    Type
REMARK                         _______ _______ _______ _____ _____    ______ ____
ROOT
ATOM      1  O   UNL     1      -2.126   2.542   0.676  0.00  0.00    -0.345 OA
ATOM      2  O   UNL     1      -4.809   0.899  -0.508  0.00  0.00    -0.289 OA
ATOM      3  O   UNL     1       4.857   1.300  -0.047  0.00  0.00    -0.286 OA
ATOM      4  C   UNL     1      -0.579   1.021  -0.557  0.00  0.00    +0.085 C 
ATOM      5  C   UNL     1      -1.410   2.273  -0.533  0.00  0.00    +0.157 C 
ATOM      6  C   UNL     1      -2.901   2.214  -0.492  0.00  0.00    +0.204 C 
ATOM      7  C   UNL     1       0.704   1.114   0.332  0.00  0.00    +0.132 C 
ATOM      8  C   UNL     1      -1.367  -0.247  -0.212  0.00  0.00    -0.011 C 
ATOM      9  C   UNL     1       1.528  -0.147   0.096  0.00  0.00    +0.012 C 
ATOM     10  C   UNL     1      -3.592   0.922  -0.399  0.00  0.00    +0.205 C 
ATOM     11  C   UNL     1      -2.776  -0.291  -0.176  0.00  0.00    +0.067 C 
ATOM     12  C   UNL     1      -0.625  -1.433   0.046  0.00  0.00    -0.004 C 
ATOM     13  C   UNL     1       0.858  -1.393  -0.005  0.00  0.00    -0.001 C 
ATOM     14  C   UNL     1       1.498   2.380   0.127  0.00  0.00    +0.008 C 
ATOM     15  C   UNL     1       2.928  -0.093  -0.026  0.00  0.00    +0.071 C 
ATOM     16  C   UNL     1      -3.447  -1.483   0.114  0.00  0.00    +0.136 C 
ATOM     17  C   UNL     1      -1.331  -2.611   0.354  0.00  0.00    +0.003 C 
ATOM     18  C   UNL     1       2.823   2.436  -0.035  0.00  0.00    +0.040 C 
ATOM     19  C   UNL     1       1.637  -2.551  -0.194  0.00  0.00    +0.003 C 
ATOM     20  C   UNL     1       3.635   1.205  -0.032  0.00  0.00    +0.198 C 
ATOM     21  C   UNL     1      -2.724  -2.637   0.381  0.00  0.00    +0.037 C 
ATOM     22  C   UNL     1       3.676  -1.260  -0.199  0.00  0.00    +0.136 C 
ATOM     23  C   UNL     1       3.029  -2.486  -0.277  0.00  0.00    +0.037 C 
ENDROOT
BRANCH   7  24
ATOM     24  O   UNL     1       0.286   1.165   1.710  0.00  0.00    -0.378 OA
ATOM     25  H   UNL     1      -0.236   0.375   1.919  0.00  0.00    +0.211 HD
ENDBRANCH   7  24
BRANCH  16  26
ATOM     26  O   UNL     1      -4.806  -1.577   0.173  0.00  0.00    -0.505 OA
ATOM     27  H   UNL     1      -5.336  -0.824   0.000  0.00  0.00    +0.292 HD
ENDBRANCH  16  26
BRANCH  22  28
ATOM     28  O   UNL     1       5.034  -1.263  -0.318  0.00  0.00    -0.505 OA
ATOM     29  H   UNL     1       5.510  -0.457  -0.271  0.00  0.00    +0.292 HD
ENDBRANCH  22  28
TORSDOF 3
