REMARK  Name = 128135
REMARK  10 active torsions:
REMARK  status: ('A' for Active; 'I' for Inactive)
REMARK    1  A    between atoms: C_2  and  C_3
REMARK    2  A    between atoms: C_2  and  O_19
REMARK    3  A    between atoms: C_4  and  N_9
REMARK    4  A    between atoms: N_9  and  C_11
REMARK    5  A    between atoms: O_19  and  C_25
REMARK    6  A    between atoms: C_21  and  O_26
REMARK    7  A    between atoms: C_22  and  O_28
REMARK    8  A    between atoms: C_23  and  O_30
REMARK    9  A    between atoms: C_24  and  C_33
REMARK   10  A    between atoms: C_33  and  O_34
REMARK                            x       y       z     vdW  Elec       q    Type
REMARK                         _______ _______ _______ _____ _____    ______ ____
ROOT
ATOM      1  O   UNL     1       0.128   0.203  -1.417  0.00  0.00    -0.245 OA
ATOM      2  C   UNL     1       0.341   1.176  -0.710  0.00  0.00    +0.344 C 
ENDROOT
BRANCH   2   3
ATOM      3  C   UNL     1      -0.712   2.150  -0.327  0.00  0.00    +0.089 C 
ATOM      4  C   UNL     1      -2.026   1.745  -0.202  0.00  0.00    +0.055 C 
ATOM      5  C   UNL     1      -0.326   3.458  -0.104  0.00  0.00    +0.008 C 
ATOM      6  C   UNL     1      -2.992   2.683   0.160  0.00  0.00    +0.015 C 
ATOM      7  C   UNL     1      -1.292   4.397   0.258  0.00  0.00    +0.000 C 
ATOM      8  C   UNL     1      -2.625   4.010   0.389  0.00  0.00    +0.001 C 
BRANCH   4   9
ATOM      9  N   UNL     1      -2.418   0.407  -0.429  0.00  0.00    -0.313 N 
ATOM     10  H   UNL     1      -1.860  -0.063  -1.090  0.00  0.00    +0.152 HD
BRANCH   9  11
ATOM     11  C   UNL     1      -3.451  -0.385   0.104  0.00  0.00    +0.044 C 
ATOM     12  C   UNL     1      -4.038  -1.407  -0.648  0.00  0.00    -0.012 C 
ATOM     13  C   UNL     1      -5.061  -2.182  -0.102  0.00  0.00    -0.025 C 
ATOM     14  C   UNL     1      -3.897  -0.144   1.406  0.00  0.00    +0.014 C 
ATOM     15  C   UNL     1      -3.567  -1.672  -2.044  0.00  0.00    +0.032 C 
ATOM     16  C   UNL     1      -5.502  -1.937   1.198  0.00  0.00    -0.004 C 
ATOM     17  C   UNL     1      -4.920  -0.918   1.953  0.00  0.00    +0.001 C 
ATOM     18  C   UNL     1      -5.702  -3.279  -0.888  0.00  0.00    +0.031 C 
ENDBRANCH   9  11
ENDBRANCH   4   9
ENDBRANCH   2   3
BRANCH   2  19
ATOM     19  O   UNL     1       1.538   1.528  -0.169  0.00  0.00    -0.419 OA
BRANCH  19  25
ATOM     20  O   UNL     1       2.351  -0.652  -0.005  0.00  0.00    -0.307 OA
ATOM     21  C   UNL     1       5.068   0.277   0.073  0.00  0.00    +0.173 C 
ATOM     22  C   UNL     1       4.689  -1.164   0.414  0.00  0.00    +0.178 C 
ATOM     23  C   UNL     1       3.875   1.220   0.232  0.00  0.00    +0.211 C 
ATOM     24  C   UNL     1       3.402  -1.566  -0.295  0.00  0.00    +0.246 C 
ATOM     25  C   UNL     1       2.634   0.666  -0.469  0.00  0.00    +0.321 C 
BRANCH  21  26
ATOM     26  O   UNL     1       6.115   0.680   0.958  0.00  0.00    -0.379 OA
ATOM     27  H   UNL     1       6.872   0.081   0.856  0.00  0.00    +0.211 HD
ENDBRANCH  21  26
BRANCH  22  28
ATOM     28  O   UNL     1       5.737  -2.035  -0.010  0.00  0.00    -0.379 OA
ATOM     29  H   UNL     1       6.562  -1.788   0.435  0.00  0.00    +0.211 HD
ENDBRANCH  22  28
BRANCH  23  30
ATOM     30  O   UNL     1       4.190   2.485  -0.350  0.00  0.00    -0.377 OA
ATOM     31  H   UNL     1       4.977   2.853   0.082  0.00  0.00    +0.211 HD
ENDBRANCH  23  30
BRANCH  24  33
ATOM     32  O   UNL     1       1.819  -3.011   0.815  0.00  0.00    -0.247 OA
ATOM     33  C   UNL     1       2.883  -2.865   0.232  0.00  0.00    +0.344 C 
BRANCH  33  34
ATOM     34  O   UNL     1       3.758  -3.868  -0.022  0.00  0.00    -0.478 OA
ATOM     35  H   UNL     1       4.559  -3.688  -0.475  0.00  0.00    +0.295 HD
ENDBRANCH  33  34
ENDBRANCH  24  33
ENDBRANCH  19  25
ENDBRANCH   2  19
TORSDOF 10
