REMARK  Name = 128160
REMARK  4 active torsions:
REMARK  status: ('A' for Active; 'I' for Inactive)
REMARK    1  A    between atoms: C_12  and  C_26
REMARK    2  A    between atoms: C_18  and  O_22
REMARK    3  A    between atoms: C_19  and  O_24
REMARK    4  A    between atoms: C_27  and  C_28
REMARK                            x       y       z     vdW  Elec       q    Type
REMARK                         _______ _______ _______ _____ _____    ______ ____
ROOT
ATOM      1  O   UNL     1      -3.230   3.396  -0.460  0.00  0.00    -0.270 OA
ATOM      2  N   UNL     1       1.364   1.321  -0.115  0.00  0.00    -0.231 N 
ATOM      3  N   UNL     1      -1.465   1.883  -0.359  0.00  0.00    -0.273 N 
ATOM      4  N   UNL     1       3.185  -0.174  -0.325  0.00  0.00    -0.332 NA
ATOM      5  N   UNL     1       3.496   2.018   0.626  0.00  0.00    -0.317 NA
ATOM      6  N   UNL     1       5.618   2.715   1.367  0.00  0.00    -0.335 N 
ATOM      7  C   UNL     1       0.464   0.331  -0.709  0.00  0.00    +0.125 C 
ATOM      8  C   UNL     1       0.817   2.638   0.223  0.00  0.00    +0.125 C 
ATOM      9  C   UNL     1      -0.964   0.514  -0.194  0.00  0.00    +0.116 C 
ATOM     10  C   UNL     1      -0.454   2.916  -0.576  0.00  0.00    +0.116 C 
ATOM     11  C   UNL     1       2.718   1.049   0.068  0.00  0.00    +0.203 C 
ATOM     12  C   UNL     1      -2.809   2.247  -0.322  0.00  0.00    +0.249 C 
ATOM     13  C   UNL     1       4.491  -0.444  -0.151  0.00  0.00    +0.138 C 
ATOM     14  C   UNL     1       5.364   0.498   0.417  0.00  0.00    +0.146 C 
ATOM     15  C   UNL     1       4.798   1.715   0.786  0.00  0.00    +0.178 C 
ATOM     16  C   UNL     1       5.021  -1.674  -0.533  0.00  0.00    +0.069 C 
ATOM     17  C   UNL     1       6.728   0.205   0.594  0.00  0.00    +0.029 C 
ATOM     18  C   UNL     1       6.376  -1.972  -0.361  0.00  0.00    +0.174 C 
ATOM     19  C   UNL     1       7.230  -1.032   0.204  0.00  0.00    +0.169 C 
ATOM     20  H   UNL     1       5.227   3.580   1.631  0.00  0.00    +0.144 HD
ATOM     21  H   UNL     1       6.577   2.546   1.505  0.00  0.00    +0.144 HD
ENDROOT
BRANCH  18  22
ATOM     22  O   UNL     1       6.846  -3.190  -0.750  0.00  0.00    -0.468 OA
ATOM     23  C   UNL     1       7.319  -3.303  -2.091  0.00  0.00    +0.253 C 
ENDBRANCH  18  22
BRANCH  19  24
ATOM     24  O   UNL     1       8.552  -1.309   0.378  0.00  0.00    -0.469 OA
ATOM     25  C   UNL     1       8.932  -1.907   1.616  0.00  0.00    +0.253 C 
ENDBRANCH  19  24
BRANCH  12  26
ATOM     26  C   UNL     1      -3.794   1.170  -0.089  0.00  0.00    +0.058 C 
ATOM     27  C   UNL     1      -5.009   1.315  -0.615  0.00  0.00    +0.005 C 
BRANCH  27  28
ATOM     28  C   UNL     1      -6.099   0.336  -0.463  0.00  0.00    +0.000 C 
ATOM     29  C   UNL     1      -5.795  -0.970  -0.115  0.00  0.00    +0.000 C 
ATOM     30  C   UNL     1      -7.408   0.741  -0.671  0.00  0.00    +0.000 C 
ATOM     31  C   UNL     1      -6.827  -1.897   0.029  0.00  0.00    +0.000 C 
ATOM     32  C   UNL     1      -8.440  -0.186  -0.526  0.00  0.00    +0.000 C 
ATOM     33  C   UNL     1      -8.150  -1.505  -0.177  0.00  0.00    +0.000 C 
ENDBRANCH  27  28
ENDBRANCH  12  26
TORSDOF 4
REMARK  Name = 128160
REMARK  4 active torsions:
REMARK  status: ('A' for Active; 'I' for Inactive)
REMARK    1  A    between atoms: C_12  and  C_26
REMARK    2  A    between atoms: C_18  and  O_22
REMARK    3  A    between atoms: C_19  and  O_24
REMARK    4  A    between atoms: C_27  and  C_28
REMARK                            x       y       z     vdW  Elec       q    Type
REMARK                         _______ _______ _______ _____ _____    ______ ____
ROOT
ATOM      1  N   UNL     1      -9.636  -2.481   1.133  0.00  0.00    +0.000 NA
ATOM      2  N   UNL     1     -10.052  -2.529   2.195  0.00  0.00    +0.000 NA
ENDROOT
TORSDOF 0
