REMARK  Name = 128102
REMARK  4 active torsions:
REMARK  status: ('A' for Active; 'I' for Inactive)
REMARK    1  A    between atoms: N_2  and  N_5
REMARK    2  A    between atoms: C_3  and  N_15
REMARK    3  A    between atoms: N_14  and  N_15
REMARK    4  A    between atoms: N_14  and  C_20
REMARK                            x       y       z     vdW  Elec       q    Type
REMARK                         _______ _______ _______ _____ _____    ______ ____
ROOT
ATOM      1  O   UNL     1       0.461   1.641  -1.464  0.00  0.00    -0.248 OA
ATOM      2  N   UNL     1       1.116   1.228   0.703  0.00  0.00    -0.217 N 
ATOM      3  C   UNL     1       0.190   1.263  -0.323  0.00  0.00    +0.355 C 
ATOM      4  H   UNL     1       0.857   0.918   1.601  0.00  0.00    +0.174 HD
ENDROOT
BRANCH   2   5
ATOM      5  N   UNL     1       2.394   1.632   0.449  0.00  0.00    -0.250 N 
ATOM      6  N   UNL     1       4.702   1.058   0.328  0.00  0.00    -0.232 NA
ATOM      7  N   UNL     1       5.349  -1.238  -0.015  0.00  0.00    -0.253 NA
ATOM      8  C   UNL     1       3.401   0.672   0.295  0.00  0.00    +0.124 C 
ATOM      9  C   UNL     1       4.040  -1.564  -0.040  0.00  0.00    +0.041 C 
ATOM     10  C   UNL     1       3.019  -0.649   0.111  0.00  0.00    +0.103 C 
ATOM     11  C   UNL     1       3.711  -3.005  -0.243  0.00  0.00    +0.047 C 
ATOM     12  C   UNL     1       5.605   0.071   0.170  0.00  0.00    +0.251 C 
ATOM     13  H   UNL     1       2.606   2.591   0.375  0.00  0.00    +0.171 HD
ENDBRANCH   2   5
BRANCH   3  14
ATOM     14  N   UNL     1      -1.048   0.822   0.100  0.00  0.00    -0.071 NA
BRANCH  14  15
ATOM     15  N   UNL     1      -1.897   0.847  -0.819  0.00  0.00    -0.109 NA
BRANCH  15  20
ATOM     16  N   UNL     1      -5.562  -0.408   0.603  0.00  0.00    -0.253 NA
ATOM     17  N   UNL     1      -3.954   1.333   0.164  0.00  0.00    -0.230 NA
ATOM     18  C   UNL     1      -4.689  -1.294   0.080  0.00  0.00    +0.042 C 
ATOM     19  C   UNL     1      -3.448  -0.949  -0.414  0.00  0.00    +0.105 C 
ATOM     20  C   UNL     1      -3.131   0.392  -0.346  0.00  0.00    +0.150 C 
ATOM     21  C   UNL     1      -5.122  -2.722   0.049  0.00  0.00    +0.047 C 
ATOM     22  C   UNL     1      -5.136   0.870   0.613  0.00  0.00    +0.251 C 
ENDBRANCH  15  20
ENDBRANCH  14  15
ENDBRANCH   3  14
TORSDOF 4
