REMARK  Name = 128149
REMARK  3 active torsions:
REMARK  status: ('A' for Active; 'I' for Inactive)
REMARK    1  A    between atoms: C_4  and  O_23
REMARK    2  A    between atoms: C_6  and  O_25
REMARK    3  A    between atoms: C_19  and  O_27
REMARK                            x       y       z     vdW  Elec       q    Type
REMARK                         _______ _______ _______ _____ _____    ______ ____
ROOT
ATOM      1  O   UNL     1      -1.680  -2.063   0.590  0.00  0.00    -0.289 OA
ATOM      2  O   UNL     1       0.388  -2.057  -0.928  0.00  0.00    -0.287 OA
ATOM      3  O   UNL     1       2.812   2.528  -0.163  0.00  0.00    -0.286 OA
ATOM      4  C   UNL     1      -4.296   0.151   0.186  0.00  0.00    +0.124 C 
ATOM      5  C   UNL     1      -3.578   1.460  -0.172  0.00  0.00    +0.056 C 
ATOM      6  C   UNL     1      -3.581  -1.034  -0.466  0.00  0.00    +0.197 C 
ATOM      7  C   UNL     1      -2.067   1.383  -0.125  0.00  0.00    -0.017 C 
ATOM      8  C   UNL     1      -1.351   0.169  -0.134  0.00  0.00    +0.037 C 
ATOM      9  C   UNL     1      -2.148  -1.078   0.029  0.00  0.00    +0.202 C 
ATOM     10  C   UNL     1       0.061   0.177  -0.200  0.00  0.00    +0.045 C 
ATOM     11  C   UNL     1      -5.769   0.218  -0.233  0.00  0.00    +0.033 C 
ATOM     12  C   UNL     1       0.742   1.403  -0.147  0.00  0.00    +0.042 C 
ATOM     13  C   UNL     1      -1.358   2.593  -0.129  0.00  0.00    -0.004 C 
ATOM     14  C   UNL     1       0.033   2.606  -0.113  0.00  0.00    +0.003 C 
ATOM     15  C   UNL     1       0.873  -1.048  -0.432  0.00  0.00    +0.196 C 
ATOM     16  C   UNL     1       2.221   1.457  -0.112  0.00  0.00    +0.199 C 
ATOM     17  C   UNL     1       2.317  -1.021  -0.137  0.00  0.00    +0.045 C 
ATOM     18  C   UNL     1       2.975   0.197   0.009  0.00  0.00    +0.076 C 
ATOM     19  C   UNL     1       4.353   0.225   0.255  0.00  0.00    +0.137 C 
ATOM     20  C   UNL     1       3.033  -2.220  -0.042  0.00  0.00    +0.003 C 
ATOM     21  C   UNL     1       5.064  -0.971   0.356  0.00  0.00    +0.037 C 
ATOM     22  C   UNL     1       4.405  -2.191   0.208  0.00  0.00    +0.003 C 
ENDROOT
BRANCH   4  23
ATOM     23  O   UNL     1      -4.269  -0.020   1.609  0.00  0.00    -0.384 OA
ATOM     24  H   UNL     1      -3.348  -0.066   1.912  0.00  0.00    +0.210 HD
ENDBRANCH   4  23
BRANCH   6  25
ATOM     25  O   UNL     1      -4.229  -2.249  -0.127  0.00  0.00    -0.375 OA
ATOM     26  H   UNL     1      -5.146  -2.225  -0.441  0.00  0.00    +0.211 HD
ENDBRANCH   6  25
BRANCH  19  27
ATOM     27  O   UNL     1       5.049   1.385   0.416  0.00  0.00    -0.505 OA
ATOM     28  H   UNL     1       4.608   2.209   0.355  0.00  0.00    +0.292 HD
ENDBRANCH  19  27
TORSDOF 3
