REMARK  Name = 128185
REMARK  11 active torsions:
REMARK  status: ('A' for Active; 'I' for Inactive)
REMARK    1  A    between atoms: C_1  and  C_22
REMARK    2  A    between atoms: C_2  and  S_11
REMARK    3  A    between atoms: C_4  and  O_7
REMARK    4  A    between atoms: C_6  and  O_9
REMARK    5  A    between atoms: S_11  and  C_12
REMARK    6  A    between atoms: C_12  and  C_13
REMARK    7  A    between atoms: C_13  and  N_14
REMARK    8  A    between atoms: C_13  and  C_19
REMARK    9  A    between atoms: C_19  and  O_20
REMARK   10  A    between atoms: C_22  and  C_24
REMARK   11  A    between atoms: C_24  and  O_25
REMARK                            x       y       z     vdW  Elec       q    Type
REMARK                         _______ _______ _______ _____ _____    ______ ____
ROOT
ATOM      1  C   UNK     1      -2.090   0.379   0.510  0.00  0.00    -0.007 C 
ATOM      2  C   UNK     1       0.235   0.716   1.070  0.00  0.00    +0.062 C 
ATOM      3  C   UNK     1      -0.943  -0.019   1.197  0.00  0.00    +0.006 C 
ATOM      4  C   UNK     1       0.267   1.849   0.256  0.00  0.00    +0.173 C 
ATOM      5  C   UNK     1      -2.059   1.511  -0.303  0.00  0.00    +0.036 C 
ATOM      6  C   UNK     1      -0.880   2.246  -0.430  0.00  0.00    +0.168 C 
ENDROOT
BRANCH   4   7
ATOM      7  O   UNK     1       1.409   2.584   0.118  0.00  0.00    -0.503 OA
ATOM      8  H   UNK     1       2.188   2.329   0.573  0.00  0.00    +0.292 HD
ENDBRANCH   4   7
BRANCH   6   9
ATOM      9  O   UNK     1      -0.865   3.350  -1.229  0.00  0.00    -0.503 OA
ATOM     10  H   UNK     1      -0.078   3.851  -1.321  0.00  0.00    +0.292 HD
ENDBRANCH   6   9
BRANCH   2  11
ATOM     11  S   UNK     1       1.684   0.173   1.967  0.00  0.00    -0.112 S 
BRANCH  11  12
ATOM     12  C   UNK     1       1.924  -1.496   1.278  0.00  0.00    +0.051 C 
BRANCH  12  13
ATOM     13  C   UNK     1       2.151  -1.463  -0.234  0.00  0.00    +0.047 C 
BRANCH  13  14
ATOM     14  N   UNK     1       2.363  -2.821  -0.739  0.00  0.00    +0.389 N 
ATOM     15  H   UNK     1       1.560  -3.402  -0.498  0.00  0.00    -0.088 HD
ATOM     16  H   UNK     1       3.205  -3.213  -0.317  0.00  0.00    -0.088 HD
ATOM     17  H   UNK     1       2.472  -2.794  -1.753  0.00  0.00    -0.088 HD
ENDBRANCH  13  14
BRANCH  13  19
ATOM     18  O   UNK     1       4.495  -0.866  -0.191  0.00  0.00    -0.253 OA
ATOM     19  C   UNK     1       3.367  -0.639  -0.615  0.00  0.00    +0.294 C 
BRANCH  19  20
ATOM     20  O   UNK     1       3.089   0.398  -1.444  0.00  0.00    -0.482 OA
ATOM     21  H   UNK     1       2.212   0.535  -1.745  0.00  0.00    +0.295 HD
ENDBRANCH  19  20
ENDBRANCH  13  19
ENDBRANCH  12  13
ENDBRANCH  11  12
ENDBRANCH   2  11
BRANCH   1  22
ATOM     22  C   UNK     1      -3.351  -0.406   0.646  0.00  0.00    +0.136 C 
BRANCH  22  24
ATOM     23  O   UNK     1      -2.687  -1.744  -1.278  0.00  0.00    -0.250 OA
ATOM     24  C   UNK     1      -3.487  -1.513  -0.382  0.00  0.00    +0.318 C 
BRANCH  24  25
ATOM     25  O   UNK     1      -4.622  -2.238  -0.197  0.00  0.00    -0.480 OA
ATOM     26  H   UNK     1      -5.206  -2.025   0.504  0.00  0.00    +0.295 HD
ENDBRANCH  24  25
ENDBRANCH  22  24
ENDBRANCH   1  22
TORSDOF 11
