REMARK  Name = 128194
REMARK  8 active torsions:
REMARK  status: ('A' for Active; 'I' for Inactive)
REMARK    1  A    between atoms: O_1  and  C_6
REMARK    2  A    between atoms: O_1  and  O_14
REMARK    3  A    between atoms: C_3  and  O_7
REMARK    4  A    between atoms: C_4  and  C_11
REMARK    5  A    between atoms: C_5  and  O_9
REMARK    6  A    between atoms: C_11  and  O_12
REMARK    7  A    between atoms: O_14  and  C_16
REMARK    8  A    between atoms: C_16  and  C_19
REMARK                            x       y       z     vdW  Elec       q    Type
REMARK                         _______ _______ _______ _____ _____    ______ ____
ROOT
ATOM      1  O   UNL     1       0.975  -1.218   0.052  0.00  0.00    -0.139 OA
ENDROOT
BRANCH   1   6
ATOM      2  O   UNL     1       2.236   0.631   0.777  0.00  0.00    -0.323 OA
ATOM      3  C   UNL     1       3.700  -0.321  -0.812  0.00  0.00    +0.172 C 
ATOM      4  C   UNL     1       3.354   0.958  -0.068  0.00  0.00    +0.176 C 
ATOM      5  C   UNL     1       3.362  -1.378   0.220  0.00  0.00    +0.200 C 
ATOM      6  C   UNL     1       2.092  -0.802   0.829  0.00  0.00    +0.311 C 
BRANCH   3   7
ATOM      7  O   UNL     1       5.051  -0.347  -1.220  0.00  0.00    -0.379 OA
ATOM      8  H   UNL     1       5.203   0.349  -1.878  0.00  0.00    +0.211 HD
ENDBRANCH   3   7
BRANCH   5   9
ATOM      9  O   UNL     1       4.382  -1.429   1.213  0.00  0.00    -0.377 OA
ATOM     10  H   UNL     1       5.192  -1.796   0.826  0.00  0.00    +0.211 HD
ENDBRANCH   5   9
BRANCH   4  11
ATOM     11  C   UNL     1       2.981   2.107  -0.987  0.00  0.00    +0.169 C 
BRANCH  11  12
ATOM     12  O   UNL     1       2.668   3.243  -0.197  0.00  0.00    -0.379 OA
ATOM     13  H   UNL     1       2.428   3.983  -0.776  0.00  0.00    +0.211 HD
ENDBRANCH  11  12
ENDBRANCH   4  11
ENDBRANCH   1   6
BRANCH   1  14
ATOM     14  O   UNL     1      -0.189  -0.625   0.702  0.00  0.00    -0.292 OA
BRANCH  14  16
ATOM     15  O   UNL     1      -1.278  -1.713  -1.025  0.00  0.00    -0.245 OA
ATOM     16  C   UNL     1      -1.280  -1.009  -0.024  0.00  0.00    +0.369 C 
BRANCH  16  19
ATOM     17  N   UNL     1      -3.659  -0.867  -0.178  0.00  0.00    -0.314 N 
ATOM     18  N   UNL     1      -4.928   1.138   0.126  0.00  0.00    -0.260 NA
ATOM     19  C   UNL     1      -2.513  -0.432   0.591  0.00  0.00    +0.175 C 
ATOM     20  C   UNL     1      -2.474   1.092   0.572  0.00  0.00    +0.057 C 
ATOM     21  C   UNL     1      -3.838   1.652   0.970  0.00  0.00    +0.129 C 
ATOM     22  C   UNL     1      -4.762  -0.055  -0.351  0.00  0.00    +0.101 C 
ATOM     23  C   UNL     1      -5.880  -0.625  -1.190  0.00  0.00    +0.068 C 
ATOM     24  H   UNL     1      -3.653  -1.762  -0.587  0.00  0.00    +0.148 HD
ENDBRANCH  16  19
ENDBRANCH  14  16
ENDBRANCH   1  14
TORSDOF 8
