128155
  -OEChem-03292013323D

 38 43  0     1  0  0  0  0  0999 V2000
   -2.1263    2.5423    0.6765 O   0  0  0  0  0  0  0  0  0  0  0  0
    0.2864    1.1648    1.7100 O   0  0  0  0  0  0  0  0  0  0  0  0
   -4.8091    0.8991   -0.5080 O   0  0  0  0  0  0  0  0  0  0  0  0
   -4.8063   -1.5769    0.1729 O   0  0  0  0  0  0  0  0  0  0  0  0
    5.0337   -1.2628   -0.3179 O   0  0  0  0  0  0  0  0  0  0  0  0
    4.8568    1.3003   -0.0468 O   0  0  0  0  0  0  0  0  0  0  0  0
   -0.5794    1.0211   -0.5569 C   0  0  1  0  0  0  0  0  0  0  0  0
   -1.4096    2.2735   -0.5329 C   0  0  1  0  0  0  0  0  0  0  0  0
   -2.9009    2.2139   -0.4921 C   0  0  1  0  0  0  0  0  0  0  0  0
    0.7039    1.1140    0.3324 C   0  0  2  0  0  0  0  0  0  0  0  0
   -1.3675   -0.2472   -0.2121 C   0  0  0  0  0  0  0  0  0  0  0  0
    1.5281   -0.1472    0.0956 C   0  0  0  0  0  0  0  0  0  0  0  0
   -3.5917    0.9222   -0.3988 C   0  0  0  0  0  0  0  0  0  0  0  0
   -2.7755   -0.2908   -0.1756 C   0  0  0  0  0  0  0  0  0  0  0  0
   -0.6250   -1.4326    0.0459 C   0  0  0  0  0  0  0  0  0  0  0  0
    0.8584   -1.3934   -0.0048 C   0  0  0  0  0  0  0  0  0  0  0  0
    1.4984    2.3798    0.1270 C   0  0  0  0  0  0  0  0  0  0  0  0
    2.9283   -0.0927   -0.0263 C   0  0  0  0  0  0  0  0  0  0  0  0
   -3.4472   -1.4828    0.1140 C   0  0  0  0  0  0  0  0  0  0  0  0
   -1.3311   -2.6112    0.3537 C   0  0  0  0  0  0  0  0  0  0  0  0
    2.8226    2.4356   -0.0355 C   0  0  0  0  0  0  0  0  0  0  0  0
    1.6373   -2.5508   -0.1935 C   0  0  0  0  0  0  0  0  0  0  0  0
    3.6353    1.2054   -0.0321 C   0  0  0  0  0  0  0  0  0  0  0  0
   -2.7243   -2.6373    0.3814 C   0  0  0  0  0  0  0  0  0  0  0  0
    3.6760   -1.2600   -0.1990 C   0  0  0  0  0  0  0  0  0  0  0  0
    3.0285   -2.4862   -0.2770 C   0  0  0  0  0  0  0  0  0  0  0  0
   -0.2677    0.8983   -1.6061 H   0  0  0  0  0  0  0  0  0  0  0  0
   -0.9640    3.1043   -1.0645 H   0  0  0  0  0  0  0  0  0  0  0  0
   -3.4416    3.0229   -0.9700 H   0  0  0  0  0  0  0  0  0  0  0  0
    0.9686    3.3284    0.1675 H   0  0  0  0  0  0  0  0  0  0  0  0
   -0.2953    1.9350    1.8282 H   0  0  0  0  0  0  0  0  0  0  0  0
   -0.8110   -3.5362    0.5892 H   0  0  0  0  0  0  0  0  0  0  0  0
    3.3353    3.3852   -0.1384 H   0  0  0  0  0  0  0  0  0  0  0  0
    1.1780   -3.5302   -0.2998 H   0  0  0  0  0  0  0  0  0  0  0  0
   -3.2270   -3.5707    0.6220 H   0  0  0  0  0  0  0  0  0  0  0  0
    3.5971   -3.4010   -0.4234 H   0  0  0  0  0  0  0  0  0  0  0  0
   -5.0627   -2.4891    0.3913 H   0  0  0  0  0  0  0  0  0  0  0  0
    5.3939   -0.3748   -0.1749 H   0  0  0  0  0  0  0  0  0  0  0  0
  1  8  1  0  0  0  0
  1  9  1  0  0  0  0
  2 10  1  0  0  0  0
  2 31  1  0  0  0  0
  3 13  2  0  0  0  0
  4 19  1  0  0  0  0
  4 37  1  0  0  0  0
  5 25  1  0  0  0  0
  5 38  1  0  0  0  0
  6 23  2  0  0  0  0
  7  8  1  0  0  0  0
  7 10  1  0  0  0  0
  7 11  1  0  0  0  0
  7 27  1  0  0  0  0
  8  9  1  0  0  0  0
  8 28  1  0  0  0  0
  9 13  1  0  0  0  0
  9 29  1  0  0  0  0
 10 12  1  0  0  0  0
 10 17  1  0  0  0  0
 11 14  1  0  0  0  0
 11 15  2  0  0  0  0
 12 16  2  0  0  0  0
 12 18  1  0  0  0  0
 13 14  1  0  0  0  0
 14 19  2  0  0  0  0
 15 16  1  0  0  0  0
 15 20  1  0  0  0  0
 16 22  1  0  0  0  0
 17 21  2  0  0  0  0
 17 30  1  0  0  0  0
 18 23  1  0  0  0  0
 18 25  2  0  0  0  0
 19 24  1  0  0  0  0
 20 24  2  0  0  0  0
 20 32  1  0  0  0  0
 21 23  1  0  0  0  0
 21 33  1  0  0  0  0
 22 26  2  0  0  0  0
 22 34  1  0  0  0  0
 24 35  1  0  0  0  0
 25 26  1  0  0  0  0
 26 36  1  0  0  0  0
M  END
> <PUBCHEM_COMPOUND_CID>
128155

> <PUBCHEM_CONFORMER_RMSD>
0.6

> <PUBCHEM_CONFORMER_DIVERSEORDER>
1

> <PUBCHEM_MMFF94_PARTIAL_CHARGES>
35
1 -0.3
10 0.56
11 -0.14
12 -0.14
13 0.48
14 0.09
17 -0.29
18 0.09
19 0.08
2 -0.68
20 -0.15
21 -0.14
22 -0.15
23 0.47
24 -0.15
25 0.08
26 -0.15
28 0.1
29 0.1
3 -0.57
30 0.15
31 0.4
32 0.15
33 0.15
34 0.15
35 0.15
36 0.15
37 0.45
38 0.45
4 -0.53
5 -0.53
6 -0.57
7 0.24
8 -0.05
9 0.05

> <PUBCHEM_EFFECTIVE_ROTOR_COUNT>
0.2

> <PUBCHEM_PHARMACOPHORE_FEATURES>
12
1 1 acceptor
1 2 acceptor
1 2 donor
1 3 acceptor
1 4 donor
1 5 donor
1 6 acceptor
6 10 12 17 18 21 23 rings
6 11 14 15 19 20 24 rings
6 12 16 18 22 25 26 rings
6 7 10 11 12 15 16 rings
7 1 7 8 9 11 13 14 rings

> <PUBCHEM_HEAVY_ATOM_COUNT>
26

> <PUBCHEM_ATOM_DEF_STEREO_COUNT>
2

> <PUBCHEM_ATOM_UDEF_STEREO_COUNT>
2

> <PUBCHEM_BOND_DEF_STEREO_COUNT>
0

> <PUBCHEM_BOND_UDEF_STEREO_COUNT>
0

> <PUBCHEM_ISOTOPIC_ATOM_COUNT>
0

> <PUBCHEM_COMPONENT_COUNT>
1

> <PUBCHEM_CACTVS_TAUTO_COUNT>
110

> <PUBCHEM_CONFORMER_ID>
0001F49B00000001

> <PUBCHEM_MMFF94_ENERGY>
88.7

> <PUBCHEM_FEATURE_SELFOVERLAP>
61.004

> <PUBCHEM_SHAPE_FINGERPRINT>
10411042 1 16897083341313390766
10608611 8 18409728473652888478
10616163 171 18337954609481026718
10675989 125 16244611601196674245
10863032 1 18411138017510646580
10967382 1 18338233765112016012
1100329 8 17762619495054413691
11112241 14 16484414452223397304
11370993 70 18336822009393475964
11578080 2 16879607329121485630
12011746 2 18337386033510649725
12403259 226 18410853282585030492
12633257 1 18266177236204872179
13140716 1 17978223091170305786
13224815 77 18410576197075445826
13402501 40 18410292527428664151
14223421 5 18410575114733124758
14363568 33 17181396105293570273
14790565 3 17979080379670667369
15196674 1 18410011043788055470
16945 1 18410578391798472338
17357779 13 18336813299743333319
17492 89 18409730655612975498
1813 80 17168422765591501821
19591789 44 18410292514469720798
20510252 161 18411419518610498091
20691752 17 17312818273192285611
20775438 99 17049310588544853471
20905425 154 18340773744383498862
21267235 1 18339651048733437310
21279426 13 18410010992390866615
21421861 104 18187640293423077690
221490 88 18410016528830648426
22393880 68 18411145697555620588
23227448 37 18411134736139918935
2334 1 17834111227114261102
23558518 356 18260554423976949833
23559900 14 18412258441724641816
23566358 2 18412829070873665494
238 59 17395535465295570413
27425 322 17022907852180336861
2748010 2 18050562147052005387
335352 9 18338233760795969607
3380486 145 18120107314825426587
350125 39 18410016528466541149
3680242 22 18118682110983995034
4280585 95 17980488854566898486
5104073 3 18410011035219149216
5265222 85 17619629520820573464
59755656 215 18409448128204961254
9709674 26 18411421708769908678

> <PUBCHEM_SHAPE_MULTIPOLES>
499.85
8.29
3.52
0.77
0.87
0.25
-0.13
0.6
0.82
-0.2
-0.09
-0.09
-0.16
0.69

> <PUBCHEM_SHAPE_SELFOVERLAP>
1165.902

> <PUBCHEM_SHAPE_VOLUME>
246.6

> <PUBCHEM_COORDINATE_TYPE>
2
5
10

$$$$
