REMARK  Name = 128119
REMARK  10 active torsions:
REMARK  status: ('A' for Active; 'I' for Inactive)
REMARK    1  A    between atoms: C_1  and  C_5
REMARK    2  A    between atoms: C_1  and  N_13
REMARK    3  A    between atoms: C_1  and  C_26
REMARK    4  A    between atoms: C_6  and  C_8
REMARK    5  A    between atoms: C_8  and  N_9
REMARK    6  A    between atoms: N_13  and  C_16
REMARK    7  A    between atoms: C_16  and  C_18
REMARK    8  A    between atoms: N_17  and  C_18
REMARK    9  A    between atoms: N_17  and  N_20
REMARK   10  A    between atoms: C_26  and  C_27
REMARK                            x       y       z     vdW  Elec       q    Type
REMARK                         _______ _______ _______ _____ _____    ______ ____
ROOT
ATOM      1  C   UNL     1      -0.311  -0.782   0.103  0.00  0.00    +0.022 C 
ENDROOT
BRANCH   1   5
ATOM      2  O   UNL     1       0.221   1.230   1.349  0.00  0.00    -0.277 OA
ATOM      3  O   UNL     1      -1.275   3.482   0.611  0.00  0.00    -0.277 OA
ATOM      4  N   UNL     1      -1.406   1.344  -0.317  0.00  0.00    -0.259 N 
ATOM      5  C   UNL     1      -0.440   0.698   0.459  0.00  0.00    +0.208 C 
ATOM      6  C   UNL     1      -1.760   2.687  -0.192  0.00  0.00    +0.206 C 
ATOM      7  H   UNL     1      -1.871   0.812  -1.002  0.00  0.00    +0.157 HD
BRANCH   6   8
ATOM      8  C   UNL     1      -2.860   3.092  -1.145  0.00  0.00    +0.002 C 
BRANCH   8   9
ATOM      9  N   UNL     1      -3.979   3.558  -0.340  0.00  0.00    +0.386 N 
ATOM     10  H   UNL     1      -4.744   3.841  -0.953  0.00  0.00    -0.089 HD
ATOM     11  H   UNL     1      -3.683   4.354   0.224  0.00  0.00    -0.089 HD
ATOM     12  H   UNL     1      -4.294   2.805   0.272  0.00  0.00    -0.089 HD
ENDBRANCH   8   9
ENDBRANCH   6   8
ENDBRANCH   1   5
BRANCH   1  13
ATOM     13  N   UNL     1       1.088  -1.154   0.321  0.00  0.00    +0.392 N 
ATOM     14  H   UNL     1       1.154  -2.167   0.417  0.00  0.00    -0.084 HD
ATOM     15  H   UNL     1       1.421  -0.697   1.170  0.00  0.00    -0.084 HD
BRANCH  13  16
ATOM     16  C   UNL     1       1.914  -0.725  -0.796  0.00  0.00    -0.060 C 
BRANCH  16  17
ATOM     17  C   UNL     1       3.321  -1.145  -0.490  0.00  0.00    +0.088 C 
BRANCH  17  18
ATOM     18  N   UNL     1       4.265  -0.266  -0.420  0.00  0.00    -0.132 NA
BRANCH  18  20
ATOM     19  O   UNL     1       6.536   1.274  -0.186  0.00  0.00    -0.252 OA
ATOM     20  N   UNL     1       5.478  -0.792  -0.134  0.00  0.00    -0.217 N 
ATOM     21  N   UNL     1       7.733  -0.635   0.263  0.00  0.00    -0.312 N 
ATOM     22  C   UNL     1       6.570   0.053  -0.034  0.00  0.00    +0.312 C 
ATOM     23  H   UNL     1       5.582  -1.761   0.002  0.00  0.00    +0.172 HD
ATOM     24  H   UNL     1       8.582  -0.147   0.361  0.00  0.00    +0.147 HD
ATOM     25  H   UNL     1       7.711  -1.612   0.376  0.00  0.00    +0.147 HD
ENDBRANCH  18  20
ENDBRANCH  17  18
ENDBRANCH  16  17
ENDBRANCH  13  16
ENDBRANCH   1  13
BRANCH   1  26
ATOM     26  C   UNL     1      -1.241  -1.641   0.975  0.00  0.00    +0.014 C 
BRANCH  26  27
ATOM     27  C   UNL     1      -2.663  -1.679   0.466  0.00  0.00    -0.024 C 
ATOM     28  C   UNL     1      -3.585  -0.727   0.902  0.00  0.00    -0.004 C 
ATOM     29  C   UNL     1      -3.054  -2.664  -0.441  0.00  0.00    -0.004 C 
ATOM     30  C   UNL     1      -4.898  -0.761   0.432  0.00  0.00    -0.000 C 
ATOM     31  C   UNL     1      -4.367  -2.698  -0.911  0.00  0.00    -0.000 C 
ATOM     32  C   UNL     1      -5.289  -1.747  -0.474  0.00  0.00    -0.000 C 
ENDBRANCH  26  27
ENDBRANCH   1  26
TORSDOF 10
