REMARK  Name = 128206
REMARK  5 active torsions:
REMARK  status: ('A' for Active; 'I' for Inactive)
REMARK    1  A    between atoms: N_2  and  C_8
REMARK    2  A    between atoms: C_3  and  C_15
REMARK    3  A    between atoms: N_6  and  S_11
REMARK    4  A    between atoms: C_15  and  C_16
REMARK    5  A    between atoms: C_15  and  N_22
REMARK                            x       y       z     vdW  Elec       q    Type
REMARK                         _______ _______ _______ _____ _____    ______ ____
ROOT
ATOM      1  O   UNL     1      -1.254   2.071   1.430  0.00  0.00    -0.277 OA
ATOM      2  N   UNL     1      -0.097   1.419  -0.469  0.00  0.00    -0.298 N 
ATOM      3  C   UNL     1      -1.249   1.683   0.263  0.00  0.00    +0.206 C 
ATOM      4  H   UNL     1      -0.186   1.111  -1.400  0.00  0.00    +0.150 HD
ENDROOT
BRANCH   2   8
ATOM      5  O   UNL     1       2.727   1.027  -1.972  0.00  0.00    -0.271 OA
ATOM      6  N   UNL     1       2.921   0.301   0.282  0.00  0.00    -0.156 N 
ATOM      7  C   UNL     1       1.710   0.506   1.105  0.00  0.00    +0.126 C 
ATOM      8  C   UNL     1       1.252   1.583   0.099  0.00  0.00    +0.170 C 
ATOM      9  C   UNL     1       2.386   1.016  -0.812  0.00  0.00    +0.264 C 
ATOM     10  C   UNL     1       0.911  -0.784   1.198  0.00  0.00    +0.026 C 
BRANCH   6  11
ATOM     11  S   UNL     1       3.997  -0.994   0.220  0.00  0.00    +0.096 S 
ATOM     12  O   UNL     1       5.320  -0.388  -0.531  0.00  0.00    -0.050 OA
ATOM     13  O   UNL     1       3.451  -2.029  -0.652  0.00  0.00    -0.050 OA
ATOM     14  O   UNL     1       4.403  -1.346   1.577  0.00  0.00    -0.050 OA
ENDBRANCH   6  11
ENDBRANCH   2   8
BRANCH   3  15
ATOM     15  C   UNL     1      -2.522   1.417  -0.534  0.00  0.00    +0.036 C 
BRANCH  15  16
ATOM     16  C   UNL     1      -2.985  -0.013  -0.350  0.00  0.00    -0.034 C 
ATOM     17  C   UNL     1      -2.525  -0.987  -1.219  0.00  0.00    -0.006 C 
ATOM     18  C   UNL     1      -3.856  -0.313   0.682  0.00  0.00    -0.006 C 
ATOM     19  C   UNL     1      -2.951  -2.304  -1.050  0.00  0.00    -0.000 C 
ATOM     20  C   UNL     1      -4.282  -1.630   0.851  0.00  0.00    -0.000 C 
ATOM     21  C   UNL     1      -3.830  -2.626  -0.015  0.00  0.00    -0.000 C 
ENDBRANCH  15  16
BRANCH  15  22
ATOM     22  N   UNL     1      -3.530   2.390  -0.103  0.00  0.00    +0.390 N 
ATOM     23  H   UNL     1      -3.173   3.335  -0.245  0.00  0.00    -0.088 HD
ATOM     24  H   UNL     1      -3.736   2.250   0.886  0.00  0.00    -0.088 HD
ATOM     25  H   UNL     1      -4.381   2.262  -0.649  0.00  0.00    -0.088 HD
ENDBRANCH  15  22
ENDBRANCH   3  15
TORSDOF 5
