REMARK  Name = 128249
REMARK  8 active torsions:
REMARK  status: ('A' for Active; 'I' for Inactive)
REMARK    1  A    between atoms: C_12  and  O_20
REMARK    2  A    between atoms: C_19  and  O_22
REMARK    3  A    between atoms: O_22  and  C_24
REMARK    4  A    between atoms: C_25  and  O_29
REMARK    5  A    between atoms: C_26  and  O_31
REMARK    6  A    between atoms: C_27  and  C_36
REMARK    7  A    between atoms: C_28  and  O_33
REMARK    8  A    between atoms: C_36  and  O_37
REMARK                            x       y       z     vdW  Elec       q    Type
REMARK                         _______ _______ _______ _____ _____    ______ ____
ROOT
ATOM      1  C   UNL     1       3.131   0.267  -0.786  0.00  0.00    +0.000 C 
ATOM      2  C   UNL     1       3.322  -0.621   0.473  0.00  0.00    +0.000 C 
ATOM      3  C   UNL     1       1.624   0.695  -1.010  0.00  0.00    +0.000 C 
ATOM      4  C   UNL     1       4.793  -1.028   0.722  0.00  0.00    +0.002 C 
ATOM      5  C   UNL     1       5.859   0.081   0.565  0.00  0.00    +0.025 C 
ATOM      6  C   UNL     1       0.992   1.260   0.299  0.00  0.00    +0.002 C 
ATOM      7  C   UNL     1       4.131   1.446  -0.758  0.00  0.00    +0.000 C 
ATOM      8  C   UNL     1       5.581   0.963  -0.669  0.00  0.00    +0.002 C 
ATOM      9  C   UNL     1       2.704   0.032   1.717  0.00  0.00    +0.000 C 
ATOM     10  C   UNL     1       5.252  -2.138  -0.252  0.00  0.00    +0.003 C 
ATOM     11  C   UNL     1       1.230   0.344   1.513  0.00  0.00    +0.000 C 
ATOM     12  C   UNL     1       7.145  -0.764   0.406  0.00  0.00    +0.110 C 
ATOM     13  C   UNL     1       0.803  -0.544  -1.487  0.00  0.00    +0.002 C 
ATOM     14  C   UNL     1       6.746  -1.932  -0.487  0.00  0.00    +0.029 C 
ATOM     15  C   UNL     1      -0.517   1.532   0.142  0.00  0.00    +0.030 C 
ATOM     16  C   UNL     1       1.550   1.769  -2.129  0.00  0.00    +0.000 C 
ATOM     17  C   UNL     1       6.011   0.970   1.810  0.00  0.00    +0.002 C 
ATOM     18  C   UNL     1      -0.699  -0.286  -1.616  0.00  0.00    +0.030 C 
ATOM     19  C   UNL     1      -1.301   0.316  -0.350  0.00  0.00    +0.118 C 
ENDROOT
BRANCH  12  20
ATOM     20  O   UNL     1       8.215  -0.025  -0.153  0.00  0.00    -0.384 OA
ATOM     21  H   UNL     1       8.445   0.709   0.438  0.00  0.00    +0.210 HD
ENDBRANCH  12  20
BRANCH  19  22
ATOM     22  O   UNL     1      -2.643   0.719  -0.607  0.00  0.00    -0.331 OA
BRANCH  22  24
ATOM     23  O   UNL     1      -4.010  -0.715   0.698  0.00  0.00    -0.317 OA
ATOM     24  C   UNL     1      -3.454   0.600   0.558  0.00  0.00    +0.266 C 
ATOM     25  C   UNL     1      -4.554   1.668   0.526  0.00  0.00    +0.196 C 
ATOM     26  C   UNL     1      -5.617   1.321  -0.522  0.00  0.00    +0.172 C 
ATOM     27  C   UNL     1      -4.929  -1.062  -0.334  0.00  0.00    +0.245 C 
ATOM     28  C   UNL     1      -6.127  -0.114  -0.359  0.00  0.00    +0.178 C 
BRANCH  25  29
ATOM     29  O   UNL     1      -5.159   1.748   1.817  0.00  0.00    -0.378 OA
ATOM     30  H   UNL     1      -4.483   1.967   2.477  0.00  0.00    +0.211 HD
ENDBRANCH  25  29
BRANCH  26  31
ATOM     31  O   UNL     1      -6.691   2.251  -0.450  0.00  0.00    -0.379 OA
ATOM     32  H   UNL     1      -6.347   3.152  -0.555  0.00  0.00    +0.211 HD
ENDBRANCH  26  31
BRANCH  28  33
ATOM     33  O   UNL     1      -6.855  -0.238   0.863  0.00  0.00    -0.379 OA
ATOM     34  H   UNL     1      -7.616   0.364   0.848  0.00  0.00    +0.211 HD
ENDBRANCH  28  33
BRANCH  27  36
ATOM     35  O   UNL     1      -5.001  -3.120   0.925  0.00  0.00    -0.247 OA
ATOM     36  C   UNL     1      -5.351  -2.467  -0.047  0.00  0.00    +0.344 C 
BRANCH  36  37
ATOM     37  O   UNL     1      -6.179  -2.926  -1.017  0.00  0.00    -0.478 OA
ATOM     38  H   UNL     1      -6.409  -2.372  -1.737  0.00  0.00    +0.295 HD
ENDBRANCH  36  37
ENDBRANCH  27  36
ENDBRANCH  22  24
ENDBRANCH  19  22
TORSDOF 8
