REMARK  Name = 128243
REMARK  7 active torsions:
REMARK  status: ('A' for Active; 'I' for Inactive)
REMARK    1  A    between atoms: C_4  and  C_22
REMARK    2  A    between atoms: C_6  and  C_28
REMARK    3  A    between atoms: C_7  and  O_19
REMARK    4  A    between atoms: C_9  and  C_24
REMARK    5  A    between atoms: C_24  and  C_25
REMARK    6  A    between atoms: C_25  and  O_26
REMARK    7  A    between atoms: C_28  and  O_29
REMARK                            x       y       z     vdW  Elec       q    Type
REMARK                         _______ _______ _______ _____ _____    ______ ____
ROOT
ATOM      1  O   UNL     1       5.596   0.768   2.130  0.00  0.00    -0.291 OA
ATOM      2  C   UNL     1      -1.047  -1.084   0.630  0.00  0.00    +0.008 C 
ATOM      3  C   UNL     1       0.286  -1.095  -0.129  0.00  0.00    +0.003 C 
ATOM      4  C   UNL     1      -2.010  -0.003   0.122  0.00  0.00    +0.067 C 
ATOM      5  C   UNL     1       0.978   0.304   0.068  0.00  0.00    +0.033 C 
ATOM      6  C   UNL     1       2.418   0.335  -0.575  0.00  0.00    +0.045 C 
ATOM      7  C   UNL     1       0.030   1.475  -0.325  0.00  0.00    +0.111 C 
ATOM      8  C   UNL     1      -1.368   1.375   0.332  0.00  0.00    +0.037 C 
ATOM      9  C   UNL     1      -3.246  -0.297   0.992  0.00  0.00    +0.067 C 
ATOM     10  C   UNL     1      -1.904  -2.345   0.654  0.00  0.00    +0.001 C 
ATOM     11  C   UNL     1       1.179  -2.256   0.357  0.00  0.00    +0.004 C 
ATOM     12  C   UNL     1      -3.292  -1.838   1.083  0.00  0.00    +0.008 C 
ATOM     13  C   UNL     1       3.178  -0.832   0.070  0.00  0.00    -0.040 C 
ATOM     14  C   UNL     1       2.601  -2.198  -0.201  0.00  0.00    +0.022 C 
ATOM     15  C   UNL     1       3.175   1.669  -0.318  0.00  0.00    +0.014 C 
ATOM     16  C   UNL     1       3.697   1.809   1.101  0.00  0.00    +0.070 C 
ATOM     17  C   UNL     1       4.202  -0.694   0.927  0.00  0.00    +0.029 C 
ATOM     18  C   UNL     1       4.602   0.646   1.418  0.00  0.00    +0.173 C 
ENDROOT
BRANCH   7  19
ATOM     19  O   UNL     1      -0.121   1.545  -1.738  0.00  0.00    -0.384 OA
ATOM     20  H   UNL     1       0.753   1.608  -2.154  0.00  0.00    +0.210 HD
ENDBRANCH   7  19
BRANCH   4  22
ATOM     21  O   UNL     1      -1.928  -1.042  -2.063  0.00  0.00    -0.288 OA
ATOM     22  C   UNL     1      -2.379  -0.158  -1.343  0.00  0.00    +0.207 C 
ENDBRANCH   4  22
BRANCH   9  24
ATOM     23  O   UNL     1      -5.219  -0.358  -0.342  0.00  0.00    -0.293 OA
ATOM     24  C   UNL     1      -4.528   0.269   0.460  0.00  0.00    +0.180 C 
BRANCH  24  25
ATOM     25  C   UNL     1      -4.915   1.643   0.963  0.00  0.00    +0.202 C 
BRANCH  25  26
ATOM     26  O   UNL     1      -6.142   2.054   0.398  0.00  0.00    -0.375 OA
ATOM     27  H   UNL     1      -6.372   2.935   0.732  0.00  0.00    +0.211 HD
ENDBRANCH  25  26
ENDBRANCH  24  25
ENDBRANCH   9  24
BRANCH   6  28
ATOM     28  C   UNL     1       2.408   0.156  -2.114  0.00  0.00    +0.141 C 
BRANCH  28  29
ATOM     29  O   UNL     1       3.746   0.151  -2.557  0.00  0.00    -0.382 OA
ATOM     30  H   UNL     1       3.768   0.041  -3.520  0.00  0.00    +0.210 HD
ENDBRANCH  28  29
ENDBRANCH   6  28
TORSDOF 7
