REMARK  Name = 128287
REMARK  11 active torsions:
REMARK  status: ('A' for Active; 'I' for Inactive)
REMARK    1  A    between atoms: N_2  and  CA_19
REMARK    2  A    between atoms: C_3  and  CA_5
REMARK    3  A    between atoms: CA_5  and  N_7
REMARK    4  A    between atoms: CA_5  and  CB_15
REMARK    5  A    between atoms: C_8  and  CA_10
REMARK    6  A    between atoms: CA_10  and  N_11
REMARK    7  A    between atoms: CB_15  and  CG_16
REMARK    8  A    between atoms: CA_19  and  C_21
REMARK    9  A    between atoms: CA_19  and  CB_24
REMARK   10  A    between atoms: C_21  and  O_22
REMARK   11  A    between atoms: CB_24  and  CG_25
REMARK                            x       y       z     vdW  Elec       q    Type
REMARK                         _______ _______ _______ _____ _____    ______ ____
ROOT
ATOM      1  O   LEU A   2      -0.309  -0.332  -1.829  0.00  0.00    -0.273 OA
ATOM      2  N   PHE A   3       0.077  -1.405   0.194  0.00  0.00    -0.295 N 
ATOM      3  C   LEU A   2      -0.655  -0.618  -0.684  0.00  0.00    +0.241 C 
ATOM      4  H   PHE A   3      -0.292  -1.573   1.091  0.00  0.00    +0.150 HD
ENDROOT
BRANCH   3   5
ATOM      5  CA  LEU A   2      -1.935  -0.088  -0.046  0.00  0.00    +0.148 C 
BRANCH   5   7
ATOM      6  O   GLY A   1      -0.836   2.364   1.029  0.00  0.00    -0.277 OA
ATOM      7  N   LEU A   2      -2.134   1.249  -0.543  0.00  0.00    -0.300 N 
ATOM      8  C   GLY A   1      -1.564   2.376   0.039  0.00  0.00    +0.201 C 
ATOM      9  H   LEU A   2      -2.704   1.371  -1.337  0.00  0.00    +0.150 HD
BRANCH   8  10
ATOM     10  CA  GLY A   1      -1.969   3.651  -0.673  0.00  0.00    +0.001 C 
BRANCH  10  11
ATOM     11  N   GLY A   1      -0.893   4.622  -0.540  0.00  0.00    +0.386 N 
ATOM     12  H1  GLY A   1      -1.155   5.486  -1.016  0.00  0.00    -0.089 HD
ATOM     13  H2  GLY A   1      -0.043   4.247  -0.960  0.00  0.00    -0.089 HD
ATOM     14  H3  GLY A   1      -0.729   4.815   0.448  0.00  0.00    -0.089 HD
ENDBRANCH  10  11
ENDBRANCH   8  10
ENDBRANCH   5   7
BRANCH   5  15
ATOM     15  CB  LEU A   2      -3.114  -1.012  -0.376  0.00  0.00    +0.029 C 
BRANCH  15  16
ATOM     16  CG  LEU A   2      -4.476  -0.546   0.180  0.00  0.00    +0.002 C 
ATOM     17  CD1 LEU A   2      -5.620  -1.476  -0.228  0.00  0.00    +0.000 C 
ATOM     18  CD2 LEU A   2      -4.406  -0.454   1.707  0.00  0.00    +0.000 C 
ENDBRANCH  15  16
ENDBRANCH   5  15
ENDBRANCH   3   5
BRANCH   2  19
ATOM     19  CA  PHE A   3       1.355  -1.991  -0.143  0.00  0.00    +0.176 C 
BRANCH  19  21
ATOM     20  OXT PHE A   3       2.217  -4.225  -0.483  0.00  0.00    -0.248 OA
ATOM     21  C   PHE A   3       1.279  -3.510  -0.147  0.00  0.00    +0.332 C 
BRANCH  21  22
ATOM     22  O   PHE A   3       0.091  -4.021   0.258  0.00  0.00    -0.479 OA
ATOM     23  H   PHE A   3      -0.605  -3.447   0.508  0.00  0.00    +0.295 HD
ENDBRANCH  21  22
ENDBRANCH  19  21
BRANCH  19  24
ATOM     24  CB  PHE A   3       2.450  -1.523   0.825  0.00  0.00    +0.057 C 
BRANCH  24  25
ATOM     25  CG  PHE A   3       2.947  -0.130   0.523  0.00  0.00    -0.020 C 
ATOM     26  CD1 PHE A   3       4.021   0.053  -0.349  0.00  0.00    -0.004 C 
ATOM     27  CD2 PHE A   3       2.334   0.974   1.115  0.00  0.00    -0.004 C 
ATOM     28  CE1 PHE A   3       4.481   1.340  -0.628  0.00  0.00    -0.000 C 
ATOM     29  CE2 PHE A   3       2.794   2.261   0.836  0.00  0.00    -0.000 C 
ATOM     30  CZ  PHE A   3       3.867   2.444  -0.036  0.00  0.00    -0.000 C 
ENDBRANCH  24  25
ENDBRANCH  19  24
ENDBRANCH   2  19
TORSDOF 11
