REMARK  Name = 128236
REMARK  7 active torsions:
REMARK  status: ('A' for Active; 'I' for Inactive)
REMARK    1  A    between atoms: N_2  and  C_17
REMARK    2  A    between atoms: C_3  and  C_7
REMARK    3  A    between atoms: C_11  and  O_12
REMARK    4  A    between atoms: O_12  and  C_13
REMARK    5  A    between atoms: C_17  and  C_22
REMARK    6  A    between atoms: C_23  and  C_25
REMARK    7  A    between atoms: C_25  and  N_27
REMARK                            x       y       z     vdW  Elec       q    Type
REMARK                         _______ _______ _______ _____ _____    ______ ____
ROOT
ATOM      1  O   UNL     1      -0.828   1.421   1.186  0.00  0.00    -0.273 OA
ATOM      2  N   UNL     1      -0.522   1.877  -1.077  0.00  0.00    -0.297 N 
ATOM      3  C   UNL     1      -1.264   1.529   0.043  0.00  0.00    +0.241 C 
ATOM      4  H   UNL     1      -0.985   1.931  -1.945  0.00  0.00    +0.150 HD
ENDROOT
BRANCH   3   7
ATOM      5  O   UNL     1      -3.545  -1.867   1.289  0.00  0.00    -0.226 OA
ATOM      6  N   UNL     1      -3.220   0.343   0.686  0.00  0.00    -0.239 N 
ATOM      7  C   UNL     1      -2.712   1.310  -0.276  0.00  0.00    +0.155 C 
ATOM      8  C   UNL     1      -3.543   2.565  -0.031  0.00  0.00    +0.031 C 
ATOM      9  C   UNL     1      -3.911   2.467   1.448  0.00  0.00    +0.024 C 
ATOM     10  C   UNL     1      -4.101   0.973   1.663  0.00  0.00    +0.097 C 
ATOM     11  C   UNL     1      -3.010  -1.024   0.574  0.00  0.00    +0.405 C 
BRANCH  11  12
ATOM     12  O   UNL     1      -2.134  -1.326  -0.434  0.00  0.00    -0.442 OA
BRANCH  12  13
ATOM     13  C   UNL     1      -1.856  -2.717  -0.627  0.00  0.00    +0.138 C 
ATOM     14  C   UNL     1      -1.238  -3.272   0.655  0.00  0.00    +0.044 C 
ATOM     15  C   UNL     1      -0.873  -2.833  -1.791  0.00  0.00    +0.044 C 
ATOM     16  C   UNL     1      -3.165  -3.434  -0.956  0.00  0.00    +0.044 C 
ENDBRANCH  12  13
ENDBRANCH  11  12
ENDBRANCH   3   7
BRANCH   2  17
ATOM     17  C   UNL     1       0.888   2.162  -1.035  0.00  0.00    +0.149 C 
ATOM     18  C   UNL     1       1.276   3.158  -2.116  0.00  0.00    +0.031 C 
BRANCH  17  22
ATOM     19  O   UNL     1       1.241  -0.072  -1.907  0.00  0.00    -0.273 OA
ATOM     20  O   UNL     1       3.545  -1.335  -0.938  0.00  0.00    -0.277 OA
ATOM     21  N   UNL     1       2.810   0.820  -0.432  0.00  0.00    -0.256 N 
ATOM     22  C   UNL     1       1.646   0.851  -1.204  0.00  0.00    +0.246 C 
ATOM     23  C   UNL     1       3.685  -0.267  -0.346  0.00  0.00    +0.208 C 
ATOM     24  H   UNL     1       3.031   1.624   0.091  0.00  0.00    +0.157 HD
BRANCH  23  25
ATOM     25  C   UNL     1       4.851   0.010   0.594  0.00  0.00    +0.017 C 
ATOM     26  C   UNL     1       6.092  -0.781   0.199  0.00  0.00    -0.014 C 
BRANCH  25  27
ATOM     27  N   UNL     1       4.415  -0.388   1.931  0.00  0.00    +0.389 N 
ATOM     28  C   UNL     1       5.474  -0.169   2.905  0.00  0.00    -0.105 C 
ATOM     29  H   UNL     1       4.169  -1.378   1.921  0.00  0.00    -0.084 HD
ATOM     30  H   UNL     1       3.608   0.177   2.193  0.00  0.00    -0.084 HD
ENDBRANCH  25  27
ENDBRANCH  23  25
ENDBRANCH  17  22
ENDBRANCH   2  17
TORSDOF 7
