128248
  -OEChem-03292013323D

 37 37  0     1  0  0  0  0  0999 V2000
    1.7999    0.8453    1.8003 O   0  0  0  0  0  0  0  0  0  0  0  0
    1.9673    2.4938    0.2545 O   0  0  0  0  0  0  0  0  0  0  0  0
    4.5202   -2.1127    0.0550 O   0  0  0  0  0  0  0  0  0  0  0  0
   -6.3277   -0.4515    1.3546 O   0  0  0  0  0  0  0  0  0  0  0  0
    0.9412    0.1938   -1.3604 N   0  0  0  0  0  0  0  0  0  0  0  0
    5.6317   -0.7875    1.5708 N   0  0  0  0  0  0  0  0  0  0  0  0
    2.1001    0.1656   -0.4685 C   0  0  1  0  0  0  0  0  0  0  0  0
    3.4216    0.2078   -1.2542 C   0  0  0  0  0  0  0  0  0  0  0  0
   -0.2926    0.0373   -0.6064 C   0  0  0  0  0  0  0  0  0  0  0  0
   -1.5086    0.0675   -1.5330 C   0  0  0  0  0  0  0  0  0  0  0  0
    4.7071    0.2383   -0.4191 C   0  0  0  0  0  0  0  0  0  0  0  0
   -2.7964   -0.0713   -0.7609 C   0  0  0  0  0  0  0  0  0  0  0  0
    1.9591    1.3008    0.5293 C   0  0  0  0  0  0  0  0  0  0  0  0
    4.9376   -1.0109    0.4040 C   0  0  0  0  0  0  0  0  0  0  0  0
   -3.3190   -1.3345   -0.5299 C   0  0  0  0  0  0  0  0  0  0  0  0
   -3.4368    1.0672   -0.2955 C   0  0  0  0  0  0  0  0  0  0  0  0
   -4.5108   -1.4625    0.1836 C   0  0  0  0  0  0  0  0  0  0  0  0
   -4.6284    0.9392    0.4181 C   0  0  0  0  0  0  0  0  0  0  0  0
   -5.1655   -0.3256    0.6576 C   0  0  0  0  0  0  0  0  0  0  0  0
    2.0869   -0.7812    0.0879 H   0  0  0  0  0  0  0  0  0  0  0  0
    3.4591   -0.6531   -1.9349 H   0  0  0  0  0  0  0  0  0  0  0  0
    3.4261    1.1028   -1.8913 H   0  0  0  0  0  0  0  0  0  0  0  0
   -0.2813   -0.9110   -0.0534 H   0  0  0  0  0  0  0  0  0  0  0  0
   -0.4206    0.8412    0.1278 H   0  0  0  0  0  0  0  0  0  0  0  0
    1.0202   -0.5526   -2.0507 H   0  0  0  0  0  0  0  0  0  0  0  0
   -1.4407   -0.7364   -2.2781 H   0  0  0  0  0  0  0  0  0  0  0  0
   -1.5265    1.0037   -2.1071 H   0  0  0  0  0  0  0  0  0  0  0  0
    5.5679    0.3388   -1.0912 H   0  0  0  0  0  0  0  0  0  0  0  0
    4.7070    1.1192    0.2327 H   0  0  0  0  0  0  0  0  0  0  0  0
   -2.8156   -2.2259   -0.8933 H   0  0  0  0  0  0  0  0  0  0  0  0
   -3.0253    2.0563   -0.4754 H   0  0  0  0  0  0  0  0  0  0  0  0
   -4.9238   -2.4505    0.3677 H   0  0  0  0  0  0  0  0  0  0  0  0
   -5.1283    1.8326    0.7825 H   0  0  0  0  0  0  0  0  0  0  0  0
    1.7006    1.5807    2.4418 H   0  0  0  0  0  0  0  0  0  0  0  0
    5.9674    0.1324    1.8376 H   0  0  0  0  0  0  0  0  0  0  0  0
    5.8398   -1.5497    2.2073 H   0  0  0  0  0  0  0  0  0  0  0  0
   -6.6420    0.4342    1.6054 H   0  0  0  0  0  0  0  0  0  0  0  0
  1 13  1  0  0  0  0
  1 34  1  0  0  0  0
  2 13  2  0  0  0  0
  3 14  2  0  0  0  0
  4 19  1  0  0  0  0
  4 37  1  0  0  0  0
  5  7  1  0  0  0  0
  5  9  1  0  0  0  0
  5 25  1  0  0  0  0
  6 14  1  0  0  0  0
  6 35  1  0  0  0  0
  6 36  1  0  0  0  0
  7  8  1  0  0  0  0
  7 13  1  0  0  0  0
  7 20  1  0  0  0  0
  8 11  1  0  0  0  0
  8 21  1  0  0  0  0
  8 22  1  0  0  0  0
  9 10  1  0  0  0  0
  9 23  1  0  0  0  0
  9 24  1  0  0  0  0
 10 12  1  0  0  0  0
 10 26  1  0  0  0  0
 10 27  1  0  0  0  0
 11 14  1  0  0  0  0
 11 28  1  0  0  0  0
 11 29  1  0  0  0  0
 12 15  2  0  0  0  0
 12 16  1  0  0  0  0
 15 17  1  0  0  0  0
 15 30  1  0  0  0  0
 16 18  2  0  0  0  0
 16 31  1  0  0  0  0
 17 19  2  0  0  0  0
 17 32  1  0  0  0  0
 18 19  1  0  0  0  0
 18 33  1  0  0  0  0
M  END
> <PUBCHEM_COMPOUND_CID>
128248

> <PUBCHEM_CONFORMER_RMSD>
0.8

> <PUBCHEM_CONFORMER_DIVERSEORDER>
1
127
137
148
41
147
117
69
85
149
17
143
155
121
108
128
132
16
100
157
88
116
90
72
53
99
63
89
60
50
28
118
81
150
82
42
93
102
96
74
97
144
26
19
40
101
48
161
56
47
104
67
2
10
95
135
36
73
115
13
166
71
156
163
120
119
92
83
37
159
106
61
140
43
77
109
134
29
133
70
130
11
124
91
14
129
4
15
139
30
160
152
111
126
153
158
138
105
5
80
22
35
44
122
165
66
78
27
55
21
125
113
51
39
154
84
6
136
31
18
12
103
114
79
76
164
54
9
34
107
112
86
145
32
23
7
38
146
162
98
131
142
49
75
52
45
110
68
141
3
59
87
57
25
151
33
94
58
20
46
62
24
8
65
64
167
123

> <PUBCHEM_MMFF94_PARTIAL_CHARGES>
27
1 -0.65
10 0.14
11 0.06
12 -0.14
13 0.66
14 0.57
15 -0.15
16 -0.15
17 -0.15
18 -0.15
19 0.08
2 -0.57
25 0.36
3 -0.57
30 0.15
31 0.15
32 0.15
33 0.15
34 0.5
35 0.37
36 0.37
37 0.45
4 -0.53
5 -0.9
6 -0.8
7 0.33
9 0.27

> <PUBCHEM_EFFECTIVE_ROTOR_COUNT>
8

> <PUBCHEM_PHARMACOPHORE_FEATURES>
9
1 1 acceptor
1 2 acceptor
1 3 acceptor
1 4 donor
1 5 cation
1 5 donor
1 6 donor
3 1 2 13 anion
6 12 15 16 17 18 19 rings

> <PUBCHEM_HEAVY_ATOM_COUNT>
19

> <PUBCHEM_ATOM_DEF_STEREO_COUNT>
1

> <PUBCHEM_ATOM_UDEF_STEREO_COUNT>
0

> <PUBCHEM_BOND_DEF_STEREO_COUNT>
0

> <PUBCHEM_BOND_UDEF_STEREO_COUNT>
0

> <PUBCHEM_ISOTOPIC_ATOM_COUNT>
0

> <PUBCHEM_COMPONENT_COUNT>
1

> <PUBCHEM_CACTVS_TAUTO_COUNT>
4

> <PUBCHEM_CONFORMER_ID>
0001F4F800000001

> <PUBCHEM_MMFF94_ENERGY>
32.9307

> <PUBCHEM_FEATURE_SELFOVERLAP>
45.73

> <PUBCHEM_SHAPE_FINGERPRINT>
10014705 185 13470684850051050855
11405975 8 18202282554310366611
11545043 162 18040991826446383541
117890 112 13542459860968598298
12236239 1 17458350753890655509
12507557 5 16558751239196867403
12596602 18 17131826599351554242
12616999 72 12685083800436939900
12633257 1 18130790087711092879
12670546 177 8646771084219090119
13551218 46 18187085027256078759
13668630 136 15719398365078725107
13675066 3 16917351450036415102
13914758 101 18411409593626775629
13955234 65 17749955591400154892
14251764 18 17988360463528910700
14251764 30 17385723582168585050
14341114 176 18412549824869144477
14528608 73 9007051370791312878
15375358 24 10519989278789326837
17844677 252 16732985310110224148
17870717 6 12829208876033679443
1813 80 17095250185158806126
18222031 100 17240758549399225071
18785283 64 18265889336685651844
19784866 140 15574711370209639932
200 152 15068619422614316909
20567600 247 16660915596307667594
21618674 57 18343587343241716811
22950370 63 18113621179146436692
23503953 91 16917067797569340045
23559900 14 11026094524626992975
2871803 45 13695867038700534332
2916195 48 14189571936233063143
33382 64 17894912893454949618
3472631 163 12535346792412804673
351380 3 16732702766166716923
5104073 3 17987800851287415571
5924683 9 17702937171319247015
7495541 125 18334858350672980804

> <PUBCHEM_SHAPE_MULTIPOLES>
357.57
14.44
1.6
1.37
1.96
0.11
-0.14
-4.9
-5.26
-0.74
-0.27
-0.43
0.04
-0.21

> <PUBCHEM_SHAPE_SELFOVERLAP>
725.899

> <PUBCHEM_SHAPE_VOLUME>
207.3

> <PUBCHEM_COORDINATE_TYPE>
2
5
10

$$$$
