REMARK  Name = 128252
REMARK  4 active torsions:
REMARK  status: ('A' for Active; 'I' for Inactive)
REMARK    1  A    between atoms: N_1  and  C_11
REMARK    2  A    between atoms: C_7  and  C_24
REMARK    3  A    between atoms: C_12  and  O_16
REMARK    4  A    between atoms: C_13  and  O_18
REMARK                            x       y       z     vdW  Elec       q    Type
REMARK                         _______ _______ _______ _____ _____    ______ ____
ROOT
ATOM      1  N   UNL     1       0.201   0.088   0.248  0.00  0.00    -0.249 N 
ATOM      2  N   UNL     1      -0.767  -2.118   0.361  0.00  0.00    -0.233 NA
ATOM      3  N   UNL     1      -3.190  -2.111   0.127  0.00  0.00    -0.234 NA
ATOM      4  C   UNL     1      -0.859  -0.783   0.227  0.00  0.00    +0.122 C 
ATOM      5  C   UNL     1      -0.267   1.370   0.084  0.00  0.00    +0.075 C 
ATOM      6  C   UNL     1      -2.023  -0.046   0.047  0.00  0.00    +0.141 C 
ATOM      7  C   UNL     1      -1.639   1.317  -0.043  0.00  0.00    +0.075 C 
ATOM      8  C   UNL     1      -3.216  -0.764  -0.001  0.00  0.00    +0.111 C 
ATOM      9  C   UNL     1      -1.984  -2.696   0.297  0.00  0.00    +0.252 C 
ATOM     10  N   UNL     1      -4.451  -0.113  -0.180  0.00  0.00    -0.346 N 
ATOM     11  H   UNL     1      -5.284  -0.637  -0.212  0.00  0.00    +0.143 HD
ATOM     12  H   UNL     1      -4.482   0.866  -0.275  0.00  0.00    +0.143 HD
ENDROOT
BRANCH   1  14
ATOM     13  O   UNL     1       2.296   0.770   1.128  0.00  0.00    -0.335 OA
ATOM     14  C   UNL     1       1.606  -0.275   0.416  0.00  0.00    +0.227 C 
ATOM     15  C   UNL     1       2.358  -0.465  -0.892  0.00  0.00    +0.187 C 
ATOM     16  C   UNL     1       3.786  -0.191  -0.461  0.00  0.00    +0.168 C 
ATOM     17  C   UNL     1       3.609   0.941   0.547  0.00  0.00    +0.146 C 
ATOM     18  C   UNL     1       3.675   2.321  -0.092  0.00  0.00    +0.035 C 
BRANCH  15  19
ATOM     19  O   UNL     1       2.179  -1.763  -1.419  0.00  0.00    -0.378 OA
ATOM     20  H   UNL     1       1.252  -1.883  -1.677  0.00  0.00    +0.211 HD
ENDBRANCH  15  19
BRANCH  16  21
ATOM     21  O   UNL     1       4.306  -1.334   0.217  0.00  0.00    -0.379 OA
ATOM     22  H   UNL     1       4.422  -2.060  -0.416  0.00  0.00    +0.211 HD
ENDBRANCH  16  21
ENDBRANCH   1  14
BRANCH   7  24
ATOM     23  N   UNL     1      -3.151   3.395  -0.381  0.00  0.00    -0.191 NA
ATOM     24  C   UNL     1      -2.470   2.458  -0.229  0.00  0.00    +0.098 C 
ENDBRANCH   7  24
TORSDOF 4
