REMARK  Name = 128237
REMARK  9 active torsions:
REMARK  status: ('A' for Active; 'I' for Inactive)
REMARK    1  A    between atoms: N_2  and  C_11
REMARK    2  A    between atoms: C_3  and  C_22
REMARK    3  A    between atoms: C_7  and  C_19
REMARK    4  A    between atoms: C_21  and  O_27
REMARK    5  A    between atoms: O_27  and  C_28
REMARK    6  A    between atoms: C_28  and  C_29
REMARK    7  A    between atoms: C_29  and  C_30
REMARK    8  A    between atoms: C_30  and  C_31
REMARK    9  A    between atoms: C_31  and  C_32
REMARK                            x       y       z     vdW  Elec       q    Type
REMARK                         _______ _______ _______ _____ _____    ______ ____
ROOT
ATOM      1  O   UNL     1       2.555  -3.798  -0.406  0.00  0.00    -0.270 OA
ATOM      2  N   UNL     1       3.064  -1.523  -0.103  0.00  0.00    -0.278 N 
ATOM      3  C   UNL     1       2.247  -2.659  -0.070  0.00  0.00    +0.250 C 
ATOM      4  H   UNL     1       2.651  -0.685   0.205  0.00  0.00    +0.155 HD
ENDROOT
BRANCH   2  11
ATOM      5  O   UNL     1       4.399   0.868  -0.010  0.00  0.00    -0.456 OA
ATOM      6  O   UNL     1       7.125   1.014  -0.936  0.00  0.00    -0.467 OA
ATOM      7  C   UNL     1       5.270   1.969   0.309  0.00  0.00    +0.295 C 
ATOM      8  C   UNL     1       6.279   2.163  -0.822  0.00  0.00    +0.264 C 
ATOM      9  C   UNL     1       5.083  -0.221  -0.482  0.00  0.00    +0.187 C 
ATOM     10  C   UNL     1       6.407  -0.153  -0.920  0.00  0.00    +0.174 C 
ATOM     11  C   UNL     1       4.395  -1.434  -0.521  0.00  0.00    +0.088 C 
ATOM     12  C   UNL     1       7.058  -1.307  -1.356  0.00  0.00    +0.040 C 
ATOM     13  C   UNL     1       5.043  -2.585  -0.970  0.00  0.00    +0.018 C 
ATOM     14  C   UNL     1       6.374  -2.522  -1.383  0.00  0.00    +0.005 C 
BRANCH   7  19
ATOM     15  N   UNL     1       4.854   4.149   1.455  0.00  0.00    -0.110 NA
ATOM     16  N   UNL     1       3.305   3.505  -0.066  0.00  0.00    -0.087 NA
ATOM     17  N   UNL     1       3.840   5.013   1.308  0.00  0.00    -0.140 N 
ATOM     18  N   UNL     1       2.899   4.673   0.417  0.00  0.00    -0.022 NA
ATOM     19  C   UNL     1       4.474   3.220   0.573  0.00  0.00    +0.094 C 
ATOM     20  H   UNL     1       3.790   5.850   1.825  0.00  0.00    +0.197 HD
ENDBRANCH   7  19
ENDBRANCH   2  11
BRANCH   3  22
ATOM     21  C   UNL     1      -1.752  -1.995   1.288  0.00  0.00    +0.139 C 
ATOM     22  C   UNL     1       0.857  -2.428   0.401  0.00  0.00    +0.054 C 
ATOM     23  C   UNL     1      -1.160  -3.248   1.449  0.00  0.00    +0.037 C 
ATOM     24  C   UNL     1      -1.040  -0.959   0.684  0.00  0.00    +0.037 C 
ATOM     25  C   UNL     1       0.144  -3.464   1.006  0.00  0.00    +0.008 C 
ATOM     26  C   UNL     1       0.264  -1.176   0.241  0.00  0.00    +0.008 C 
BRANCH  21  27
ATOM     27  O   UNL     1      -3.025  -1.783   1.723  0.00  0.00    -0.475 OA
BRANCH  27  28
ATOM     28  C   UNL     1      -3.801  -0.818   1.014  0.00  0.00    +0.205 C 
BRANCH  28  29
ATOM     29  C   UNL     1      -5.270  -1.204   1.108  0.00  0.00    +0.048 C 
BRANCH  29  30
ATOM     30  C   UNL     1      -6.161  -0.218   0.354  0.00  0.00    +0.009 C 
BRANCH  30  31
ATOM     31  C   UNL     1      -7.631  -0.637   0.419  0.00  0.00    +0.026 C 
BRANCH  31  32
ATOM     32  C   UNL     1      -8.523   0.348  -0.292  0.00  0.00    -0.022 C 
ATOM     33  C   UNL     1      -9.068   1.426   0.406  0.00  0.00    -0.004 C 
ATOM     34  C   UNL     1      -8.804   0.182  -1.649  0.00  0.00    -0.004 C 
ATOM     35  C   UNL     1      -9.894   2.337  -0.252  0.00  0.00    -0.000 C 
ATOM     36  C   UNL     1      -9.630   1.094  -2.307  0.00  0.00    -0.000 C 
ATOM     37  C   UNL     1     -10.175   2.171  -1.608  0.00  0.00    -0.000 C 
ENDBRANCH  31  32
ENDBRANCH  30  31
ENDBRANCH  29  30
ENDBRANCH  28  29
ENDBRANCH  27  28
ENDBRANCH  21  27
ENDBRANCH   3  22
TORSDOF 9
