REMARK  Name = 128267
REMARK  7 active torsions:
REMARK  status: ('A' for Active; 'I' for Inactive)
REMARK    1  A    between atoms: N_2  and  C_17
REMARK    2  A    between atoms: C_3  and  C_7
REMARK    3  A    between atoms: C_11  and  O_12
REMARK    4  A    between atoms: O_12  and  C_13
REMARK    5  A    between atoms: C_17  and  C_21
REMARK    6  A    between atoms: C_22  and  C_24
REMARK    7  A    between atoms: C_24  and  N_26
REMARK                            x       y       z     vdW  Elec       q    Type
REMARK                         _______ _______ _______ _____ _____    ______ ____
ROOT
ATOM      1  O   UNL     1      -0.854  -1.635  -0.990  0.00  0.00    -0.273 OA
ATOM      2  N   UNL     1      -0.409  -1.835   1.286  0.00  0.00    -0.295 N 
ATOM      3  C   UNL     1      -1.216  -1.612   0.183  0.00  0.00    +0.241 C 
ATOM      4  H   UNL     1      -0.816  -1.790   2.181  0.00  0.00    +0.150 HD
ENDROOT
BRANCH   3   7
ATOM      5  O   UNL     1      -3.584   1.631  -1.288  0.00  0.00    -0.226 OA
ATOM      6  N   UNL     1      -3.213  -0.499  -0.463  0.00  0.00    -0.239 N 
ATOM      7  C   UNL     1      -2.642  -1.355   0.567  0.00  0.00    +0.155 C 
ATOM      8  C   UNL     1      -3.481  -2.627   0.517  0.00  0.00    +0.031 C 
ATOM      9  C   UNL     1      -3.944  -2.693  -0.937  0.00  0.00    +0.024 C 
ATOM     10  C   UNL     1      -4.152  -1.232  -1.306  0.00  0.00    +0.097 C 
ATOM     11  C   UNL     1      -3.002   0.871  -0.517  0.00  0.00    +0.405 C 
BRANCH  11  12
ATOM     12  O   UNL     1      -2.064   1.280   0.393  0.00  0.00    -0.442 OA
BRANCH  12  13
ATOM     13  C   UNL     1      -1.780   2.684   0.411  0.00  0.00    +0.138 C 
ATOM     14  C   UNL     1      -1.246   3.090  -0.963  0.00  0.00    +0.044 C 
ATOM     15  C   UNL     1      -0.726   2.926   1.489  0.00  0.00    +0.044 C 
ATOM     16  C   UNL     1      -3.068   3.437   0.739  0.00  0.00    +0.044 C 
ENDBRANCH  12  13
ENDBRANCH  11  12
ENDBRANCH   3   7
BRANCH   2  17
ATOM     17  C   UNL     1       1.003  -2.128   1.186  0.00  0.00    +0.176 C 
BRANCH  17  21
ATOM     18  O   UNL     1       1.441   0.167   1.810  0.00  0.00    -0.273 OA
ATOM     19  O   UNL     1       3.817   1.193   0.733  0.00  0.00    -0.277 OA
ATOM     20  N   UNL     1       2.972  -0.961   0.457  0.00  0.00    -0.256 N 
ATOM     21  C   UNL     1       1.805  -0.844   1.215  0.00  0.00    +0.248 C 
ATOM     22  C   UNL     1       3.905   0.061   0.262  0.00  0.00    +0.208 C 
ATOM     23  H   UNL     1       3.151  -1.829   0.028  0.00  0.00    +0.157 HD
BRANCH  22  24
ATOM     24  C   UNL     1       5.075  -0.397  -0.601  0.00  0.00    +0.017 C 
ATOM     25  C   UNL     1       6.383  -0.265   0.170  0.00  0.00    -0.014 C 
BRANCH  24  26
ATOM     26  N   UNL     1       5.111   0.433  -1.802  0.00  0.00    +0.389 N 
ATOM     27  C   UNL     1       3.870   0.311  -2.552  0.00  0.00    -0.105 C 
ATOM     28  H   UNL     1       5.888   0.135  -2.391  0.00  0.00    -0.084 HD
ATOM     29  H   UNL     1       5.230   1.407  -1.524  0.00  0.00    -0.084 HD
ENDBRANCH  24  26
ENDBRANCH  22  24
ENDBRANCH  17  21
ENDBRANCH   2  17
TORSDOF 7
