128243
  -OEChem-03292013323D

 55 58  0     1  0  0  0  0  0999 V2000
   -0.1208    1.5448   -1.7381 O   0  0  0  0  0  0  0  0  0  0  0  0
    3.7462    0.1515   -2.5567 O   0  0  0  0  0  0  0  0  0  0  0  0
   -1.9279   -1.0420   -2.0633 O   0  0  0  0  0  0  0  0  0  0  0  0
   -5.2187   -0.3582   -0.3421 O   0  0  0  0  0  0  0  0  0  0  0  0
    5.5964    0.7685    2.1298 O   0  0  0  0  0  0  0  0  0  0  0  0
   -6.1416    2.0541    0.3984 O   0  0  0  0  0  0  0  0  0  0  0  0
   -1.0470   -1.0840    0.6301 C   0  0  1  0  0  0  0  0  0  0  0  0
    0.2865   -1.0954   -0.1290 C   0  0  1  0  0  0  0  0  0  0  0  0
   -2.0099   -0.0028    0.1225 C   0  0  2  0  0  0  0  0  0  0  0  0
    0.9783    0.3044    0.0677 C   0  0  1  0  0  0  0  0  0  0  0  0
    2.4184    0.3349   -0.5745 C   0  0  2  0  0  0  0  0  0  0  0  0
    0.0298    1.4751   -0.3254 C   0  0  2  0  0  0  0  0  0  0  0  0
   -1.3677    1.3747    0.3320 C   0  0  0  0  0  0  0  0  0  0  0  0
   -3.2462   -0.2967    0.9921 C   0  0  2  0  0  0  0  0  0  0  0  0
   -1.9043   -2.3452    0.6544 C   0  0  0  0  0  0  0  0  0  0  0  0
    1.1794   -2.2558    0.3567 C   0  0  0  0  0  0  0  0  0  0  0  0
   -3.2919   -1.8377    1.0825 C   0  0  0  0  0  0  0  0  0  0  0  0
    3.1776   -0.8321    0.0698 C   0  0  0  0  0  0  0  0  0  0  0  0
    2.6008   -2.1982   -0.2013 C   0  0  0  0  0  0  0  0  0  0  0  0
    3.1745    1.6689   -0.3175 C   0  0  0  0  0  0  0  0  0  0  0  0
   -2.3787   -0.1578   -1.3426 C   0  0  0  0  0  0  0  0  0  0  0  0
    2.4077    0.1564   -2.1142 C   0  0  0  0  0  0  0  0  0  0  0  0
   -4.5278    0.2688    0.4596 C   0  0  0  0  0  0  0  0  0  0  0  0
    3.6968    1.8088    1.1008 C   0  0  0  0  0  0  0  0  0  0  0  0
    4.2024   -0.6940    0.9272 C   0  0  0  0  0  0  0  0  0  0  0  0
    4.6022    0.6458    1.4181 C   0  0  0  0  0  0  0  0  0  0  0  0
   -4.9146    1.6432    0.9631 C   0  0  0  0  0  0  0  0  0  0  0  0
   -0.8080   -0.8628    1.6842 H   0  0  0  0  0  0  0  0  0  0  0  0
    0.1324   -1.2585   -1.1971 H   0  0  0  0  0  0  0  0  0  0  0  0
    1.1213    0.4138    1.1549 H   0  0  0  0  0  0  0  0  0  0  0  0
    0.4722    2.4239   -0.0046 H   0  0  0  0  0  0  0  0  0  0  0  0
   -1.2632    1.5746    1.4059 H   0  0  0  0  0  0  0  0  0  0  0  0
   -2.0121    2.1581   -0.0835 H   0  0  0  0  0  0  0  0  0  0  0  0
   -3.0991    0.0898    2.0097 H   0  0  0  0  0  0  0  0  0  0  0  0
   -1.5205   -3.0863    1.3632 H   0  0  0  0  0  0  0  0  0  0  0  0
   -1.9571   -2.8302   -0.3256 H   0  0  0  0  0  0  0  0  0  0  0  0
    0.7287   -3.2154    0.0765 H   0  0  0  0  0  0  0  0  0  0  0  0
    1.2286   -2.2430    1.4540 H   0  0  0  0  0  0  0  0  0  0  0  0
   -4.0635   -2.3041    0.4615 H   0  0  0  0  0  0  0  0  0  0  0  0
   -3.5000   -2.1376    2.1167 H   0  0  0  0  0  0  0  0  0  0  0  0
    2.6107   -2.4267   -1.2714 H   0  0  0  0  0  0  0  0  0  0  0  0
    3.1977   -2.9853    0.2761 H   0  0  0  0  0  0  0  0  0  0  0  0
    2.5462    2.5308   -0.5647 H   0  0  0  0  0  0  0  0  0  0  0  0
    4.0504    1.7642   -0.9727 H   0  0  0  0  0  0  0  0  0  0  0  0
   -3.0663    0.5996   -1.7574 H   0  0  0  0  0  0  0  0  0  0  0  0
    1.9274    1.0008   -2.6127 H   0  0  0  0  0  0  0  0  0  0  0  0
    1.9154   -0.7573   -2.4543 H   0  0  0  0  0  0  0  0  0  0  0  0
    2.8873    1.8433    1.8363 H   0  0  0  0  0  0  0  0  0  0  0  0
    4.2758    2.7351    1.1854 H   0  0  0  0  0  0  0  0  0  0  0  0
    4.7029   -1.5480    1.3702 H   0  0  0  0  0  0  0  0  0  0  0  0
   -0.6708    2.3209   -1.9392 H   0  0  0  0  0  0  0  0  0  0  0  0
   -4.1510    2.3682    0.6775 H   0  0  0  0  0  0  0  0  0  0  0  0
   -5.0144    1.6238    2.0519 H   0  0  0  0  0  0  0  0  0  0  0  0
    3.7317    0.0507   -3.5237 H   0  0  0  0  0  0  0  0  0  0  0  0
   -6.8314    1.4531    0.7282 H   0  0  0  0  0  0  0  0  0  0  0  0
  1 12  1  0  0  0  0
  1 51  1  0  0  0  0
  2 22  1  0  0  0  0
  2 54  1  0  0  0  0
  3 21  2  0  0  0  0
  4 23  2  0  0  0  0
  5 26  2  0  0  0  0
  6 27  1  0  0  0  0
  6 55  1  0  0  0  0
  7  8  1  0  0  0  0
  7  9  1  0  0  0  0
  7 15  1  0  0  0  0
  7 28  1  0  0  0  0
  8 10  1  0  0  0  0
  8 16  1  0  0  0  0
  8 29  1  0  0  0  0
  9 13  1  0  0  0  0
  9 14  1  0  0  0  0
  9 21  1  0  0  0  0
 10 11  1  0  0  0  0
 10 12  1  0  0  0  0
 10 30  1  0  0  0  0
 11 18  1  0  0  0  0
 11 20  1  0  0  0  0
 11 22  1  0  0  0  0
 12 13  1  0  0  0  0
 12 31  1  0  0  0  0
 13 32  1  0  0  0  0
 13 33  1  0  0  0  0
 14 17  1  0  0  0  0
 14 23  1  0  0  0  0
 14 34  1  0  0  0  0
 15 17  1  0  0  0  0
 15 35  1  0  0  0  0
 15 36  1  0  0  0  0
 16 19  1  0  0  0  0
 16 37  1  0  0  0  0
 16 38  1  0  0  0  0
 17 39  1  0  0  0  0
 17 40  1  0  0  0  0
 18 19  1  0  0  0  0
 18 25  2  0  0  0  0
 19 41  1  0  0  0  0
 19 42  1  0  0  0  0
 20 24  1  0  0  0  0
 20 43  1  0  0  0  0
 20 44  1  0  0  0  0
 21 45  1  0  0  0  0
 22 46  1  0  0  0  0
 22 47  1  0  0  0  0
 23 27  1  0  0  0  0
 24 26  1  0  0  0  0
 24 48  1  0  0  0  0
 24 49  1  0  0  0  0
 25 26  1  0  0  0  0
 25 50  1  0  0  0  0
 27 52  1  0  0  0  0
 27 53  1  0  0  0  0
M  END
> <PUBCHEM_COMPOUND_CID>
128243

> <PUBCHEM_CONFORMER_RMSD>
0.8

> <PUBCHEM_CONFORMER_DIVERSEORDER>
1
4
3
2

> <PUBCHEM_MMFF94_PARTIAL_CHARGES>
24
1 -0.68
11 0.14
12 0.28
14 0.06
18 -0.28
19 0.14
2 -0.68
21 0.45
22 0.28
23 0.45
24 0.06
25 -0.14
26 0.49
27 0.34
3 -0.57
4 -0.57
45 0.06
5 -0.57
50 0.15
51 0.4
54 0.4
55 0.4
6 -0.68
9 0.06

> <PUBCHEM_EFFECTIVE_ROTOR_COUNT>
5.8

> <PUBCHEM_PHARMACOPHORE_FEATURES>
13
1 1 acceptor
1 1 donor
1 2 acceptor
1 2 donor
1 3 acceptor
1 4 acceptor
1 5 acceptor
1 6 acceptor
1 6 donor
5 7 9 14 15 17 rings
6 11 18 20 24 25 26 rings
6 7 8 9 10 12 13 rings
6 8 10 11 16 18 19 rings

> <PUBCHEM_HEAVY_ATOM_COUNT>
27

> <PUBCHEM_ATOM_DEF_STEREO_COUNT>
7

> <PUBCHEM_ATOM_UDEF_STEREO_COUNT>
0

> <PUBCHEM_BOND_DEF_STEREO_COUNT>
0

> <PUBCHEM_BOND_UDEF_STEREO_COUNT>
0

> <PUBCHEM_ISOTOPIC_ATOM_COUNT>
0

> <PUBCHEM_COMPONENT_COUNT>
1

> <PUBCHEM_CACTVS_TAUTO_COUNT>
20

> <PUBCHEM_CONFORMER_ID>
0001F4F300000001

> <PUBCHEM_MMFF94_ENERGY>
84.5917

> <PUBCHEM_FEATURE_SELFOVERLAP>
66.099

> <PUBCHEM_SHAPE_FINGERPRINT>
10863032 1 18336276699340497443
11089746 13 18131067104416719929
11132069 177 18260831513823959715
11961588 58 13901894648953151232
12236239 1 17988917856396109007
12403814 3 16950564415431514231
12422481 6 18113610149485817032
12553582 1 18261407670859676045
12633257 1 17312822701351274763
13140716 1 18260267477491836474
13224815 77 18186803625293272990
13583140 156 17774719882833165683
14178342 30 18263645219871932299
14790565 3 17829625194283810332
15238133 3 18334583412283189981
15375358 24 18342460365308547947
15840311 113 18199474256228243329
1601671 61 18114197344545494309
16945 1 18410019844313195070
17349148 13 18114170960793321238
17980427 23 18115862061612152548
1813 80 16515407356562991198
20511986 3 18271790299489970203
20715895 44 18335699378463544129
20775530 9 15070557754245179376
21033648 29 17917441933852571353
21421861 104 17531801347292989914
21452121 103 18342173341313283826
21756936 100 17769928310661477480
21859007 373 17387677324554113805
22182313 1 17823689759822391687
23503953 91 18113903766387626129
23559900 14 18341349841732784948
296302 2 16988561324777791474
335352 9 18335426711947740863
34797466 226 17060340717300472601
34934 24 18202559579542664233
350125 39 18334862671684140156
3633792 109 15769504110082619685
3680242 22 18041276560875796554
394222 165 16880778519901582364
4340502 62 18409172082778965403
46194498 28 10809346612005889962
474 4 18059008501325221928
495365 180 17989488489581792674
5104073 3 17676776477804879905
59755656 215 18411422765912079506
633830 44 18342180011439627636
7064713 232 18335139816716800514

> <PUBCHEM_SHAPE_MULTIPOLES>
520.43
10.77
2.26
1.72
4.87
0.49
-0.78
-4.11
4.15
0.57
0.39
-1.62
-0.26
0.19

> <PUBCHEM_SHAPE_SELFOVERLAP>
1123.387

> <PUBCHEM_SHAPE_VOLUME>
280.9

> <PUBCHEM_COORDINATE_TYPE>
2
5
10

$$$$
