REMARK  Name = 128216
REMARK  4 active torsions:
REMARK  status: ('A' for Active; 'I' for Inactive)
REMARK    1  A    between atoms: C_11  and  C_24
REMARK    2  A    between atoms: C_18  and  O_34
REMARK    3  A    between atoms: C_19  and  O_36
REMARK    4  A    between atoms: C_31  and  O_32
REMARK                            x       y       z     vdW  Elec       q    Type
REMARK                         _______ _______ _______ _____ _____    ______ ____
ROOT
ATOM      1  O   UNL     1       3.790   2.616  -1.033  0.00  0.00    -0.271 OA
ATOM      2  N   UNL     1       1.893   1.346  -0.600  0.00  0.00    -0.273 N 
ATOM      3  N   UNL     1      -0.971   1.089  -0.271  0.00  0.00    -0.231 N 
ATOM      4  N   UNL     1      -2.916  -0.257  -0.265  0.00  0.00    -0.332 NA
ATOM      5  N   UNL     1      -3.037   2.084   0.295  0.00  0.00    -0.317 NA
ATOM      6  N   UNL     1      -5.094   3.079   0.859  0.00  0.00    -0.335 N 
ATOM      7  C   UNL     1       1.278   0.086  -0.176  0.00  0.00    +0.116 C 
ATOM      8  C   UNL     1       0.979   2.430  -0.950  0.00  0.00    +0.116 C 
ATOM      9  C   UNL     1      -0.162  -0.065  -0.668  0.00  0.00    +0.125 C 
ATOM     10  C   UNL     1      -0.303   2.385  -0.121  0.00  0.00    +0.125 C 
ATOM     11  C   UNL     1       3.270   1.557  -0.676  0.00  0.00    +0.270 C 
ATOM     12  C   UNL     1      -2.345   0.971  -0.075  0.00  0.00    +0.203 C 
ATOM     13  C   UNL     1      -4.242  -0.378  -0.078  0.00  0.00    +0.138 C 
ATOM     14  C   UNL     1      -5.032   0.719   0.303  0.00  0.00    +0.146 C 
ATOM     15  C   UNL     1      -4.362   1.927   0.474  0.00  0.00    +0.178 C 
ATOM     16  C   UNL     1      -4.877  -1.605  -0.259  0.00  0.00    +0.069 C 
ATOM     17  C   UNL     1      -6.418   0.580   0.496  0.00  0.00    +0.029 C 
ATOM     18  C   UNL     1      -6.254  -1.751  -0.069  0.00  0.00    +0.174 C 
ATOM     19  C   UNL     1      -7.026  -0.657   0.309  0.00  0.00    +0.169 C 
ATOM     20  H   UNL     1      -4.630   3.938   0.982  0.00  0.00    +0.144 HD
ATOM     21  H   UNL     1      -6.066   3.019   1.003  0.00  0.00    +0.144 HD
ENDROOT
BRANCH  11  24
ATOM     22  O   UNL     1       5.301   0.979   0.301  0.00  0.00    -0.463 OA
ATOM     23  O   UNL     1       5.356  -1.529  -1.123  0.00  0.00    -0.468 OA
ATOM     24  C   UNL     1       4.146   0.388  -0.293  0.00  0.00    +0.284 C 
ATOM     25  C   UNL     1       4.534  -0.425  -1.513  0.00  0.00    +0.258 C 
ATOM     26  C   UNL     1       6.323   0.074   0.428  0.00  0.00    +0.173 C 
ATOM     27  C   UNL     1       6.345  -1.145  -0.253  0.00  0.00    +0.175 C 
ATOM     28  C   UNL     1       7.377   0.421   1.275  0.00  0.00    +0.043 C 
ATOM     29  C   UNL     1       7.398  -2.038  -0.055  0.00  0.00    +0.077 C 
ATOM     30  C   UNL     1       8.436  -0.467   1.462  0.00  0.00    +0.040 C 
ATOM     31  C   UNL     1       8.444  -1.697   0.803  0.00  0.00    +0.137 C 
BRANCH  31  32
ATOM     32  O   UNL     1       9.477  -2.563   0.993  0.00  0.00    -0.505 OA
ATOM     33  H   UNL     1       9.483  -3.389   0.550  0.00  0.00    +0.292 HD
ENDBRANCH  31  32
ENDBRANCH  11  24
BRANCH  18  34
ATOM     34  O   UNL     1      -6.829  -2.972  -0.258  0.00  0.00    -0.468 OA
ATOM     35  C   UNL     1      -7.300  -3.270  -1.571  0.00  0.00    +0.253 C 
ENDBRANCH  18  34
BRANCH  19  36
ATOM     36  O   UNL     1      -8.368  -0.785   0.497  0.00  0.00    -0.469 OA
ATOM     37  C   UNL     1      -8.809  -1.128   1.810  0.00  0.00    +0.253 C 
ENDBRANCH  19  36
TORSDOF 4
