REMARK  Name = 128210
REMARK  7 active torsions:
REMARK  status: ('A' for Active; 'I' for Inactive)
REMARK    1  A    between atoms: C_20  and  O_22
REMARK    2  A    between atoms: O_22  and  C_24
REMARK    3  A    between atoms: C_25  and  O_29
REMARK    4  A    between atoms: C_26  and  O_31
REMARK    5  A    between atoms: C_27  and  O_33
REMARK    6  A    between atoms: C_28  and  C_36
REMARK    7  A    between atoms: C_36  and  O_37
REMARK                            x       y       z     vdW  Elec       q    Type
REMARK                         _______ _______ _______ _____ _____    ______ ____
ROOT
ATOM      1  O   UNL     1      -6.919   1.146  -0.823  0.00  0.00    -0.296 OA
ATOM      2  O   UNL     1       2.341  -3.759   0.187  0.00  0.00    -0.288 OA
ATOM      3  C   UNL     1      -2.729  -0.070  -0.985  0.00  0.00    +0.001 C 
ATOM      4  C   UNL     1      -2.578  -1.378  -0.144  0.00  0.00    +0.004 C 
ATOM      5  C   UNL     1      -3.390   1.060  -0.159  0.00  0.00    +0.007 C 
ATOM      6  C   UNL     1      -4.821   0.641   0.307  0.00  0.00    +0.052 C 
ATOM      7  C   UNL     1      -1.213  -1.586   0.644  0.00  0.00    +0.019 C 
ATOM      8  C   UNL     1      -3.825  -1.647   0.735  0.00  0.00    +0.001 C 
ATOM      9  C   UNL     1      -5.054  -0.879   0.269  0.00  0.00    +0.007 C 
ATOM     10  C   UNL     1      -1.419   0.284  -1.701  0.00  0.00    +0.004 C 
ATOM     11  C   UNL     1      -3.630   2.379  -0.912  0.00  0.00    +0.008 C 
ATOM     12  C   UNL     1      -0.017  -1.096  -0.190  0.00  0.00    -0.008 C 
ATOM     13  C   UNL     1      -0.219   0.287  -0.774  0.00  0.00    +0.025 C 
ATOM     14  C   UNL     1      -5.708   1.313  -0.736  0.00  0.00    +0.150 C 
ATOM     15  C   UNL     1      -4.929   2.191  -1.676  0.00  0.00    +0.064 C 
ATOM     16  C   UNL     1      -1.089  -3.112   0.926  0.00  0.00    +0.012 C 
ATOM     17  C   UNL     1      -5.149   1.231   1.684  0.00  0.00    +0.007 C 
ATOM     18  C   UNL     1      -1.153  -0.840   2.001  0.00  0.00    +0.004 C 
ATOM     19  C   UNL     1       0.296  -3.520   1.387  0.00  0.00    +0.073 C 
ATOM     20  C   UNL     1       1.119  -1.811  -0.360  0.00  0.00    +0.168 C 
ATOM     21  C   UNL     1       1.321  -3.096   0.371  0.00  0.00    +0.206 C 
ENDROOT
BRANCH  20  22
ATOM     22  O   UNL     1       2.184  -1.432  -1.148  0.00  0.00    -0.448 OA
BRANCH  22  24
ATOM     23  O   UNL     1       2.491   0.495   0.130  0.00  0.00    -0.307 OA
ATOM     24  C   UNL     1       3.125  -0.668  -0.395  0.00  0.00    +0.319 C 
ATOM     25  C   UNL     1       4.270  -0.275  -1.329  0.00  0.00    +0.210 C 
ATOM     26  C   UNL     1       5.257   0.662  -0.632  0.00  0.00    +0.173 C 
ATOM     27  C   UNL     1       4.533   1.812   0.069  0.00  0.00    +0.178 C 
ATOM     28  C   UNL     1       3.377   1.289   0.911  0.00  0.00    +0.246 C 
BRANCH  25  29
ATOM     29  O   UNL     1       4.949  -1.465  -1.730  0.00  0.00    -0.377 OA
ATOM     30  H   UNL     1       4.325  -2.061  -2.172  0.00  0.00    +0.211 HD
ENDBRANCH  25  29
BRANCH  26  31
ATOM     31  O   UNL     1       6.146   1.223  -1.599  0.00  0.00    -0.379 OA
ATOM     32  H   UNL     1       6.617   0.510  -2.058  0.00  0.00    +0.211 HD
ENDBRANCH  26  31
BRANCH  27  33
ATOM     33  O   UNL     1       5.453   2.490   0.923  0.00  0.00    -0.379 OA
ATOM     34  H   UNL     1       6.194   2.828   0.397  0.00  0.00    +0.211 HD
ENDBRANCH  27  33
BRANCH  28  36
ATOM     35  O   UNL     1       1.578   2.891   0.752  0.00  0.00    -0.247 OA
ATOM     36  C   UNL     1       2.508   2.410   1.383  0.00  0.00    +0.344 C 
BRANCH  36  37
ATOM     37  O   UNL     1       2.893   2.829   2.613  0.00  0.00    -0.478 OA
ATOM     38  H   UNL     1       3.616   2.417   3.043  0.00  0.00    +0.295 HD
ENDBRANCH  36  37
ENDBRANCH  28  36
ENDBRANCH  22  24
ENDBRANCH  20  22
TORSDOF 7
