REMARK  Name = 128248
REMARK  10 active torsions:
REMARK  status: ('A' for Active; 'I' for Inactive)
REMARK    1  A    between atoms: N_1  and  CA_4
REMARK    2  A    between atoms: N_1  and  C_16
REMARK    3  A    between atoms: CA_4  and  C_6
REMARK    4  A    between atoms: CA_4  and  CB_9
REMARK    5  A    between atoms: C_6  and  O_7
REMARK    6  A    between atoms: CB_9  and  CG_10
REMARK    7  A    between atoms: CG_10  and  CD_13
REMARK    8  A    between atoms: C_16  and  C_17
REMARK    9  A    between atoms: C_17  and  C_18
REMARK   10  A    between atoms: C_23  and  O_24
REMARK                            x       y       z     vdW  Elec       q    Type
REMARK                         _______ _______ _______ _____ _____    ______ ____
ROOT
ATOM      1  N   GLN A   1       0.941   0.194  -1.360  0.00  0.00    +0.392 N 
ATOM      2  H1  GLN A   1       1.020  -0.567  -2.035  0.00  0.00    -0.084 HD
ATOM      3  H2  GLN A   1       0.920   1.093  -1.841  0.00  0.00    -0.084 HD
ENDROOT
BRANCH   1   4
ATOM      4  CA  GLN A   1       2.100   0.166  -0.469  0.00  0.00    +0.040 C 
BRANCH   4   6
ATOM      5  OXT GLN A   1       1.967   2.494   0.255  0.00  0.00    -0.253 OA
ATOM      6  C   GLN A   1       1.959   1.301   0.529  0.00  0.00    +0.293 C 
BRANCH   6   7
ATOM      7  O   GLN A   1       1.800   0.845   1.800  0.00  0.00    -0.482 OA
ATOM      8  H   GLN A   1       1.799  -0.076   1.971  0.00  0.00    +0.295 HD
ENDBRANCH   6   7
ENDBRANCH   4   6
BRANCH   4   9
ATOM      9  CB  GLN A   1       3.422   0.208  -1.254  0.00  0.00    -0.001 C 
BRANCH   9  10
ATOM     10  CG  GLN A   1       4.707   0.238  -0.419  0.00  0.00    +0.083 C 
BRANCH  10  13
ATOM     11  OE1 GLN A   1       4.520  -2.113   0.055  0.00  0.00    -0.275 OA
ATOM     12  NE2 GLN A   1       5.632  -0.787   1.571  0.00  0.00    -0.329 N 
ATOM     13  CD  GLN A   1       4.938  -1.011   0.404  0.00  0.00    +0.219 C 
ATOM     14 HE21 GLN A   1       5.832  -1.538   2.176  0.00  0.00    +0.145 HD
ATOM     15 HE22 GLN A   1       5.928   0.123   1.801  0.00  0.00    +0.145 HD
ENDBRANCH  10  13
ENDBRANCH   9  10
ENDBRANCH   4   9
ENDBRANCH   1   4
BRANCH   1  16
ATOM     16  C   UNK A   0      -0.293   0.037  -0.606  0.00  0.00    -0.076 C 
BRANCH  16  17
ATOM     17  C   UNK A   0      -1.509   0.068  -1.533  0.00  0.00    +0.003 C 
BRANCH  17  18
ATOM     18  C   UNK A   0      -2.796  -0.071  -0.761  0.00  0.00    -0.024 C 
ATOM     19  C   UNK A   0      -3.319  -1.335  -0.530  0.00  0.00    -0.001 C 
ATOM     20  C   UNK A   0      -3.437   1.067  -0.295  0.00  0.00    -0.001 C 
ATOM     21  C   UNK A   0      -4.511  -1.462   0.184  0.00  0.00    +0.036 C 
ATOM     22  C   UNK A   0      -4.628   0.939   0.418  0.00  0.00    +0.036 C 
ATOM     23  C   UNK A   0      -5.165  -0.326   0.658  0.00  0.00    +0.134 C 
BRANCH  23  24
ATOM     24  O   UNK A   0      -6.328  -0.452   1.355  0.00  0.00    -0.506 OA
ATOM     25  H   UNK A   0      -6.688  -1.301   1.515  0.00  0.00    +0.292 HD
ENDBRANCH  23  24
ENDBRANCH  17  18
ENDBRANCH  16  17
ENDBRANCH   1  16
TORSDOF 10
