REMARK  Name = 128219
REMARK  11 active torsions:
REMARK  status: ('A' for Active; 'I' for Inactive)
REMARK    1  A    between atoms: C_3  and  C_10
REMARK    2  A    between atoms: C_7  and  C_20
REMARK    3  A    between atoms: N_9  and  CA_12
REMARK    4  A    between atoms: CA_12  and  CB_13
REMARK    5  A    between atoms: CA_12  and  C_17
REMARK    6  A    between atoms: C_17  and  O_18
REMARK    7  A    between atoms: C_20  and  C_21
REMARK    8  A    between atoms: C_20  and  C_25
REMARK    9  A    between atoms: C_21  and  C_22
REMARK   10  A    between atoms: C_25  and  C_28
REMARK   11  A    between atoms: N_27  and  O_30
REMARK                            x       y       z     vdW  Elec       q    Type
REMARK                         _______ _______ _______ _____ _____    ______ ____
ROOT
ATOM      1  O   UNL     1      -0.531   1.061   1.262  0.00  0.00    -0.275 OA
ATOM      2  N   UNL     1      -0.558  -0.926   0.077  0.00  0.00    -0.273 N 
ATOM      3  C   UNL     1       0.774  -1.371   0.467  0.00  0.00    +0.152 C 
ATOM      4  C   UNL     1       0.816  -2.847   0.088  0.00  0.00    +0.031 C 
ATOM      5  C   UNL     1      -1.230  -1.932  -0.742  0.00  0.00    +0.094 C 
ATOM      6  C   UNL     1      -0.144  -2.937  -1.095  0.00  0.00    +0.024 C 
ATOM      7  C   UNL     1      -1.130   0.234   0.573  0.00  0.00    +0.226 C 
ENDROOT
BRANCH   3  10
ATOM      8  O   UNL     1       1.493  -0.136  -1.446  0.00  0.00    -0.273 OA
ATOM      9  N   UNL     1       2.960  -0.400   0.342  0.00  0.00    -0.295 N 
ATOM     10  C   ACE A   0       1.758  -0.565  -0.326  0.00  0.00    +0.241 C 
ATOM     11  H   UNL     1       3.054  -0.792   1.240  0.00  0.00    +0.150 HD
BRANCH   9  12
ATOM     12  CA  UNL     1       4.082   0.319  -0.215  0.00  0.00    +0.171 C 
BRANCH  12  13
ATOM     13  CB  UNL     1       4.422   1.542   0.664  0.00  0.00    +0.029 C 
ATOM     14  CG1 UNL     1       5.003   1.135   2.021  0.00  0.00    +0.002 C 
ATOM     15  CG2 UNL     1       3.237   2.493   0.858  0.00  0.00    +0.002 C 
ENDBRANCH  12  13
BRANCH  12  17
ATOM     16  OXT UNL     1       6.285  -0.281  -1.046  0.00  0.00    -0.248 OA
ATOM     17  C   UNL     1       5.258  -0.621  -0.469  0.00  0.00    +0.332 C 
BRANCH  17  18
ATOM     18  O   UNL     1       5.061  -1.895  -0.049  0.00  0.00    -0.479 OA
ATOM     19  H   UNL     1       4.266  -2.126   0.389  0.00  0.00    +0.295 HD
ENDBRANCH  17  18
ENDBRANCH  12  17
ENDBRANCH   9  12
ENDBRANCH   3  10
BRANCH   7  20
ATOM     20  C   UNL     1      -2.576   0.454   0.206  0.00  0.00    +0.086 C 
BRANCH  20  21
ATOM     21  C   UNL     1      -2.883   1.958   0.122  0.00  0.00    +0.010 C 
BRANCH  21  22
ATOM     22  C   UNL     1      -2.081   2.725  -0.951  0.00  0.00    +0.000 C 
ATOM     23  C   UNL     1      -2.333   2.191  -2.362  0.00  0.00    +0.000 C 
ATOM     24  C   UNL     1      -2.439   4.213  -0.894  0.00  0.00    +0.000 C 
ENDBRANCH  21  22
ENDBRANCH  20  21
BRANCH  20  25
ATOM     25  C   UNL     1      -3.442  -0.238   1.269  0.00  0.00    +0.096 C 
BRANCH  25  28
ATOM     26  O   UNL     1      -5.788   0.257   0.920  0.00  0.00    -0.273 OA
ATOM     27  N   UNL     1      -4.946  -1.772   0.209  0.00  0.00    -0.197 N 
ATOM     28  C   UNL     1      -4.856  -0.533   0.798  0.00  0.00    +0.245 C 
ATOM     29  H   UNL     1      -4.169  -2.372   0.134  0.00  0.00    +0.182 HD
BRANCH  27  30
ATOM     30  O   UNL     1      -6.211  -2.129  -0.277  0.00  0.00    -0.295 OA
ATOM     31  H   UNL     1      -6.168  -3.014  -0.671  0.00  0.00    +0.241 HD
ENDBRANCH  27  30
ENDBRANCH  25  28
ENDBRANCH  20  25
ENDBRANCH   7  20
TORSDOF 11
