REMARK  Name = 128218
REMARK  11 active torsions:
REMARK  status: ('A' for Active; 'I' for Inactive)
REMARK    1  A    between atoms: C_3  and  C_10
REMARK    2  A    between atoms: C_7  and  C_20
REMARK    3  A    between atoms: N_9  and  CA_12
REMARK    4  A    between atoms: CA_12  and  CB_13
REMARK    5  A    between atoms: CA_12  and  C_17
REMARK    6  A    between atoms: C_17  and  O_18
REMARK    7  A    between atoms: C_20  and  C_21
REMARK    8  A    between atoms: C_20  and  C_24
REMARK    9  A    between atoms: C_21  and  C_22
REMARK   10  A    between atoms: C_24  and  C_27
REMARK   11  A    between atoms: N_26  and  O_29
REMARK                            x       y       z     vdW  Elec       q    Type
REMARK                         _______ _______ _______ _____ _____    ______ ____
ROOT
ATOM      1  O   UNL     1      -0.633   1.235   1.054  0.00  0.00    -0.275 OA
ATOM      2  N   UNL     1      -0.663  -0.852   0.056  0.00  0.00    -0.273 N 
ATOM      3  C   UNL     1       0.656  -1.273   0.510  0.00  0.00    +0.152 C 
ATOM      4  C   UNL     1       0.686  -2.778   0.269  0.00  0.00    +0.031 C 
ATOM      5  C   UNL     1      -0.253  -2.966  -0.920  0.00  0.00    +0.024 C 
ATOM      6  C   UNL     1      -1.333  -1.921  -0.681  0.00  0.00    +0.094 C 
ATOM      7  C   UNL     1      -1.230   0.355   0.432  0.00  0.00    +0.226 C 
ENDROOT
BRANCH   3  10
ATOM      8  O   UNL     1       1.424  -0.227  -1.493  0.00  0.00    -0.273 OA
ATOM      9  N   UNL     1       2.855  -0.342   0.339  0.00  0.00    -0.295 N 
ATOM     10  C   ACE A   0       1.664  -0.554  -0.334  0.00  0.00    +0.241 C 
ATOM     11  H   UNL     1       2.928  -0.651   1.271  0.00  0.00    +0.150 HD
BRANCH   9  12
ATOM     12  CA  UNL     1       3.997   0.311  -0.260  0.00  0.00    +0.171 C 
BRANCH  12  13
ATOM     13  CB  UNL     1       4.335   1.606   0.510  0.00  0.00    +0.029 C 
ATOM     14  CG1 UNL     1       3.159   2.583   0.594  0.00  0.00    +0.002 C 
ATOM     15  CG2 UNL     1       4.887   1.319   1.910  0.00  0.00    +0.002 C 
ENDBRANCH  12  13
BRANCH  12  17
ATOM     16  OXT UNL     1       6.206  -0.386  -0.990  0.00  0.00    -0.248 OA
ATOM     17  C   UNL     1       5.165  -0.660  -0.404  0.00  0.00    +0.332 C 
BRANCH  17  18
ATOM     18  O   UNL     1       4.945  -1.889   0.126  0.00  0.00    -0.479 OA
ATOM     19  H   UNL     1       4.139  -2.070   0.569  0.00  0.00    +0.295 HD
ENDBRANCH  17  18
ENDBRANCH  12  17
ENDBRANCH   9  12
ENDBRANCH   3  10
BRANCH   7  20
ATOM     20  C   UNL     1      -2.667   0.555   0.019  0.00  0.00    +0.086 C 
BRANCH  20  21
ATOM     21  C   UNL     1      -2.927   2.049  -0.230  0.00  0.00    +0.010 C 
BRANCH  21  22
ATOM     22  C   UNL     1      -2.025   2.626  -1.326  0.00  0.00    +0.001 C 
ATOM     23  C   UNL     1      -2.287   4.110  -1.535  0.00  0.00    +0.000 C 
ENDBRANCH  21  22
ENDBRANCH  20  21
BRANCH  20  24
ATOM     24  C   UNL     1      -3.566   0.027   1.144  0.00  0.00    +0.096 C 
BRANCH  24  27
ATOM     25  O   UNL     1      -5.844   0.635   0.686  0.00  0.00    -0.273 OA
ATOM     26  N   UNL     1      -5.147  -1.510   0.174  0.00  0.00    -0.197 N 
ATOM     27  C   UNL     1      -4.975  -0.233   0.646  0.00  0.00    +0.245 C 
ATOM     28  H   UNL     1      -4.414  -2.167   0.166  0.00  0.00    +0.182 HD
BRANCH  26  29
ATOM     29  O   UNL     1      -6.429  -1.821  -0.296  0.00  0.00    -0.295 OA
ATOM     30  H   UNL     1      -6.446  -2.740  -0.605  0.00  0.00    +0.241 HD
ENDBRANCH  26  29
ENDBRANCH  24  27
ENDBRANCH  20  24
ENDBRANCH   7  20
TORSDOF 11
