REMARK  Name = 128232
REMARK  0 active torsions:
REMARK  status: ('A' for Active; 'I' for Inactive)
REMARK                            x       y       z     vdW  Elec       q    Type
REMARK                         _______ _______ _______ _____ _____    ______ ____
ROOT
ATOM      1  S   UNL     1       2.766   2.568   0.876  0.00  0.00    -0.094 S 
ATOM      2  O   UNL     1      -3.371  -1.706   0.677  0.00  0.00    -0.252 OA
ATOM      3  O   UNL     1      -2.346   2.823   0.333  0.00  0.00    -0.270 OA
ATOM      4  N   UNL     1      -1.847  -0.999  -0.927  0.00  0.00    -0.242 N 
ATOM      5  N   UNL     1       0.759  -1.903   0.793  0.00  0.00    -0.272 N 
ATOM      6  N   UNL     1      -2.878   0.561   0.541  0.00  0.00    -0.209 N 
ATOM      7  N   UNL     1       0.848   0.061   1.826  0.00  0.00    -0.243 NA
ATOM      8  N   UNL     1       2.843  -1.806  -0.468  0.00  0.00    -0.228 NA
ATOM      9  N   UNL     1       3.861   0.399  -0.311  0.00  0.00    -0.236 NA
ATOM     10  C   UNL     1      -0.261  -2.973  -1.216  0.00  0.00    +0.043 C 
ATOM     11  C   UNL     1      -1.651  -2.359  -1.447  0.00  0.00    +0.102 C 
ATOM     12  C   UNL     1       0.171  -3.111   0.252  0.00  0.00    +0.096 C 
ATOM     13  C   UNL     1      -1.267   1.321  -1.132  0.00  0.00    +0.047 C 
ATOM     14  C   UNL     1      -0.491   2.442  -1.783  0.00  0.00    +0.033 C 
ATOM     15  C   UNL     1      -1.166   0.043  -1.519  0.00  0.00    +0.069 C 
ATOM     16  C   UNL     1       0.966   2.547  -1.301  0.00  0.00    +0.017 C 
ATOM     17  C   UNL     1      -2.746  -0.790   0.134  0.00  0.00    +0.317 C 
ATOM     18  C   UNL     1      -2.207   1.654  -0.024  0.00  0.00    +0.253 C 
ATOM     19  C   UNL     1       1.927  -1.318   0.384  0.00  0.00    +0.150 C 
ATOM     20  C   UNL     1       1.099   2.912   0.184  0.00  0.00    +0.064 C 
ATOM     21  C   UNL     1       1.911  -0.057   0.962  0.00  0.00    +0.132 C 
ATOM     22  C   UNL     1       0.199  -1.080   1.730  0.00  0.00    +0.221 C 
ATOM     23  C   UNL     1       2.891   0.839   0.529  0.00  0.00    +0.124 C 
ATOM     24  C   UNL     1      -3.798   0.815   1.646  0.00  0.00    +0.125 C 
ATOM     25  C   UNL     1       3.787  -0.882  -0.737  0.00  0.00    +0.252 C 
ENDROOT
TORSDOF 0
