REMARK  Name = 128253
REMARK  15 active torsions:
REMARK  status: ('A' for Active; 'I' for Inactive)
REMARK    1  A    between atoms: C_1  and  N_3
REMARK    2  A    between atoms: C_1  and  C_20
REMARK    3  A    between atoms: C_1  and  C_23
REMARK    4  A    between atoms: C_4  and  CA_6
REMARK    5  A    between atoms: CA_6  and  N_7
REMARK    6  A    between atoms: CA_6  and  CB_11
REMARK    7  A    between atoms: CB_11  and  CG_12
REMARK    8  A    between atoms: CG_12  and  CD_13
REMARK    9  A    between atoms: CD_13  and  CE_14
REMARK   10  A    between atoms: CE_14  and  NZ_15
REMARK   11  A    between atoms: C_20  and  O_21
REMARK   12  A    between atoms: C_23  and  C_25
REMARK   13  A    between atoms: C_27  and  S_34
REMARK   14  A    between atoms: S_34  and  C_35
REMARK   15  A    between atoms: C_36  and  N_43
REMARK                            x       y       z     vdW  Elec       q    Type
REMARK                         _______ _______ _______ _____ _____    ______ ____
ROOT
ATOM      1  C   UNK A   2      -1.188  -1.285   0.366  0.00  0.00    +0.176 C 
ENDROOT
BRANCH   1   3
ATOM      2  O   LYS A   1      -2.437   0.094  -1.845  0.00  0.00    -0.277 OA
ATOM      3  N   UNK A   2      -2.127  -0.189   0.438  0.00  0.00    -0.298 N 
ATOM      4  C   LYS A   1      -2.678   0.415  -0.683  0.00  0.00    +0.202 C 
ATOM      5  H   UNK A   2      -2.388   0.146   1.327  0.00  0.00    +0.150 HD
BRANCH   4   6
ATOM      6  CA  LYS A   1      -3.656   1.528  -0.313  0.00  0.00    +0.013 C 
BRANCH   6   7
ATOM      7  N   LYS A   1      -3.135   2.776  -0.867  0.00  0.00    +0.387 N 
ATOM      8  H1  LYS A   1      -3.769   3.541  -0.635  0.00  0.00    -0.089 HD
ATOM      9  H2  LYS A   1      -3.058   2.693  -1.880  0.00  0.00    -0.089 HD
ATOM     10  H3  LYS A   1      -2.214   2.966  -0.470  0.00  0.00    -0.089 HD
ENDBRANCH   6   7
BRANCH   6  11
ATOM     11  CB  LYS A   1      -5.050   1.186  -0.861  0.00  0.00    -0.013 C 
BRANCH  11  12
ATOM     12  CG  LYS A   1      -5.629  -0.109  -0.282  0.00  0.00    -0.004 C 
BRANCH  12  13
ATOM     13  CD  LYS A   1      -7.032  -0.382  -0.830  0.00  0.00    -0.024 C 
BRANCH  13  14
ATOM     14  CE  LYS A   1      -7.595  -1.692  -0.281  0.00  0.00    -0.086 C 
BRANCH  14  15
ATOM     15  NZ  LYS A   1      -8.922  -1.943  -0.830  0.00  0.00    +0.380 N 
ATOM     16  HZ1 LYS A   1      -9.285  -2.819  -0.456  0.00  0.00    -0.089 HD
ATOM     17  HZ2 LYS A   1      -8.863  -2.006  -1.847  0.00  0.00    -0.089 HD
ATOM     18  HZ3 LYS A   1      -9.547  -1.179  -0.573  0.00  0.00    -0.089 HD
ENDBRANCH  14  15
ENDBRANCH  13  14
ENDBRANCH  12  13
ENDBRANCH  11  12
ENDBRANCH   6  11
ENDBRANCH   4   6
ENDBRANCH   1   3
BRANCH   1  20
ATOM     19  O   UNK A   2      -1.197  -3.628   0.967  0.00  0.00    -0.248 OA
ATOM     20  C   UNK A   2      -1.773  -2.546   0.986  0.00  0.00    +0.332 C 
BRANCH  20  21
ATOM     21  O   UNK A   2      -2.991  -2.386   1.558  0.00  0.00    -0.479 OA
ATOM     22  H   UNK A   2      -3.403  -1.545   1.555  0.00  0.00    +0.295 HD
ENDBRANCH  20  21
ENDBRANCH   1  20
BRANCH   1  23
ATOM     23  C   UNK A   2       0.141  -0.931   1.050  0.00  0.00    +0.059 C 
BRANCH  23  25
ATOM     24  N   UNK A   2       2.066   1.605  -0.794  0.00  0.00    -0.348 N 
ATOM     25  C   UNK A   2       0.803   0.284   0.466  0.00  0.00    +0.003 A 
ATOM     26  C   UNK A   2       0.607   1.627   0.893  0.00  0.00    +0.014 A 
ATOM     27  C   UNK A   2       1.706   0.303  -0.573  0.00  0.00    +0.083 A 
ATOM     28  C   UNK A   2       1.410   2.436   0.086  0.00  0.00    +0.057 A 
ATOM     29  C   UNK A   2      -0.180   2.235   1.892  0.00  0.00    +0.001 C 
ATOM     30  C   UNK A   2       1.467   3.827   0.228  0.00  0.00    +0.017 C 
ATOM     31  C   UNK A   2      -0.134   3.625   2.045  0.00  0.00    +0.000 C 
ATOM     32  C   UNK A   2       0.677   4.407   1.226  0.00  0.00    +0.001 C 
ATOM     33  H   UNK A   2       2.702   1.904  -1.484  0.00  0.00    +0.166 HD
BRANCH  27  34
ATOM     34  S   UNK A   2       2.395  -0.941  -1.552  0.00  0.00    -0.069 S 
BRANCH  34  35
ATOM     35  C   UNK A   2       4.128  -0.692  -1.164  0.00  0.00    +0.053 C 
ATOM     36  C   UNK A   2       4.755  -1.346  -0.104  0.00  0.00    +0.149 C 
ATOM     37  C   UNK A   2       4.852   0.192  -1.964  0.00  0.00    +0.008 C 
ATOM     38  C   UNK A   2       6.107  -1.117   0.156  0.00  0.00    +0.025 C 
ATOM     39  C   UNK A   2       6.204   0.421  -1.704  0.00  0.00    +0.001 C 
ATOM     40  C   UNK A   2       6.830  -0.233  -0.644  0.00  0.00    +0.002 C 
BRANCH  36  43
ATOM     41  O   UNK A   2       3.490  -1.816   1.766  0.00  0.00    -0.126 OA
ATOM     42  O   UNK A   2       4.029  -3.469   0.427  0.00  0.00    -0.126 OA
ATOM     43  N   UNK A   2       4.056  -2.257   0.739  0.00  0.00    +0.058 N 
ENDBRANCH  36  43
ENDBRANCH  34  35
ENDBRANCH  27  34
ENDBRANCH  23  25
ENDBRANCH   1  23
TORSDOF 15
