128218
  -OEChem-03292013323D

 55 55  0     1  0  0  0  0  0999 V2000
   -0.6329    1.2353    1.0542 O   0  0  0  0  0  0  0  0  0  0  0  0
    1.4242   -0.2267   -1.4934 O   0  0  0  0  0  0  0  0  0  0  0  0
    4.9448   -1.8885    0.1262 O   0  0  0  0  0  0  0  0  0  0  0  0
   -5.8437    0.6354    0.6856 O   0  0  0  0  0  0  0  0  0  0  0  0
    6.2059   -0.3863   -0.9902 O   0  0  0  0  0  0  0  0  0  0  0  0
   -6.4295   -1.8211   -0.2959 O   0  0  0  0  0  0  0  0  0  0  0  0
   -0.6631   -0.8523    0.0556 N   0  0  0  0  0  0  0  0  0  0  0  0
    2.8552   -0.3416    0.3390 N   0  0  0  0  0  0  0  0  0  0  0  0
   -5.1470   -1.5097    0.1743 N   0  0  0  0  0  0  0  0  0  0  0  0
    0.6558   -1.2733    0.5098 C   0  0  1  0  0  0  0  0  0  0  0  0
    0.6864   -2.7781    0.2686 C   0  0  0  0  0  0  0  0  0  0  0  0
   -0.2534   -2.9662   -0.9198 C   0  0  0  0  0  0  0  0  0  0  0  0
   -1.3328   -1.9214   -0.6806 C   0  0  0  0  0  0  0  0  0  0  0  0
   -2.6665    0.5552    0.0195 C   0  0  2  0  0  0  0  0  0  0  0  0
   -1.2302    0.3551    0.4324 C   0  0  0  0  0  0  0  0  0  0  0  0
    1.6643   -0.5537   -0.3341 C   0  0  0  0  0  0  0  0  0  0  0  0
   -2.9267    2.0485   -0.2299 C   0  0  0  0  0  0  0  0  0  0  0  0
   -3.5661    0.0274    1.1442 C   0  0  0  0  0  0  0  0  0  0  0  0
    3.9966    0.3114   -0.2601 C   0  0  1  0  0  0  0  0  0  0  0  0
    4.3355    1.6056    0.5102 C   0  0  0  0  0  0  0  0  0  0  0  0
   -2.0252    2.6262   -1.3259 C   0  0  0  0  0  0  0  0  0  0  0  0
   -4.9748   -0.2330    0.6464 C   0  0  0  0  0  0  0  0  0  0  0  0
    3.1594    2.5834    0.5940 C   0  0  0  0  0  0  0  0  0  0  0  0
    4.8866    1.3191    1.9097 C   0  0  0  0  0  0  0  0  0  0  0  0
    5.1645   -0.6603   -0.4044 C   0  0  0  0  0  0  0  0  0  0  0  0
   -2.2870    4.1096   -1.5354 C   0  0  0  0  0  0  0  0  0  0  0  0
    0.7827   -1.0165    1.5672 H   0  0  0  0  0  0  0  0  0  0  0  0
    1.6873   -3.1736    0.0709 H   0  0  0  0  0  0  0  0  0  0  0  0
    0.2755   -3.3019    1.1404 H   0  0  0  0  0  0  0  0  0  0  0  0
   -0.6580   -3.9801   -0.9855 H   0  0  0  0  0  0  0  0  0  0  0  0
    0.2788   -2.7537   -1.8545 H   0  0  0  0  0  0  0  0  0  0  0  0
   -2.1353   -2.3228   -0.0553 H   0  0  0  0  0  0  0  0  0  0  0  0
   -1.7486   -1.5555   -1.6228 H   0  0  0  0  0  0  0  0  0  0  0  0
   -2.8861    0.0381   -0.9179 H   0  0  0  0  0  0  0  0  0  0  0  0
   -3.9732    2.1946   -0.5240 H   0  0  0  0  0  0  0  0  0  0  0  0
   -2.7812    2.6224    0.6947 H   0  0  0  0  0  0  0  0  0  0  0  0
   -3.1680   -0.9014    1.5713 H   0  0  0  0  0  0  0  0  0  0  0  0
   -3.6217    0.7386    1.9778 H   0  0  0  0  0  0  0  0  0  0  0  0
    2.9627   -0.7126    1.2787 H   0  0  0  0  0  0  0  0  0  0  0  0
    3.7229    0.5834   -1.2876 H   0  0  0  0  0  0  0  0  0  0  0  0
    5.1380    2.1109   -0.0447 H   0  0  0  0  0  0  0  0  0  0  0  0
   -0.9649    2.4996   -1.0870 H   0  0  0  0  0  0  0  0  0  0  0  0
   -2.2065    2.0938   -2.2671 H   0  0  0  0  0  0  0  0  0  0  0  0
    3.4805    3.5348    1.0318 H   0  0  0  0  0  0  0  0  0  0  0  0
    2.3470    2.1902    1.2140 H   0  0  0  0  0  0  0  0  0  0  0  0
    2.7582    2.7935   -0.4030 H   0  0  0  0  0  0  0  0  0  0  0  0
    5.7767    0.6835    1.8691 H   0  0  0  0  0  0  0  0  0  0  0  0
    5.1767    2.2525    2.4047 H   0  0  0  0  0  0  0  0  0  0  0  0
    4.1434    0.8262    2.5449 H   0  0  0  0  0  0  0  0  0  0  0  0
   -2.0804    4.6770   -0.6224 H   0  0  0  0  0  0  0  0  0  0  0  0
   -1.6438    4.4995   -2.3306 H   0  0  0  0  0  0  0  0  0  0  0  0
   -3.3281    4.2877   -1.8234 H   0  0  0  0  0  0  0  0  0  0  0  0
   -4.4861   -2.2743    0.2472 H   0  0  0  0  0  0  0  0  0  0  0  0
    5.7096   -2.4879   -0.0082 H   0  0  0  0  0  0  0  0  0  0  0  0
   -6.3081   -1.6583   -1.2467 H   0  0  0  0  0  0  0  0  0  0  0  0
  1 15  2  0  0  0  0
  2 16  2  0  0  0  0
  3 25  1  0  0  0  0
  3 54  1  0  0  0  0
  4 22  2  0  0  0  0
  5 25  2  0  0  0  0
  6  9  1  0  0  0  0
  6 55  1  0  0  0  0
  7 10  1  0  0  0  0
  7 13  1  0  0  0  0
  7 15  1  0  0  0  0
  8 16  1  0  0  0  0
  8 19  1  0  0  0  0
  8 39  1  0  0  0  0
  9 22  1  0  0  0  0
  9 53  1  0  0  0  0
 10 11  1  0  0  0  0
 10 16  1  0  0  0  0
 10 27  1  0  0  0  0
 11 12  1  0  0  0  0
 11 28  1  0  0  0  0
 11 29  1  0  0  0  0
 12 13  1  0  0  0  0
 12 30  1  0  0  0  0
 12 31  1  0  0  0  0
 13 32  1  0  0  0  0
 13 33  1  0  0  0  0
 14 15  1  0  0  0  0
 14 17  1  0  0  0  0
 14 18  1  0  0  0  0
 14 34  1  0  0  0  0
 17 21  1  0  0  0  0
 17 35  1  0  0  0  0
 17 36  1  0  0  0  0
 18 22  1  0  0  0  0
 18 37  1  0  0  0  0
 18 38  1  0  0  0  0
 19 20  1  0  0  0  0
 19 25  1  0  0  0  0
 19 40  1  0  0  0  0
 20 23  1  0  0  0  0
 20 24  1  0  0  0  0
 20 41  1  0  0  0  0
 21 26  1  0  0  0  0
 21 42  1  0  0  0  0
 21 43  1  0  0  0  0
 23 44  1  0  0  0  0
 23 45  1  0  0  0  0
 23 46  1  0  0  0  0
 24 47  1  0  0  0  0
 24 48  1  0  0  0  0
 24 49  1  0  0  0  0
 26 50  1  0  0  0  0
 26 51  1  0  0  0  0
 26 52  1  0  0  0  0
M  END
> <PUBCHEM_COMPOUND_CID>
128218

> <PUBCHEM_CONFORMER_RMSD>
1

> <PUBCHEM_CONFORMER_DIVERSEORDER>
1
24
42
31
47
26
62
64
34
57
50
55
36
35
67
37
75
8
15
52
60
53
10
68
66
70
41
29
30
39
54
38
17
6
56
61
18
63
27
40
9
43
44
25
72
58
69
49
73
16
46
48
5
19
21
59
7
11
14
51
65
71
74
2
33
22
12
13
32
23
45
28
3
4
20

> <PUBCHEM_MMFF94_PARTIAL_CHARGES>
22
1 -0.57
10 0.36
13 0.3
14 0.06
15 0.57
16 0.57
18 0.06
19 0.36
2 -0.57
22 0.57
25 0.66
3 -0.65
39 0.37
4 -0.57
5 -0.57
53 0.37
54 0.5
55 0.4
6 -0.44
7 -0.66
8 -0.73
9 -0.39

> <PUBCHEM_EFFECTIVE_ROTOR_COUNT>
13

> <PUBCHEM_PHARMACOPHORE_FEATURES>
12
1 1 acceptor
1 2 acceptor
1 26 hydrophobe
1 3 acceptor
1 4 acceptor
1 5 acceptor
1 8 donor
1 9 donor
3 20 23 24 hydrophobe
3 3 5 25 anion
4 14 17 18 21 hydrophobe
5 7 10 11 12 13 rings

> <PUBCHEM_HEAVY_ATOM_COUNT>
26

> <PUBCHEM_ATOM_DEF_STEREO_COUNT>
3

> <PUBCHEM_ATOM_UDEF_STEREO_COUNT>
0

> <PUBCHEM_BOND_DEF_STEREO_COUNT>
0

> <PUBCHEM_BOND_UDEF_STEREO_COUNT>
0

> <PUBCHEM_ISOTOPIC_ATOM_COUNT>
0

> <PUBCHEM_COMPONENT_COUNT>
1

> <PUBCHEM_CACTVS_TAUTO_COUNT>
6

> <PUBCHEM_CONFORMER_ID>
0001F4DA00000001

> <PUBCHEM_MMFF94_ENERGY>
50.5405

> <PUBCHEM_FEATURE_SELFOVERLAP>
60.959

> <PUBCHEM_SHAPE_FINGERPRINT>
10366900 7 17821454560068108432
10670039 82 18187094923240219420
11595378 159 18040980856920425176
12166972 35 18409175415431454780
12403259 226 18337106774579321012
12403259 415 18341046337768956160
12596602 18 16081382894262758128
12616971 3 15985096401876263024
13402501 40 18411700980359974104
13533116 47 17894624821182015850
14787075 74 18059857315738245483
14790565 3 18271811271778489857
17349148 13 17168150030999799557
17980427 23 17386022632478681621
20645477 56 18271240616711644810
21033648 144 18130777997847828172
21033648 29 18339632370216326160
21315764 268 18411978066201478248
21524375 3 18410302384605643634
23227448 37 18270959175556803628
23402539 116 18059856168576074951
23557571 272 17895764993555007933
23559900 14 17386299777827514506
350125 39 18411422786906556270
3545911 37 18202002166451012008
4325135 7 18060420257059501567
474229 33 18413673517421571583
59755656 215 18271817782664613366
6913067 236 18408879655440522769

> <PUBCHEM_SHAPE_MULTIPOLES>
484.91
12.98
3.59
1.26
0.53
1.8
0.01
-0.58
1.91
-1.69
-1.43
0.35
0.63
1.65

> <PUBCHEM_SHAPE_SELFOVERLAP>
969.262

> <PUBCHEM_SHAPE_VOLUME>
286.3

> <PUBCHEM_COORDINATE_TYPE>
2
5
10

$$$$
