REMARK  Name = 128217
REMARK  4 active torsions:
REMARK  status: ('A' for Active; 'I' for Inactive)
REMARK    1  A    between atoms: C_11  and  C_24
REMARK    2  A    between atoms: C_18  and  O_34
REMARK    3  A    between atoms: C_19  and  O_36
REMARK    4  A    between atoms: C_30  and  O_32
REMARK                            x       y       z     vdW  Elec       q    Type
REMARK                         _______ _______ _______ _____ _____    ______ ____
ROOT
ATOM      1  O   UNL     1       3.824  -2.553  -0.962  0.00  0.00    -0.271 OA
ATOM      2  N   UNL     1       1.910  -1.289  -0.590  0.00  0.00    -0.273 N 
ATOM      3  N   UNL     1      -0.953  -1.063  -0.227  0.00  0.00    -0.231 N 
ATOM      4  N   UNL     1      -2.923   0.244  -0.280  0.00  0.00    -0.332 NA
ATOM      5  N   UNL     1      -2.988  -2.052   0.447  0.00  0.00    -0.317 NA
ATOM      6  N   UNL     1      -5.014  -3.042   1.119  0.00  0.00    -0.335 N 
ATOM      7  C   UNL     1       1.278  -0.014  -0.246  0.00  0.00    +0.116 C 
ATOM      8  C   UNL     1       1.012  -2.412  -0.847  0.00  0.00    +0.116 C 
ATOM      9  C   UNL     1      -0.173   0.075  -0.722  0.00  0.00    +0.125 C 
ATOM     10  C   UNL     1      -0.257  -2.333  -0.001  0.00  0.00    +0.125 C 
ATOM     11  C   UNL     1       3.290  -1.480  -0.673  0.00  0.00    +0.270 C 
ATOM     12  C   UNL     1      -2.325  -0.956  -0.014  0.00  0.00    +0.203 C 
ATOM     13  C   UNL     1      -4.247   0.355  -0.076  0.00  0.00    +0.138 C 
ATOM     14  C   UNL     1      -5.009  -0.727   0.398  0.00  0.00    +0.146 C 
ATOM     15  C   UNL     1      -4.313  -1.907   0.640  0.00  0.00    +0.178 C 
ATOM     16  C   UNL     1      -4.909   1.554  -0.330  0.00  0.00    +0.069 C 
ATOM     17  C   UNL     1      -6.393  -0.600   0.608  0.00  0.00    +0.029 C 
ATOM     18  C   UNL     1      -6.285   1.688  -0.123  0.00  0.00    +0.174 C 
ATOM     19  C   UNL     1      -7.028   0.610   0.346  0.00  0.00    +0.169 C 
ATOM     20  H   UNL     1      -4.531  -3.882   1.294  0.00  0.00    +0.144 HD
ATOM     21  H   UNL     1      -5.984  -2.990   1.278  0.00  0.00    +0.144 HD
ENDROOT
BRANCH  11  24
ATOM     22  O   UNL     1       5.328  -0.786   0.228  0.00  0.00    -0.463 OA
ATOM     23  O   UNL     1       5.296   1.618  -1.363  0.00  0.00    -0.468 OA
ATOM     24  C   UNL     1       4.148  -0.272  -0.389  0.00  0.00    +0.284 C 
ATOM     25  C   UNL     1       4.500   0.469  -1.666  0.00  0.00    +0.258 C 
ATOM     26  C   UNL     1       6.324   0.153   0.282  0.00  0.00    +0.176 C 
ATOM     27  C   UNL     1       6.304   1.324  -0.482  0.00  0.00    +0.173 C 
ATOM     28  C   UNL     1       7.396  -0.104   1.137  0.00  0.00    +0.077 C 
ATOM     29  C   UNL     1       7.333   2.257  -0.357  0.00  0.00    +0.043 C 
ATOM     30  C   UNL     1       8.431   0.824   1.250  0.00  0.00    +0.137 C 
ATOM     31  C   UNL     1       8.397   2.005   0.508  0.00  0.00    +0.040 C 
BRANCH  30  32
ATOM     32  O   UNL     1       9.480   0.574   2.082  0.00  0.00    -0.505 OA
ATOM     33  H   UNL     1       9.504  -0.219   2.581  0.00  0.00    +0.292 HD
ENDBRANCH  30  32
ENDBRANCH  11  24
BRANCH  18  34
ATOM     34  O   UNL     1      -6.887   2.882  -0.387  0.00  0.00    -0.468 OA
ATOM     35  C   UNL     1      -6.957   3.822   0.684  0.00  0.00    +0.253 C 
ENDBRANCH  18  34
BRANCH  19  36
ATOM     36  O   UNL     1      -8.369   0.727   0.551  0.00  0.00    -0.469 OA
ATOM     37  C   UNL     1      -9.224   0.410  -0.547  0.00  0.00    +0.253 C 
ENDBRANCH  19  36
TORSDOF 4
