REMARK  Name = 128349
REMARK  4 active torsions:
REMARK  status: ('A' for Active; 'I' for Inactive)
REMARK    1  A    between atoms: C_6  and  C_21
REMARK    2  A    between atoms: C_10  and  C_15
REMARK    3  A    between atoms: C_21  and  C_22
REMARK    4  A    between atoms: C_22  and  C_28
REMARK                            x       y       z     vdW  Elec       q    Type
REMARK                         _______ _______ _______ _____ _____    ______ ____
ROOT
ATOM      1  S   UNL     1       0.206   2.295   0.413  0.00  0.00    -0.076 S 
ATOM      2  N   UNL     1       2.779   2.340  -0.269  0.00  0.00    -0.227 N 
ATOM      3  N   UNL     1       4.170  -0.303   0.501  0.00  0.00    -0.262 NA
ATOM      4  N   UNL     1       4.843   2.953  -0.755  0.00  0.00    -0.133 NA
ATOM      5  N   UNL     1       3.982   3.854  -1.330  0.00  0.00    -0.128 NA
ATOM      6  C   UNL     1      -0.419   0.894   1.161  0.00  0.00    +0.009 C 
ATOM      7  C   UNL     1       1.793   0.262   0.655  0.00  0.00    +0.038 C 
ATOM      8  C   UNL     1       1.735   1.582   0.249  0.00  0.00    +0.089 C 
ATOM      9  C   UNL     1       0.521  -0.111   1.224  0.00  0.00    +0.005 C 
ATOM     10  C   UNL     1       2.930  -0.648   0.462  0.00  0.00    +0.079 C 
ATOM     11  C   UNL     1       4.120   2.072  -0.095  0.00  0.00    +0.164 C 
ATOM     12  C   UNL     1       4.607   1.038   0.848  0.00  0.00    +0.189 C 
ATOM     13  C   UNL     1       2.760   3.498  -1.006  0.00  0.00    +0.197 C 
ENDROOT
BRANCH  10  15
ATOM     14 CL   UNL     1       2.624  -1.491  -2.494  0.00  0.00    -0.082 Cl
ATOM     15  C   UNL     1       2.631  -2.075   0.171  0.00  0.00    +0.028 C 
ATOM     16  C   UNL     1       2.478  -2.542  -1.132  0.00  0.00    +0.059 C 
ATOM     17  C   UNL     1       2.507  -2.947   1.250  0.00  0.00    +0.002 C 
ATOM     18  C   UNL     1       2.200  -3.890  -1.357  0.00  0.00    +0.011 C 
ATOM     19  C   UNL     1       2.229  -4.295   1.024  0.00  0.00    +0.000 C 
ATOM     20  C   UNL     1       2.075  -4.767  -0.280  0.00  0.00    +0.001 C 
ENDBRANCH  10  15
BRANCH   6  21
ATOM     21  C   UNL     1      -1.834   0.876   1.625  0.00  0.00    +0.043 C 
BRANCH  21  22
ATOM     22  C   UNL     1      -2.801   0.409   0.547  0.00  0.00    +0.090 C 
BRANCH  22  28
ATOM     23  O   UNL     1      -7.285  -0.102  -1.718  0.00  0.00    -0.350 OA
ATOM     24  O   UNL     1      -4.433   0.734   2.236  0.00  0.00    -0.275 OA
ATOM     25  N   UNL     1      -5.203  -0.021   0.179  0.00  0.00    -0.274 N 
ATOM     26  C   UNL     1      -6.601  -0.064   0.605  0.00  0.00    +0.125 C 
ATOM     27  C   UNL     1      -4.966  -0.556  -1.166  0.00  0.00    +0.125 C 
ATOM     28  C   UNL     1      -4.215   0.390   1.071  0.00  0.00    +0.226 C 
ATOM     29  C   UNL     1      -7.500   0.546  -0.461  0.00  0.00    +0.164 C 
ATOM     30  C   UNL     1      -5.936   0.071  -2.160  0.00  0.00    +0.164 C 
ENDBRANCH  22  28
ENDBRANCH  21  22
ENDBRANCH   6  21
TORSDOF 4
