128324
  -OEChem-03292013323D

 58 58  0     1  0  0  0  0  0999 V2000
    0.1010   -1.5321    1.4602 O   0  0  0  0  0  0  0  0  0  0  0  0
    3.5666    0.3773    1.4590 O   0  0  0  0  0  0  0  0  0  0  0  0
   -2.7661   -0.3829   -2.1605 O   0  0  0  0  0  0  0  0  0  0  0  0
    1.8106   -1.1016   -0.0491 N   0  0  0  0  0  0  0  0  0  0  0  0
   -1.7604   -0.3550   -0.0708 N   0  0  0  0  0  0  0  0  0  0  0  0
    3.7942   -1.4318    2.8555 N   0  0  0  0  0  0  0  0  0  0  0  0
    1.7676    3.5550   -0.1974 N   0  0  0  0  0  0  0  0  0  0  0  0
    1.6195    5.9509   -0.2848 N   0  0  0  0  0  0  0  0  0  0  0  0
    3.5214    4.8773   -0.9371 N   0  0  0  0  0  0  0  0  0  0  0  0
    3.9474   -2.3253   -0.2847 C   0  0  0  0  0  0  0  0  0  0  0  0
    2.8554   -1.8051    0.6583 C   0  0  1  0  0  0  0  0  0  0  0  0
    3.6323   -3.6780   -0.9556 C   0  0  0  0  0  0  0  0  0  0  0  0
   -0.4017   -0.2532   -0.5371 C   0  0  1  0  0  0  0  0  0  0  0  0
    0.0311    1.2060   -0.7270 C   0  0  0  0  0  0  0  0  0  0  0  0
    0.5061   -1.0235    0.4170 C   0  0  0  0  0  0  0  0  0  0  0  0
   -0.0015    2.0412    0.5618 C   0  0  0  0  0  0  0  0  0  0  0  0
    4.8175   -4.1132   -1.8221 C   0  0  0  0  0  0  0  0  0  0  0  0
    2.3638   -3.6242   -1.8080 C   0  0  0  0  0  0  0  0  0  0  0  0
    3.4486   -0.8283    1.6646 C   0  0  0  0  0  0  0  0  0  0  0  0
    0.4000    3.4936    0.3214 C   0  0  0  0  0  0  0  0  0  0  0  0
   -2.8455   -0.4122   -0.9352 C   0  0  0  0  0  0  0  0  0  0  0  0
   -4.1846   -0.4891   -0.2963 C   0  0  0  0  0  0  0  0  0  0  0  0
   -5.3061   -0.0002   -0.9665 C   0  0  0  0  0  0  0  0  0  0  0  0
   -4.3206   -1.0506    0.9733 C   0  0  0  0  0  0  0  0  0  0  0  0
    2.2444    4.7345   -0.4475 C   0  0  0  0  0  0  0  0  0  0  0  0
   -6.5635   -0.0725   -0.3669 C   0  0  0  0  0  0  0  0  0  0  0  0
   -5.5780   -1.1230    1.5728 C   0  0  0  0  0  0  0  0  0  0  0  0
   -6.6994   -0.6339    0.9027 C   0  0  0  0  0  0  0  0  0  0  0  0
    4.1684   -1.5726   -1.0539 H   0  0  0  0  0  0  0  0  0  0  0  0
    4.8779   -2.4500    0.2861 H   0  0  0  0  0  0  0  0  0  0  0  0
    2.4011   -2.6409    1.2047 H   0  0  0  0  0  0  0  0  0  0  0  0
    3.4899   -4.4343   -0.1734 H   0  0  0  0  0  0  0  0  0  0  0  0
   -0.3414   -0.7572   -1.5107 H   0  0  0  0  0  0  0  0  0  0  0  0
   -0.6337    1.6777   -1.4626 H   0  0  0  0  0  0  0  0  0  0  0  0
    1.0370    1.2400   -1.1602 H   0  0  0  0  0  0  0  0  0  0  0  0
    2.0582   -0.6321   -0.9146 H   0  0  0  0  0  0  0  0  0  0  0  0
   -1.0086    2.0259    0.9938 H   0  0  0  0  0  0  0  0  0  0  0  0
    0.6758    1.6008    1.3032 H   0  0  0  0  0  0  0  0  0  0  0  0
    5.7306   -4.1904   -1.2225 H   0  0  0  0  0  0  0  0  0  0  0  0
    4.6315   -5.0944   -2.2716 H   0  0  0  0  0  0  0  0  0  0  0  0
    5.0019   -3.3988   -2.6317 H   0  0  0  0  0  0  0  0  0  0  0  0
    2.2323   -4.5581   -2.3656 H   0  0  0  0  0  0  0  0  0  0  0  0
    1.4718   -3.4991   -1.1878 H   0  0  0  0  0  0  0  0  0  0  0  0
    2.4031   -2.8038   -2.5324 H   0  0  0  0  0  0  0  0  0  0  0  0
   -1.9065   -0.3072    0.9321 H   0  0  0  0  0  0  0  0  0  0  0  0
   -0.3021    3.9471   -0.3889 H   0  0  0  0  0  0  0  0  0  0  0  0
    0.3303    4.0340    1.2732 H   0  0  0  0  0  0  0  0  0  0  0  0
    4.1869   -0.8901    3.6182 H   0  0  0  0  0  0  0  0  0  0  0  0
    3.6882   -2.4286    3.0139 H   0  0  0  0  0  0  0  0  0  0  0  0
   -5.2203    0.4448   -1.9543 H   0  0  0  0  0  0  0  0  0  0  0  0
   -3.4794   -1.4713    1.5162 H   0  0  0  0  0  0  0  0  0  0  0  0
   -7.4367    0.3088   -0.8882 H   0  0  0  0  0  0  0  0  0  0  0  0
   -5.6857   -1.5666    2.5584 H   0  0  0  0  0  0  0  0  0  0  0  0
   -7.6787   -0.6917    1.3689 H   0  0  0  0  0  0  0  0  0  0  0  0
    2.0938    6.8171   -0.5166 H   0  0  0  0  0  0  0  0  0  0  0  0
    0.6721    6.0298    0.0672 H   0  0  0  0  0  0  0  0  0  0  0  0
    3.9126    5.7906   -1.1401 H   0  0  0  0  0  0  0  0  0  0  0  0
    4.1090    4.0690   -1.1107 H   0  0  0  0  0  0  0  0  0  0  0  0
  1 15  2  0  0  0  0
  2 19  2  0  0  0  0
  3 21  2  0  0  0  0
  4 11  1  0  0  0  0
  4 15  1  0  0  0  0
  4 36  1  0  0  0  0
  5 13  1  0  0  0  0
  5 21  1  0  0  0  0
  5 45  1  0  0  0  0
  6 19  1  0  0  0  0
  6 48  1  0  0  0  0
  6 49  1  0  0  0  0
  7 20  1  0  0  0  0
  7 25  2  0  0  0  0
  8 25  1  0  0  0  0
  8 55  1  0  0  0  0
  8 56  1  0  0  0  0
  9 25  1  0  0  0  0
  9 57  1  0  0  0  0
  9 58  1  0  0  0  0
 10 11  1  0  0  0  0
 10 12  1  0  0  0  0
 10 29  1  0  0  0  0
 10 30  1  0  0  0  0
 11 19  1  0  0  0  0
 11 31  1  0  0  0  0
 12 17  1  0  0  0  0
 12 18  1  0  0  0  0
 12 32  1  0  0  0  0
 13 14  1  0  0  0  0
 13 15  1  0  0  0  0
 13 33  1  0  0  0  0
 14 16  1  0  0  0  0
 14 34  1  0  0  0  0
 14 35  1  0  0  0  0
 16 20  1  0  0  0  0
 16 37  1  0  0  0  0
 16 38  1  0  0  0  0
 17 39  1  0  0  0  0
 17 40  1  0  0  0  0
 17 41  1  0  0  0  0
 18 42  1  0  0  0  0
 18 43  1  0  0  0  0
 18 44  1  0  0  0  0
 20 46  1  0  0  0  0
 20 47  1  0  0  0  0
 21 22  1  0  0  0  0
 22 23  2  0  0  0  0
 22 24  1  0  0  0  0
 23 26  1  0  0  0  0
 23 50  1  0  0  0  0
 24 27  2  0  0  0  0
 24 51  1  0  0  0  0
 26 28  2  0  0  0  0
 26 52  1  0  0  0  0
 27 28  1  0  0  0  0
 27 53  1  0  0  0  0
 28 54  1  0  0  0  0
M  END
> <PUBCHEM_COMPOUND_CID>
128324

> <PUBCHEM_CONFORMER_RMSD>
1.2

> <PUBCHEM_CONFORMER_DIVERSEORDER>
1
16
39
47
25
32
21
53
22
31
28
50
11
6
7
29
3
19
33
40
41
8
54
51
27
4
56
38
9
14
5
26
45
2
13
35
30
52
34
48
36
15
43
55
17
49
24
44
20
23
12
42
10
37
18
46

> <PUBCHEM_MMFF94_PARTIAL_CHARGES>
35
1 -0.57
11 0.36
13 0.36
15 0.57
19 0.57
2 -0.57
20 0.25
21 0.54
22 0.09
23 -0.15
24 -0.15
25 0.55
26 -0.15
27 -0.15
28 -0.15
3 -0.57
36 0.37
4 -0.73
45 0.37
48 0.37
49 0.37
5 -0.73
50 0.15
51 0.15
52 0.15
53 0.15
54 0.15
55 0.4
56 0.4
57 0.4
58 0.4
6 -0.8
7 -0.7
8 -0.85
9 -0.85

> <PUBCHEM_EFFECTIVE_ROTOR_COUNT>
13

> <PUBCHEM_PHARMACOPHORE_FEATURES>
11
1 1 acceptor
1 2 acceptor
1 3 acceptor
1 4 donor
1 5 donor
1 6 donor
1 8 donor
1 9 donor
3 12 17 18 hydrophobe
4 7 8 9 25 cation
6 22 23 24 26 27 28 rings

> <PUBCHEM_HEAVY_ATOM_COUNT>
28

> <PUBCHEM_ATOM_DEF_STEREO_COUNT>
2

> <PUBCHEM_ATOM_UDEF_STEREO_COUNT>
0

> <PUBCHEM_BOND_DEF_STEREO_COUNT>
0

> <PUBCHEM_BOND_UDEF_STEREO_COUNT>
0

> <PUBCHEM_ISOTOPIC_ATOM_COUNT>
0

> <PUBCHEM_COMPONENT_COUNT>
1

> <PUBCHEM_CACTVS_TAUTO_COUNT>
16

> <PUBCHEM_CONFORMER_ID>
0001F54400000001

> <PUBCHEM_MMFF94_ENERGY>
67.1678

> <PUBCHEM_FEATURE_SELFOVERLAP>
55.878

> <PUBCHEM_SHAPE_FINGERPRINT>
11297750 10 17984695616135254122
11763715 3 18049467862795256518
12160290 23 17334750012577937993
13540713 4 17555150482184983706
13673619 4 17701824285100241094
13690498 29 17769382626154846238
13782708 43 18114470046091423259
13785724 45 18269283378228700797
14955137 171 18411142394552073111
15081414 286 18411980251933442080
15420108 30 17908129229389822616
15664445 248 18409728435399025162
15927050 60 17903357353130363538
17913733 40 18048327935636254841
1813 80 18271242720860829079
18785283 64 18116144657180058449
1979834 28 18272640268985719210
20739085 24 18059859424266981727
21033648 29 17702077215913382075
21120745 212 17978244763643866388
21365058 113 18339373963049461447
23175994 123 18337671919730243239
23559900 14 18410581699066286735
24180151 248 18200602380964451662
3411729 13 18116429434891713393
394071 54 18341327868157768248
513202 73 17912371922565562399
7399639 24 17985803983864112626
9841814 1 18260542325032997739

> <PUBCHEM_SHAPE_MULTIPOLES>
528.73
13
6.66
1.83
20.92
12.81
-0.59
-11.01
-0.96
-13.52
3.17
-1.24
-1.32
1.44

> <PUBCHEM_SHAPE_SELFOVERLAP>
1064.706

> <PUBCHEM_SHAPE_VOLUME>
306

> <PUBCHEM_COORDINATE_TYPE>
2
5
10

$$$$
