REMARK  Name = 128369
REMARK  8 active torsions:
REMARK  status: ('A' for Active; 'I' for Inactive)
REMARK    1  A    between atoms: C_9  and  O_25
REMARK    2  A    between atoms: C_13  and  O_27
REMARK    3  A    between atoms: C_15  and  C_37
REMARK    4  A    between atoms: C_16  and  C_32
REMARK    5  A    between atoms: C_21  and  O_29
REMARK    6  A    between atoms: C_23  and  O_35
REMARK    7  A    between atoms: C_32  and  O_33
REMARK    8  A    between atoms: C_37  and  C_39
REMARK                            x       y       z     vdW  Elec       q    Type
REMARK                         _______ _______ _______ _____ _____    ______ ____
ROOT
ATOM      1  O   UNL     1      -4.152   2.480   0.337  0.00  0.00    -0.286 OA
ATOM      2  O   UNL     1      -2.349  -2.503  -0.342  0.00  0.00    -0.287 OA
ATOM      3  C   UNL     1      -0.011   1.907  -0.044  0.00  0.00    +0.012 C 
ATOM      4  C   UNL     1       0.951   3.069   0.033  0.00  0.00    +0.034 C 
ATOM      5  C   UNL     1       0.491   0.594  -0.196  0.00  0.00    +0.002 C 
ATOM      6  C   UNL     1       2.168   2.845  -0.864  0.00  0.00    +0.031 C 
ATOM      7  C   UNL     1       1.956   0.388  -0.307  0.00  0.00    +0.030 C 
ATOM      8  C   UNL     1       2.788   1.490  -0.619  0.00  0.00    -0.019 C 
ATOM      9  C   UNL     1      -1.389   2.140   0.092  0.00  0.00    +0.133 C 
ATOM     10  C   UNL     1      -2.291   1.075   0.046  0.00  0.00    +0.075 C 
ATOM     11  C   UNL     1      -0.440  -0.460  -0.249  0.00  0.00    +0.003 C 
ATOM     12  C   UNL     1      -1.819  -0.223  -0.129  0.00  0.00    +0.045 C 
ATOM     13  C   UNL     1       2.576  -0.858  -0.102  0.00  0.00    +0.139 C 
ATOM     14  C   UNL     1       4.174   1.327  -0.758  0.00  0.00    -0.008 C 
ATOM     15  C   UNL     1       4.758   0.080  -0.559  0.00  0.00    -0.006 C 
ATOM     16  C   UNL     1       3.961  -1.009  -0.227  0.00  0.00    +0.105 C 
ATOM     17  C   UNL     1      -3.739   1.338   0.181  0.00  0.00    +0.202 C 
ATOM     18  C   UNL     1      -2.761  -1.360  -0.187  0.00  0.00    +0.196 C 
ATOM     19  C   UNL     1      -4.681   0.202   0.123  0.00  0.00    +0.076 C 
ATOM     20  C   UNL     1      -4.210  -1.100  -0.055  0.00  0.00    +0.048 C 
ATOM     21  C   UNL     1      -6.056   0.437   0.247  0.00  0.00    +0.140 C 
ATOM     22  C   UNL     1      -5.113  -2.168  -0.109  0.00  0.00    +0.040 C 
ATOM     23  C   UNL     1      -6.482  -1.930   0.015  0.00  0.00    +0.137 C 
ATOM     24  C   UNL     1      -6.952  -0.631   0.192  0.00  0.00    +0.073 C 
ENDROOT
BRANCH   9  25
ATOM     25  O   UNL     1      -1.813   3.425   0.278  0.00  0.00    -0.506 OA
ATOM     26  H   UNL     1      -1.190   4.125   0.306  0.00  0.00    +0.292 HD
ENDBRANCH   9  25
BRANCH  13  27
ATOM     27  O   UNL     1       1.890  -1.961   0.325  0.00  0.00    -0.505 OA
ATOM     28  H   UNL     1       0.959  -1.922   0.428  0.00  0.00    +0.292 HD
ENDBRANCH  13  27
BRANCH  21  29
ATOM     29  O   UNL     1      -6.586   1.681   0.422  0.00  0.00    -0.505 OA
ATOM     30  H   UNL     1      -6.022   2.428   0.465  0.00  0.00    +0.292 HD
ENDBRANCH  21  29
BRANCH  16  32
ATOM     31  O   UNL     1       4.779  -3.167  -0.858  0.00  0.00    -0.245 OA
ATOM     32  C   UNL     1       4.580  -2.311   0.005  0.00  0.00    +0.341 C 
BRANCH  32  33
ATOM     33  O   UNL     1       4.927  -2.491   1.307  0.00  0.00    -0.477 OA
ATOM     34  H   UNL     1       4.759  -1.815   1.934  0.00  0.00    +0.295 HD
ENDBRANCH  32  33
ENDBRANCH  16  32
BRANCH  23  35
ATOM     35  O   UNL     1      -7.359  -2.970  -0.037  0.00  0.00    -0.505 OA
ATOM     36  H   UNL     1      -7.044  -3.844  -0.157  0.00  0.00    +0.292 HD
ENDBRANCH  23  35
BRANCH  15  37
ATOM     37  C   UNL     1       6.239  -0.054  -0.705  0.00  0.00    +0.091 C 
BRANCH  37  39
ATOM     38  O   UNL     1       6.449   0.411   1.660  0.00  0.00    -0.296 OA
ATOM     39  C   UNL     1       7.007   0.181   0.588  0.00  0.00    +0.155 C 
ATOM     40  C   UNL     1       8.510   0.120   0.495  0.00  0.00    +0.073 C 
ENDBRANCH  37  39
ENDBRANCH  15  37
TORSDOF 8
