REMARK  Name = 128368
REMARK  10 active torsions:
REMARK  status: ('A' for Active; 'I' for Inactive)
REMARK    1  A    between atoms: C_1  and  C_22
REMARK    2  A    between atoms: C_2  and  N_6
REMARK    3  A    between atoms: C_4  and  O_18
REMARK    4  A    between atoms: C_5  and  O_20
REMARK    5  A    between atoms: C_22  and  O_23
REMARK    6  A    between atoms: O_23  and  C_25
REMARK    7  A    between atoms: C_25  and  C_26
REMARK    8  A    between atoms: C_26  and  C_27
REMARK    9  A    between atoms: C_27  and  O_28
REMARK   10  A    between atoms: O_28  and  C_29
REMARK                            x       y       z     vdW  Elec       q    Type
REMARK                         _______ _______ _______ _____ _____    ______ ____
ROOT
ATOM      1  C   UNL     1       1.026   0.813  -0.087  0.00  0.00    +0.075 C 
ATOM      2  C   UNL     1      -1.142  -0.213  -0.569  0.00  0.00    +0.105 C 
ATOM      3  C   UNL     1      -0.260   1.012  -0.894  0.00  0.00    +0.029 C 
ATOM      4  C   UNL     1       1.167  -0.706  -0.027  0.00  0.00    +0.142 C 
ATOM      5  C   UNL     1      -0.259  -1.165   0.261  0.00  0.00    +0.155 C 
ENDROOT
BRANCH   2   6
ATOM      6  N   UNL     1      -2.401   0.120   0.099  0.00  0.00    -0.271 N 
ATOM      7  N   UNL     1      -3.787   0.905   1.653  0.00  0.00    -0.242 NA
ATOM      8  N   UNL     1      -4.009  -0.714  -1.518  0.00  0.00    -0.228 NA
ATOM      9  N   UNL     1      -6.298  -0.339  -0.760  0.00  0.00    -0.229 NA
ATOM     10  C   UNL     1      -3.659  -0.124  -0.365  0.00  0.00    +0.151 C 
ATOM     11  C   UNL     1      -2.526   0.738   1.313  0.00  0.00    +0.221 C 
ATOM     12  C   UNL     1      -4.506   0.371   0.614  0.00  0.00    +0.140 C 
ATOM     13  C   UNL     1      -5.873   0.248   0.385  0.00  0.00    +0.143 C 
ATOM     14  C   UNL     1      -5.354  -0.777  -1.627  0.00  0.00    +0.253 C 
ATOM     15  N   UNL     1      -6.804   0.724   1.324  0.00  0.00    -0.342 N 
ATOM     16  H   UNL     1      -7.769   0.631   1.151  0.00  0.00    +0.144 HD
ATOM     17  H   UNL     1      -6.491   1.150   2.154  0.00  0.00    +0.144 HD
ENDBRANCH   2   6
BRANCH   4  18
ATOM     18  O   UNL     1       2.048  -1.089   1.014  0.00  0.00    -0.382 OA
ATOM     19  H   UNL     1       2.945  -0.785   0.807  0.00  0.00    +0.210 HD
ENDBRANCH   4  18
BRANCH   5  20
ATOM     20  O   UNL     1      -0.426  -2.511  -0.159  0.00  0.00    -0.380 OA
ATOM     21  H   UNL     1      -1.335  -2.797   0.027  0.00  0.00    +0.211 HD
ENDBRANCH   5  20
BRANCH   1  22
ATOM     22  C   UNL     1       2.233   1.503  -0.706  0.00  0.00    +0.211 C 
BRANCH  22  23
ATOM     23  O   UNL     1       3.363   1.269   0.117  0.00  0.00    -0.448 OA
BRANCH  23  25
ATOM     24  O   UNL     1       4.688   2.500  -1.319  0.00  0.00    -0.250 OA
ATOM     25  C   UNL     1       4.539   1.829  -0.306  0.00  0.00    +0.320 C 
BRANCH  25  26
ATOM     26  C   UNL     1       5.651   1.520   0.667  0.00  0.00    +0.141 C 
BRANCH  26  27
ATOM     27  C   UNL     1       6.332   0.208   0.321  0.00  0.00    +0.154 C 
BRANCH  27  28
ATOM     28  O   UNL     1       5.379  -0.846   0.377  0.00  0.00    -0.353 OA
BRANCH  28  29
ATOM     29  C   UNL     1       5.970  -2.099   0.060  0.00  0.00    +0.142 C 
ATOM     30  C   UNL     1       4.909  -3.176   0.136  0.00  0.00    +0.035 C 
ENDBRANCH  28  29
ENDBRANCH  27  28
ENDBRANCH  26  27
ENDBRANCH  25  26
ENDBRANCH  23  25
ENDBRANCH  22  23
ENDBRANCH   1  22
TORSDOF 10
