128368
  -OEChem-03292013323D

 49 51  0     1  0  0  0  0  0999 V2000
    2.0478   -1.0892    1.0144 O   0  0  0  0  0  0  0  0  0  0  0  0
   -0.4265   -2.5115   -0.1592 O   0  0  0  0  0  0  0  0  0  0  0  0
    3.3628    1.2691    0.1166 O   0  0  0  0  0  0  0  0  0  0  0  0
    4.6879    2.5004   -1.3189 O   0  0  0  0  0  0  0  0  0  0  0  0
    5.3793   -0.8457    0.3765 O   0  0  0  0  0  0  0  0  0  0  0  0
   -2.4009    0.1201    0.0989 N   0  0  0  0  0  0  0  0  0  0  0  0
   -3.7867    0.9053    1.6534 N   0  0  0  0  0  0  0  0  0  0  0  0
   -4.0093   -0.7141   -1.5180 N   0  0  0  0  0  0  0  0  0  0  0  0
   -6.2985   -0.3392   -0.7596 N   0  0  0  0  0  0  0  0  0  0  0  0
   -6.8039    0.7238    1.3240 N   0  0  0  0  0  0  0  0  0  0  0  0
    1.0264    0.8130   -0.0872 C   0  0  1  0  0  0  0  0  0  0  0  0
   -1.1418   -0.2134   -0.5689 C   0  0  1  0  0  0  0  0  0  0  0  0
   -0.2596    1.0117   -0.8944 C   0  0  0  0  0  0  0  0  0  0  0  0
    1.1667   -0.7056   -0.0274 C   0  0  2  0  0  0  0  0  0  0  0  0
   -0.2589   -1.1653    0.2606 C   0  0  2  0  0  0  0  0  0  0  0  0
    2.2327    1.5027   -0.7064 C   0  0  0  0  0  0  0  0  0  0  0  0
   -3.6594   -0.1237   -0.3652 C   0  0  0  0  0  0  0  0  0  0  0  0
   -2.5259    0.7376    1.3125 C   0  0  0  0  0  0  0  0  0  0  0  0
   -4.5060    0.3715    0.6137 C   0  0  0  0  0  0  0  0  0  0  0  0
    4.5394    1.8285   -0.3064 C   0  0  0  0  0  0  0  0  0  0  0  0
   -5.8727    0.2477    0.3848 C   0  0  0  0  0  0  0  0  0  0  0  0
    5.6509    1.5204    0.6666 C   0  0  0  0  0  0  0  0  0  0  0  0
   -5.3542   -0.7772   -1.6271 C   0  0  0  0  0  0  0  0  0  0  0  0
    6.3322    0.2084    0.3211 C   0  0  0  0  0  0  0  0  0  0  0  0
    5.9695   -2.0988    0.0598 C   0  0  0  0  0  0  0  0  0  0  0  0
    4.9090   -3.1765    0.1357 C   0  0  0  0  0  0  0  0  0  0  0  0
    0.8918    1.2014    0.9322 H   0  0  0  0  0  0  0  0  0  0  0  0
   -1.4201   -0.6975   -1.5140 H   0  0  0  0  0  0  0  0  0  0  0  0
   -0.0383    1.0138   -1.9693 H   0  0  0  0  0  0  0  0  0  0  0  0
   -0.7356    1.9700   -0.6606 H   0  0  0  0  0  0  0  0  0  0  0  0
    1.5440   -1.1282   -0.9661 H   0  0  0  0  0  0  0  0  0  0  0  0
   -0.4820   -1.1272    1.3329 H   0  0  0  0  0  0  0  0  0  0  0  0
    2.0466    2.5812   -0.7745 H   0  0  0  0  0  0  0  0  0  0  0  0
    2.4252    1.1134   -1.7135 H   0  0  0  0  0  0  0  0  0  0  0  0
    1.7164   -0.7168    1.8491 H   0  0  0  0  0  0  0  0  0  0  0  0
    0.2171   -3.0514    0.3308 H   0  0  0  0  0  0  0  0  0  0  0  0
   -1.6732    1.0459    1.9021 H   0  0  0  0  0  0  0  0  0  0  0  0
    5.2252    1.4867    1.6765 H   0  0  0  0  0  0  0  0  0  0  0  0
    6.3666    2.3492    0.6488 H   0  0  0  0  0  0  0  0  0  0  0  0
   -5.7307   -1.2415   -2.5323 H   0  0  0  0  0  0  0  0  0  0  0  0
   -6.4888    1.1631    2.1783 H   0  0  0  0  0  0  0  0  0  0  0  0
   -7.7918    0.6230    1.1343 H   0  0  0  0  0  0  0  0  0  0  0  0
    7.1395    0.0149    1.0364 H   0  0  0  0  0  0  0  0  0  0  0  0
    6.7572    0.2610   -0.6883 H   0  0  0  0  0  0  0  0  0  0  0  0
    6.3894   -2.0657   -0.9517 H   0  0  0  0  0  0  0  0  0  0  0  0
    6.7725   -2.3208    0.7716 H   0  0  0  0  0  0  0  0  0  0  0  0
    5.3297   -4.1571   -0.1035 H   0  0  0  0  0  0  0  0  0  0  0  0
    4.4695   -3.2152    1.1379 H   0  0  0  0  0  0  0  0  0  0  0  0
    4.0919   -2.9628   -0.5614 H   0  0  0  0  0  0  0  0  0  0  0  0
  1 14  1  0  0  0  0
  1 35  1  0  0  0  0
  2 15  1  0  0  0  0
  2 36  1  0  0  0  0
  3 16  1  0  0  0  0
  3 20  1  0  0  0  0
  4 20  2  0  0  0  0
  5 24  1  0  0  0  0
  5 25  1  0  0  0  0
  6 12  1  0  0  0  0
  6 17  1  0  0  0  0
  6 18  1  0  0  0  0
  7 18  2  0  0  0  0
  7 19  1  0  0  0  0
  8 17  2  0  0  0  0
  8 23  1  0  0  0  0
  9 21  1  0  0  0  0
  9 23  2  0  0  0  0
 10 21  1  0  0  0  0
 10 41  1  0  0  0  0
 10 42  1  0  0  0  0
 11 13  1  0  0  0  0
 11 14  1  0  0  0  0
 11 16  1  0  0  0  0
 11 27  1  0  0  0  0
 12 13  1  0  0  0  0
 12 15  1  0  0  0  0
 12 28  1  0  0  0  0
 13 29  1  0  0  0  0
 13 30  1  0  0  0  0
 14 15  1  0  0  0  0
 14 31  1  0  0  0  0
 15 32  1  0  0  0  0
 16 33  1  0  0  0  0
 16 34  1  0  0  0  0
 17 19  1  0  0  0  0
 18 37  1  0  0  0  0
 19 21  2  0  0  0  0
 20 22  1  0  0  0  0
 22 24  1  0  0  0  0
 22 38  1  0  0  0  0
 22 39  1  0  0  0  0
 23 40  1  0  0  0  0
 24 43  1  0  0  0  0
 24 44  1  0  0  0  0
 25 26  1  0  0  0  0
 25 45  1  0  0  0  0
 25 46  1  0  0  0  0
 26 47  1  0  0  0  0
 26 48  1  0  0  0  0
 26 49  1  0  0  0  0
M  END
> <PUBCHEM_COMPOUND_CID>
128368

> <PUBCHEM_CONFORMER_RMSD>
1

> <PUBCHEM_CONFORMER_DIVERSEORDER>
47
2
236
122
158
33
223
156
197
215
168
184
255
181
114
244
256
233
89
230
111
207
239
187
249
45
252
165
169
171
310
278
139
52
48
164
175
266
140
131
108
231
307
154
1
226
161
190
270
27
38
172
225
217
115
77
203
281
246
265
235
7
273
75
253
78
90
298
55
66
40
21
152
269
185
309
132
46
113
109
13
96
118
134
157
22
39
153
279
15
283
80
50
293
44
123
178
308
62
141
151
214
25
37
257
147
209
177
56
199
29
286
72
59
276
12
237
186
170
11
116
94
262
24
73
70
23
194
192
162
183
100
57
130
102
247
160
290
300
258
95
124
288
275
251
173
43
163
149
243
42
63
205
99
240
106
34
16
117
206
83
271
30
198
3
193
143
261
284
97
212
302
155
200
49
110
196
17
146
280
295
28
224
294
264
35
220
65
195
211
128
227
81
289
10
189
208
204
248
54
20
127
222
119
238
304
201
120
18
60
126
188
129
101
292
82
85
274
112
159
268
254
138
221
263
299
26
242
297
245
234
88
41
86
210
125
32
216
9
53
87
282
93
182
14
135
133
6
64
76
291
260
91
219
229
167
107
174
145
19
241
150
68
303
136
79
58
250
148
287
267
272
144
69
36
306
121
51
259
92
166
142
31
5
67
232
74
104
84
277
191
103
4
301
179
180
8
202
305
296
137
71
61
213
98
218
228
176
285
105

> <PUBCHEM_MMFF94_PARTIAL_CHARGES>
29
1 -0.68
10 -0.9
12 0.26
14 0.28
15 0.28
16 0.28
17 0.11
18 0.04
19 0.23
2 -0.68
20 0.66
21 0.41
22 0.06
23 0.47
24 0.28
25 0.28
3 -0.43
35 0.4
36 0.4
37 0.15
4 -0.57
40 0.15
41 0.4
42 0.4
5 -0.56
6 0.05
7 -0.57
8 -0.57
9 -0.62

> <PUBCHEM_EFFECTIVE_ROTOR_COUNT>
9

> <PUBCHEM_PHARMACOPHORE_FEATURES>
14
1 1 acceptor
1 1 donor
1 10 cation
1 10 donor
1 2 acceptor
1 2 donor
1 4 acceptor
1 5 acceptor
3 6 7 18 cation
3 6 8 17 cation
3 8 9 23 cation
5 11 12 13 14 15 rings
5 6 7 17 18 19 rings
6 8 9 17 19 21 23 rings

> <PUBCHEM_HEAVY_ATOM_COUNT>
26

> <PUBCHEM_ATOM_DEF_STEREO_COUNT>
3

> <PUBCHEM_ATOM_UDEF_STEREO_COUNT>
1

> <PUBCHEM_BOND_DEF_STEREO_COUNT>
0

> <PUBCHEM_BOND_UDEF_STEREO_COUNT>
0

> <PUBCHEM_ISOTOPIC_ATOM_COUNT>
0

> <PUBCHEM_COMPONENT_COUNT>
1

> <PUBCHEM_CACTVS_TAUTO_COUNT>
3

> <PUBCHEM_CONFORMER_ID>
0001F5700000002F

> <PUBCHEM_MMFF94_ENERGY>
52.7446

> <PUBCHEM_FEATURE_SELFOVERLAP>
71.653

> <PUBCHEM_SHAPE_FINGERPRINT>
10763959 59 17894624855536446876
11186622 174 18334853901145027210
12166972 35 18342455954346097328
12236239 1 18273494576735663109
12516196 113 8790887371568943479
13533116 47 18343300358454825240
1361 2 18341612582326725654
13782708 43 16154000139719107865
13914758 101 18335415730307318901
14251764 18 18273212019844159144
14784336 7 18129653213983285522
15183329 4 17703796933118253620
1577012 14 18273497887770644741
19377110 9 17704080585685743907
20554085 129 15554163675572296679
20567600 75 16515676736895939219
21033648 29 17677031542954198037
21682296 61 18264210210493994602
22182313 1 17749654209059642756
23081809 10 18273215326341262237
23402539 116 17774722056144730357
23536379 177 17275108344527700292
23559900 14 16008754580417068559
23569914 152 17035245252911988943
23569917 315 18410296951235481943
345986 75 18199177396577757136
34797466 226 15936704730415912564
3633792 109 18337099082761944447
397830 11 17241342402415241609
404807 14 16837437613918153358
4073 2 18266177408668449106
5283156 175 18060135449430866415
5326457 24 18343295998541410742
59755656 215 17240475892889782794
59755656 520 18409727409018106783

> <PUBCHEM_SHAPE_MULTIPOLES>
480.82
17.9
2.31
1.23
0.84
1.13
-0.04
0.39
1.26
-5.22
-0.22
1.53
-0.23
-1.77

> <PUBCHEM_SHAPE_SELFOVERLAP>
1013.226

> <PUBCHEM_SHAPE_VOLUME>
269.2

> <PUBCHEM_COORDINATE_TYPE>
2
5
10

$$$$
