128359
  -OEChem-03292013323D

 33 34  0     1  0  0  0  0  0999 V2000
    2.5403    0.6207    0.8198 O   0  0  0  0  0  0  0  0  0  0  0  0
    1.7161   -2.4619   -0.8351 O   0  0  0  0  0  0  0  0  0  0  0  0
    4.0458   -2.0104    0.4892 O   0  0  0  0  0  0  0  0  0  0  0  0
    4.1289    2.6930   -0.2023 O   0  0  0  0  0  0  0  0  0  0  0  0
   -3.7234    0.8074    1.4152 O   0  5  0  0  0  0  0  0  0  0  0  0
    0.2774    0.1436    0.2892 N   0  0  0  0  0  0  0  0  0  0  0  0
   -1.2750    1.6268   -0.2920 N   0  0  0  0  0  0  0  0  0  0  0  0
   -1.0116   -1.6781    1.1017 N   0  0  0  0  0  0  0  0  0  0  0  0
   -5.4324   -0.2739   -0.7267 N   0  3  0  0  0  0  0  0  0  0  0  0
   -6.5070   -0.3774   -0.7055 N   0  0  0  0  0  0  0  0  0  0  0  0
    2.1733   -1.1288   -0.7338 C   0  0  1  0  0  0  0  0  0  0  0  0
    1.6074   -0.4266    0.4911 C   0  0  1  0  0  0  0  0  0  0  0  0
    3.6640   -1.0303   -0.4760 C   0  0  1  0  0  0  0  0  0  0  0  0
    3.7948    0.3543    0.1507 C   0  0  1  0  0  0  0  0  0  0  0  0
    4.0327    1.4512   -0.8777 C   0  0  0  0  0  0  0  0  0  0  0  0
   -0.9281   -0.4391    0.5732 C   0  0  0  0  0  0  0  0  0  0  0  0
    0.0154    1.3841   -0.2284 C   0  0  0  0  0  0  0  0  0  0  0  0
   -1.8688    0.4945    0.2067 C   0  0  0  0  0  0  0  0  0  0  0  0
   -3.2702    0.3841    0.2965 C   0  0  0  0  0  0  0  0  0  0  0  0
   -3.9794   -0.1332   -0.7559 C   0  0  0  0  0  0  0  0  0  0  0  0
    1.9100   -0.5965   -1.6552 H   0  0  0  0  0  0  0  0  0  0  0  0
    1.5537   -1.0870    1.3637 H   0  0  0  0  0  0  0  0  0  0  0  0
    4.2713   -1.1878   -1.3719 H   0  0  0  0  0  0  0  0  0  0  0  0
    4.5738    0.3909    0.9208 H   0  0  0  0  0  0  0  0  0  0  0  0
    3.2113    1.5268   -1.5971 H   0  0  0  0  0  0  0  0  0  0  0  0
    4.9651    1.2830   -1.4244 H   0  0  0  0  0  0  0  0  0  0  0  0
    1.9976   -2.9379   -0.0354 H   0  0  0  0  0  0  0  0  0  0  0  0
    4.9944   -1.8892    0.6656 H   0  0  0  0  0  0  0  0  0  0  0  0
    0.7941    2.0639   -0.5461 H   0  0  0  0  0  0  0  0  0  0  0  0
    3.2964    2.8287    0.2820 H   0  0  0  0  0  0  0  0  0  0  0  0
   -0.2029   -2.2594    1.2942 H   0  0  0  0  0  0  0  0  0  0  0  0
   -1.9078   -2.1051    1.3151 H   0  0  0  0  0  0  0  0  0  0  0  0
   -3.4697   -0.4588   -1.6588 H   0  0  0  0  0  0  0  0  0  0  0  0
  1 12  1  0  0  0  0
  1 14  1  0  0  0  0
  2 11  1  0  0  0  0
  2 27  1  0  0  0  0
  3 13  1  0  0  0  0
  3 28  1  0  0  0  0
  4 15  1  0  0  0  0
  4 30  1  0  0  0  0
  5 19  1  0  0  0  0
  6 12  1  0  0  0  0
  6 16  1  0  0  0  0
  6 17  1  0  0  0  0
  7 17  2  0  0  0  0
  7 18  1  0  0  0  0
  8 16  1  0  0  0  0
  8 31  1  0  0  0  0
  8 32  1  0  0  0  0
  9 10  3  0  0  0  0
  9 20  1  0  0  0  0
 11 12  1  0  0  0  0
 11 13  1  0  0  0  0
 11 21  1  0  0  0  0
 12 22  1  0  0  0  0
 13 14  1  0  0  0  0
 13 23  1  0  0  0  0
 14 15  1  0  0  0  0
 14 24  1  0  0  0  0
 15 25  1  0  0  0  0
 15 26  1  0  0  0  0
 16 18  2  0  0  0  0
 17 29  1  0  0  0  0
 18 19  1  0  0  0  0
 19 20  2  3  0  0  0
 20 33  1  0  0  0  0
M  CHG  2   5  -1   9   1
M  END
> <PUBCHEM_COMPOUND_CID>
128359

> <PUBCHEM_CONFORMER_RMSD>
0.6

> <PUBCHEM_CONFORMER_DIVERSEORDER>
4
24
47
9
39
6
46
36
45
30
50
11
19
20
34
43
17
27
48
21
3
26
42
51
10
41
7
28
38
49
32
44
16
18
13
37
15
33
2
29
40
14
31
22
8
35
1
23
25
12
5

> <PUBCHEM_MMFF94_PARTIAL_CHARGES>
27
1 -0.56
10 -0.49
11 0.28
12 0.54
13 0.28
14 0.28
15 0.28
16 -0.07
17 0.04
18 0.18
19 -0.1
2 -0.68
20 -0.02
27 0.4
28 0.4
29 0.15
3 -0.68
30 0.4
31 0.4
32 0.4
33 0.15
4 -0.68
5 -0.85
6 0.05
7 -0.57
8 -0.88
9 1.36

> <PUBCHEM_EFFECTIVE_ROTOR_COUNT>
4

> <PUBCHEM_PHARMACOPHORE_FEATURES>
12
1 1 acceptor
1 2 acceptor
1 2 donor
1 3 acceptor
1 3 donor
1 4 acceptor
1 4 donor
1 8 cation
1 8 donor
3 6 7 17 cation
5 1 11 12 13 14 rings
5 6 7 16 17 18 rings

> <PUBCHEM_HEAVY_ATOM_COUNT>
20

> <PUBCHEM_ATOM_DEF_STEREO_COUNT>
4

> <PUBCHEM_ATOM_UDEF_STEREO_COUNT>
0

> <PUBCHEM_BOND_DEF_STEREO_COUNT>
0

> <PUBCHEM_BOND_UDEF_STEREO_COUNT>
1

> <PUBCHEM_ISOTOPIC_ATOM_COUNT>
0

> <PUBCHEM_COMPONENT_COUNT>
1

> <PUBCHEM_CACTVS_TAUTO_COUNT>
1

> <PUBCHEM_CONFORMER_ID>
0001F56700000004

> <PUBCHEM_MMFF94_ENERGY>
47.5292

> <PUBCHEM_FEATURE_SELFOVERLAP>
60.913

> <PUBCHEM_SHAPE_FINGERPRINT>
10912923 1 18060144223743136185
12107183 9 17053039753844004507
12403259 226 18043806477566034988
12403260 363 18264203626087155194
12616999 72 17275111621867146876
12670546 177 18334289903235117999
12969540 114 17676756652531103839
13583140 156 16226050024016601337
13760787 5 18335427841819285433
13836976 161 18272370880331848534
14528608 73 18343023323667579949
15375358 24 18260270767130433617
17834072 33 18202282511519079181
18186145 218 17385731257196203448
19026448 5 17846222124609154689
200 152 17917425393753977699
20281475 54 18059296448479965627
20645477 70 18410291376472504390
21618674 68 18408888416926159788
23402539 116 18263921051298155870
23557571 272 16660637414958930149
23559900 14 18259990375145020410
2871803 45 18336826403250794047
3286 77 17846489301602696912
34797466 226 16128377128987437217
4340502 62 15357691990308113089
465052 167 15697997479076511349
5104073 3 18341335513273402129
5283173 99 18042956589522639501
6327066 14 17975980079493685556
633830 44 18335705979685443857
69090 78 18411699867936862683
7364860 26 18409173191080993864
9709674 26 18339371742630925462

> <PUBCHEM_SHAPE_MULTIPOLES>
357.34
10.89
1.99
0.99
11.75
0.02
-0.07
0.41
2.54
-2.75
0.2
0.35
-0.1
-0.35

> <PUBCHEM_SHAPE_SELFOVERLAP>
757.215

> <PUBCHEM_SHAPE_VOLUME>
199.5

> <PUBCHEM_COORDINATE_TYPE>
2
5
10

$$$$
