REMARK  Name = 128347
REMARK  5 active torsions:
REMARK  status: ('A' for Active; 'I' for Inactive)
REMARK    1  A    between atoms: C_6  and  C_21
REMARK    2  A    between atoms: C_11  and  C_24
REMARK    3  A    between atoms: C_12  and  C_15
REMARK    4  A    between atoms: C_24  and  C_25
REMARK    5  A    between atoms: C_25  and  C_31
REMARK                            x       y       z     vdW  Elec       q    Type
REMARK                         _______ _______ _______ _____ _____    ______ ____
ROOT
ATOM      1  S   UNL     1       0.188   1.726   0.990  0.00  0.00    -0.074 S 
ATOM      2  N   UNL     1       2.776   1.726   0.364  0.00  0.00    -0.274 N 
ATOM      3  N   UNL     1       4.102   3.333  -0.361  0.00  0.00    -0.133 NA
ATOM      4  N   UNL     1       4.887   2.280   0.036  0.00  0.00    -0.131 NA
ATOM      5  N   UNL     1       3.973  -1.106   0.614  0.00  0.00    -0.262 NA
ATOM      6  C   UNL     1       2.851   3.005  -0.129  0.00  0.00    +0.147 A 
ATOM      7  C   UNL     1       4.092   1.339   0.499  0.00  0.00    +0.172 A 
ATOM      8  C   UNL     1       1.672   0.956   0.708  0.00  0.00    +0.097 C 
ATOM      9  C   UNL     1       1.634  -0.420   0.846  0.00  0.00    +0.040 C 
ATOM     10  C   UNL     1       4.486   0.108   1.225  0.00  0.00    +0.191 C 
ATOM     11  C   UNL     1      -0.544   0.251   1.440  0.00  0.00    +0.009 C 
ATOM     12  C   UNL     1       2.715  -1.350   0.491  0.00  0.00    +0.079 C 
ATOM     13  C   UNL     1       0.326  -0.809   1.315  0.00  0.00    +0.006 C 
ENDROOT
BRANCH  12  15
ATOM     14 CL   UNL     1       2.429  -1.571  -2.576  0.00  0.00    -0.082 Cl
ATOM     15  C   UNL     1       2.331  -2.668  -0.080  0.00  0.00    +0.028 C 
ATOM     16  C   UNL     1       2.180  -2.857  -1.451  0.00  0.00    +0.059 C 
ATOM     17  C   UNL     1       2.123  -3.725   0.803  0.00  0.00    +0.002 C 
ATOM     18  C   UNL     1       1.819  -4.112  -1.943  0.00  0.00    +0.011 C 
ATOM     19  C   UNL     1       1.761  -4.979   0.311  0.00  0.00    +0.000 C 
ATOM     20  C   UNL     1       1.609  -5.173  -1.061  0.00  0.00    +0.001 C 
ENDBRANCH  12  15
BRANCH   6  21
ATOM     21  C   UNL     1       1.709   3.963  -0.498  0.00  0.00    +0.059 C 
ATOM     22  C   UNL     1       1.022   3.793  -1.823  0.00  0.00    +0.008 C 
ATOM     23  C   UNL     1       1.931   4.966  -1.594  0.00  0.00    +0.008 C 
ENDBRANCH   6  21
BRANCH  11  24
ATOM     24  C   UNL     1      -1.969   0.240   1.874  0.00  0.00    +0.043 C 
BRANCH  24  25
ATOM     25  C   UNL     1      -2.937   0.060   0.713  0.00  0.00    +0.090 C 
BRANCH  25  31
ATOM     26  O   UNL     1      -7.385   0.313  -1.663  0.00  0.00    -0.350 OA
ATOM     27  O   UNL     1      -4.587   0.159   2.412  0.00  0.00    -0.275 OA
ATOM     28  N   UNL     1      -5.351  -0.123   0.238  0.00  0.00    -0.274 N 
ATOM     29  C   UNL     1      -6.760  -0.153   0.630  0.00  0.00    +0.125 C 
ATOM     30  C   UNL     1      -5.115  -0.399  -1.183  0.00  0.00    +0.125 C 
ATOM     31  C   UNL     1      -4.361   0.036   1.205  0.00  0.00    +0.226 C 
ATOM     32  C   UNL     1      -7.589   0.715  -0.306  0.00  0.00    +0.164 C 
ATOM     33  C   UNL     1      -6.016   0.476  -2.046  0.00  0.00    +0.164 C 
ENDBRANCH  25  31
ENDBRANCH  24  25
ENDBRANCH  11  24
TORSDOF 5
