REMARK  Name = 128359
REMARK  9 active torsions:
REMARK  status: ('A' for Active; 'I' for Inactive)
REMARK    1  A    between atoms: N_1  and  C1*_8
REMARK    2  A    between atoms: C_3  and  N_23
REMARK    3  A    between atoms: C_5  and  C_19
REMARK    4  A    between atoms: C2*_7  and  O2*_11
REMARK    5  A    between atoms: C3*_9  and  O3*_13
REMARK    6  A    between atoms: C4*_10  and  C5*_15
REMARK    7  A    between atoms: C5*_15  and  O5*_16
REMARK    8  A    between atoms: C_19  and  C_20
REMARK    9  A    between atoms: C_20  and  N_21
REMARK                            x       y       z     vdW  Elec       q    Type
REMARK                         _______ _______ _______ _____ _____    ______ ____
ROOT
ATOM      1  N   UNL     1       0.277   0.144   0.289  0.00  0.00    -0.211 NA
ATOM      2  N   UNL     1      -1.275   1.627  -0.292  0.00  0.00    -0.251 NA
ATOM      3  C   UNL     1      -0.928  -0.439   0.573  0.00  0.00    +0.159 C 
ATOM      4  C   UNL     1       0.015   1.384  -0.228  0.00  0.00    +0.204 C 
ATOM      5  C   UNL     1      -1.869   0.494   0.207  0.00  0.00    +0.121 C 
ENDROOT
BRANCH   1   8
ATOM      6  O4* UNL     1       2.540   0.621   0.820  0.00  0.00    -0.336 OA
ATOM      7  C2* UNL     1       2.173  -1.129  -0.734  0.00  0.00    +0.183 C 
ATOM      8  C1* UNL     1       1.607  -0.427   0.491  0.00  0.00    +0.209 C 
ATOM      9  C3* UNL     1       3.664  -1.030  -0.476  0.00  0.00    +0.171 C 
ATOM     10  C4* UNL     1       3.795   0.354   0.151  0.00  0.00    +0.175 C 
BRANCH   7  11
ATOM     11  O2* UNL     1       1.716  -2.462  -0.835  0.00  0.00    -0.378 OA
ATOM     12  H2* UNL     1       0.760  -2.464  -0.999  0.00  0.00    +0.211 HD
ENDBRANCH   7  11
BRANCH   9  13
ATOM     13  O3* UNL     1       4.046  -2.010   0.489  0.00  0.00    -0.379 OA
ATOM     14  H3* UNL     1       3.966  -2.895   0.100  0.00  0.00    +0.211 HD
ENDBRANCH   9  13
BRANCH  10  15
ATOM     15  C5* UNL     1       4.033   1.451  -0.878  0.00  0.00    +0.169 C 
BRANCH  15  16
ATOM     16  O5* UNL     1       4.129   2.693  -0.202  0.00  0.00    -0.379 OA
ATOM     17  H5* UNL     1       4.281   3.401  -0.848  0.00  0.00    +0.211 HD
ENDBRANCH  15  16
ENDBRANCH  10  15
ENDBRANCH   1   8
BRANCH   3  18
ATOM     18  N   UNL     1      -1.012  -1.678   1.102  0.00  0.00    -0.305 NA
ATOM     19  H   UNL     1      -0.191  -2.188   1.292  0.00  0.00    +0.120 HD
ATOM     20  H   UNL     1      -1.893  -2.072   1.297  0.00  0.00    +0.120 HD
ENDBRANCH   3  18
BRANCH   5  22
ATOM     21  O   UNL     1      -3.723   0.807   1.415  0.00  0.00    -0.288 OA
ATOM     22  C   UNL     1      -3.270   0.384   0.296  0.00  0.00    +0.208 C 
BRANCH  22  23
ATOM     23  C   UNL     1      -3.979  -0.133  -0.756  0.00  0.00    +0.181 C 
BRANCH  23  24
ATOM     24  N   UNL     1      -5.432  -0.274  -0.727  0.00  0.00    -0.104 NA
ATOM     25  N   UNL     1      -6.507  -0.377  -0.706  0.00  0.00    -0.020 NA
ENDBRANCH  23  24
ENDBRANCH  22  23
ENDBRANCH   5  22
TORSDOF 9
