REMARK  Name = 128302
REMARK  8 active torsions:
REMARK  status: ('A' for Active; 'I' for Inactive)
REMARK    1  A    between atoms: C_4  and  C_10
REMARK    2  A    between atoms: C_4  and  C_19
REMARK    3  A    between atoms: C_10  and  C_14
REMARK    4  A    between atoms: C_19  and  CA_20
REMARK    5  A    between atoms: CA_20  and  C_27
REMARK    6  A    between atoms: CA_20  and  N_32
REMARK    7  A    between atoms: CA_23  and  C_29
REMARK    8  A    between atoms: C_29  and  O_30
REMARK                            x       y       z     vdW  Elec       q    Type
REMARK                         _______ _______ _______ _____ _____    ______ ____
ROOT
ATOM      1  O   UNL     1      -3.014  -2.444   1.832  0.00  0.00    -0.253 OA
ATOM      2  N   UNL     1      -1.781  -0.756   0.777  0.00  0.00    -0.284 N 
ATOM      3  N   UNL     1      -1.698  -2.836  -0.084  0.00  0.00    -0.260 N 
ATOM      4  C   UNL     1      -0.986  -0.619  -0.424  0.00  0.00    +0.133 C 
ATOM      5  C   UNL     1      -0.791  -2.060  -0.910  0.00  0.00    +0.120 C 
ATOM      6  C   UNL     1      -2.258  -2.066   0.947  0.00  0.00    +0.304 C 
ATOM      7  C   UNL     1      -1.885  -4.257  -0.278  0.00  0.00    +0.117 C 
ATOM      8  H   UNL     1      -1.966  -0.017   1.402  0.00  0.00    +0.151 HD
ENDROOT
BRANCH   4  10
ATOM      9  O   UNL     1      -1.614   0.372  -2.545  0.00  0.00    -0.287 OA
ATOM     10  C   UNL     1      -1.857   0.163  -1.367  0.00  0.00    +0.222 C 
BRANCH  10  14
ATOM     11  O   UNL     1      -4.080   3.749   0.783  0.00  0.00    -0.270 OA
ATOM     12  N   UNL     1      -3.012   1.985  -0.269  0.00  0.00    -0.263 N 
ATOM     13  N   UNL     1      -4.197   0.009  -0.846  0.00  0.00    -0.226 NA
ATOM     14  C   UNL     1      -3.116   0.720  -0.803  0.00  0.00    +0.171 C 
ATOM     15  C   UNL     1      -4.101   2.627   0.290  0.00  0.00    +0.252 C 
ATOM     16  C   UNL     1      -5.306   0.607  -0.301  0.00  0.00    +0.105 C 
ATOM     17  C   UNL     1      -5.349   1.827   0.251  0.00  0.00    +0.079 C 
ATOM     18  H   UNL     1      -2.141   2.443  -0.285  0.00  0.00    +0.157 HD
ENDBRANCH  10  14
ENDBRANCH   4  10
BRANCH   4  19
ATOM     19  C   UNL     1       0.326   0.111  -0.163  0.00  0.00    +0.014 C 
BRANCH  19  20
ATOM     20  CA  UNL     1       1.229  -0.644   0.808  0.00  0.00    +0.015 C 
BRANCH  20  27
ATOM     21  O   UNL     1       2.583   0.957   1.937  0.00  0.00    -0.277 OA
ATOM     22  N   UNL     1       3.567  -0.228   0.210  0.00  0.00    -0.273 N 
ATOM     23  CA  UNL     1       4.919   0.280   0.409  0.00  0.00    +0.174 C 
ATOM     24  CB  UNL     1       5.808  -0.660  -0.397  0.00  0.00    +0.033 C 
ATOM     25  CD  UNL     1       3.532  -1.230  -0.853  0.00  0.00    +0.094 C 
ATOM     26  CG  UNL     1       4.894  -1.135  -1.524  0.00  0.00    +0.024 C 
ATOM     27  C   ACE A   1       2.515   0.105   1.049  0.00  0.00    +0.205 C 
BRANCH  23  29
ATOM     28  OXT UNL     1       4.259   2.088  -1.053  0.00  0.00    -0.248 OA
ATOM     29  C   UNL     1       4.950   1.677  -0.133  0.00  0.00    +0.332 C 
BRANCH  29  30
ATOM     30  O   UNL     1       5.856   2.430   0.537  0.00  0.00    -0.479 OA
ATOM     31  H   UNL     1       6.354   2.053   1.235  0.00  0.00    +0.295 HD
ENDBRANCH  29  30
ENDBRANCH  23  29
ENDBRANCH  20  27
BRANCH  20  32
ATOM     32  N   UNL     1       0.605  -0.772   2.118  0.00  0.00    +0.387 N 
ATOM     33  H1  UNL     1      -0.278  -1.274   2.026  0.00  0.00    -0.089 HD
ATOM     34  H2  UNL     1       0.430   0.156   2.503  0.00  0.00    -0.089 HD
ATOM     35  H3  UNL     1       1.226  -1.287   2.742  0.00  0.00    -0.089 HD
ENDBRANCH  20  32
ENDBRANCH  19  20
ENDBRANCH   4  19
TORSDOF 8
