REMARK  Name = 128324
REMARK  12 active torsions:
REMARK  status: ('A' for Active; 'I' for Inactive)
REMARK    1  A    between atoms: C_1  and  C_4
REMARK    2  A    between atoms: C_1  and  N_17
REMARK    3  A    between atoms: C_1  and  C_26
REMARK    4  A    between atoms: N_3  and  C_6
REMARK    5  A    between atoms: C_6  and  C_9
REMARK    6  A    between atoms: C_6  and  C_12
REMARK    7  A    between atoms: C_12  and  C_13
REMARK    8  A    between atoms: C_18  and  C_20
REMARK    9  A    between atoms: C_26  and  C_27
REMARK   10  A    between atoms: C_27  and  C_28
REMARK   11  A    between atoms: C_28  and  N_29
REMARK   12  A    between atoms: N_29  and  C_32
REMARK                            x       y       z     vdW  Elec       q    Type
REMARK                         _______ _______ _______ _____ _____    ______ ____
ROOT
ATOM      1  C   UNL     1      -0.402  -0.253  -0.537  0.00  0.00    +0.149 C 
ENDROOT
BRANCH   1   4
ATOM      2  O   UNL     1       0.101  -1.532   1.460  0.00  0.00    -0.273 OA
ATOM      3  N   UNL     1       1.811  -1.102  -0.049  0.00  0.00    -0.297 N 
ATOM      4  C   UNL     1       0.506  -1.024   0.417  0.00  0.00    +0.241 C 
ATOM      5  H   UNL     1       2.034  -0.658  -0.899  0.00  0.00    +0.150 HD
BRANCH   3   6
ATOM      6  C   UNL     1       2.855  -1.805   0.658  0.00  0.00    +0.148 C 
BRANCH   6   9
ATOM      7  O   UNL     1       3.567   0.377   1.459  0.00  0.00    -0.274 OA
ATOM      8  N   UNL     1       3.794  -1.432   2.856  0.00  0.00    -0.327 N 
ATOM      9  C   UNL     1       3.449  -0.828   1.665  0.00  0.00    +0.237 C 
ATOM     10  H   UNL     1       4.188  -0.897   3.582  0.00  0.00    +0.145 HD
ATOM     11  H   UNL     1       3.647  -2.397   2.979  0.00  0.00    +0.145 HD
ENDBRANCH   6   9
BRANCH   6  12
ATOM     12  C   UNL     1       3.947  -2.325  -0.285  0.00  0.00    +0.029 C 
BRANCH  12  13
ATOM     13  C   UNL     1       3.632  -3.678  -0.956  0.00  0.00    +0.002 C 
ATOM     14  C   UNL     1       4.817  -4.113  -1.822  0.00  0.00    +0.000 C 
ATOM     15  C   UNL     1       2.364  -3.624  -1.808  0.00  0.00    +0.000 C 
ENDBRANCH  12  13
ENDBRANCH   6  12
ENDBRANCH   3   6
ENDBRANCH   1   4
BRANCH   1  17
ATOM     16  O   UNL     1      -2.766  -0.383  -2.160  0.00  0.00    -0.270 OA
ATOM     17  N   UNL     1      -1.760  -0.355  -0.071  0.00  0.00    -0.295 N 
ATOM     18  C   UNL     1      -2.845  -0.412  -0.935  0.00  0.00    +0.246 C 
ATOM     19  H   UNL     1      -1.926  -0.385   0.899  0.00  0.00    +0.150 HD
BRANCH  18  20
ATOM     20  C   UNL     1      -4.185  -0.489  -0.296  0.00  0.00    +0.053 C 
ATOM     21  C   UNL     1      -5.306   0.000  -0.967  0.00  0.00    +0.005 C 
ATOM     22  C   UNL     1      -4.321  -1.051   0.973  0.00  0.00    +0.005 C 
ATOM     23  C   UNL     1      -6.564  -0.072  -0.367  0.00  0.00    +0.000 C 
ATOM     24  C   UNL     1      -5.578  -1.123   1.573  0.00  0.00    +0.000 C 
ATOM     25  C   UNL     1      -6.699  -0.634   0.903  0.00  0.00    +0.000 C 
ENDBRANCH  18  20
ENDBRANCH   1  17
BRANCH   1  26
ATOM     26  C   UNL     1       0.031   1.206  -0.727  0.00  0.00    +0.031 C 
BRANCH  26  27
ATOM     27  C   UNL     1      -0.002   2.041   0.562  0.00  0.00    +0.029 C 
BRANCH  27  28
ATOM     28  C   UNL     1       0.400   3.494   0.321  0.00  0.00    +0.129 C 
BRANCH  28  29
ATOM     29  N   UNL     1       1.768   3.555  -0.197  0.00  0.00    -0.240 NA
BRANCH  29  32
ATOM     30  N   UNL     1       1.619   5.951  -0.285  0.00  0.00    -0.370 N 
ATOM     31  N   UNL     1       3.521   4.877  -0.937  0.00  0.00    -0.370 N 
ATOM     32  C   UNL     1       2.244   4.734  -0.448  0.00  0.00    +0.189 C 
ATOM     33  H   UNL     1       0.698   5.989   0.060  0.00  0.00    +0.159 HD
ATOM     34  H   UNL     1       2.094   6.783  -0.513  0.00  0.00    +0.159 HD
ATOM     35  H   UNL     1       4.078   4.082  -1.099  0.00  0.00    +0.159 HD
ATOM     36  H   UNL     1       3.879   5.775  -1.125  0.00  0.00    +0.159 HD
ENDBRANCH  29  32
ENDBRANCH  28  29
ENDBRANCH  27  28
ENDBRANCH  26  27
ENDBRANCH   1  26
TORSDOF 12
