REMARK  Name = 128375
REMARK  9 active torsions:
REMARK  status: ('A' for Active; 'I' for Inactive)
REMARK    1  A    between atoms: C_2  and  C_9
REMARK    2  A    between atoms: C_3  and  C_19
REMARK    3  A    between atoms: C_4  and  C_24
REMARK    4  A    between atoms: C_5  and  C_27
REMARK    5  A    between atoms: C_12  and  N_17
REMARK    6  A    between atoms: C_19  and  O_20
REMARK    7  A    between atoms: O_20  and  C_21
REMARK    8  A    between atoms: C_24  and  O_25
REMARK    9  A    between atoms: C_27  and  N_28
REMARK                            x       y       z     vdW  Elec       q    Type
REMARK                         _______ _______ _______ _____ _____    ______ ____
ROOT
ATOM      1  N   UNL     1      -0.760  -2.310   0.299  0.00  0.00    -0.332 N 
ATOM      2  C   UNL     1       1.171  -0.646  -0.941  0.00  0.00    +0.011 C 
ATOM      3  C   UNL     1      -0.303  -0.679  -1.355  0.00  0.00    +0.073 C 
ATOM      4  C   UNL     1       1.523  -1.722   0.091  0.00  0.00    +0.085 C 
ATOM      5  C   UNL     1      -1.194  -1.472  -0.716  0.00  0.00    +0.118 C 
ATOM      6  C   UNL     1       0.563  -2.475   0.675  0.00  0.00    +0.028 C 
ATOM      7  C   UNL     1       0.796  -3.520   1.732  0.00  0.00    +0.047 C 
ATOM      8  H   UNL     1      -1.442  -2.824   0.788  0.00  0.00    +0.147 HD
ENDROOT
BRANCH   2   9
ATOM      9  C   UNL     1       1.524   0.712  -0.406  0.00  0.00    +0.002 C 
ATOM     10  C   UNL     1       0.891   1.187   0.737  0.00  0.00    +0.024 C 
ATOM     11  C   UNL     1       2.480   1.480  -1.060  0.00  0.00    +0.000 C 
ATOM     12  C   UNL     1       1.220   2.448   1.234  0.00  0.00    +0.143 C 
ATOM     13  C   UNL     1       2.809   2.741  -0.563  0.00  0.00    +0.002 C 
ATOM     14  C   UNL     1       2.179   3.225   0.584  0.00  0.00    +0.024 C 
BRANCH  12  17
ATOM     15  O   UNL     1       0.893   4.077   2.833  0.00  0.00    -0.126 OA
ATOM     16  O   UNL     1      -0.279   2.225   2.972  0.00  0.00    -0.126 OA
ATOM     17  N   UNL     1       0.581   2.940   2.402  0.00  0.00    +0.058 N 
ENDBRANCH  12  17
ENDBRANCH   2   9
BRANCH   3  19
ATOM     18  O   UNL     1      -0.623  -0.233  -3.661  0.00  0.00    -0.245 OA
ATOM     19  C   UNL     1      -0.682   0.154  -2.508  0.00  0.00    +0.339 C 
BRANCH  19  20
ATOM     20  O   UNL     1      -1.084   1.363  -2.048  0.00  0.00    -0.446 OA
BRANCH  20  21
ATOM     21  C   UNL     1      -1.488   2.293  -3.059  0.00  0.00    +0.209 C 
ATOM     22  C   UNL     1      -1.907   3.589  -2.398  0.00  0.00    +0.051 C 
ENDBRANCH  20  21
ENDBRANCH  19  20
ENDBRANCH   3  19
BRANCH   4  24
ATOM     23  O   UNL     1       3.548  -1.350   1.265  0.00  0.00    -0.245 OA
ATOM     24  C   UNL     1       2.954  -1.924   0.371  0.00  0.00    +0.342 C 
BRANCH  24  25
ATOM     25  O   UNL     1       3.441  -2.824  -0.517  0.00  0.00    -0.441 OA
ATOM     26  C   UNL     1       4.832  -3.129  -0.372  0.00  0.00    +0.256 C 
ENDBRANCH  24  25
ENDBRANCH   4  24
BRANCH   5  27
ATOM     27  C   UNL     1      -2.668  -1.541  -1.011  0.00  0.00    +0.121 C 
BRANCH  27  28
ATOM     28  N   UNL     1      -3.459  -1.176   0.154  0.00  0.00    -0.266 N 
ATOM     29  N   UNL     1      -4.594  -1.398   2.036  0.00  0.00    -0.225 NA
ATOM     30  C   UNL     1      -3.877   0.078   0.472  0.00  0.00    +0.088 C 
ATOM     31  C   UNL     1      -3.907  -2.031   1.112  0.00  0.00    +0.168 C 
ATOM     32  C   UNL     1      -4.580  -0.083   1.643  0.00  0.00    +0.117 C 
ENDBRANCH  27  28
ENDBRANCH   5  27
TORSDOF 9
