REMARK  Name = 128440
REMARK  8 active torsions:
REMARK  status: ('A' for Active; 'I' for Inactive)
REMARK    1  A    between atoms: O_1  and  C_5
REMARK    2  A    between atoms: O_1  and  C_17
REMARK    3  A    between atoms: C_2  and  C_8
REMARK    4  A    between atoms: C_8  and  C_13
REMARK    5  A    between atoms: C_17  and  C_18
REMARK    6  A    between atoms: C_18  and  C_21
REMARK    7  A    between atoms: C_18  and  O_31
REMARK    8  A    between atoms: C_23  and  C_25
REMARK                            x       y       z     vdW  Elec       q    Type
REMARK                         _______ _______ _______ _____ _____    ______ ____
ROOT
ATOM      1  O   UNL     1      -0.841   2.392   1.021  0.00  0.00    -0.472 OA
ENDROOT
BRANCH   1   5
ATOM      2  C   UNL     1       3.076   1.072   0.935  0.00  0.00    -0.021 C 
ATOM      3  C   UNL     1       2.102   0.275   1.517  0.00  0.00    -0.001 C 
ATOM      4  C   UNL     1       2.760   2.303   0.381  0.00  0.00    -0.001 C 
ATOM      5  C   UNL     1       0.448   1.957   0.992  0.00  0.00    +0.139 C 
ATOM      6  C   UNL     1       0.780   0.720   1.546  0.00  0.00    +0.037 C 
ATOM      7  C   UNL     1       1.438   2.748   0.410  0.00  0.00    +0.037 C 
BRANCH   2   8
ATOM      8  C   UNL     1       4.504   0.591   0.904  0.00  0.00    +0.047 C 
BRANCH   8  13
ATOM      9  S   UNL     1       4.234  -1.927  -0.176  0.00  0.00    -0.048 S 
ATOM     10  O   UNL     1       7.019   0.687  -0.732  0.00  0.00    -0.274 OA
ATOM     11  O   UNL     1       6.025  -3.819  -0.530  0.00  0.00    -0.263 OA
ATOM     12  N   UNL     1       6.716  -1.606  -0.683  0.00  0.00    -0.246 N 
ATOM     13  C   UNL     1       4.806  -0.209  -0.350  0.00  0.00    +0.137 C 
ATOM     14  C   UNL     1       6.294  -0.295  -0.606  0.00  0.00    +0.239 C 
ATOM     15  C   UNL     1       5.811  -2.616  -0.495  0.00  0.00    +0.279 C 
ATOM     16  H   UNL     1       7.660  -1.813  -0.872  0.00  0.00    +0.158 HD
ENDBRANCH   8  13
ENDBRANCH   2   8
ENDBRANCH   1   5
BRANCH   1  17
ATOM     17  C   UNL     1      -1.263   3.243  -0.044  0.00  0.00    +0.241 C 
BRANCH  17  18
ATOM     18  C   UNL     1      -2.769   3.098  -0.263  0.00  0.00    +0.206 C 
BRANCH  18  21
ATOM     19  O   UNL     1      -3.664  -0.116  -1.744  0.00  0.00    -0.448 OA
ATOM     20  N   UNL     1      -3.468   0.798   0.316  0.00  0.00    -0.370 NA
ATOM     21  C   UNL     1      -3.169   1.697  -0.649  0.00  0.00    +0.160 C 
ATOM     22  C   UNL     1      -3.277   1.181  -1.891  0.00  0.00    +0.218 C 
ATOM     23  C   UNL     1      -3.757  -0.269  -0.394  0.00  0.00    +0.277 C 
ATOM     24  C   UNL     1      -3.084   1.669  -3.261  0.00  0.00    +0.055 C 
BRANCH  23  25
ATOM     25  C   UNL     1      -4.158  -1.576   0.047  0.00  0.00    +0.066 C 
ATOM     26  C   UNL     1      -4.422  -2.583  -0.886  0.00  0.00    +0.006 C 
ATOM     27  C   UNL     1      -4.288  -1.849   1.412  0.00  0.00    +0.006 C 
ATOM     28  C   UNL     1      -4.812  -3.852  -0.459  0.00  0.00    +0.000 C 
ATOM     29  C   UNL     1      -4.678  -3.119   1.839  0.00  0.00    +0.000 C 
ATOM     30  C   UNL     1      -4.940  -4.120   0.904  0.00  0.00    +0.000 C 
ENDBRANCH  23  25
ENDBRANCH  18  21
BRANCH  18  31
ATOM     31  O   UNL     1      -3.420   3.523   0.938  0.00  0.00    -0.375 OA
ATOM     32  H   UNL     1      -4.381   3.443   0.831  0.00  0.00    +0.211 HD
ENDBRANCH  18  31
ENDBRANCH  17  18
ENDBRANCH   1  17
TORSDOF 8
