REMARK  Name = 128471
REMARK  7 active torsions:
REMARK  status: ('A' for Active; 'I' for Inactive)
REMARK    1  A    between atoms: C_1  and  C_4
REMARK    2  A    between atoms: C_1  and  N_8
REMARK    3  A    between atoms: C_1  and  C_17
REMARK    4  A    between atoms: N_9  and  N_13
REMARK    5  A    between atoms: N_9  and  C_14
REMARK    6  A    between atoms: C_14  and  C_16
REMARK    7  A    between atoms: C_17  and  C_20
REMARK                            x       y       z     vdW  Elec       q    Type
REMARK                         _______ _______ _______ _____ _____    ______ ____
ROOT
ATOM      1  C   UNL     1       1.731  -0.683  -0.184  0.00  0.00    +0.159 C 
ENDROOT
BRANCH   1   4
ATOM      2  O   UNL     1       1.263  -2.256   1.607  0.00  0.00    -0.274 OA
ATOM      3  N   UNL     1       2.328  -3.025  -0.277  0.00  0.00    -0.327 N 
ATOM      4  C   UNL     1       1.722  -2.049   0.486  0.00  0.00    +0.238 C 
ATOM      5  H   UNL     1       2.381  -3.949   0.057  0.00  0.00    +0.145 HD
ATOM      6  H   UNL     1       2.709  -2.796  -1.156  0.00  0.00    +0.145 HD
ENDBRANCH   1   4
BRANCH   1   8
ATOM      7  O   UNL     1      -0.772  -0.885  -1.460  0.00  0.00    -0.251 OA
ATOM      8  N   UNL     1       0.529   0.003   0.215  0.00  0.00    -0.281 N 
ATOM      9  N   UNL     1      -1.760   0.582   0.038  0.00  0.00    -0.163 N 
ATOM     10  C   UNL     1      -0.676  -0.150  -0.472  0.00  0.00    +0.321 C 
ATOM     11  H   UNL     1       0.559   0.600   0.998  0.00  0.00    +0.151 HD
BRANCH   9  13
ATOM     12  O   UNL     1      -2.612   2.037   1.581  0.00  0.00    -0.078 OA
ATOM     13  N   UNL     1      -1.581   1.449   1.238  0.00  0.00    +0.054 NA
ENDBRANCH   9  13
BRANCH   9  14
ATOM     14  C   UNL     1      -3.078   0.515  -0.580  0.00  0.00    +0.134 C 
BRANCH  14  16
ATOM     15 CL   UNL     1      -5.541  -0.645  -0.776  0.00  0.00    -0.112 Cl
ATOM     16  C   UNL     1      -3.942  -0.589   0.006  0.00  0.00    +0.118 C 
ENDBRANCH  14  16
ENDBRANCH   9  14
ENDBRANCH   1   8
BRANCH   1  17
ATOM     17  C   UNL     1       2.988   0.097   0.201  0.00  0.00    +0.114 C 
BRANCH  17  20
ATOM     18  O   UNL     1       2.192   1.931  -1.179  0.00  0.00    -0.275 OA
ATOM     19  N   UNL     1       4.165   2.184  -0.029  0.00  0.00    -0.329 N 
ATOM     20  C   UNL     1       3.043   1.483  -0.417  0.00  0.00    +0.222 C 
ATOM     21  H   UNL     1       4.315   3.098  -0.363  0.00  0.00    +0.145 HD
ATOM     22  H   UNL     1       4.816   1.771   0.583  0.00  0.00    +0.145 HD
ENDBRANCH  17  20
ENDBRANCH   1  17
TORSDOF 7
