128492
  -OEChem-03292013323D

 57 58  0     1  0  0  0  0  0999 V2000
    3.8263   -1.2555   -1.7018 O   0  0  0  0  0  0  0  0  0  0  0  0
    6.8077   -0.5702    1.2615 O   0  0  0  0  0  0  0  0  0  0  0  0
    7.0690    1.5521    0.5280 O   0  0  0  0  0  0  0  0  0  0  0  0
   -0.7355    3.1125   -1.4428 O   0  0  0  0  0  0  0  0  0  0  0  0
   -3.3016   -2.4867    2.4956 O   0  5  0  0  0  0  0  0  0  0  0  0
   -1.9725   -0.7438    2.6187 O   0  0  0  0  0  0  0  0  0  0  0  0
   -6.9200    1.8962   -0.9063 O   0  5  0  0  0  0  0  0  0  0  0  0
   -6.7949    1.6460    1.2711 O   0  0  0  0  0  0  0  0  0  0  0  0
    4.3063   -0.7618    0.5170 N   0  0  0  0  0  0  0  0  0  0  0  0
   -1.9345   -1.9310   -0.5556 N   0  0  0  0  0  0  0  0  0  0  0  0
   -2.8996   -1.3802    2.0654 N   0  3  0  0  0  0  0  0  0  0  0  0
   -6.3749    1.4077    0.1130 N   0  3  0  0  0  0  0  0  0  0  0  0
    0.9525   -2.5505   -0.8918 C   0  0  0  0  0  0  0  0  0  0  0  0
    2.1712   -3.4774   -0.8286 C   0  0  0  0  0  0  0  0  0  0  0  0
   -0.1795   -3.1801   -1.7104 C   0  0  0  0  0  0  0  0  0  0  0  0
    3.3064   -2.8892    0.0081 C   0  0  0  0  0  0  0  0  0  0  0  0
   -1.3874   -2.2575   -1.8503 C   0  0  0  0  0  0  0  0  0  0  0  0
    4.8808    0.5467    0.3015 C   0  0  1  0  0  0  0  0  0  0  0  0
    4.1099    1.6234    1.0763 C   0  0  0  0  0  0  0  0  0  0  0  0
    3.8240   -1.5580   -0.5117 C   0  0  0  0  0  0  0  0  0  0  0  0
    2.8176    2.0211    0.4043 C   0  0  0  0  0  0  0  0  0  0  0  0
   -3.0333   -1.1065   -0.3697 C   0  0  0  0  0  0  0  0  0  0  0  0
    6.3498    0.5731    0.6974 C   0  0  0  0  0  0  0  0  0  0  0  0
    2.8044    3.0650   -0.5208 C   0  0  0  0  0  0  0  0  0  0  0  0
    1.6367    1.3440    0.7088 C   0  0  0  0  0  0  0  0  0  0  0  0
   -3.5170   -0.8276    0.9085 C   0  0  0  0  0  0  0  0  0  0  0  0
   -3.6571   -0.5528   -1.4877 C   0  0  0  0  0  0  0  0  0  0  0  0
   -4.6245    0.0050    1.0687 C   0  0  0  0  0  0  0  0  0  0  0  0
    1.6103    3.4319   -1.1413 C   0  0  0  0  0  0  0  0  0  0  0  0
    0.4426    1.7108    0.0883 C   0  0  0  0  0  0  0  0  0  0  0  0
   -4.7645    0.2798   -1.3275 C   0  0  0  0  0  0  0  0  0  0  0  0
   -5.2482    0.5588   -0.0493 C   0  0  0  0  0  0  0  0  0  0  0  0
    0.4294    2.7548   -0.8368 C   0  0  0  0  0  0  0  0  0  0  0  0
    0.6181   -2.3388    0.1301 H   0  0  0  0  0  0  0  0  0  0  0  0
    1.2248   -1.5909   -1.3451 H   0  0  0  0  0  0  0  0  0  0  0  0
    2.5305   -3.6739   -1.8462 H   0  0  0  0  0  0  0  0  0  0  0  0
    1.8787   -4.4433   -0.3996 H   0  0  0  0  0  0  0  0  0  0  0  0
   -0.4888   -4.1202   -1.2365 H   0  0  0  0  0  0  0  0  0  0  0  0
    0.1889   -3.4320   -2.7122 H   0  0  0  0  0  0  0  0  0  0  0  0
    4.1525   -3.5861    0.0200 H   0  0  0  0  0  0  0  0  0  0  0  0
    2.9632   -2.7762    1.0435 H   0  0  0  0  0  0  0  0  0  0  0  0
   -2.1391   -2.7689   -2.4633 H   0  0  0  0  0  0  0  0  0  0  0  0
   -1.0747   -1.3468   -2.3755 H   0  0  0  0  0  0  0  0  0  0  0  0
    4.8637    0.7620   -0.7741 H   0  0  0  0  0  0  0  0  0  0  0  0
    3.9027    1.2870    2.1015 H   0  0  0  0  0  0  0  0  0  0  0  0
    4.7228    2.5271    1.1940 H   0  0  0  0  0  0  0  0  0  0  0  0
    4.3076   -1.1234    1.4664 H   0  0  0  0  0  0  0  0  0  0  0  0
   -1.5557   -2.4024    0.2575 H   0  0  0  0  0  0  0  0  0  0  0  0
    3.7184    3.5983   -0.7680 H   0  0  0  0  0  0  0  0  0  0  0  0
    1.6331    0.5281    1.4268 H   0  0  0  0  0  0  0  0  0  0  0  0
   -3.3180   -0.7400   -2.5020 H   0  0  0  0  0  0  0  0  0  0  0  0
   -4.9858    0.2100    2.0747 H   0  0  0  0  0  0  0  0  0  0  0  0
    1.6065    4.2453   -1.8617 H   0  0  0  0  0  0  0  0  0  0  0  0
   -0.4702    1.1744    0.3332 H   0  0  0  0  0  0  0  0  0  0  0  0
   -5.2252    0.6940   -2.2208 H   0  0  0  0  0  0  0  0  0  0  0  0
    7.7563   -0.5058    1.5029 H   0  0  0  0  0  0  0  0  0  0  0  0
   -1.4492    2.5367   -1.1181 H   0  0  0  0  0  0  0  0  0  0  0  0
  1 20  2  0  0  0  0
  2 23  1  0  0  0  0
  2 56  1  0  0  0  0
  3 23  2  0  0  0  0
  4 33  1  0  0  0  0
  4 57  1  0  0  0  0
  5 11  1  0  0  0  0
  6 11  2  0  0  0  0
  7 12  1  0  0  0  0
  8 12  2  0  0  0  0
  9 18  1  0  0  0  0
  9 20  1  0  0  0  0
  9 47  1  0  0  0  0
 10 17  1  0  0  0  0
 10 22  1  0  0  0  0
 10 48  1  0  0  0  0
 11 26  1  0  0  0  0
 12 32  1  0  0  0  0
 13 14  1  0  0  0  0
 13 15  1  0  0  0  0
 13 34  1  0  0  0  0
 13 35  1  0  0  0  0
 14 16  1  0  0  0  0
 14 36  1  0  0  0  0
 14 37  1  0  0  0  0
 15 17  1  0  0  0  0
 15 38  1  0  0  0  0
 15 39  1  0  0  0  0
 16 20  1  0  0  0  0
 16 40  1  0  0  0  0
 16 41  1  0  0  0  0
 17 42  1  0  0  0  0
 17 43  1  0  0  0  0
 18 19  1  0  0  0  0
 18 23  1  0  0  0  0
 18 44  1  0  0  0  0
 19 21  1  0  0  0  0
 19 45  1  0  0  0  0
 19 46  1  0  0  0  0
 21 24  2  0  0  0  0
 21 25  1  0  0  0  0
 22 26  2  0  0  0  0
 22 27  1  0  0  0  0
 24 29  1  0  0  0  0
 24 49  1  0  0  0  0
 25 30  2  0  0  0  0
 25 50  1  0  0  0  0
 26 28  1  0  0  0  0
 27 31  2  0  0  0  0
 27 51  1  0  0  0  0
 28 32  2  0  0  0  0
 28 52  1  0  0  0  0
 29 33  2  0  0  0  0
 29 53  1  0  0  0  0
 30 33  1  0  0  0  0
 30 54  1  0  0  0  0
 31 32  1  0  0  0  0
 31 55  1  0  0  0  0
M  CHG  4   5  -1   7  -1  11   1  12   1
M  END
> <PUBCHEM_COMPOUND_CID>
128492

> <PUBCHEM_CONFORMER_RMSD>
1.2

> <PUBCHEM_CONFORMER_DIVERSEORDER>
1
28
78
92
40
97
80
122
147
98
20
132
16
96
102
109
118
49
73
141
52
146
91
44
162
172
110
84
93
155
136
131
99
55
168
176
51
151
127
178
111
48
105
166
22
26
71
30
76
169
153
67
69
13
75
103
24
106
3
27
82
150
53
158
5
79
47
70
165
128
42
154
140
114
95
129
29
57
81
161
121
6
31
63
38
85
113
104
148
17
123
60
182
159
179
68
108
171
34
175
133
180
142
54
144
156
32
124
135
23
149
77
101
116
11
64
120
74
115
45
43
94
35
72
157
152
9
59
160
117
87
83
134
90
12
107
167
177
15
145
130
183
10
50
137
119
89
58
88
8
56
61
21
164
173
163
66
39
65
2
41
19
86
126
170
4
37
181
18
139
7
14
46
112
174
100
143
25
138
125
62
33
36

> <PUBCHEM_MMFF94_PARTIAL_CHARGES>
41
1 -0.57
10 -0.87
11 0.91
12 0.91
16 0.06
17 0.37
18 0.36
19 0.14
2 -0.65
20 0.57
21 -0.14
22 0.1
23 0.66
24 -0.15
25 -0.15
26 0.13
27 -0.15
28 -0.15
29 -0.15
3 -0.57
30 -0.15
31 -0.15
32 0.13
33 0.08
4 -0.53
47 0.37
48 0.4
49 0.15
5 -0.52
50 0.15
51 0.15
52 0.15
53 0.15
54 0.15
55 0.15
56 0.5
57 0.45
6 -0.52
7 -0.52
8 -0.52
9 -0.73

> <PUBCHEM_EFFECTIVE_ROTOR_COUNT>
14

> <PUBCHEM_PHARMACOPHORE_FEATURES>
17
1 1 acceptor
1 10 cation
1 10 donor
1 2 acceptor
1 3 acceptor
1 4 donor
1 5 acceptor
1 5 anion
1 6 acceptor
1 7 acceptor
1 7 anion
1 8 acceptor
1 9 donor
3 2 3 23 anion
4 13 14 15 16 hydrophobe
6 21 24 25 29 30 33 rings
6 22 26 27 28 31 32 rings

> <PUBCHEM_HEAVY_ATOM_COUNT>
33

> <PUBCHEM_ATOM_DEF_STEREO_COUNT>
1

> <PUBCHEM_ATOM_UDEF_STEREO_COUNT>
0

> <PUBCHEM_BOND_DEF_STEREO_COUNT>
0

> <PUBCHEM_BOND_UDEF_STEREO_COUNT>
0

> <PUBCHEM_ISOTOPIC_ATOM_COUNT>
0

> <PUBCHEM_COMPONENT_COUNT>
1

> <PUBCHEM_CACTVS_TAUTO_COUNT>
4

> <PUBCHEM_CONFORMER_ID>
0001F5EC00000001

> <PUBCHEM_MMFF94_ENERGY>
88.3878

> <PUBCHEM_FEATURE_SELFOVERLAP>
86.499

> <PUBCHEM_SHAPE_FINGERPRINT>
10006869 2 18268702819321264558
11513181 2 17131843014647728870
11828532 37 17024043729754904235
12422481 6 18271518793417183618
12596602 18 16486400113945518720
12677640 9 18128246990700016255
13402501 40 18335980878682122140
14020679 6 18041001756300171099
14117953 113 18341612595173788868
14279260 333 17604973859538861808
14840074 17 18412543236911356946
150020 26 18191598642847098737
15264996 74 17774144842320375223
15297060 5 17203332234099291042
20511986 3 17489293213733986700
20764821 26 18265601255816515276
21033648 29 18114191825513155139
21298829 104 18131351882292022113
550186 83 17896577610063055192

> <PUBCHEM_SHAPE_MULTIPOLES>
612.25
15.83
4.4
1.87
3.34
0.53
0.67
-6.31
4.54
-2.28
-1.9
1.7
0.72
0.84

> <PUBCHEM_SHAPE_SELFOVERLAP>
1276.428

> <PUBCHEM_SHAPE_VOLUME>
345.9

> <PUBCHEM_COORDINATE_TYPE>
2
5
10

$$$$
