REMARK  Name = 128435
REMARK  11 active torsions:
REMARK  status: ('A' for Active; 'I' for Inactive)
REMARK    1  A    between atoms: N_2  and  C_14
REMARK    2  A    between atoms: C_3  and  C_5
REMARK    3  A    between atoms: C_5  and  C_6
REMARK    4  A    between atoms: C_6  and  O_8
REMARK    5  A    between atoms: C_6  and  C_10
REMARK    6  A    between atoms: C_10  and  C_11
REMARK    7  A    between atoms: C_11  and  O_12
REMARK    8  A    between atoms: C_14  and  C_15
REMARK    9  A    between atoms: C_15  and  C_16
REMARK   10  A    between atoms: C_16  and  C_18
REMARK   11  A    between atoms: C_18  and  O_19
REMARK                            x       y       z     vdW  Elec       q    Type
REMARK                         _______ _______ _______ _____ _____    ______ ____
ROOT
ATOM      1  O   UNL     1      -1.049  -1.640  -1.222  0.00  0.00    -0.275 OA
ATOM      2  N   UNL     1       0.259  -1.700   0.693  0.00  0.00    -0.304 N 
ATOM      3  C   UNL     1      -0.895  -1.419  -0.024  0.00  0.00    +0.225 C 
ATOM      4  H   UNL     1       0.281  -1.484   1.653  0.00  0.00    +0.149 HD
ENDROOT
BRANCH   3   5
ATOM      5  C   UNL     1      -1.988  -0.845   0.870  0.00  0.00    +0.112 C 
BRANCH   5   6
ATOM      6  C   UNL     1      -3.020   0.049   0.154  0.00  0.00    +0.099 C 
ATOM      7  C   UNL     1      -4.051   0.551   1.175  0.00  0.00    +0.030 C 
BRANCH   6   8
ATOM      8  O   UNL     1      -3.739  -0.743  -0.801  0.00  0.00    -0.386 OA
ATOM      9  H   UNL     1      -3.123  -1.082  -1.469  0.00  0.00    +0.210 HD
ENDBRANCH   6   8
BRANCH   6  10
ATOM     10  C   UNL     1      -2.400   1.231  -0.619  0.00  0.00    +0.059 C 
BRANCH  10  11
ATOM     11  C   UNL     1      -1.601   2.221   0.219  0.00  0.00    +0.140 C 
BRANCH  11  12
ATOM     12  O   UNL     1      -1.078   3.225  -0.643  0.00  0.00    -0.382 OA
ATOM     13  H   UNL     1      -0.566   3.864  -0.123  0.00  0.00    +0.210 HD
ENDBRANCH  11  12
ENDBRANCH  10  11
ENDBRANCH   6  10
ENDBRANCH   5   6
ENDBRANCH   3   5
BRANCH   2  14
ATOM     14  C   UNL     1       1.429  -2.296   0.091  0.00  0.00    +0.090 C 
BRANCH  14  15
ATOM     15  C   UNL     1       2.409  -1.258  -0.456  0.00  0.00    +0.033 C 
BRANCH  15  16
ATOM     16  C   UNL     1       2.981  -0.318   0.608  0.00  0.00    +0.111 C 
BRANCH  16  18
ATOM     17  O   UNL     1       4.371   0.717  -1.105  0.00  0.00    -0.250 OA
ATOM     18  C   UNL     1       3.981   0.673   0.053  0.00  0.00    +0.314 C 
BRANCH  18  19
ATOM     19  O   UNL     1       4.391   1.551   1.006  0.00  0.00    -0.480 OA
ATOM     20  H   UNL     1       4.064   1.478   1.882  0.00  0.00    +0.295 HD
ENDBRANCH  18  19
ENDBRANCH  16  18
ENDBRANCH  15  16
ENDBRANCH  14  15
ENDBRANCH   2  14
TORSDOF 11
