REMARK  Name = 128422
REMARK  7 active torsions:
REMARK  status: ('A' for Active; 'I' for Inactive)
REMARK    1  A    between atoms: C_1  and  N_3
REMARK    2  A    between atoms: C_1  and  C_16
REMARK    3  A    between atoms: C_1  and  C_24
REMARK    4  A    between atoms: C_4  and  C_7
REMARK    5  A    between atoms: N_15  and  C_18
REMARK    6  A    between atoms: C_18  and  C_21
REMARK    7  A    between atoms: C_24  and  C_25
REMARK                            x       y       z     vdW  Elec       q    Type
REMARK                         _______ _______ _______ _____ _____    ______ ____
ROOT
ATOM      1  C   UNL     1      -0.860  -1.185   0.024  0.00  0.00    +0.148 C 
ENDROOT
BRANCH   1   3
ATOM      2  O   UNL     1       0.678   0.875  -1.325  0.00  0.00    -0.277 OA
ATOM      3  N   UNL     1       0.435  -0.676   0.394  0.00  0.00    -0.300 N 
ATOM      4  C   UNL     1       1.097   0.315  -0.316  0.00  0.00    +0.203 C 
ATOM      5  H   UNL     1       0.873  -1.051   1.192  0.00  0.00    +0.150 HD
BRANCH   4   7
ATOM      6  N   UNL     1       2.612   2.100   0.034  0.00  0.00    +0.391 N 
ATOM      7  C   UNL     1       2.412   0.675   0.298  0.00  0.00    +0.017 C 
ATOM      8  C   UNL     1       3.524  -0.176  -0.317  0.00  0.00    -0.013 C 
ATOM      9  C   UNL     1       4.896   0.281   0.167  0.00  0.00    -0.004 C 
ATOM     10  C   UNL     1       5.065   1.781  -0.051  0.00  0.00    -0.023 C 
ATOM     11  C   UNL     1       3.901   2.563   0.553  0.00  0.00    -0.081 C 
ATOM     12  H   UNL     1       1.864   2.629   0.482  0.00  0.00    -0.084 HD
ATOM     13  H   UNL     1       2.603   2.244  -0.976  0.00  0.00    -0.084 HD
ENDBRANCH   4   7
ENDBRANCH   1   3
BRANCH   1  16
ATOM     14  O   UNL     1      -1.742   0.258   1.762  0.00  0.00    -0.273 OA
ATOM     15  N   UNL     1      -3.003  -0.081  -0.159  0.00  0.00    -0.295 N 
ATOM     16  C   UNL     1      -1.901  -0.272   0.664  0.00  0.00    +0.241 C 
ATOM     17  H   UNL     1      -3.031  -0.555  -1.021  0.00  0.00    +0.150 HD
BRANCH  15  18
ATOM     18  C   UNL     1      -4.111   0.780   0.188  0.00  0.00    +0.175 C 
BRANCH  18  21
ATOM     19  O   UNL     1      -2.808   2.522  -0.876  0.00  0.00    -0.273 OA
ATOM     20  N   UNL     1      -4.879   3.045  -0.026  0.00  0.00    -0.327 N 
ATOM     21  C   UNL     1      -3.845   2.180  -0.315  0.00  0.00    +0.239 C 
ATOM     22  H   UNL     1      -4.823   3.988  -0.303  0.00  0.00    +0.145 HD
ATOM     23  H   UNL     1      -5.672   2.720   0.457  0.00  0.00    +0.145 HD
ENDBRANCH  18  21
ENDBRANCH  15  18
ENDBRANCH   1  16
BRANCH   1  24
ATOM     24  C   UNL     1      -1.069  -2.633   0.485  0.00  0.00    +0.029 C 
BRANCH  24  25
ATOM     25  C   UNL     1      -0.040  -3.642  -0.064  0.00  0.00    +0.002 C 
ATOM     26  C   UNL     1      -0.098  -3.657  -1.594  0.00  0.00    +0.000 C 
ATOM     27  C   UNL     1      -0.265  -5.055   0.474  0.00  0.00    +0.000 C 
ENDBRANCH  24  25
ENDBRANCH   1  24
TORSDOF 7
