128491
  -OEChem-03292013323D

 50 51  0     0  0  0  0  0  0999 V2000
   -1.7827    3.7334   -0.0571 S   0  0  0  0  0  0  0  0  0  0  0  0
   -4.5757    2.5263    0.0392 S   0  0  0  0  0  0  0  0  0  0  0  0
   -6.1534   -0.0710   -0.1442 S   0  0  0  0  0  0  0  0  0  0  0  0
    2.4682    2.1975    0.5427 O   0  0  0  0  0  0  0  0  0  0  0  0
    3.4996   -2.4366    1.1539 O   0  0  0  0  0  0  0  0  0  0  0  0
    5.3972   -3.3971   -0.2281 O   0  0  0  0  0  0  0  0  0  0  0  0
   -6.3646   -3.9527    0.0083 O   0  0  0  0  0  0  0  0  0  0  0  0
   -7.8291   -2.4128   -0.7977 O   0  0  0  0  0  0  0  0  0  0  0  0
   -2.4484    1.1442   -0.3229 N   0  0  0  0  0  0  0  0  0  0  0  0
   -3.4925    0.2361   -0.3439 N   0  0  0  0  0  0  0  0  0  0  0  0
    2.9674   -0.1257    0.8646 C   0  0  0  0  0  0  0  0  0  0  0  0
    1.8763   -0.2385    1.8808 C   0  0  0  0  0  0  0  0  0  0  0  0
    3.2168    1.0905    0.2379 C   0  0  0  0  0  0  0  0  0  0  0  0
    0.5337   -0.6223    1.2465 C   0  0  0  0  0  0  0  0  0  0  0  0
    3.7402   -1.2410    0.5418 C   0  0  0  0  0  0  0  0  0  0  0  0
    4.7581   -1.1335   -0.4058 C   0  0  0  0  0  0  0  0  0  0  0  0
    2.2901    3.1557   -0.4912 C   0  0  0  0  0  0  0  0  0  0  0  0
    4.2301    1.2046   -0.7080 C   0  0  0  0  0  0  0  0  0  0  0  0
    0.9571    3.8633   -0.2831 C   0  0  0  0  0  0  0  0  0  0  0  0
    5.0030    0.0891   -1.0306 C   0  0  0  0  0  0  0  0  0  0  0  0
   -0.5632   -0.7677    2.2893 C   0  0  0  0  0  0  0  0  0  0  0  0
   -0.2021    2.8747   -0.3045 C   0  0  0  0  0  0  0  0  0  0  0  0
    5.5777   -2.2845   -0.7593 C   0  0  0  0  0  0  0  0  0  0  0  0
    6.6845   -2.1475   -1.7974 C   0  0  0  0  0  0  0  0  0  0  0  0
   -2.8884    2.3581   -0.1318 C   0  0  0  0  0  0  0  0  0  0  0  0
   -4.6556    0.8253   -0.1665 C   0  0  0  0  0  0  0  0  0  0  0  0
   -5.5425   -1.7569   -0.4088 C   0  0  0  0  0  0  0  0  0  0  0  0
   -6.7019   -2.7112   -0.4239 C   0  0  0  0  0  0  0  0  0  0  0  0
    2.1485   -0.9716    2.6509 H   0  0  0  0  0  0  0  0  0  0  0  0
    1.7686    0.7070    2.4277 H   0  0  0  0  0  0  0  0  0  0  0  0
    0.6398   -1.5817    0.7240 H   0  0  0  0  0  0  0  0  0  0  0  0
    0.2351    0.0996    0.4839 H   0  0  0  0  0  0  0  0  0  0  0  0
    2.2705    2.6927   -1.4865 H   0  0  0  0  0  0  0  0  0  0  0  0
    3.1026    3.8900   -0.4480 H   0  0  0  0  0  0  0  0  0  0  0  0
    4.4760    2.1430   -1.1954 H   0  0  0  0  0  0  0  0  0  0  0  0
    0.9782    4.3779    0.6861 H   0  0  0  0  0  0  0  0  0  0  0  0
    0.8314    4.6236   -1.0632 H   0  0  0  0  0  0  0  0  0  0  0  0
    5.7878    0.2227   -1.7685 H   0  0  0  0  0  0  0  0  0  0  0  0
   -1.5021   -1.0667    1.8129 H   0  0  0  0  0  0  0  0  0  0  0  0
   -0.7336    0.1799    2.8101 H   0  0  0  0  0  0  0  0  0  0  0  0
   -0.3019   -1.5281    3.0320 H   0  0  0  0  0  0  0  0  0  0  0  0
   -0.2185    2.3261   -1.2520 H   0  0  0  0  0  0  0  0  0  0  0  0
   -0.0898    2.1698    0.5203 H   0  0  0  0  0  0  0  0  0  0  0  0
    4.2248   -3.0607    1.0047 H   0  0  0  0  0  0  0  0  0  0  0  0
    7.4361   -1.4299   -1.4586 H   0  0  0  0  0  0  0  0  0  0  0  0
    6.2649   -1.8578   -2.7643 H   0  0  0  0  0  0  0  0  0  0  0  0
    7.1778   -3.1168   -1.9225 H   0  0  0  0  0  0  0  0  0  0  0  0
   -5.0136   -1.8379   -1.3628 H   0  0  0  0  0  0  0  0  0  0  0  0
   -4.8714   -2.0234    0.4138 H   0  0  0  0  0  0  0  0  0  0  0  0
   -7.1285   -4.5677   -0.0131 H   0  0  0  0  0  0  0  0  0  0  0  0
  1 22  1  0  0  0  0
  1 25  1  0  0  0  0
  2 25  1  0  0  0  0
  2 26  1  0  0  0  0
  3 26  1  0  0  0  0
  3 27  1  0  0  0  0
  4 13  1  0  0  0  0
  4 17  1  0  0  0  0
  5 15  1  0  0  0  0
  5 44  1  0  0  0  0
  6 23  2  0  0  0  0
  7 28  1  0  0  0  0
  7 50  1  0  0  0  0
  8 28  2  0  0  0  0
  9 10  1  0  0  0  0
  9 25  2  0  0  0  0
 10 26  2  0  0  0  0
 11 12  1  0  0  0  0
 11 13  2  0  0  0  0
 11 15  1  0  0  0  0
 12 14  1  0  0  0  0
 12 29  1  0  0  0  0
 12 30  1  0  0  0  0
 13 18  1  0  0  0  0
 14 21  1  0  0  0  0
 14 31  1  0  0  0  0
 14 32  1  0  0  0  0
 15 16  2  0  0  0  0
 16 20  1  0  0  0  0
 16 23  1  0  0  0  0
 17 19  1  0  0  0  0
 17 33  1  0  0  0  0
 17 34  1  0  0  0  0
 18 20  2  0  0  0  0
 18 35  1  0  0  0  0
 19 22  1  0  0  0  0
 19 36  1  0  0  0  0
 19 37  1  0  0  0  0
 20 38  1  0  0  0  0
 21 39  1  0  0  0  0
 21 40  1  0  0  0  0
 21 41  1  0  0  0  0
 22 42  1  0  0  0  0
 22 43  1  0  0  0  0
 23 24  1  0  0  0  0
 24 45  1  0  0  0  0
 24 46  1  0  0  0  0
 24 47  1  0  0  0  0
 27 28  1  0  0  0  0
 27 48  1  0  0  0  0
 27 49  1  0  0  0  0
M  END
> <PUBCHEM_COMPOUND_CID>
128491

> <PUBCHEM_CONFORMER_RMSD>
1

> <PUBCHEM_CONFORMER_DIVERSEORDER>
2
84
150
56
94
73
111
97
127
116
103
83
129
21
131
32
146
6
110
24
76
8
138
109
118
51
95
119
145
5
120
144
122
7
105
50
143
90
9
71
153
22
88
142
135
114
30
154
13
121
98
104
152
1
81
133
125
123
107
87
47
39
45
115
78
99
80
53
63
149
12
132
128
157
15
35
46
156
57
112
140
23
147
16
151
66
155
42
113
27
148
137
37
58
14
79
67
85
139
89
44
4
130
55
91
31
40
20
38
29
100
33
52
18
75
10
26
82
136
61
102
77
69
64
17
101
134
11
126
28
70
25
141
92
65
3
48
34
72
86
59
60
117
106
74
49
62
41
19
68
43
54
124
93
108
96
36

> <PUBCHEM_MMFF94_PARTIAL_CHARGES>
29
1 -0.29
10 -0.34
11 -0.14
12 0.14
13 0.08
15 0.08
16 0.09
17 0.28
18 -0.15
2 -0.08
20 -0.15
22 0.23
23 0.42
24 0.06
25 0.43
26 0.43
27 0.29
28 0.66
3 -0.29
35 0.15
38 0.15
4 -0.36
44 0.45
5 -0.53
50 0.5
6 -0.57
7 -0.65
8 -0.57
9 -0.34

> <PUBCHEM_EFFECTIVE_ROTOR_COUNT>
12

> <PUBCHEM_PHARMACOPHORE_FEATURES>
11
1 10 acceptor
1 21 hydrophobe
1 4 acceptor
1 5 donor
1 6 acceptor
1 7 acceptor
1 8 acceptor
1 9 acceptor
3 7 8 28 anion
5 2 9 10 25 26 rings
6 11 13 15 16 18 20 rings

> <PUBCHEM_HEAVY_ATOM_COUNT>
28

> <PUBCHEM_ATOM_DEF_STEREO_COUNT>
0

> <PUBCHEM_ATOM_UDEF_STEREO_COUNT>
0

> <PUBCHEM_BOND_DEF_STEREO_COUNT>
0

> <PUBCHEM_BOND_UDEF_STEREO_COUNT>
0

> <PUBCHEM_ISOTOPIC_ATOM_COUNT>
0

> <PUBCHEM_COMPONENT_COUNT>
1

> <PUBCHEM_CACTVS_TAUTO_COUNT>
9

> <PUBCHEM_CONFORMER_ID>
0001F5EB00000002

> <PUBCHEM_MMFF94_ENERGY>
57.3813

> <PUBCHEM_FEATURE_SELFOVERLAP>
57.375

> <PUBCHEM_SHAPE_FINGERPRINT>
117089 54 18412833494885717903
12124843 1 18040719160183781999
12645989 146 18410580543662016358
13383661 66 17630904707198362502
13533116 47 18266740371570381069
1361 2 18264486359531449243
1361 4 18268713814474679854
1361 87 17749681804451671747
13690498 29 18114747010714214989
13782708 43 17561355197824811447
13989917 61 18048598424155492395
14251740 57 18340762740999247609
14251764 30 18413107229998395517
14931854 50 17968095296166907453
15183329 4 18265339404635231754
16067689 302 17901672889234361323
17138139 8 18114748110320346496
17492 89 18412261761713684973
17909252 39 18341049726060264353
20775438 99 17979056503757207595
208703 8 18411412938857841895
221357 26 18334014947765892520
22393880 68 17970061150122866116
23569914 2 14203684297394644918
2748736 6 9007060128366513301
7970288 3 18339078194421498517

> <PUBCHEM_SHAPE_MULTIPOLES>
548.47
18.79
5.18
1.34
16.76
0.86
-0.56
-22.11
7.77
3.66
1.01
-1.36
-0.63
-0.12

> <PUBCHEM_SHAPE_SELFOVERLAP>
1094.099

> <PUBCHEM_SHAPE_VOLUME>
326

> <PUBCHEM_COORDINATE_TYPE>
2
5
10

$$$$
