REMARK  Name = 128406
REMARK  10 active torsions:
REMARK  status: ('A' for Active; 'I' for Inactive)
REMARK    1  A    between atoms: C_1  and  N_3
REMARK    2  A    between atoms: C_1  and  C_11
REMARK    3  A    between atoms: C_1  and  C_14
REMARK    4  A    between atoms: C_4  and  C_8
REMARK    5  A    between atoms: N_7  and  C_8
REMARK    6  A    between atoms: N_7  and  O_9
REMARK    7  A    between atoms: C_14  and  O_15
REMARK    8  A    between atoms: C_14  and  C_17
REMARK    9  A    between atoms: C_17  and  C_20
REMARK   10  A    between atoms: C_20  and  O_21
REMARK                            x       y       z     vdW  Elec       q    Type
REMARK                         _______ _______ _______ _____ _____    ______ ____
ROOT
ATOM      1  C   UNL     1      -0.662   1.084   0.114  0.00  0.00    +0.099 C 
ENDROOT
BRANCH   1   3
ATOM      2  O   UNL     1       1.583   0.908   2.016  0.00  0.00    -0.273 OA
ATOM      3  N   UNL     1       0.744   0.849  -0.174  0.00  0.00    -0.302 N 
ATOM      4  C   UNL     1       1.697   0.789   0.807  0.00  0.00    +0.244 C 
ATOM      5  H   UNL     1       1.022   0.728  -1.111  0.00  0.00    +0.149 HD
BRANCH   4   6
ATOM      6  C   UNL     1       3.054   0.553   0.249  0.00  0.00    +0.220 C 
BRANCH   6   8
ATOM      7  O   UNL     1       2.747  -1.648   0.411  0.00  0.00    -0.090 OA
ATOM      8  N   UNL     1       3.493  -0.666   0.086  0.00  0.00    -0.009 NA
BRANCH   8   9
ATOM      9  O   UNL     1       4.824  -0.889  -0.416  0.00  0.00    -0.253 OA
ATOM     10  C   UNL     1       4.903  -2.105  -1.151  0.00  0.00    +0.203 C 
ENDBRANCH   8   9
ENDBRANCH   6   8
ENDBRANCH   4   6
ENDBRANCH   1   3
BRANCH   1  11
ATOM     11  C   UNL     1      -1.121   2.421  -0.519  0.00  0.00    +0.020 C 
ATOM     12  C   UNL     1      -1.113   2.403  -2.050  0.00  0.00    +0.002 C 
ATOM     13  C   UNL     1      -0.271   3.597  -0.018  0.00  0.00    +0.002 C 
ENDBRANCH   1  11
BRANCH   1  14
ATOM     14  C   UNL     1      -1.475  -0.175  -0.283  0.00  0.00    +0.139 C 
BRANCH  14  15
ATOM     15  O   UNL     1      -0.866  -1.305   0.373  0.00  0.00    -0.382 OA
ATOM     16  H   UNL     1       0.082  -1.323   0.171  0.00  0.00    +0.210 HD
ENDBRANCH  14  15
BRANCH  14  17
ATOM     17  C   UNL     1      -2.973  -0.230   0.095  0.00  0.00    +0.127 C 
ATOM     18  C   UNL     1      -3.251   0.201   1.536  0.00  0.00    +0.014 C 
BRANCH  17  20
ATOM     19  O   UNL     1      -4.164  -2.293   0.633  0.00  0.00    -0.250 OA
ATOM     20  C   UNL     1      -3.616  -1.580  -0.198  0.00  0.00    +0.316 C 
BRANCH  20  21
ATOM     21  O   UNL     1      -3.532  -1.915  -1.512  0.00  0.00    -0.480 OA
ATOM     22  H   UNL     1      -3.103  -1.341  -2.115  0.00  0.00    +0.295 HD
ENDBRANCH  20  21
ENDBRANCH  17  20
ENDBRANCH  14  17
ENDBRANCH   1  14
TORSDOF 10
