REMARK  Name = 128486
REMARK  6 active torsions:
REMARK  status: ('A' for Active; 'I' for Inactive)
REMARK    1  A    between atoms: C_1  and  N_2
REMARK    2  A    between atoms: C_1  and  C_11
REMARK    3  A    between atoms: N_3  and  C_10
REMARK    4  A    between atoms: C_11  and  S_12
REMARK    5  A    between atoms: S_12  and  C_13
REMARK    6  A    between atoms: C_13  and  C_16
REMARK                            x       y       z     vdW  Elec       q    Type
REMARK                         _______ _______ _______ _____ _____    ______ ____
ROOT
ATOM      1  C   UNL     1      -1.795  -1.742   0.595  0.00  0.00    +0.112 C 
ENDROOT
BRANCH   1   2
ATOM      2  N   UNL     1      -2.341  -0.429   0.339  0.00  0.00    -0.344 N 
ATOM      3  N   UNL     1      -4.000   1.186  -0.326  0.00  0.00    -0.263 N 
ATOM      4  N   UNL     1      -4.454  -1.167  -0.375  0.00  0.00    -0.237 NA
ATOM      5  C   UNL     1      -3.626  -0.198  -0.128  0.00  0.00    +0.208 C 
ATOM      6  C   UNL     1      -5.790  -0.869  -0.864  0.00  0.00    +0.155 C 
ATOM      7  H   UNL     1      -1.765   0.352   0.507  0.00  0.00    +0.163 HD
ATOM      8  H   UNL     1      -4.898   1.417  -0.656  0.00  0.00    +0.181 HD
BRANCH   3  10
ATOM      9  N   UNL     1      -2.341   2.992   0.174  0.00  0.00    -0.171 NA
ATOM     10  C   UNL     1      -3.106   2.151  -0.056  0.00  0.00    +0.184 C 
ENDBRANCH   3  10
ENDBRANCH   1   2
BRANCH   1  11
ATOM     11  C   UNL     1      -0.364  -1.658   1.111  0.00  0.00    +0.082 C 
BRANCH  11  12
ATOM     12  S   UNL     1       0.760  -0.884  -0.093  0.00  0.00    -0.130 S 
BRANCH  12  13
ATOM     13  C   UNL     1       2.299  -1.066   0.836  0.00  0.00    +0.119 C 
BRANCH  13  16
ATOM     14  N   UNL     1       3.831   0.797   0.214  0.00  0.00    -0.271 N 
ATOM     15  N   UNL     1       4.207  -1.164  -0.759  0.00  0.00    -0.231 NA
ATOM     16  C   UNL     1       3.463  -0.499   0.076  0.00  0.00    +0.123 C 
ATOM     17  C   UNL     1       4.910   0.986  -0.604  0.00  0.00    +0.087 C 
ATOM     18  C   UNL     1       3.225   1.804   1.053  0.00  0.00    +0.119 C 
ATOM     19  C   UNL     1       5.122  -0.238  -1.193  0.00  0.00    +0.116 C 
ENDBRANCH  13  16
ENDBRANCH  12  13
ENDBRANCH  11  12
ENDBRANCH   1  11
TORSDOF 6
