REMARK  Name = 128433
REMARK  8 active torsions:
REMARK  status: ('A' for Active; 'I' for Inactive)
REMARK    1  A    between atoms: C_5  and  O_14
REMARK    2  A    between atoms: C_6  and  O_16
REMARK    3  A    between atoms: C_7  and  N_11
REMARK    4  A    between atoms: C_8  and  O_19
REMARK    5  A    between atoms: C_9  and  O_22
REMARK    6  A    between atoms: O_16  and  C_17
REMARK    7  A    between atoms: O_19  and  C_20
REMARK    8  A    between atoms: O_22  and  C_23
REMARK                            x       y       z     vdW  Elec       q    Type
REMARK                         _______ _______ _______ _____ _____    ______ ____
ROOT
ATOM      1  O   UNL     1      -3.554  -0.588  -0.041  0.00  0.00    -0.417 OA
ATOM      2  O   UNL     1      -3.029  -2.833   0.050  0.00  0.00    -0.245 OA
ATOM      3  C   UNL     1      -1.434   0.261   0.012  0.00  0.00    +0.092 A 
ATOM      4  C   UNL     1      -1.359  -1.116   0.053  0.00  0.00    +0.097 A 
ATOM      5  C   UNL     1      -2.851   0.683  -0.048  0.00  0.00    +0.315 C 
ATOM      6  C   UNL     1      -0.280   1.025   0.020  0.00  0.00    +0.177 A 
ATOM      7  C   UNL     1      -0.158  -1.798   0.110  0.00  0.00    +0.085 A 
ATOM      8  C   UNL     1       0.952   0.365   0.077  0.00  0.00    +0.207 A 
ATOM      9  C   UNL     1       1.012  -1.038   0.122  0.00  0.00    +0.188 A 
ATOM     10  C   UNL     1      -2.707  -1.662   0.025  0.00  0.00    +0.345 C 
ENDROOT
BRANCH   7  11
ATOM     11  N   UNL     1      -0.105  -3.203   0.153  0.00  0.00    -0.354 N 
ATOM     12  H   UNL     1      -0.938  -3.727   0.143  0.00  0.00    +0.142 HD
ATOM     13  H   UNL     1       0.765  -3.662   0.193  0.00  0.00    +0.142 HD
ENDBRANCH   7  11
BRANCH   5  14
ATOM     14  O   UNL     1      -3.246   1.491   1.048  0.00  0.00    -0.347 OA
ATOM     15  H   UNL     1      -4.180   1.734   0.952  0.00  0.00    +0.214 HD
ENDBRANCH   5  14
BRANCH   6  16
ATOM     16  O   UNL     1      -0.345   2.381  -0.028  0.00  0.00    -0.472 OA
BRANCH  16  17
ATOM     17  C   UNL     1      -0.338   2.989  -1.320  0.00  0.00    +0.206 C 
ATOM     18  C   UNL     1      -0.431   4.491  -1.159  0.00  0.00    +0.051 C 
ENDBRANCH  16  17
ENDBRANCH   6  16
BRANCH   8  19
ATOM     19  O   UNL     1       2.107   1.093   0.088  0.00  0.00    -0.469 OA
BRANCH  19  20
ATOM     20  C   UNL     1       2.616   1.477   1.362  0.00  0.00    +0.206 C 
ATOM     21  C   UNL     1       3.899   2.257   1.165  0.00  0.00    +0.051 C 
ENDBRANCH  19  20
ENDBRANCH   8  19
BRANCH   9  22
ATOM     22  O   UNL     1       2.229  -1.654   0.177  0.00  0.00    -0.471 OA
BRANCH  22  23
ATOM     23  C   UNL     1       2.842  -1.982  -1.067  0.00  0.00    +0.206 C 
ATOM     24  C   UNL     1       4.180  -2.639  -0.799  0.00  0.00    +0.051 C 
ENDBRANCH  22  23
ENDBRANCH   9  22
TORSDOF 8
