128407
  -OEChem-03292013323D

 42 41  0     1  0  0  0  0  0999 V2000
   -1.6933    0.0876    2.1935 O   0  0  0  0  0  0  0  0  0  0  0  0
   -0.3427   -1.8121   -1.8447 O   0  0  0  0  0  0  0  0  0  0  0  0
   -2.6021   -1.6763   -1.7253 O   0  0  0  0  0  0  0  0  0  0  0  0
    0.9018    1.0471   -2.0106 O   0  0  0  0  0  0  0  0  0  0  0  0
    4.5410   -0.0091    0.3187 O   0  0  0  0  0  0  0  0  0  0  0  0
    2.5322   -1.1065   -0.2593 O   0  5  0  0  0  0  0  0  0  0  0  0
    0.2844    1.2040    0.2487 N   0  0  0  0  0  0  0  0  0  0  0  0
    3.1747   -0.0118   -0.1360 N   0  3  0  0  0  0  0  0  0  0  0  0
   -1.1536    1.2134    0.0959 C   0  0  1  0  0  0  0  0  0  0  0  0
   -1.8094   -0.0156    0.7737 C   0  0  1  0  0  0  0  0  0  0  0  0
   -1.7587    2.5688    0.5624 C   0  0  0  0  0  0  0  0  0  0  0  0
   -1.2917   -1.4051    0.3189 C   0  0  1  0  0  0  0  0  0  0  0  0
   -1.9081   -2.5446    1.1550 C   0  0  0  0  0  0  0  0  0  0  0  0
   -3.2825    2.5830    0.3779 C   0  0  0  0  0  0  0  0  0  0  0  0
   -1.1543    3.8045   -0.1094 C   0  0  0  0  0  0  0  0  0  0  0  0
   -1.5105   -1.6419   -1.1720 C   0  0  0  0  0  0  0  0  0  0  0  0
   -1.3057   -3.9053    0.8221 C   0  0  0  0  0  0  0  0  0  0  0  0
    1.1465    1.1223   -0.8176 C   0  0  0  0  0  0  0  0  0  0  0  0
    2.5702    1.1171   -0.3895 C   0  0  0  0  0  0  0  0  0  0  0  0
    4.6620   -0.6195    1.5975 C   0  0  0  0  0  0  0  0  0  0  0  0
   -1.3647    1.1319   -0.9787 H   0  0  0  0  0  0  0  0  0  0  0  0
   -2.8828   -0.0038    0.5554 H   0  0  0  0  0  0  0  0  0  0  0  0
   -1.5591    2.6790    1.6372 H   0  0  0  0  0  0  0  0  0  0  0  0
   -0.2112   -1.4374    0.5118 H   0  0  0  0  0  0  0  0  0  0  0  0
   -1.7505   -2.3631    2.2240 H   0  0  0  0  0  0  0  0  0  0  0  0
   -2.9917   -2.5863    0.9908 H   0  0  0  0  0  0  0  0  0  0  0  0
    0.6628    1.2650    1.1896 H   0  0  0  0  0  0  0  0  0  0  0  0
   -3.5605    2.3271   -0.6499 H   0  0  0  0  0  0  0  0  0  0  0  0
   -3.6909    3.5759    0.5974 H   0  0  0  0  0  0  0  0  0  0  0  0
   -3.7809    1.8876    1.0593 H   0  0  0  0  0  0  0  0  0  0  0  0
   -1.2935    3.7668   -1.1950 H   0  0  0  0  0  0  0  0  0  0  0  0
   -0.0813    3.8808    0.0931 H   0  0  0  0  0  0  0  0  0  0  0  0
   -1.6223    4.7225    0.2618 H   0  0  0  0  0  0  0  0  0  0  0  0
   -0.7463    0.0614    2.4124 H   0  0  0  0  0  0  0  0  0  0  0  0
   -1.5194   -4.1990   -0.2100 H   0  0  0  0  0  0  0  0  0  0  0  0
   -0.2201   -3.8988    0.9630 H   0  0  0  0  0  0  0  0  0  0  0  0
   -1.7275   -4.6724    1.4794 H   0  0  0  0  0  0  0  0  0  0  0  0
   -0.4912   -1.9613   -2.8028 H   0  0  0  0  0  0  0  0  0  0  0  0
    3.0900    2.0774   -0.2783 H   0  0  0  0  0  0  0  0  0  0  0  0
    3.9797   -0.1482    2.3116 H   0  0  0  0  0  0  0  0  0  0  0  0
    5.6881   -0.4830    1.9489 H   0  0  0  0  0  0  0  0  0  0  0  0
    4.4554   -1.6914    1.5277 H   0  0  0  0  0  0  0  0  0  0  0  0
  1 10  1  0  0  0  0
  1 34  1  0  0  0  0
  2 16  1  0  0  0  0
  2 38  1  0  0  0  0
  3 16  2  0  0  0  0
  4 18  2  0  0  0  0
  5  8  1  0  0  0  0
  5 20  1  0  0  0  0
  6  8  1  0  0  0  0
  7  9  1  0  0  0  0
  7 18  1  0  0  0  0
  7 27  1  0  0  0  0
  8 19  2  3  0  0  0
  9 10  1  0  0  0  0
  9 11  1  0  0  0  0
  9 21  1  0  0  0  0
 10 12  1  0  0  0  0
 10 22  1  0  0  0  0
 11 14  1  0  0  0  0
 11 15  1  0  0  0  0
 11 23  1  0  0  0  0
 12 13  1  0  0  0  0
 12 16  1  0  0  0  0
 12 24  1  0  0  0  0
 13 17  1  0  0  0  0
 13 25  1  0  0  0  0
 13 26  1  0  0  0  0
 14 28  1  0  0  0  0
 14 29  1  0  0  0  0
 14 30  1  0  0  0  0
 15 31  1  0  0  0  0
 15 32  1  0  0  0  0
 15 33  1  0  0  0  0
 17 35  1  0  0  0  0
 17 36  1  0  0  0  0
 17 37  1  0  0  0  0
 18 19  1  0  0  0  0
 19 39  1  0  0  0  0
 20 40  1  0  0  0  0
 20 41  1  0  0  0  0
 20 42  1  0  0  0  0
M  CHG  2   6  -1   8   1
M  END
> <PUBCHEM_COMPOUND_CID>
128407

> <PUBCHEM_CONFORMER_RMSD>
0.8

> <PUBCHEM_CONFORMER_DIVERSEORDER>
2
48
46
60
22
8
30
64
39
31
3
61
24
26
12
50
51
58
17
11
57
42
35
5
63
14
6
41
34
16
55
54
49
32
40
56
65
23
43
44
13
20
33
62
36
47
21
25
28
15
53
9
38
1
18
10
59
45
52
4
29
27
37
7
19

> <PUBCHEM_MMFF94_PARTIAL_CHARGES>
19
1 -0.68
10 0.28
12 0.06
16 0.66
18 0.63
19 -0.06
2 -0.65
20 0.28
27 0.37
3 -0.57
34 0.4
38 0.5
39 0.06
4 -0.57
5 -0.42
6 -0.63
7 -0.73
8 0.77
9 0.3

> <PUBCHEM_EFFECTIVE_ROTOR_COUNT>
9

> <PUBCHEM_PHARMACOPHORE_FEATURES>
10
1 1 acceptor
1 1 donor
1 17 hydrophobe
1 2 acceptor
1 3 acceptor
1 4 acceptor
1 6 anion
1 7 donor
3 11 14 15 hydrophobe
3 2 3 16 anion

> <PUBCHEM_HEAVY_ATOM_COUNT>
20

> <PUBCHEM_ATOM_DEF_STEREO_COUNT>
0

> <PUBCHEM_ATOM_UDEF_STEREO_COUNT>
0

> <PUBCHEM_BOND_DEF_STEREO_COUNT>
0

> <PUBCHEM_BOND_UDEF_STEREO_COUNT>
1

> <PUBCHEM_ISOTOPIC_ATOM_COUNT>
0

> <PUBCHEM_COMPONENT_COUNT>
1

> <PUBCHEM_CACTVS_TAUTO_COUNT>
2

> <PUBCHEM_CONFORMER_ID>
0001F59700000002

> <PUBCHEM_MMFF94_ENERGY>
35.1557

> <PUBCHEM_FEATURE_SELFOVERLAP>
50.807

> <PUBCHEM_SHAPE_FINGERPRINT>
12553582 1 18122922072565113346
12592029 89 17976829679304644297
12788726 201 18411134761877794457
13004483 165 18127108978378282228
15852999 172 18126299548878887061
16945 1 18192176891078168453
19930374 2 18130522889100094453
20600515 1 16484995028195145359
20905425 154 16678392062520595815
21524375 3 18125443012315216089
23402539 116 18271515425847007765
23526113 38 17687715630748449839
23598288 3 18043557046797176036
23728640 28 18335981978257073226
257057 1 18049448337573111761
2748010 2 17836397880872572109
5845 1 12759432905666733853
58807428 26 18121229679436088473
59755656 215 17614295364116201805
69090 78 18339359634938763545
7364860 26 17190105921145176413
81228 2 18342742961366921737

> <PUBCHEM_SHAPE_MULTIPOLES>
366.41
5.81
4.26
1.64
9.46
0.64
0.27
-0.47
-2.04
-4.49
-0.5
-0.17
0.69
-0.76

> <PUBCHEM_SHAPE_SELFOVERLAP>
705.603

> <PUBCHEM_SHAPE_VOLUME>
222.9

> <PUBCHEM_COORDINATE_TYPE>
2
5
10

$$$$
