REMARK  Name = 128448
REMARK  3 active torsions:
REMARK  status: ('A' for Active; 'I' for Inactive)
REMARK    1  A    between atoms: C_5  and  C_24
REMARK    2  A    between atoms: C_19  and  O_29
REMARK    3  A    between atoms: C_24  and  C_27
REMARK                            x       y       z     vdW  Elec       q    Type
REMARK                         _______ _______ _______ _____ _____    ______ ____
ROOT
ATOM      1  O   UNL     1       1.518   0.286   0.193  0.00  0.00    -0.455 OA
ATOM      2  O   UNL     1       3.118  -3.437  -0.026  0.00  0.00    -0.286 OA
ATOM      3  O   UNL     1      -0.529   1.788   0.227  0.00  0.00    -0.286 OA
ATOM      4  O   UNL     1      -3.819  -2.394  -0.221  0.00  0.00    -0.287 OA
ATOM      5  C   UNL     1       2.894   0.086   0.232  0.00  0.00    +0.155 C 
ATOM      6  C   UNL     1       3.451  -1.135   0.161  0.00  0.00    +0.078 C 
ATOM      7  C   UNL     1       0.667  -0.786   0.078  0.00  0.00    +0.151 C 
ATOM      8  C   UNL     1       1.151  -2.095  -0.002  0.00  0.00    +0.070 C 
ATOM      9  C   UNL     1       2.601  -2.330   0.037  0.00  0.00    +0.201 C 
ATOM     10  C   UNL     1      -0.722  -0.550   0.041  0.00  0.00    +0.077 C 
ATOM     11  C   UNL     1       0.275  -3.174  -0.119  0.00  0.00    -0.016 C 
ATOM     12  C   UNL     1      -1.598  -1.637  -0.076  0.00  0.00    +0.045 C 
ATOM     13  C   UNL     1      -1.098  -2.944  -0.156  0.00  0.00    -0.001 C 
ATOM     14  C   UNL     1      -1.279   0.826   0.124  0.00  0.00    +0.202 C 
ATOM     15  C   UNL     1      -3.062  -1.437  -0.119  0.00  0.00    +0.196 C 
ATOM     16  C   UNL     1      -2.743   1.022   0.081  0.00  0.00    +0.076 C 
ATOM     17  C   UNL     1      -3.603  -0.069  -0.036  0.00  0.00    +0.045 C 
ATOM     18  C   UNL     1       0.719  -4.598  -0.209  0.00  0.00    +0.031 C 
ATOM     19  C   UNL     1      -3.271   2.318   0.159  0.00  0.00    +0.137 C 
ATOM     20  C   UNL     1      -4.989   0.131  -0.075  0.00  0.00    +0.003 C 
ATOM     21  C   UNL     1      -4.652   2.514   0.120  0.00  0.00    +0.037 C 
ATOM     22  C   UNL     1      -5.509   1.423   0.003  0.00  0.00    +0.003 C 
ENDROOT
BRANCH   5  24
ATOM     23  O   UNL     1       3.459   2.261   1.382  0.00  0.00    -0.343 OA
ATOM     24  C   UNL     1       3.716   1.314   0.355  0.00  0.00    +0.197 C 
ATOM     25  C   UNL     1       4.594   1.403   1.556  0.00  0.00    +0.180 C 
BRANCH  24  27
ATOM     26  O   UNL     1       4.051   3.309  -1.099  0.00  0.00    -0.348 OA
ATOM     27  C   UNL     1       4.061   1.879  -0.994  0.00  0.00    +0.179 C 
ATOM     28  C   UNL     1       3.093   2.596  -1.892  0.00  0.00    +0.175 C 
ENDBRANCH  24  27
ENDBRANCH   5  24
BRANCH  19  29
ATOM     29  O   UNL     1      -2.492   3.431   0.275  0.00  0.00    -0.505 OA
ATOM     30  H   UNL     1      -1.559   3.349   0.306  0.00  0.00    +0.292 HD
ENDBRANCH  19  29
TORSDOF 3
