128406
  -OEChem-03292013323D

 39 38  0     1  0  0  0  0  0999 V2000
   -0.8662   -1.3046    0.3726 O   0  0  0  0  0  0  0  0  0  0  0  0
   -3.5319   -1.9155   -1.5115 O   0  0  0  0  0  0  0  0  0  0  0  0
   -4.1643   -2.2927    0.6329 O   0  0  0  0  0  0  0  0  0  0  0  0
    1.5825    0.9085    2.0161 O   0  0  0  0  0  0  0  0  0  0  0  0
    4.8240   -0.8892   -0.4160 O   0  0  0  0  0  0  0  0  0  0  0  0
    2.7470   -1.6478    0.4110 O   0  5  0  0  0  0  0  0  0  0  0  0
    0.7441    0.8492   -0.1743 N   0  0  0  0  0  0  0  0  0  0  0  0
    3.4931   -0.6659    0.0861 N   0  3  0  0  0  0  0  0  0  0  0  0
   -0.6623    1.0844    0.1135 C   0  0  2  0  0  0  0  0  0  0  0  0
   -1.4749   -0.1749   -0.2834 C   0  0  2  0  0  0  0  0  0  0  0  0
   -1.1209    2.4205   -0.5186 C   0  0  0  0  0  0  0  0  0  0  0  0
   -2.9730   -0.2303    0.0954 C   0  0  2  0  0  0  0  0  0  0  0  0
   -1.1134    2.4030   -2.0505 C   0  0  0  0  0  0  0  0  0  0  0  0
   -0.2708    3.5967   -0.0175 C   0  0  0  0  0  0  0  0  0  0  0  0
   -3.2508    0.2014    1.5363 C   0  0  0  0  0  0  0  0  0  0  0  0
   -3.6157   -1.5802   -0.1975 C   0  0  0  0  0  0  0  0  0  0  0  0
    1.6968    0.7892    0.8073 C   0  0  0  0  0  0  0  0  0  0  0  0
    3.0540    0.5527    0.2486 C   0  0  0  0  0  0  0  0  0  0  0  0
    4.9028   -2.1046   -1.1505 C   0  0  0  0  0  0  0  0  0  0  0  0
   -0.7360    1.1925    1.2029 H   0  0  0  0  0  0  0  0  0  0  0  0
   -1.3677   -0.3667   -1.3577 H   0  0  0  0  0  0  0  0  0  0  0  0
   -2.1538    2.6077   -0.1994 H   0  0  0  0  0  0  0  0  0  0  0  0
   -3.5063    0.4906   -0.5397 H   0  0  0  0  0  0  0  0  0  0  0  0
    1.0184    0.7149   -1.1433 H   0  0  0  0  0  0  0  0  0  0  0  0
   -1.4603    3.3643   -2.4458 H   0  0  0  0  0  0  0  0  0  0  0  0
   -0.1112    2.2229   -2.4518 H   0  0  0  0  0  0  0  0  0  0  0  0
   -1.7840    1.6328   -2.4428 H   0  0  0  0  0  0  0  0  0  0  0  0
   -0.6893    4.5468   -0.3674 H   0  0  0  0  0  0  0  0  0  0  0  0
    0.7619    3.5391   -0.3769 H   0  0  0  0  0  0  0  0  0  0  0  0
   -0.2536    3.6261    1.0771 H   0  0  0  0  0  0  0  0  0  0  0  0
   -2.9768    1.2468    1.7054 H   0  0  0  0  0  0  0  0  0  0  0  0
   -2.6995   -0.4196    2.2505 H   0  0  0  0  0  0  0  0  0  0  0  0
   -4.3165    0.1067    1.7742 H   0  0  0  0  0  0  0  0  0  0  0  0
    0.0546   -1.3564    0.0646 H   0  0  0  0  0  0  0  0  0  0  0  0
    3.6722    1.4197   -0.0177 H   0  0  0  0  0  0  0  0  0  0  0  0
   -3.9537   -2.7819   -1.6950 H   0  0  0  0  0  0  0  0  0  0  0  0
    4.8019   -2.9633   -0.4803 H   0  0  0  0  0  0  0  0  0  0  0  0
    5.8860   -2.1526   -1.6263 H   0  0  0  0  0  0  0  0  0  0  0  0
    4.1373   -2.1342   -1.9320 H   0  0  0  0  0  0  0  0  0  0  0  0
  1 10  1  0  0  0  0
  1 34  1  0  0  0  0
  2 16  1  0  0  0  0
  2 36  1  0  0  0  0
  3 16  2  0  0  0  0
  4 17  2  0  0  0  0
  5  8  1  0  0  0  0
  5 19  1  0  0  0  0
  6  8  1  0  0  0  0
  7  9  1  0  0  0  0
  7 17  1  0  0  0  0
  7 24  1  0  0  0  0
  8 18  2  3  0  0  0
  9 10  1  0  0  0  0
  9 11  1  0  0  0  0
  9 20  1  0  0  0  0
 10 12  1  0  0  0  0
 10 21  1  0  0  0  0
 11 13  1  0  0  0  0
 11 14  1  0  0  0  0
 11 22  1  0  0  0  0
 12 15  1  0  0  0  0
 12 16  1  0  0  0  0
 12 23  1  0  0  0  0
 13 25  1  0  0  0  0
 13 26  1  0  0  0  0
 13 27  1  0  0  0  0
 14 28  1  0  0  0  0
 14 29  1  0  0  0  0
 14 30  1  0  0  0  0
 15 31  1  0  0  0  0
 15 32  1  0  0  0  0
 15 33  1  0  0  0  0
 17 18  1  0  0  0  0
 18 35  1  0  0  0  0
 19 37  1  0  0  0  0
 19 38  1  0  0  0  0
 19 39  1  0  0  0  0
M  CHG  2   6  -1   8   1
M  END
> <PUBCHEM_COMPOUND_CID>
128406

> <PUBCHEM_CONFORMER_RMSD>
0.8

> <PUBCHEM_CONFORMER_DIVERSEORDER>
1
28
21
34
50
4
33
40
31
13
9
46
49
39
41
10
47
42
22
18
52
15
44
8
24
5
25
29
45
17
37
48
16
30
38
43
19
23
51
7
14
32
20
2
12
36
11
27
35
6
3
26

> <PUBCHEM_MMFF94_PARTIAL_CHARGES>
19
1 -0.68
10 0.28
12 0.06
16 0.66
17 0.63
18 -0.06
19 0.28
2 -0.65
24 0.37
3 -0.57
34 0.4
35 0.06
36 0.5
4 -0.57
5 -0.42
6 -0.63
7 -0.73
8 0.77
9 0.3

> <PUBCHEM_EFFECTIVE_ROTOR_COUNT>
8

> <PUBCHEM_PHARMACOPHORE_FEATURES>
10
1 1 acceptor
1 1 donor
1 15 hydrophobe
1 2 acceptor
1 3 acceptor
1 4 acceptor
1 6 anion
1 7 donor
3 11 13 14 hydrophobe
3 2 3 16 anion

> <PUBCHEM_HEAVY_ATOM_COUNT>
19

> <PUBCHEM_ATOM_DEF_STEREO_COUNT>
0

> <PUBCHEM_ATOM_UDEF_STEREO_COUNT>
0

> <PUBCHEM_BOND_DEF_STEREO_COUNT>
0

> <PUBCHEM_BOND_UDEF_STEREO_COUNT>
1

> <PUBCHEM_ISOTOPIC_ATOM_COUNT>
0

> <PUBCHEM_COMPONENT_COUNT>
1

> <PUBCHEM_CACTVS_TAUTO_COUNT>
2

> <PUBCHEM_CONFORMER_ID>
0001F59600000001

> <PUBCHEM_MMFF94_ENERGY>
35.5346

> <PUBCHEM_FEATURE_SELFOVERLAP>
50.811

> <PUBCHEM_SHAPE_FINGERPRINT>
10968037 57 18272655631925740903
11543360 7 14129054846152043043
12186901 62 18042406820280127460
12553582 1 18261108573558433627
12633257 1 16343152427812109035
12714826 92 18269271275232374216
12892183 10 17560519619957356817
13533116 47 18052822743871823411
13583140 156 14908173136375037543
14178000 29 18339080509514385503
14251731 5 18341615927451419846
14251751 93 18191307066165245450
14252887 29 18265328602217495792
16752209 62 17823398453512604761
17357779 13 18263062436007139869
1813 80 18334303101416449741
19141452 34 18201443549686977947
19784866 34 9078850566843719399
20281475 54 18273218603506550608
20645477 70 17829030358845909471
20871998 22 18338230586942127761
20871999 31 18188210892971442676
21713013 43 18338802204666690134
22620623 9 18261377915558553237
22907989 373 18261951826136703884
23402539 116 18113898252024190290
23526113 38 17024592419942148553
23557571 272 18338238154663564492
23559900 14 18338505366502738756
2748010 2 18266995358840218432
2871803 45 18334570240003608522
31174 14 17916854854688608560
3286 77 17632292418977192386
57003041 14 18272652316379787096
58051976 100 18263646160844102060
6049 1 18270668793356355192
7364860 26 17832143093027488945
81228 2 18114727266570135377

> <PUBCHEM_SHAPE_MULTIPOLES>
345.83
8.27
3.25
1.42
7.3
1.82
-0.11
-8.46
-1.05
-1.44
-1.03
-0.36
0.35
0.9

> <PUBCHEM_SHAPE_SELFOVERLAP>
668.377

> <PUBCHEM_SHAPE_VOLUME>
209.7

> <PUBCHEM_COORDINATE_TYPE>
2
5
10

$$$$
