REMARK  Name = 128453
REMARK  15 active torsions:
REMARK  status: ('A' for Active; 'I' for Inactive)
REMARK    1  A    between atoms: C_1  and  N_2
REMARK    2  A    between atoms: C_1  and  C_6
REMARK    3  A    between atoms: C_1  and  C_17
REMARK    4  A    between atoms: C_6  and  C_7
REMARK    5  A    between atoms: C_7  and  C_8
REMARK    6  A    between atoms: C_8  and  N_9
REMARK    7  A    between atoms: N_9  and  C_12
REMARK    8  A    between atoms: C_17  and  O_18
REMARK    9  A    between atoms: C_17  and  O_23
REMARK   10  A    between atoms: O_18  and  C_19
REMARK   11  A    between atoms: C_19  and  C_20
REMARK   12  A    between atoms: C_20  and  C_21
REMARK   13  A    between atoms: O_23  and  C_24
REMARK   14  A    between atoms: C_24  and  C_25
REMARK   15  A    between atoms: C_25  and  C_26
REMARK                            x       y       z     vdW  Elec       q    Type
REMARK                         _______ _______ _______ _____ _____    ______ ____
ROOT
ATOM      1  C   UNL     1      -0.818   1.023   1.085  0.00  0.00    -0.008 C 
ENDROOT
BRANCH   1   2
ATOM      2  N   UNL     1      -1.154   0.576   2.440  0.00  0.00    +0.385 N 
ATOM      3  H   UNL     1      -0.888   1.296   3.112  0.00  0.00    -0.089 HD
ATOM      4  H   UNL     1      -0.650  -0.286   2.648  0.00  0.00    -0.089 HD
ATOM      5  H   UNL     1      -2.158   0.406   2.503  0.00  0.00    -0.089 HD
ENDBRANCH   1   2
BRANCH   1   6
ATOM      6  C   UNL     1       0.677   1.393   0.961  0.00  0.00    -0.015 C 
BRANCH   6   7
ATOM      7  C   UNL     1       1.063   1.906  -0.434  0.00  0.00    +0.024 C 
BRANCH   7   8
ATOM      8  C   UNL     1       2.548   2.240  -0.539  0.00  0.00    +0.129 C 
BRANCH   8   9
ATOM      9  N   UNL     1       3.351   1.046  -0.270  0.00  0.00    -0.240 NA
BRANCH   9  12
ATOM     10  N   UNL     1       5.355   2.330  -0.595  0.00  0.00    -0.370 N 
ATOM     11  N   UNL     1       5.463   0.113  -0.078  0.00  0.00    -0.370 N 
ATOM     12  C   UNL     1       4.639   1.186  -0.319  0.00  0.00    +0.189 C 
ATOM     13  H   UNL     1       4.883   3.172  -0.786  0.00  0.00    +0.159 HD
ATOM     14  H   UNL     1       6.339   2.305  -0.601  0.00  0.00    +0.159 HD
ATOM     15  H   UNL     1       5.076  -0.768   0.133  0.00  0.00    +0.159 HD
ATOM     16  H   UNL     1       6.441   0.224  -0.116  0.00  0.00    +0.159 HD
ENDBRANCH   9  12
ENDBRANCH   8   9
ENDBRANCH   7   8
ENDBRANCH   6   7
ENDBRANCH   1   6
BRANCH   1  17
ATOM     17  C   UNL     1      -1.231  -0.085   0.088  0.00  0.00    +0.214 C 
BRANCH  17  18
ATOM     18  O   UNL     1      -0.420  -1.245   0.331  0.00  0.00    -0.332 OA
BRANCH  18  19
ATOM     19  C   UNL     1      -0.378  -2.120  -0.789  0.00  0.00    +0.145 C 
BRANCH  19  20
ATOM     20  C   UNL     1       0.499  -3.316  -0.446  0.00  0.00    +0.032 C 
BRANCH  20  21
ATOM     21  C   UNL     1       1.919  -2.889  -0.088  0.00  0.00    +0.003 C 
ATOM     22  C   UNL     1       2.780  -4.082   0.296  0.00  0.00    +0.000 C 
ENDBRANCH  20  21
ENDBRANCH  19  20
ENDBRANCH  18  19
ENDBRANCH  17  18
BRANCH  17  23
ATOM     23  O   UNL     1      -2.620  -0.394   0.267  0.00  0.00    -0.332 OA
BRANCH  23  24
ATOM     24  C   UNL     1      -3.484   0.531  -0.379  0.00  0.00    +0.145 C 
BRANCH  24  25
ATOM     25  C   UNL     1      -4.926   0.114  -0.128  0.00  0.00    +0.032 C 
BRANCH  25  26
ATOM     26  C   UNL     1      -5.912   1.059  -0.810  0.00  0.00    +0.003 C 
ATOM     27  C   UNL     1      -7.350   0.615  -0.593  0.00  0.00    +0.000 C 
ENDBRANCH  25  26
ENDBRANCH  24  25
ENDBRANCH  23  24
ENDBRANCH  17  23
ENDBRANCH   1  17
TORSDOF 15
