REMARK  Name = 128443
REMARK  9 active torsions:
REMARK  status: ('A' for Active; 'I' for Inactive)
REMARK    1  A    between atoms: C_2  and  C_10
REMARK    2  A    between atoms: C_3  and  C_22
REMARK    3  A    between atoms: C_4  and  C_36
REMARK    4  A    between atoms: C_13  and  N_18
REMARK    5  A    between atoms: C_23  and  C_24
REMARK    6  A    between atoms: C_24  and  N_25
REMARK    7  A    between atoms: N_25  and  C_28
REMARK    8  A    between atoms: C_28  and  C_29
REMARK    9  A    between atoms: C_36  and  O_37
REMARK                            x       y       z     vdW  Elec       q    Type
REMARK                         _______ _______ _______ _____ _____    ______ ____
ROOT
ATOM      1  N   UNL     1      -4.429   1.597  -0.626  0.00  0.00    -0.334 N 
ATOM      2  C   UNL     1      -2.239   0.194   0.478  0.00  0.00    +0.010 C 
ATOM      3  C   UNL     1      -2.106   1.633  -0.087  0.00  0.00    +0.065 C 
ATOM      4  C   UNL     1      -3.673  -0.331   0.508  0.00  0.00    +0.085 C 
ATOM      5  C   UNL     1      -3.204   2.243  -0.611  0.00  0.00    +0.098 C 
ATOM      6  C   UNL     1      -4.685   0.363  -0.055  0.00  0.00    +0.028 C 
ATOM      7  C   UNL     1      -3.228   3.630  -1.208  0.00  0.00    +0.026 C 
ATOM      8  C   UNL     1      -6.120  -0.084  -0.123  0.00  0.00    +0.047 C 
ATOM      9  H   UNL     1      -5.176   2.051  -1.079  0.00  0.00    +0.147 HD
ENDROOT
BRANCH   2  10
ATOM     10  C   UNL     1      -1.360  -0.736  -0.309  0.00  0.00    +0.002 C 
ATOM     11  C   UNL     1      -0.302  -1.380   0.320  0.00  0.00    +0.024 C 
ATOM     12  C   UNL     1      -1.617  -0.944  -1.659  0.00  0.00    +0.000 C 
ATOM     13  C   UNL     1       0.512  -2.245  -0.411  0.00  0.00    +0.143 C 
ATOM     14  C   UNL     1      -0.803  -1.809  -2.391  0.00  0.00    +0.002 C 
ATOM     15  C   UNL     1       0.262  -2.459  -1.767  0.00  0.00    +0.024 C 
BRANCH  13  18
ATOM     16  O   UNL     1       2.314  -3.683  -0.452  0.00  0.00    -0.126 OA
ATOM     17  O   UNL     1       1.804  -2.701   1.444  0.00  0.00    -0.126 OA
ATOM     18  N   UNL     1       1.595  -2.908   0.224  0.00  0.00    +0.058 N 
ENDBRANCH  13  18
ENDBRANCH   2  10
BRANCH   3  22
ATOM     19  O   UNL     1      -0.596   3.283  -0.996  0.00  0.00    -0.312 OA
ATOM     20  N   UNL     1       0.052   2.184   0.845  0.00  0.00    -0.315 NA
ATOM     21  N   UNL     1       0.671   3.784  -0.668  0.00  0.00    -0.013 NA
ATOM     22  C   UNL     1      -0.884   2.346  -0.055  0.00  0.00    +0.314 C 
ATOM     23  C   UNL     1       0.986   3.087   0.428  0.00  0.00    +0.083 C 
BRANCH  23  24
ATOM     24  C   UNL     1       2.256   3.283   1.135  0.00  0.00    +0.042 C 
BRANCH  24  25
ATOM     25  N   UNL     1       3.336   2.408   0.644  0.00  0.00    +0.398 N 
ATOM     26  C   UNL     1       4.563   2.660   1.393  0.00  0.00    -0.099 C 
ATOM     27  H   UNL     1       3.513   2.614  -0.339  0.00  0.00    -0.078 HD
BRANCH  25  28
ATOM     28  C   UNL     1       2.937   1.010   0.756  0.00  0.00    -0.048 C 
BRANCH  28  29
ATOM     29  C   UNL     1       3.994   0.081   0.220  0.00  0.00    -0.043 C 
ATOM     30  C   UNL     1       3.967  -0.284  -1.119  0.00  0.00    -0.006 C 
ATOM     31  C   UNL     1       4.979  -0.398   1.072  0.00  0.00    -0.006 C 
ATOM     32  C   UNL     1       4.946  -1.145  -1.616  0.00  0.00    -0.000 C 
ATOM     33  C   UNL     1       5.958  -1.259   0.575  0.00  0.00    -0.000 C 
ATOM     34  C   UNL     1       5.941  -1.632  -0.769  0.00  0.00    -0.000 C 
ENDBRANCH  28  29
ENDBRANCH  25  28
ENDBRANCH  24  25
ENDBRANCH  23  24
ENDBRANCH   3  22
BRANCH   4  36
ATOM     35  O   UNL     1      -4.129  -1.655   2.421  0.00  0.00    -0.245 OA
ATOM     36  C   UNL     1      -3.899  -1.596   1.227  0.00  0.00    +0.342 C 
BRANCH  36  37
ATOM     37  O   UNL     1      -3.802  -2.615   0.340  0.00  0.00    -0.441 OA
ATOM     38  C   UNL     1      -4.000  -3.921   0.892  0.00  0.00    +0.256 C 
ENDBRANCH  36  37
ENDBRANCH   4  36
TORSDOF 9
