REMARK  Name = 128454
REMARK  4 active torsions:
REMARK  status: ('A' for Active; 'I' for Inactive)
REMARK    1  A    between atoms: N_1  and  C_17
REMARK    2  A    between atoms: C_15  and  O_20
REMARK    3  A    between atoms: C_16  and  O_22
REMARK    4  A    between atoms: C_18  and  O_24
REMARK                            x       y       z     vdW  Elec       q    Type
REMARK                         _______ _______ _______ _____ _____    ______ ____
ROOT
ATOM      1  N   UNL     1       0.068   0.209  -0.341  0.00  0.00    -0.297 N 
ATOM      2  N   UNL     1      -1.435  -1.658  -0.288  0.00  0.00    -0.232 NA
ATOM      3  N   UNL     1      -2.509   1.842   0.063  0.00  0.00    -0.270 NA
ATOM      4  N   UNL     1      -4.540   0.940   0.239  0.00  0.00    -0.307 N 
ATOM      5  N   UNL     1      -3.841  -1.378   0.008  0.00  0.00    -0.232 NA
ATOM      6  C   UNL     1      -1.207  -0.316  -0.228  0.00  0.00    +0.126 C 
ATOM      7  C   UNL     1      -2.326   0.493  -0.046  0.00  0.00    +0.164 C 
ATOM      8  C   UNL     1      -3.601  -0.045   0.066  0.00  0.00    +0.125 C 
ATOM      9  C   UNL     1      -3.851   2.061   0.232  0.00  0.00    +0.163 C 
ATOM     10  C   UNL     1      -2.711  -2.096  -0.169  0.00  0.00    +0.252 C 
ATOM     11  H   UNL     1       0.175   1.186  -0.290  0.00  0.00    +0.150 HD
ATOM     12  H   UNL     1      -1.806   2.530   0.026  0.00  0.00    +0.126 HD
ATOM     13  H   UNL     1      -5.512   0.832   0.344  0.00  0.00    +0.149 HD
ENDROOT
BRANCH   1  17
ATOM     14  O   UNL     1       1.650  -1.263   0.677  0.00  0.00    -0.333 OA
ATOM     15  C   UNL     1       2.398   0.223  -1.130  0.00  0.00    +0.186 C 
ATOM     16  C   UNL     1       3.053   1.125  -0.079  0.00  0.00    +0.171 C 
ATOM     17  C   UNL     1       1.252  -0.600  -0.530  0.00  0.00    +0.220 C 
ATOM     18  C   UNL     1       3.399   0.361   1.199  0.00  0.00    +0.169 C 
ATOM     19  C   UNL     1       2.175  -0.403   1.692  0.00  0.00    +0.176 C 
BRANCH  15  20
ATOM     20  O   UNL     1       3.363  -0.680  -1.678  0.00  0.00    -0.378 OA
ATOM     21  H   UNL     1       4.097  -0.175  -2.062  0.00  0.00    +0.211 HD
ENDBRANCH  15  20
BRANCH  16  22
ATOM     22  O   UNL     1       4.207   1.750  -0.627  0.00  0.00    -0.379 OA
ATOM     23  H   UNL     1       3.963   2.227  -1.436  0.00  0.00    +0.211 HD
ENDBRANCH  16  22
BRANCH  18  24
ATOM     24  O   UNL     1       4.455  -0.563   0.942  0.00  0.00    -0.379 OA
ATOM     25  H   UNL     1       5.236  -0.082   0.627  0.00  0.00    +0.211 HD
ENDBRANCH  18  24
ENDBRANCH   1  17
TORSDOF 4
