REMARK  Name = 128491
REMARK  14 active torsions:
REMARK  status: ('A' for Active; 'I' for Inactive)
REMARK    1  A    between atoms: O_1  and  C_3
REMARK    2  A    between atoms: O_1  and  C_16
REMARK    3  A    between atoms: C_2  and  C_13
REMARK    4  A    between atoms: C_4  and  O_11
REMARK    5  A    between atoms: C_5  and  C_9
REMARK    6  A    between atoms: C_13  and  C_14
REMARK    7  A    between atoms: C_16  and  C_17
REMARK    8  A    between atoms: C_17  and  C_18
REMARK    9  A    between atoms: C_18  and  S_19
REMARK   10  A    between atoms: S_19  and  C_23
REMARK   11  A    between atoms: C_24  and  S_25
REMARK   12  A    between atoms: S_25  and  C_26
REMARK   13  A    between atoms: C_26  and  C_28
REMARK   14  A    between atoms: C_28  and  O_29
REMARK                            x       y       z     vdW  Elec       q    Type
REMARK                         _______ _______ _______ _____ _____    ______ ____
ROOT
ATOM      1  O   UNL     1       2.468   2.197   0.543  0.00  0.00    -0.476 OA
ENDROOT
BRANCH   1   3
ATOM      2  C   UNL     1       2.967  -0.126   0.865  0.00  0.00    +0.045 C 
ATOM      3  C   UNL     1       3.217   1.091   0.238  0.00  0.00    +0.137 C 
ATOM      4  C   UNL     1       3.740  -1.241   0.542  0.00  0.00    +0.135 C 
ATOM      5  C   UNL     1       4.758  -1.133  -0.406  0.00  0.00    +0.068 C 
ATOM      6  C   UNL     1       4.230   1.205  -0.708  0.00  0.00    +0.037 C 
ATOM      7  C   UNL     1       5.003   0.089  -1.031  0.00  0.00    +0.009 C 
BRANCH   5   9
ATOM      8  O   UNL     1       5.397  -3.397  -0.228  0.00  0.00    -0.291 OA
ATOM      9  C   UNL     1       5.578  -2.284  -0.759  0.00  0.00    +0.176 C 
ATOM     10  C   UNL     1       6.684  -2.147  -1.797  0.00  0.00    +0.077 C 
ENDBRANCH   5   9
BRANCH   4  11
ATOM     11  O   UNL     1       3.500  -2.437   1.154  0.00  0.00    -0.506 OA
ATOM     12  H   UNL     1       2.816  -2.508   1.790  0.00  0.00    +0.292 HD
ENDBRANCH   4  11
BRANCH   2  13
ATOM     13  C   UNL     1       1.876  -0.238   1.881  0.00  0.00    +0.033 C 
BRANCH  13  14
ATOM     14  C   UNL     1       0.534  -0.622   1.246  0.00  0.00    +0.005 C 
ATOM     15  C   UNL     1      -0.563  -0.768   2.289  0.00  0.00    +0.000 C 
ENDBRANCH  13  14
ENDBRANCH   2  13
ENDBRANCH   1   3
BRANCH   1  16
ATOM     16  C   UNL     1       2.290   3.156  -0.491  0.00  0.00    +0.206 C 
BRANCH  16  17
ATOM     17  C   UNL     1       0.957   3.863  -0.283  0.00  0.00    +0.059 C 
BRANCH  17  18
ATOM     18  C   UNL     1      -0.202   2.875  -0.304  0.00  0.00    +0.068 C 
BRANCH  18  19
ATOM     19  S   UNL     1      -1.783   3.733  -0.057  0.00  0.00    -0.087 S 
BRANCH  19  23
ATOM     20  S   UNL     1      -4.576   2.526   0.039  0.00  0.00    -0.033 S 
ATOM     21  N   UNL     1      -2.448   1.144  -0.323  0.00  0.00    -0.134 NA
ATOM     22  N   UNL     1      -3.493   0.236  -0.344  0.00  0.00    -0.134 NA
ATOM     23  C   UNL     1      -2.888   2.358  -0.132  0.00  0.00    +0.160 A 
ATOM     24  C   UNL     1      -4.656   0.825  -0.167  0.00  0.00    +0.160 A 
BRANCH  24  25
ATOM     25  S   UNL     1      -6.153  -0.071  -0.144  0.00  0.00    -0.075 S 
BRANCH  25  26
ATOM     26  C   UNL     1      -5.543  -1.757  -0.409  0.00  0.00    +0.173 C 
BRANCH  26  28
ATOM     27  O   UNL     1      -7.829  -2.413  -0.798  0.00  0.00    -0.249 OA
ATOM     28  C   UNL     1      -6.702  -2.711  -0.424  0.00  0.00    +0.325 C 
BRANCH  28  29
ATOM     29  O   UNL     1      -6.365  -3.953   0.008  0.00  0.00    -0.480 OA
ATOM     30  H   UNL     1      -5.487  -4.130   0.284  0.00  0.00    +0.295 HD
ENDBRANCH  28  29
ENDBRANCH  26  28
ENDBRANCH  25  26
ENDBRANCH  24  25
ENDBRANCH  19  23
ENDBRANCH  18  19
ENDBRANCH  17  18
ENDBRANCH  16  17
ENDBRANCH   1  16
TORSDOF 14
