REMARK  Name = 128450
REMARK  7 active torsions:
REMARK  status: ('A' for Active; 'I' for Inactive)
REMARK    1  A    between atoms: C2*_2  and  O2*_17
REMARK    2  A    between atoms: C3*_3  and  O3*_19
REMARK    3  A    between atoms: C1*_4  and  N_8
REMARK    4  A    between atoms: C4*_5  and  C5*_21
REMARK    5  A    between atoms: N_9  and  C_14
REMARK    6  A    between atoms: C_14  and  C_15
REMARK    7  A    between atoms: C5*_21  and  O5*_22
REMARK                            x       y       z     vdW  Elec       q    Type
REMARK                         _______ _______ _______ _____ _____    ______ ____
ROOT
ATOM      1  O4* UNL     1      -2.320  -0.436   0.955  0.00  0.00    -0.333 OA
ATOM      2  C2* UNL     1      -1.794   1.145  -0.728  0.00  0.00    +0.187 C 
ATOM      3  C3* UNL     1      -3.299   1.068  -0.588  0.00  0.00    +0.171 C 
ATOM      4  C1* UNL     1      -1.319   0.526   0.577  0.00  0.00    +0.229 C 
ATOM      5  C4* UNL     1      -3.485  -0.266   0.120  0.00  0.00    +0.175 C 
ENDROOT
BRANCH   4   8
ATOM      6  O   UNL     1       1.185   1.752   1.063  0.00  0.00    -0.252 OA
ATOM      7  O   UNL     1       3.437  -2.148  -0.188  0.00  0.00    -0.269 OA
ATOM      8  N   UNL     1      -0.038  -0.110   0.401  0.00  0.00    -0.216 N 
ATOM      9  N   UNL     1       2.360  -0.166   0.453  0.00  0.00    -0.206 N 
ATOM     10  C   UNL     1       1.170   0.581   0.669  0.00  0.00    +0.319 C 
ATOM     11  C   UNL     1      -0.013  -1.424  -0.042  0.00  0.00    +0.076 C 
ATOM     12  C   UNL     1       1.103  -2.122  -0.245  0.00  0.00    +0.075 C 
ATOM     13  C   UNL     1       2.416  -1.493   0.006  0.00  0.00    +0.258 C 
BRANCH   9  14
ATOM     14  C   UNL     1       3.628   0.504   0.720  0.00  0.00    +0.129 C 
BRANCH  14  15
ATOM     15  C   UNL     1       4.094   1.180  -0.526  0.00  0.00    -0.004 C 
ATOM     16  C   UNL     1       5.265   0.923  -1.121  0.00  0.00    -0.003 C 
ENDBRANCH  14  15
ENDBRANCH   9  14
ENDBRANCH   4   8
BRANCH   2  17
ATOM     17  O2* UNL     1      -1.339   2.473  -0.895  0.00  0.00    -0.378 OA
ATOM     18  H2* UNL     1      -1.667   2.823  -1.739  0.00  0.00    +0.211 HD
ENDBRANCH   2  17
BRANCH   3  19
ATOM     19  O3* UNL     1      -3.769   2.097   0.283  0.00  0.00    -0.379 OA
ATOM     20  H3* UNL     1      -3.660   2.959  -0.147  0.00  0.00    +0.211 HD
ENDBRANCH   3  19
BRANCH   5  21
ATOM     21  C5* UNL     1      -3.561  -1.450  -0.836  0.00  0.00    +0.169 C 
BRANCH  21  22
ATOM     22  O5* UNL     1      -3.722  -2.635  -0.077  0.00  0.00    -0.379 OA
ATOM     23  H5* UNL     1      -3.772  -3.398  -0.675  0.00  0.00    +0.211 HD
ENDBRANCH  21  22
ENDBRANCH   5  21
TORSDOF 7
