REMARK  Name = 128492
REMARK  15 active torsions:
REMARK  status: ('A' for Active; 'I' for Inactive)
REMARK    1  A    between atoms: C_1  and  C_4
REMARK    2  A    between atoms: C_1  and  C_20
REMARK    3  A    between atoms: N_3  and  CA_6
REMARK    4  A    between atoms: CA_6  and  C_8
REMARK    5  A    between atoms: CA_6  and  CB_11
REMARK    6  A    between atoms: C_8  and  O_9
REMARK    7  A    between atoms: CB_11  and  CG_12
REMARK    8  A    between atoms: CZ_17  and  OH_18
REMARK    9  A    between atoms: C_20  and  C_21
REMARK   10  A    between atoms: C_21  and  C_22
REMARK   11  A    between atoms: C_22  and  C_23
REMARK   12  A    between atoms: C_23  and  N_24
REMARK   13  A    between atoms: N_24  and  C_26
REMARK   14  A    between atoms: C_27  and  N_34
REMARK   15  A    between atoms: C_31  and  N_37
REMARK                            x       y       z     vdW  Elec       q    Type
REMARK                         _______ _______ _______ _____ _____    ______ ____
ROOT
ATOM      1  C   UNL     1       3.306  -2.889   0.008  0.00  0.00    +0.085 C 
ENDROOT
BRANCH   1   4
ATOM      2  O   UNL     1       3.826  -1.256  -1.702  0.00  0.00    -0.275 OA
ATOM      3  N   UNL     1       4.306  -0.762   0.517  0.00  0.00    -0.297 N 
ATOM      4  C   ACE A   0       3.824  -1.558  -0.512  0.00  0.00    +0.223 C 
ATOM      5  H   UNL     1       4.255  -1.105   1.438  0.00  0.00    +0.150 HD
BRANCH   3   6
ATOM      6  CA  UNL     1       4.881   0.547   0.301  0.00  0.00    +0.176 C 
BRANCH   6   8
ATOM      7  OXT UNL     1       7.069   1.552   0.528  0.00  0.00    -0.248 OA
ATOM      8  C   UNL     1       6.350   0.573   0.697  0.00  0.00    +0.332 C 
BRANCH   8   9
ATOM      9  O   UNL     1       6.808  -0.570   1.262  0.00  0.00    -0.479 OA
ATOM     10  H   UNL     1       6.231  -1.300   1.376  0.00  0.00    +0.295 HD
ENDBRANCH   8   9
ENDBRANCH   6   8
BRANCH   6  11
ATOM     11  CB  UNL     1       4.110   1.623   1.076  0.00  0.00    +0.057 C 
BRANCH  11  12
ATOM     12  CG  UNL     1       2.818   2.021   0.404  0.00  0.00    -0.020 C 
ATOM     13  CD1 UNL     1       2.804   3.065  -0.521  0.00  0.00    -0.001 C 
ATOM     14  CD2 UNL     1       1.637   1.344   0.709  0.00  0.00    -0.001 C 
ATOM     15  CE1 UNL     1       1.610   3.432  -1.141  0.00  0.00    +0.036 C 
ATOM     16  CE2 UNL     1       0.443   1.711   0.088  0.00  0.00    +0.036 C 
ATOM     17  CZ  UNL     1       0.429   2.755  -0.837  0.00  0.00    +0.134 C 
BRANCH  17  18
ATOM     18  OH  UNL     1      -0.736   3.112  -1.443  0.00  0.00    -0.506 OA
ATOM     19  HH  UNL     1      -0.744   3.814  -2.064  0.00  0.00    +0.292 HD
ENDBRANCH  17  18
ENDBRANCH  11  12
ENDBRANCH   6  11
ENDBRANCH   3   6
ENDBRANCH   1   4
BRANCH   1  20
ATOM     20  C   UNL     1       2.171  -3.477  -0.829  0.00  0.00    +0.010 C 
BRANCH  20  21
ATOM     21  C   UNL     1       0.953  -2.550  -0.892  0.00  0.00    +0.002 C 
BRANCH  21  22
ATOM     22  C   UNL     1      -0.179  -3.180  -1.710  0.00  0.00    +0.021 C 
BRANCH  22  23
ATOM     23  C   UNL     1      -1.387  -2.257  -1.850  0.00  0.00    +0.087 C 
BRANCH  23  24
ATOM     24  N   UNL     1      -1.935  -1.931  -0.556  0.00  0.00    -0.331 N 
ATOM     25  H   UNL     1      -1.503  -2.316   0.241  0.00  0.00    +0.147 HD
BRANCH  24  26
ATOM     26  C   UNL     1      -3.033  -1.107  -0.370  0.00  0.00    +0.067 C 
ATOM     27  C   UNL     1      -3.517  -0.828   0.908  0.00  0.00    +0.157 C 
ATOM     28  C   UNL     1      -3.657  -0.553  -1.488  0.00  0.00    +0.018 C 
ATOM     29  C   UNL     1      -4.625   0.005   1.069  0.00  0.00    +0.049 C 
ATOM     30  C   UNL     1      -4.764   0.280  -1.327  0.00  0.00    +0.025 C 
ATOM     31  C   UNL     1      -5.248   0.559  -0.049  0.00  0.00    +0.145 C 
BRANCH  27  34
ATOM     32  O   UNL     1      -3.302  -2.487   2.496  0.00  0.00    -0.126 OA
ATOM     33  O   UNL     1      -1.972  -0.744   2.619  0.00  0.00    -0.126 OA
ATOM     34  N   UNL     1      -2.900  -1.380   2.065  0.00  0.00    +0.059 N 
ENDBRANCH  27  34
BRANCH  31  37
ATOM     35  O   UNL     1      -6.920   1.896  -0.906  0.00  0.00    -0.126 OA
ATOM     36  O   UNL     1      -6.795   1.646   1.271  0.00  0.00    -0.126 OA
ATOM     37  N   UNL     1      -6.375   1.408   0.113  0.00  0.00    +0.058 N 
ENDBRANCH  31  37
ENDBRANCH  24  26
ENDBRANCH  23  24
ENDBRANCH  22  23
ENDBRANCH  21  22
ENDBRANCH  20  21
ENDBRANCH   1  20
TORSDOF 15
