REMARK  Name = 128407
REMARK  11 active torsions:
REMARK  status: ('A' for Active; 'I' for Inactive)
REMARK    1  A    between atoms: C_1  and  N_3
REMARK    2  A    between atoms: C_1  and  C_11
REMARK    3  A    between atoms: C_1  and  C_14
REMARK    4  A    between atoms: C_4  and  C_8
REMARK    5  A    between atoms: N_7  and  C_8
REMARK    6  A    between atoms: N_7  and  O_9
REMARK    7  A    between atoms: C_14  and  O_15
REMARK    8  A    between atoms: C_14  and  C_17
REMARK    9  A    between atoms: C_17  and  C_19
REMARK   10  A    between atoms: C_17  and  C_22
REMARK   11  A    between atoms: C_19  and  O_20
REMARK                            x       y       z     vdW  Elec       q    Type
REMARK                         _______ _______ _______ _____ _____    ______ ____
ROOT
ATOM      1  C   UNL     1      -1.154   1.213   0.096  0.00  0.00    +0.099 C 
ENDROOT
BRANCH   1   3
ATOM      2  O   UNL     1       0.902   1.047  -2.011  0.00  0.00    -0.273 OA
ATOM      3  N   UNL     1       0.284   1.204   0.249  0.00  0.00    -0.302 N 
ATOM      4  C   UNL     1       1.147   1.122  -0.818  0.00  0.00    +0.244 C 
ATOM      5  H   UNL     1       0.662   1.259   1.156  0.00  0.00    +0.149 HD
BRANCH   4   6
ATOM      6  C   UNL     1       2.570   1.117  -0.390  0.00  0.00    +0.220 C 
BRANCH   6   8
ATOM      7  O   UNL     1       2.532  -1.107  -0.259  0.00  0.00    -0.090 OA
ATOM      8  N   UNL     1       3.175  -0.012  -0.136  0.00  0.00    -0.009 NA
BRANCH   8   9
ATOM      9  O   UNL     1       4.541  -0.009   0.319  0.00  0.00    -0.253 OA
ATOM     10  C   UNL     1       4.662  -0.620   1.597  0.00  0.00    +0.203 C 
ENDBRANCH   8   9
ENDBRANCH   6   8
ENDBRANCH   4   6
ENDBRANCH   1   3
BRANCH   1  11
ATOM     11  C   UNL     1      -1.759   2.569   0.562  0.00  0.00    +0.020 C 
ATOM     12  C   UNL     1      -3.283   2.583   0.378  0.00  0.00    +0.002 C 
ATOM     13  C   UNL     1      -1.154   3.804  -0.109  0.00  0.00    +0.002 C 
ENDBRANCH   1  11
BRANCH   1  14
ATOM     14  C   UNL     1      -1.809  -0.016   0.774  0.00  0.00    +0.139 C 
BRANCH  14  15
ATOM     15  O   UNL     1      -1.693   0.088   2.193  0.00  0.00    -0.382 OA
ATOM     16  H   UNL     1      -2.016   0.956   2.482  0.00  0.00    +0.210 HD
ENDBRANCH  14  15
BRANCH  14  17
ATOM     17  C   UNL     1      -1.292  -1.405   0.319  0.00  0.00    +0.127 C 
BRANCH  17  19
ATOM     18  O   UNL     1      -2.602  -1.676  -1.725  0.00  0.00    -0.250 OA
ATOM     19  C   UNL     1      -1.510  -1.642  -1.172  0.00  0.00    +0.316 C 
BRANCH  19  20
ATOM     20  O   UNL     1      -0.343  -1.812  -1.845  0.00  0.00    -0.480 OA
ATOM     21  H   UNL     1       0.473  -1.779  -1.384  0.00  0.00    +0.295 HD
ENDBRANCH  19  20
ENDBRANCH  17  19
BRANCH  17  22
ATOM     22  C   UNL     1      -1.908  -2.545   1.155  0.00  0.00    +0.014 C 
ATOM     23  C   UNL     1      -1.306  -3.905   0.822  0.00  0.00    +0.001 C 
ENDBRANCH  17  22
ENDBRANCH  14  17
ENDBRANCH   1  14
TORSDOF 11
