REMARK  Name = 128416
REMARK  6 active torsions:
REMARK  status: ('A' for Active; 'I' for Inactive)
REMARK    1  A    between atoms: S_1  and  C_4
REMARK    2  A    between atoms: S_1  and  C_10
REMARK    3  A    between atoms: C_4  and  C_9
REMARK    4  A    between atoms: C_5  and  O_6
REMARK    5  A    between atoms: C_10  and  C_15
REMARK    6  A    between atoms: C_11  and  O_12
REMARK                            x       y       z     vdW  Elec       q    Type
REMARK                         _______ _______ _______ _____ _____    ______ ____
ROOT
ATOM      1  S   UNL     1      -0.007  -0.771   1.219  0.00  0.00    +0.052 S 
ATOM      2  O   UNL     1       0.001   0.095   2.387  0.00  0.00    -0.163 OA
ATOM      3  O   UNL     1      -0.002  -2.215   1.391  0.00  0.00    -0.163 OA
ENDROOT
BRANCH   1   4
ATOM      4  C   UNL     1      -1.340  -0.336   0.216  0.00  0.00    +0.216 C 
ATOM      5  C   UNL     1      -1.798   0.913   0.342  0.00  0.00    +0.202 C 
BRANCH   5   6
ATOM      6  O   UNL     1      -2.847   1.420  -0.377  0.00  0.00    -0.466 OA
ATOM      7  C   UNL     1      -2.701   2.816  -0.579  0.00  0.00    +0.253 C 
ENDBRANCH   5   6
BRANCH   4   9
ATOM      8  N   UNL     1      -2.339  -2.063  -1.417  0.00  0.00    -0.189 NA
ATOM      9  C   UNL     1      -1.891  -1.285  -0.682  0.00  0.00    +0.123 C 
ENDBRANCH   4   9
ENDBRANCH   1   4
BRANCH   1  10
ATOM     10  C   UNL     1       1.336  -0.339   0.213  0.00  0.00    +0.216 C 
ATOM     11  C   UNL     1       1.801   0.907   0.342  0.00  0.00    +0.202 C 
BRANCH  11  12
ATOM     12  O   UNL     1       2.854   1.409  -0.374  0.00  0.00    -0.466 OA
ATOM     13  C   UNL     1       2.717   2.807  -0.575  0.00  0.00    +0.253 C 
ENDBRANCH  11  12
BRANCH  10  15
ATOM     14  N   UNL     1       2.331  -2.070  -1.419  0.00  0.00    -0.189 NA
ATOM     15  C   UNL     1       1.884  -1.290  -0.685  0.00  0.00    +0.123 C 
ENDBRANCH  10  15
ENDBRANCH   1  10
TORSDOF 6
