128435
  -OEChem-03292013323D

 35 34  0     1  0  0  0  0  0999 V2000
   -3.7392   -0.7425   -0.8011 O   0  0  0  0  0  0  0  0  0  0  0  0
   -1.0783    3.2255   -0.6432 O   0  0  0  0  0  0  0  0  0  0  0  0
   -1.0486   -1.6397   -1.2221 O   0  0  0  0  0  0  0  0  0  0  0  0
    4.3910    1.5509    1.0065 O   0  0  0  0  0  0  0  0  0  0  0  0
    4.3713    0.7170   -1.1048 O   0  0  0  0  0  0  0  0  0  0  0  0
    0.2591   -1.7001    0.6930 N   0  0  0  0  0  0  0  0  0  0  0  0
   -3.0198    0.0490    0.1538 C   0  0  1  0  0  0  0  0  0  0  0  0
   -1.9880   -0.8448    0.8695 C   0  0  0  0  0  0  0  0  0  0  0  0
   -2.4004    1.2309   -0.6189 C   0  0  0  0  0  0  0  0  0  0  0  0
   -4.0510    0.5506    1.1754 C   0  0  0  0  0  0  0  0  0  0  0  0
   -0.8953   -1.4189   -0.0240 C   0  0  0  0  0  0  0  0  0  0  0  0
   -1.6012    2.2214    0.2190 C   0  0  0  0  0  0  0  0  0  0  0  0
    1.4295   -2.2962    0.0914 C   0  0  0  0  0  0  0  0  0  0  0  0
    2.4088   -1.2585   -0.4556 C   0  0  0  0  0  0  0  0  0  0  0  0
    2.9813   -0.3179    0.6079 C   0  0  0  0  0  0  0  0  0  0  0  0
    3.9808    0.6733    0.0533 C   0  0  0  0  0  0  0  0  0  0  0  0
   -2.4941   -1.7126    1.3133 H   0  0  0  0  0  0  0  0  0  0  0  0
   -1.5247   -0.2871    1.6924 H   0  0  0  0  0  0  0  0  0  0  0  0
   -1.7699    0.8606   -1.4378 H   0  0  0  0  0  0  0  0  0  0  0  0
   -3.1990    1.7730   -1.1457 H   0  0  0  0  0  0  0  0  0  0  0  0
   -4.5907   -0.2895    1.6281 H   0  0  0  0  0  0  0  0  0  0  0  0
   -3.5881    1.1276    1.9816 H   0  0  0  0  0  0  0  0  0  0  0  0
   -4.8090    1.1752    0.6891 H   0  0  0  0  0  0  0  0  0  0  0  0
   -0.7546    1.7368    0.7124 H   0  0  0  0  0  0  0  0  0  0  0  0
   -2.2164    2.7116    0.9785 H   0  0  0  0  0  0  0  0  0  0  0  0
    1.9140   -2.9068    0.8606 H   0  0  0  0  0  0  0  0  0  0  0  0
    1.1128   -2.9636   -0.7175 H   0  0  0  0  0  0  0  0  0  0  0  0
    0.2951   -1.4918    1.6865 H   0  0  0  0  0  0  0  0  0  0  0  0
   -4.1362   -1.4956   -0.3311 H   0  0  0  0  0  0  0  0  0  0  0  0
    3.2337   -1.7851   -0.9515 H   0  0  0  0  0  0  0  0  0  0  0  0
    1.9128   -0.6611   -1.2315 H   0  0  0  0  0  0  0  0  0  0  0  0
    3.4857   -0.9044    1.3838 H   0  0  0  0  0  0  0  0  0  0  0  0
    2.1687    0.2542    1.0696 H   0  0  0  0  0  0  0  0  0  0  0  0
   -1.8326    3.6811   -1.0544 H   0  0  0  0  0  0  0  0  0  0  0  0
    5.0314    2.2034    0.6508 H   0  0  0  0  0  0  0  0  0  0  0  0
  1  7  1  0  0  0  0
  1 29  1  0  0  0  0
  2 12  1  0  0  0  0
  2 34  1  0  0  0  0
  3 11  2  0  0  0  0
  4 16  1  0  0  0  0
  4 35  1  0  0  0  0
  5 16  2  0  0  0  0
  6 11  1  0  0  0  0
  6 13  1  0  0  0  0
  6 28  1  0  0  0  0
  7  8  1  0  0  0  0
  7  9  1  0  0  0  0
  7 10  1  0  0  0  0
  8 11  1  0  0  0  0
  8 17  1  0  0  0  0
  8 18  1  0  0  0  0
  9 12  1  0  0  0  0
  9 19  1  0  0  0  0
  9 20  1  0  0  0  0
 10 21  1  0  0  0  0
 10 22  1  0  0  0  0
 10 23  1  0  0  0  0
 12 24  1  0  0  0  0
 12 25  1  0  0  0  0
 13 14  1  0  0  0  0
 13 26  1  0  0  0  0
 13 27  1  0  0  0  0
 14 15  1  0  0  0  0
 14 30  1  0  0  0  0
 14 31  1  0  0  0  0
 15 16  1  0  0  0  0
 15 32  1  0  0  0  0
 15 33  1  0  0  0  0
M  END
> <PUBCHEM_COMPOUND_CID>
128435

> <PUBCHEM_CONFORMER_RMSD>
1

> <PUBCHEM_CONFORMER_DIVERSEORDER>
1
65
328
159
153
19
196
182
278
137
3
44
248
48
335
158
303
121
88
157
135
68
28
143
127
74
142
116
295
259
288
119
346
38
221
324
30
136
168
275
111
188
343
245
71
133
204
250
269
258
152
293
37
52
72
312
240
129
76
184
195
99
126
292
251
117
270
252
147
213
298
84
166
39
186
11
193
183
25
230
54
130
79
115
264
261
53
181
314
313
208
179
36
239
176
284
317
81
202
32
33
255
40
222
22
75
283
286
174
217
5
47
172
272
10
124
108
91
56
266
82
316
66
100
106
249
291
78
241
94
282
16
338
307
299
334
215
305
268
27
162
331
85
200
59
55
73
4
344
244
210
148
235
211
131
145
104
29
306
102
15
297
154
201
146
311
199
57
177
156
300
253
218
95
31
170
280
98
207
64
310
285
43
63
327
2
122
9
243
273
171
233
267
309
17
296
214
234
167
90
13
187
232
319
125
103
149
231
58
113
229
141
6
60
341
151
242
237
50
35
101
20
92
69
265
83
340
87
304
333
161
190
290
51
97
325
93
138
7
110
8
318
70
321
164
254
45
194
12
169
155
315
227
336
163
23
323
198
128
42
80
225
140
49
342
345
263
123
62
26
120
34
14
24
205
67
105
246
276
118
301
165
216
349
271
320
262
173
212
114
112
21
260
348
257
226
109
236
175
132
180
281
277
256
107
189
238
330
46
308
287
192
279
86
41
89
96
209
339
139
329
274
322
160
77
228
332
18
197
347
289
223
350
178
203
247
337
61
220
185
206
326
294
134
302
191
224
219
150
144

> <PUBCHEM_MMFF94_PARTIAL_CHARGES>
17
1 -0.68
11 0.57
12 0.28
13 0.3
15 0.06
16 0.66
2 -0.68
28 0.37
29 0.4
3 -0.57
34 0.4
35 0.5
4 -0.65
5 -0.57
6 -0.73
7 0.28
8 0.06

> <PUBCHEM_EFFECTIVE_ROTOR_COUNT>
9

> <PUBCHEM_PHARMACOPHORE_FEATURES>
9
1 1 acceptor
1 1 donor
1 2 acceptor
1 2 donor
1 3 acceptor
1 4 acceptor
1 5 acceptor
1 6 donor
3 4 5 16 anion

> <PUBCHEM_HEAVY_ATOM_COUNT>
16

> <PUBCHEM_ATOM_DEF_STEREO_COUNT>
0

> <PUBCHEM_ATOM_UDEF_STEREO_COUNT>
1

> <PUBCHEM_BOND_DEF_STEREO_COUNT>
0

> <PUBCHEM_BOND_UDEF_STEREO_COUNT>
0

> <PUBCHEM_ISOTOPIC_ATOM_COUNT>
0

> <PUBCHEM_COMPONENT_COUNT>
1

> <PUBCHEM_CACTVS_TAUTO_COUNT>
2

> <PUBCHEM_CONFORMER_ID>
0001F5B300000001

> <PUBCHEM_MMFF94_ENERGY>
19.9077

> <PUBCHEM_FEATURE_SELFOVERLAP>
45.735

> <PUBCHEM_SHAPE_FINGERPRINT>
10498660 4 18410567375270765741
10670039 82 18188224130361414372
11615756 256 18267028249831302304
11715629 250 18341328912109354678
12596602 18 16805879710597903200
13897977 13 18334859368516763965
14787075 74 17823428260928848971
15342168 16 18130797702904146091
15775835 57 18272655631783082179
20304884 271 17761211012385997333
21524375 3 18413668002715355066
21618674 68 18341331098036653551
21652331 79 18409168792179921040
22959321 54 18335419019639935147
23114952 82 17701835292652683814
23557571 272 18269293398197992039
3524813 1 18343298167573527328
4028521 119 18410287012706279102
526903 126 18263640671796925785
8050 44 18263919938896396876

> <PUBCHEM_SHAPE_MULTIPOLES>
294.94
8.28
2.73
1.06
5.67
1.25
0
3.14
0.74
-0.02
-0.32
-0.15
0.02
0.17

> <PUBCHEM_SHAPE_SELFOVERLAP>
561.243

> <PUBCHEM_SHAPE_VOLUME>
180.8

> <PUBCHEM_COORDINATE_TYPE>
2
5
10

$$$$
