128440
  -OEChem-03292013323D

 50 53  0     1  0  0  0  0  0999 V2000
    4.2338   -1.9272   -0.1764 S   0  0  0  0  0  0  0  0  0  0  0  0
   -0.8414    2.3915    1.0206 O   0  0  0  0  0  0  0  0  0  0  0  0
   -3.6643   -0.1161   -1.7436 O   0  0  0  0  0  0  0  0  0  0  0  0
   -3.4198    3.5233    0.9377 O   0  0  0  0  0  0  0  0  0  0  0  0
    7.0185    0.6866   -0.7318 O   0  0  0  0  0  0  0  0  0  0  0  0
    6.0250   -3.8190   -0.5296 O   0  0  0  0  0  0  0  0  0  0  0  0
    6.7165   -1.6057   -0.6835 N   0  0  0  0  0  0  0  0  0  0  0  0
   -3.4679    0.7981    0.3157 N   0  0  0  0  0  0  0  0  0  0  0  0
    4.5042    0.5913    0.9044 C   0  0  0  0  0  0  0  0  0  0  0  0
    4.8060   -0.2094   -0.3500 C   0  0  1  0  0  0  0  0  0  0  0  0
    3.0762    1.0720    0.9352 C   0  0  0  0  0  0  0  0  0  0  0  0
   -2.7693    3.0984   -0.2631 C   0  0  2  0  0  0  0  0  0  0  0  0
   -3.1687    1.6973   -0.6491 C   0  0  0  0  0  0  0  0  0  0  0  0
   -1.2630    3.2432   -0.0437 C   0  0  0  0  0  0  0  0  0  0  0  0
    6.2938   -0.2948   -0.6064 C   0  0  0  0  0  0  0  0  0  0  0  0
    2.1015    0.2753    1.5174 C   0  0  0  0  0  0  0  0  0  0  0  0
    2.7595    2.3033    0.3813 C   0  0  0  0  0  0  0  0  0  0  0  0
    0.4479    1.9567    0.9924 C   0  0  0  0  0  0  0  0  0  0  0  0
   -3.2767    1.1813   -1.8912 C   0  0  0  0  0  0  0  0  0  0  0  0
    0.7798    0.7201    1.5462 C   0  0  0  0  0  0  0  0  0  0  0  0
    1.4379    2.7484    0.4101 C   0  0  0  0  0  0  0  0  0  0  0  0
   -3.7573   -0.2690   -0.3941 C   0  0  0  0  0  0  0  0  0  0  0  0
    5.8110   -2.6165   -0.4951 C   0  0  0  0  0  0  0  0  0  0  0  0
   -4.1583   -1.5760    0.0472 C   0  0  0  0  0  0  0  0  0  0  0  0
   -3.0841    1.6689   -3.2611 C   0  0  0  0  0  0  0  0  0  0  0  0
   -4.4219   -2.5827   -0.8863 C   0  0  0  0  0  0  0  0  0  0  0  0
   -4.2881   -1.8494    1.4119 C   0  0  0  0  0  0  0  0  0  0  0  0
   -4.8123   -3.8517   -0.4587 C   0  0  0  0  0  0  0  0  0  0  0  0
   -4.6783   -3.1186    1.8394 C   0  0  0  0  0  0  0  0  0  0  0  0
   -4.9404   -4.1196    0.9040 C   0  0  0  0  0  0  0  0  0  0  0  0
    4.7381    0.0292    1.8192 H   0  0  0  0  0  0  0  0  0  0  0  0
    5.1586    1.4727    0.9568 H   0  0  0  0  0  0  0  0  0  0  0  0
    4.3446    0.2248   -1.2443 H   0  0  0  0  0  0  0  0  0  0  0  0
   -3.0874    3.7867   -1.0553 H   0  0  0  0  0  0  0  0  0  0  0  0
   -0.7554    2.9907   -0.9843 H   0  0  0  0  0  0  0  0  0  0  0  0
   -1.0290    4.2782    0.2327 H   0  0  0  0  0  0  0  0  0  0  0  0
    2.3459   -0.6829    1.9660 H   0  0  0  0  0  0  0  0  0  0  0  0
    3.5238    2.9286   -0.0718 H   0  0  0  0  0  0  0  0  0  0  0  0
    0.0129    0.1006    2.0033 H   0  0  0  0  0  0  0  0  0  0  0  0
    1.2277    3.7280   -0.0086 H   0  0  0  0  0  0  0  0  0  0  0  0
    7.6920   -1.8182   -0.8661 H   0  0  0  0  0  0  0  0  0  0  0  0
   -4.0363    2.0028   -3.6843 H   0  0  0  0  0  0  0  0  0  0  0  0
   -2.6810    0.8808   -3.9049 H   0  0  0  0  0  0  0  0  0  0  0  0
   -2.3852    2.5106   -3.2861 H   0  0  0  0  0  0  0  0  0  0  0  0
   -3.1720    4.4505    1.0948 H   0  0  0  0  0  0  0  0  0  0  0  0
   -4.3336   -2.4142   -1.9567 H   0  0  0  0  0  0  0  0  0  0  0  0
   -4.0891   -1.0851    2.1596 H   0  0  0  0  0  0  0  0  0  0  0  0
   -5.0164   -4.6316   -1.1865 H   0  0  0  0  0  0  0  0  0  0  0  0
   -4.7781   -3.3275    2.9005 H   0  0  0  0  0  0  0  0  0  0  0  0
   -5.2442   -5.1077    1.2370 H   0  0  0  0  0  0  0  0  0  0  0  0
  1 10  1  0  0  0  0
  1 23  1  0  0  0  0
  2 14  1  0  0  0  0
  2 18  1  0  0  0  0
  3 19  1  0  0  0  0
  3 22  1  0  0  0  0
  4 12  1  0  0  0  0
  4 45  1  0  0  0  0
  5 15  2  0  0  0  0
  6 23  2  0  0  0  0
  7 15  1  0  0  0  0
  7 23  1  0  0  0  0
  7 41  1  0  0  0  0
  8 13  1  0  0  0  0
  8 22  2  0  0  0  0
  9 10  1  0  0  0  0
  9 11  1  0  0  0  0
  9 31  1  0  0  0  0
  9 32  1  0  0  0  0
 10 15  1  0  0  0  0
 10 33  1  0  0  0  0
 11 16  2  0  0  0  0
 11 17  1  0  0  0  0
 12 13  1  0  0  0  0
 12 14  1  0  0  0  0
 12 34  1  0  0  0  0
 13 19  2  0  0  0  0
 14 35  1  0  0  0  0
 14 36  1  0  0  0  0
 16 20  1  0  0  0  0
 16 37  1  0  0  0  0
 17 21  2  0  0  0  0
 17 38  1  0  0  0  0
 18 20  2  0  0  0  0
 18 21  1  0  0  0  0
 19 25  1  0  0  0  0
 20 39  1  0  0  0  0
 21 40  1  0  0  0  0
 22 24  1  0  0  0  0
 24 26  2  0  0  0  0
 24 27  1  0  0  0  0
 25 42  1  0  0  0  0
 25 43  1  0  0  0  0
 25 44  1  0  0  0  0
 26 28  1  0  0  0  0
 26 46  1  0  0  0  0
 27 29  2  0  0  0  0
 27 47  1  0  0  0  0
 28 30  2  0  0  0  0
 28 48  1  0  0  0  0
 29 30  1  0  0  0  0
 29 49  1  0  0  0  0
 30 50  1  0  0  0  0
M  END
> <PUBCHEM_COMPOUND_CID>
128440

> <PUBCHEM_CONFORMER_RMSD>
1

> <PUBCHEM_CONFORMER_DIVERSEORDER>
7
289
163
253
110
450
165
385
263
22
345
109
180
142
337
84
151
394
356
361
365
131
296
463
37
125
186
330
111
378
250
264
90
104
376
433
275
461
270
135
216
308
358
99
252
236
185
451
360
77
446
192
423
315
357
248
320
223
1
97
435
390
128
242
17
368
152
476
418
132
217
237
404
117
230
467
319
414
136
33
300
472
431
23
379
226
459
45
173
116
272
471
239
392
175
87
155
140
429
262
215
339
305
349
162
65
196
454
310
322
57
130
157
455
139
402
9
294
92
143
419
341
178
39
89
336
432
456
67
395
18
284
233
401
134
168
415
218
292
257
114
105
232
169
95
309
267
366
428
174
205
153
259
108
74
24
314
328
386
100
353
287
27
278
333
184
247
444
214
421
51
76
397
334
437
124
268
144
276
55
119
62
369
197
355
426
86
261
68
430
375
332
312
21
6
207
387
176
380
16
102
20
295
260
302
11
335
32
146
460
422
189
70
391
382
224
159
112
179
28
304
133
238
245
359
209
103
420
198
200
374
281
64
351
469
93
188
326
370
204
240
115
325
290
160
190
96
34
280
342
399
457
40
98
164
206
331
47
410
243
352
282
317
234
60
279
208
255
277
241
10
171
338
88
348
199
303
343
442
127
211
12
244
107
203
69
219
434
388
400
72
371
183
424
441
145
19
150
212
354
59
228
147
79
43
372
75
73
231
61
465
49
298
91
452
31
363
293
367
266
254
137
299
350
398
249
129
210
38
166
187
362
154
301
313
121
258
408
71
80
256
195
473
409
201
286
46
311
120
464
416
13
66
194
412
448
458
329
113
78
42
475
53
291
30
393
466
316
274
149
265
229
48
182
447
2
85
440
220
158
427
297
396
407
227
318
202
29
445
161
44
106
213
406
35
56
15
52
101
191
327
81
453
323
235
417
389
443
156
181
436
285
83
14
381
5
271
41
141
63
347
383
170
222
364
438
283
54
246
177
167
273
439
269
403
94
26
405
4
324
377
126
346
172
321
344
474
58
462
148
373
8
50
193
384
411
36
251
288
221
413
477
138
470
306
122
449
225
307
82
123
118
340
25
468
3
425

> <PUBCHEM_MMFF94_PARTIAL_CHARGES>
41
1 -0.37
10 0.29
11 -0.14
12 0.46
13 0.05
14 0.28
15 0.57
16 -0.15
17 -0.15
18 0.08
19 -0.04
2 -0.36
20 -0.15
21 -0.15
22 0.43
23 0.77
24 0.05
25 0.18
26 -0.15
27 -0.15
28 -0.15
29 -0.15
3 -0.28
30 -0.15
37 0.15
38 0.15
39 0.15
4 -0.68
40 0.15
41 0.37
45 0.4
46 0.15
47 0.15
48 0.15
49 0.15
5 -0.57
50 0.15
6 -0.57
7 -0.49
8 -0.57
9 0.14

> <PUBCHEM_EFFECTIVE_ROTOR_COUNT>
7.6

> <PUBCHEM_PHARMACOPHORE_FEATURES>
9
1 2 acceptor
1 4 acceptor
1 4 donor
1 5 acceptor
1 7 donor
5 1 7 10 15 23 rings
5 3 8 13 19 22 rings
6 11 16 17 18 20 21 rings
6 24 26 27 28 29 30 rings

> <PUBCHEM_HEAVY_ATOM_COUNT>
30

> <PUBCHEM_ATOM_DEF_STEREO_COUNT>
0

> <PUBCHEM_ATOM_UDEF_STEREO_COUNT>
2

> <PUBCHEM_BOND_DEF_STEREO_COUNT>
0

> <PUBCHEM_BOND_UDEF_STEREO_COUNT>
0

> <PUBCHEM_ISOTOPIC_ATOM_COUNT>
0

> <PUBCHEM_COMPONENT_COUNT>
1

> <PUBCHEM_CACTVS_TAUTO_COUNT>
3

> <PUBCHEM_CONFORMER_ID>
0001F5B800000007

> <PUBCHEM_MMFF94_ENERGY>
66.9251

> <PUBCHEM_FEATURE_SELFOVERLAP>
45.676

> <PUBCHEM_SHAPE_FINGERPRINT>
10169797 241 18263920111285764586
10838868 158 18336844047182778570
10838868 217 11455354764294863106
10928967 22 17915458513364685183
11227688 84 18270948120548471415
11315621 136 18336264639230715700
11387372 6 18410020905876960083
11477941 20 16732983145462882100
117089 54 18193283107472381099
12013929 27 18187090542563942478
12422481 6 16486707895522798414
12633257 1 15123509263149376729
13103583 49 14908180884564669848
13383661 66 18191594248679097131
1361 4 18412547579334725110
1361 87 18335974359370244183
13690498 29 18260547835724029447
14150023 24 17766284167943924769
14251764 30 18340208603991501083
14950920 106 16844734277911326603
15274700 232 17117767947865287550
15361156 5 18261121819622384305
1768 210 8934734249450123011
17909252 39 18339927146611541016
20775530 9 18115862065901780075
21315759 227 18336250323550615880
21599406 157 18114184108236990646
22393880 68 18041548183403628120
22849339 104 18188193322434561629
23379529 103 18411135882906489481
23466295 7 18410859850191757393
2838139 119 15213022618607916612
3737641 26 18266740375569507713
4073 2 18341890762994565624
42626532 9 18060413608007666600
437795 150 18198922327087187590
437795 163 18410578350147219902
4394409 98 16888889234326397835
439807 62 18411141324772822398
4435113 14 18059022657616986350
46194498 28 18115866489644488612
463206 1 18124596384340849712
484985 159 18412827967610525817
484989 97 18271814493679610614
5047190 19 18337401435707329078
56633871 153 18055352707015814455
58260988 647 17841124944302816575
6201320 221 16833455672814340271
6431902 208 18343579634065505982
7970288 3 18197776815742076319
9511036 111 17612297564943700002

> <PUBCHEM_SHAPE_MULTIPOLES>
581.93
17.01
5.46
1.84
21.72
2.4
0.89
17.78
3.64
-5.31
-0.43
-2.05
-0.49
3.41

> <PUBCHEM_SHAPE_SELFOVERLAP>
1255.559

> <PUBCHEM_SHAPE_VOLUME>
321.9

> <PUBCHEM_COORDINATE_TYPE>
2
5
10

$$$$
