128453
  -OEChem-03292013323D

 52 51  0     1  0  0  0  0  0999 V2000
   -0.4205   -1.2452    0.3305 O   0  0  0  0  0  0  0  0  0  0  0  0
   -2.6199   -0.3944    0.2674 O   0  0  0  0  0  0  0  0  0  0  0  0
   -1.1541    0.5756    2.4398 N   0  0  0  0  0  0  0  0  0  0  0  0
    3.3509    1.0463   -0.2701 N   0  0  0  0  0  0  0  0  0  0  0  0
    5.3552    2.3297   -0.5947 N   0  0  0  0  0  0  0  0  0  0  0  0
    5.4633    0.1125   -0.0777 N   0  0  0  0  0  0  0  0  0  0  0  0
   -0.8182    1.0232    1.0853 C   0  0  1  0  0  0  0  0  0  0  0  0
    0.6771    1.3927    0.9612 C   0  0  0  0  0  0  0  0  0  0  0  0
   -1.2314   -0.0853    0.0882 C   0  0  0  0  0  0  0  0  0  0  0  0
    1.0627    1.9056   -0.4339 C   0  0  0  0  0  0  0  0  0  0  0  0
   -0.3780   -2.1200   -0.7891 C   0  0  0  0  0  0  0  0  0  0  0  0
   -3.4839    0.5306   -0.3790 C   0  0  0  0  0  0  0  0  0  0  0  0
    2.5478    2.2404   -0.5395 C   0  0  0  0  0  0  0  0  0  0  0  0
    0.4988   -3.3159   -0.4458 C   0  0  0  0  0  0  0  0  0  0  0  0
   -4.9262    0.1143   -0.1282 C   0  0  0  0  0  0  0  0  0  0  0  0
    1.9195   -2.8887   -0.0882 C   0  0  0  0  0  0  0  0  0  0  0  0
   -5.9120    1.0589   -0.8100 C   0  0  0  0  0  0  0  0  0  0  0  0
    2.7800   -4.0818    0.2956 C   0  0  0  0  0  0  0  0  0  0  0  0
   -7.3498    0.6151   -0.5931 C   0  0  0  0  0  0  0  0  0  0  0  0
    4.6389    1.1864   -0.3186 C   0  0  0  0  0  0  0  0  0  0  0  0
   -1.4038    1.9287    0.8930 H   0  0  0  0  0  0  0  0  0  0  0  0
   -1.0745    0.2547   -0.9421 H   0  0  0  0  0  0  0  0  0  0  0  0
    0.9138    2.1709    1.6988 H   0  0  0  0  0  0  0  0  0  0  0  0
    1.2903    0.5222    1.2254 H   0  0  0  0  0  0  0  0  0  0  0  0
    0.8388    1.1485   -1.1923 H   0  0  0  0  0  0  0  0  0  0  0  0
    0.4710    2.7963   -0.6751 H   0  0  0  0  0  0  0  0  0  0  0  0
   -0.9412    1.3160    3.1068 H   0  0  0  0  0  0  0  0  0  0  0  0
   -2.1571    0.4068    2.5052 H   0  0  0  0  0  0  0  0  0  0  0  0
    0.0326   -1.5927   -1.6580 H   0  0  0  0  0  0  0  0  0  0  0  0
   -1.3908   -2.4620   -1.0294 H   0  0  0  0  0  0  0  0  0  0  0  0
   -3.2783    0.5292   -1.4558 H   0  0  0  0  0  0  0  0  0  0  0  0
   -3.3254    1.5418    0.0079 H   0  0  0  0  0  0  0  0  0  0  0  0
    2.7486    2.6134   -1.5510 H   0  0  0  0  0  0  0  0  0  0  0  0
    2.7866    3.0345    0.1784 H   0  0  0  0  0  0  0  0  0  0  0  0
    0.5158   -4.0116   -1.2924 H   0  0  0  0  0  0  0  0  0  0  0  0
    0.0625   -3.8455    0.4102 H   0  0  0  0  0  0  0  0  0  0  0  0
   -5.1141    0.0839    0.9523 H   0  0  0  0  0  0  0  0  0  0  0  0
   -5.0738   -0.9122   -0.4871 H   0  0  0  0  0  0  0  0  0  0  0  0
    1.9106   -2.1830    0.7503 H   0  0  0  0  0  0  0  0  0  0  0  0
    2.3778   -2.3717   -0.9395 H   0  0  0  0  0  0  0  0  0  0  0  0
   -5.7082    1.0973   -1.8864 H   0  0  0  0  0  0  0  0  0  0  0  0
   -5.7851    2.0751   -0.4192 H   0  0  0  0  0  0  0  0  0  0  0  0
    2.8465   -4.7988   -0.5289 H   0  0  0  0  0  0  0  0  0  0  0  0
    3.7945   -3.7531    0.5423 H   0  0  0  0  0  0  0  0  0  0  0  0
    2.3685   -4.5982    1.1687 H   0  0  0  0  0  0  0  0  0  0  0  0
   -7.5972    0.5944    0.4732 H   0  0  0  0  0  0  0  0  0  0  0  0
   -8.0388    1.3064   -1.0884 H   0  0  0  0  0  0  0  0  0  0  0  0
   -7.5181   -0.3853   -1.0046 H   0  0  0  0  0  0  0  0  0  0  0  0
    6.3695    2.3210   -0.6052 H   0  0  0  0  0  0  0  0  0  0  0  0
    4.9046    3.2149   -0.7974 H   0  0  0  0  0  0  0  0  0  0  0  0
    6.4729    0.2007   -0.1107 H   0  0  0  0  0  0  0  0  0  0  0  0
    5.0816   -0.8017    0.1400 H   0  0  0  0  0  0  0  0  0  0  0  0
  1  9  1  0  0  0  0
  1 11  1  0  0  0  0
  2  9  1  0  0  0  0
  2 12  1  0  0  0  0
  3  7  1  0  0  0  0
  3 27  1  0  0  0  0
  3 28  1  0  0  0  0
  4 13  1  0  0  0  0
  4 20  2  0  0  0  0
  5 20  1  0  0  0  0
  5 49  1  0  0  0  0
  5 50  1  0  0  0  0
  6 20  1  0  0  0  0
  6 51  1  0  0  0  0
  6 52  1  0  0  0  0
  7  8  1  0  0  0  0
  7  9  1  0  0  0  0
  7 21  1  0  0  0  0
  8 10  1  0  0  0  0
  8 23  1  0  0  0  0
  8 24  1  0  0  0  0
  9 22  1  0  0  0  0
 10 13  1  0  0  0  0
 10 25  1  0  0  0  0
 10 26  1  0  0  0  0
 11 14  1  0  0  0  0
 11 29  1  0  0  0  0
 11 30  1  0  0  0  0
 12 15  1  0  0  0  0
 12 31  1  0  0  0  0
 12 32  1  0  0  0  0
 13 33  1  0  0  0  0
 13 34  1  0  0  0  0
 14 16  1  0  0  0  0
 14 35  1  0  0  0  0
 14 36  1  0  0  0  0
 15 17  1  0  0  0  0
 15 37  1  0  0  0  0
 15 38  1  0  0  0  0
 16 18  1  0  0  0  0
 16 39  1  0  0  0  0
 16 40  1  0  0  0  0
 17 19  1  0  0  0  0
 17 41  1  0  0  0  0
 17 42  1  0  0  0  0
 18 43  1  0  0  0  0
 18 44  1  0  0  0  0
 18 45  1  0  0  0  0
 19 46  1  0  0  0  0
 19 47  1  0  0  0  0
 19 48  1  0  0  0  0
M  END
> <PUBCHEM_COMPOUND_CID>
128453

> <PUBCHEM_CONFORMER_RMSD>
1

> <PUBCHEM_CONFORMER_DIVERSEORDER>
1
42
74
22
68
59
52
107
72
2
80
32
26
70
83
53
95
73
94
67
69
46
78
4
85
86
71
97
88
106
76
66
84
24
89
51
14
60
36
81
10
102
108
25
29
23
90
100
105
27
39
57
41
63
40
56
18
21
49
7
91
93
62
6
20
45
35
48
11
65
31
77
30
96
64
87
61
33
43
101
58
34
82
50
104
54
8
16
92
47
38
15
13
3
103
99
28
37
17
19
98
9
44
5
75
12
55
79

> <PUBCHEM_MMFF94_PARTIAL_CHARGES>
18
1 -0.56
11 0.28
12 0.28
13 0.25
2 -0.56
20 0.55
27 0.36
28 0.36
3 -0.99
4 -0.7
49 0.4
5 -0.85
50 0.4
51 0.4
52 0.4
6 -0.85
7 0.27
9 0.56

> <PUBCHEM_EFFECTIVE_ROTOR_COUNT>
13

> <PUBCHEM_PHARMACOPHORE_FEATURES>
9
1 1 acceptor
1 18 hydrophobe
1 19 hydrophobe
1 2 acceptor
1 3 cation
1 3 donor
1 5 donor
1 6 donor
4 4 5 6 20 cation

> <PUBCHEM_HEAVY_ATOM_COUNT>
20

> <PUBCHEM_ATOM_DEF_STEREO_COUNT>
1

> <PUBCHEM_ATOM_UDEF_STEREO_COUNT>
0

> <PUBCHEM_BOND_DEF_STEREO_COUNT>
0

> <PUBCHEM_BOND_UDEF_STEREO_COUNT>
0

> <PUBCHEM_ISOTOPIC_ATOM_COUNT>
0

> <PUBCHEM_COMPONENT_COUNT>
1

> <PUBCHEM_CACTVS_TAUTO_COUNT>
2

> <PUBCHEM_CONFORMER_ID>
0001F5C500000001

> <PUBCHEM_MMFF94_ENERGY>
25.4419

> <PUBCHEM_FEATURE_SELFOVERLAP>
45.764

> <PUBCHEM_SHAPE_FINGERPRINT>
12516196 113 9295297144606756213
12592029 89 18408889542017381874
12838862 33 18339345428136059356
13533116 47 17775290443832476132
14117953 113 18409450289607642244
167882 2 18408605825178687742
20554085 129 17988065786603383072
20612939 158 18339921503424959397
21285901 2 17822289029127002252
25147074 1 17845098368497687137
266924 1 17916593029519528169
266924 87 18339643317840154021
3084891 8 18336825290896826333
347723 3 17704356589264535337
59755656 215 18408604743021074245

> <PUBCHEM_SHAPE_MULTIPOLES>
379.93
12.93
3.93
1.12
16.14
4.89
0.64
-7.1
-4.33
-6.46
-0.45
0.41
-0.3
-0.59

> <PUBCHEM_SHAPE_SELFOVERLAP>
704.19

> <PUBCHEM_SHAPE_VOLUME>
236.8

> <PUBCHEM_COORDINATE_TYPE>
2
5
10

$$$$
