REMARK  Name = 128421
REMARK  8 active torsions:
REMARK  status: ('A' for Active; 'I' for Inactive)
REMARK    1  A    between atoms: C_2  and  N_8
REMARK    2  A    between atoms: C_3  and  O_12
REMARK    3  A    between atoms: C_4  and  O_14
REMARK    4  A    between atoms: C_5  and  C_27
REMARK    5  A    between atoms: C_6  and  O_16
REMARK    6  A    between atoms: O_16  and  C_18
REMARK    7  A    between atoms: C_23  and  N_26
REMARK    8  A    between atoms: C_27  and  O_28
REMARK                            x       y       z     vdW  Elec       q    Type
REMARK                         _______ _______ _______ _____ _____    ______ ____
ROOT
ATOM      1  O   UNL     1       1.092  -1.576   0.588  0.00  0.00    -0.317 OA
ATOM      2  C   UNL     1       2.207   0.541   0.152  0.00  0.00    +0.172 C 
ATOM      3  C   UNL     1       3.323  -0.206  -0.583  0.00  0.00    +0.164 C 
ATOM      4  C   UNL     1       3.393  -1.674  -0.156  0.00  0.00    +0.169 C 
ATOM      5  C   UNL     1       2.007  -2.321  -0.217  0.00  0.00    +0.177 C 
ATOM      6  C   UNL     1       0.892  -0.246   0.111  0.00  0.00    +0.309 C 
ENDROOT
BRANCH   2   8
ATOM      7  O   UNL     1       3.587   2.989   0.884  0.00  0.00    -0.275 OA
ATOM      8  N   UNL     1       2.025   1.859  -0.420  0.00  0.00    -0.298 N 
ATOM      9  C   UNL     1       2.735   2.969   0.000  0.00  0.00    +0.223 C 
ATOM     10  C   UNL     1       2.371   4.205  -0.779  0.00  0.00    +0.095 C 
ATOM     11  H   UNL     1       1.366   1.970  -1.143  0.00  0.00    +0.150 HD
ENDBRANCH   2   8
BRANCH   3  12
ATOM     12  O   UNL     1       4.570   0.423  -0.279  0.00  0.00    -0.380 OA
ATOM     13  H   UNL     1       4.535   1.355  -0.547  0.00  0.00    +0.211 HD
ENDBRANCH   3  12
BRANCH   4  14
ATOM     14  O   UNL     1       4.295  -2.346  -1.031  0.00  0.00    -0.379 OA
ATOM     15  H   UNL     1       5.168  -1.925  -0.981  0.00  0.00    +0.211 HD
ENDBRANCH   4  14
BRANCH   6  16
ATOM     16  O   UNL     1      -0.054   0.420   0.945  0.00  0.00    -0.450 OA
BRANCH  16  18
ATOM     17 CL   UNL     1      -1.481   2.993   0.332  0.00  0.00    -0.079 Cl
ATOM     18  C   UNL     1      -1.372   0.289   0.602  0.00  0.00    +0.152 C 
ATOM     19  C   UNL     1      -2.149   1.402   0.294  0.00  0.00    +0.093 C 
ATOM     20  C   UNL     1      -1.927  -0.988   0.566  0.00  0.00    +0.040 C 
ATOM     21  C   UNL     1      -3.490   1.238  -0.052  0.00  0.00    +0.039 C 
ATOM     22  C   UNL     1      -3.268  -1.152   0.219  0.00  0.00    +0.027 C 
ATOM     23  C   UNL     1      -4.050  -0.039  -0.090  0.00  0.00    +0.144 C 
BRANCH  23  26
ATOM     24  O   UNL     1      -5.899  -1.363  -0.469  0.00  0.00    -0.126 OA
ATOM     25  O   UNL     1      -6.101   0.808  -0.716  0.00  0.00    -0.126 OA
ATOM     26  N   UNL     1      -5.415  -0.206  -0.442  0.00  0.00    +0.058 N 
ENDBRANCH  23  26
ENDBRANCH  16  18
ENDBRANCH   6  16
BRANCH   5  27
ATOM     27  C   UNL     1       2.013  -3.751   0.312  0.00  0.00    +0.169 C 
BRANCH  27  28
ATOM     28  O   UNL     1       0.697  -4.268   0.231  0.00  0.00    -0.379 OA
ATOM     29  H   UNL     1       0.686  -5.179   0.565  0.00  0.00    +0.211 HD
ENDBRANCH  27  28
ENDBRANCH   5  27
TORSDOF 8
