128416
  -OEChem-03292013323D

 23 22  0     0  0  0  0  0  0999 V2000
   -0.0072   -0.7707    1.2186 S   0  0  0  0  0  0  0  0  0  0  0  0
    0.0012    0.0952    2.3867 O   0  0  0  0  0  0  0  0  0  0  0  0
   -0.0024   -2.2145    1.3910 O   0  0  0  0  0  0  0  0  0  0  0  0
   -2.8466    1.4204   -0.3770 O   0  0  0  0  0  0  0  0  0  0  0  0
    2.8545    1.4095   -0.3739 O   0  0  0  0  0  0  0  0  0  0  0  0
   -2.3391   -2.0626   -1.4175 N   0  0  0  0  0  0  0  0  0  0  0  0
    2.3309   -2.0699   -1.4192 N   0  0  0  0  0  0  0  0  0  0  0  0
   -1.3401   -0.3362    0.2165 C   0  0  0  0  0  0  0  0  0  0  0  0
    1.3359   -0.3391    0.2127 C   0  0  0  0  0  0  0  0  0  0  0  0
   -1.7980    0.9127    0.3423 C   0  0  0  0  0  0  0  0  0  0  0  0
    1.8009    0.9068    0.3417 C   0  0  0  0  0  0  0  0  0  0  0  0
   -1.8908   -1.2847   -0.6824 C   0  0  0  0  0  0  0  0  0  0  0  0
    1.8840   -1.2899   -0.6855 C   0  0  0  0  0  0  0  0  0  0  0  0
   -2.7008    2.8164   -0.5794 C   0  0  0  0  0  0  0  0  0  0  0  0
    2.7175    2.8066   -0.5747 C   0  0  0  0  0  0  0  0  0  0  0  0
   -1.3834    1.6383    1.0309 H   0  0  0  0  0  0  0  0  0  0  0  0
    1.3887    1.6335    1.0304 H   0  0  0  0  0  0  0  0  0  0  0  0
   -2.7752    3.3607    0.3686 H   0  0  0  0  0  0  0  0  0  0  0  0
   -3.5158    3.1534   -1.2269 H   0  0  0  0  0  0  0  0  0  0  0  0
   -1.7526    3.0477   -1.0781 H   0  0  0  0  0  0  0  0  0  0  0  0
    2.7922    3.3490    0.3742 H   0  0  0  0  0  0  0  0  0  0  0  0
    1.7722    3.0441   -1.0759 H   0  0  0  0  0  0  0  0  0  0  0  0
    3.5364    3.1398   -1.2192 H   0  0  0  0  0  0  0  0  0  0  0  0
  1  2  2  0  0  0  0
  1  3  2  0  0  0  0
  1  8  1  0  0  0  0
  1  9  1  0  0  0  0
  4 10  1  0  0  0  0
  4 14  1  0  0  0  0
  5 11  1  0  0  0  0
  5 15  1  0  0  0  0
  6 12  3  0  0  0  0
  7 13  3  0  0  0  0
  8 10  2  3  0  0  0
  8 12  1  0  0  0  0
  9 11  2  3  0  0  0
  9 13  1  0  0  0  0
 10 16  1  0  0  0  0
 11 17  1  0  0  0  0
 14 18  1  0  0  0  0
 14 19  1  0  0  0  0
 14 20  1  0  0  0  0
 15 21  1  0  0  0  0
 15 22  1  0  0  0  0
 15 23  1  0  0  0  0
M  END
> <PUBCHEM_COMPOUND_CID>
128416

> <PUBCHEM_CONFORMER_RMSD>
0.6

> <PUBCHEM_CONFORMER_DIVERSEORDER>
1
51
48
16
67
60
54
3
31
49
2
52
14
29
42
53
36
18
66
61
34
22
47
25
15
56
35
26
39
4
64
19
5
10
20
62
38
57
27
9
6
58
11
8
37
13
12
7
55
30
17
32
41
65
63
59
40
24
28
23
45
43
33
50
44
46
21

> <PUBCHEM_MMFF94_PARTIAL_CHARGES>
17
1 1.33
10 -0.07
11 -0.07
12 0.49
13 0.49
14 0.28
15 0.28
16 0.15
17 0.15
2 -0.65
3 -0.65
4 -0.36
5 -0.36
6 -0.56
7 -0.56
8 0.05
9 0.05

> <PUBCHEM_EFFECTIVE_ROTOR_COUNT>
4

> <PUBCHEM_PHARMACOPHORE_FEATURES>
6
1 2 acceptor
1 3 acceptor
1 4 acceptor
1 5 acceptor
1 6 acceptor
1 7 acceptor

> <PUBCHEM_HEAVY_ATOM_COUNT>
15

> <PUBCHEM_ATOM_DEF_STEREO_COUNT>
0

> <PUBCHEM_ATOM_UDEF_STEREO_COUNT>
0

> <PUBCHEM_BOND_DEF_STEREO_COUNT>
0

> <PUBCHEM_BOND_UDEF_STEREO_COUNT>
2

> <PUBCHEM_ISOTOPIC_ATOM_COUNT>
0

> <PUBCHEM_COMPONENT_COUNT>
1

> <PUBCHEM_CACTVS_TAUTO_COUNT>
1

> <PUBCHEM_CONFORMER_ID>
0001F5A000000001

> <PUBCHEM_MMFF94_ENERGY>
28.6613

> <PUBCHEM_FEATURE_SELFOVERLAP>
30.47

> <PUBCHEM_SHAPE_FINGERPRINT>
12654903 92 18125716786156693125
13299463 15 17916589897955352634
14120999 15 17695357979490335498
14648413 74 18339646641933019670
14817 1 7996598049912937003
16945 1 17918275359033646833
17134986 127 18120364372575468661
19837323 101 18186808006038505051
20233049 118 17465663386177467308
20344682 6 17982727781424067750
20653085 51 18337402530174214737
22802520 49 18337688454594528106
23402539 116 18118673563803695154
3060560 45 17765138480910888685
3286 77 17530971228577082779
353137 74 18116698811166538349
549884 4 18191311468095078932
81228 2 16445625876032775011

> <PUBCHEM_SHAPE_MULTIPOLES>
279.1
4.4
3.13
1.5
0.03
1.52
0.58
2.54
-1.9
-0.01
-1.06
0
-0.77
0.01

> <PUBCHEM_SHAPE_SELFOVERLAP>
541.65

> <PUBCHEM_SHAPE_VOLUME>
167.6

> <PUBCHEM_COORDINATE_TYPE>
2
5
10

$$$$
