128559
  -OEChem-03292013323D

 37 39  0     0  0  0  0  0  0999 V2000
    2.8775   -0.3511   -1.8546 S   0  0  0  0  0  0  0  0  0  0  0  0
   -2.2170    3.0042   -0.5167 O   0  0  0  0  0  0  0  0  0  0  0  0
   -0.5178    2.3695    0.8532 O   0  0  0  0  0  0  0  0  0  0  0  0
   -5.6021   -0.6094   -0.1438 N   0  0  0  0  0  0  0  0  0  0  0  0
   -0.0459   -0.3403    0.5081 N   0  0  0  0  0  0  0  0  0  0  0  0
    2.5408   -0.2507    0.7006 N   0  0  0  0  0  0  0  0  0  0  0  0
    0.5601   -0.3691   -0.6056 N   0  0  0  0  0  0  0  0  0  0  0  0
   -4.2033   -0.5356    0.0203 C   0  0  0  0  0  0  0  0  0  0  0  0
   -3.5683    0.7062    0.0474 C   0  0  0  0  0  0  0  0  0  0  0  0
   -2.1847    0.7786    0.2095 C   0  0  0  0  0  0  0  0  0  0  0  0
   -3.4546   -1.7048    0.1553 C   0  0  0  0  0  0  0  0  0  0  0  0
   -1.4408   -0.3910    0.3440 C   0  0  0  0  0  0  0  0  0  0  0  0
   -2.0711   -1.6323    0.3175 C   0  0  0  0  0  0  0  0  0  0  0  0
   -6.3528   -1.7036    0.4392 C   0  0  0  0  0  0  0  0  0  0  0  0
   -6.3091    0.4156   -0.8856 C   0  0  0  0  0  0  0  0  0  0  0  0
    4.2905   -0.2650   -0.8704 C   0  0  0  0  0  0  0  0  0  0  0  0
    3.9091   -0.2183    0.4740 C   0  0  0  0  0  0  0  0  0  0  0  0
   -1.5475    2.0887    0.2341 C   0  0  0  0  0  0  0  0  0  0  0  0
    1.9068   -0.3199   -0.4466 C   0  0  0  0  0  0  0  0  0  0  0  0
    5.6394   -0.2404   -1.2598 C   0  0  0  0  0  0  0  0  0  0  0  0
    4.9154   -0.1445    1.4616 C   0  0  0  0  0  0  0  0  0  0  0  0
    6.6153   -0.1671   -0.2626 C   0  0  0  0  0  0  0  0  0  0  0  0
    6.2602   -0.1197    1.0810 C   0  0  0  0  0  0  0  0  0  0  0  0
   -4.1535    1.6188   -0.0289 H   0  0  0  0  0  0  0  0  0  0  0  0
   -3.9161   -2.6878    0.1266 H   0  0  0  0  0  0  0  0  0  0  0  0
   -1.4959   -2.5488    0.4200 H   0  0  0  0  0  0  0  0  0  0  0  0
   -6.0092   -1.9297    1.4550 H   0  0  0  0  0  0  0  0  0  0  0  0
   -6.2678   -2.6046   -0.1775 H   0  0  0  0  0  0  0  0  0  0  0  0
   -7.4177   -1.4563    0.5150 H   0  0  0  0  0  0  0  0  0  0  0  0
   -5.7621    0.7080   -1.7892 H   0  0  0  0  0  0  0  0  0  0  0  0
   -6.4748    1.3012   -0.2631 H   0  0  0  0  0  0  0  0  0  0  0  0
   -7.2907    0.0572   -1.2156 H   0  0  0  0  0  0  0  0  0  0  0  0
    5.9241   -0.2770   -2.3069 H   0  0  0  0  0  0  0  0  0  0  0  0
    4.6491   -0.1069    2.5141 H   0  0  0  0  0  0  0  0  0  0  0  0
    7.6653   -0.1470   -0.5425 H   0  0  0  0  0  0  0  0  0  0  0  0
    7.0331   -0.0628    1.8427 H   0  0  0  0  0  0  0  0  0  0  0  0
   -1.7816    3.8830   -0.4950 H   0  0  0  0  0  0  0  0  0  0  0  0
  1 16  1  0  0  0  0
  1 19  1  0  0  0  0
  2 18  1  0  0  0  0
  2 37  1  0  0  0  0
  3 18  2  0  0  0  0
  4  8  1  0  0  0  0
  4 14  1  0  0  0  0
  4 15  1  0  0  0  0
  5  7  2  0  0  0  0
  5 12  1  0  0  0  0
  6 17  1  0  0  0  0
  6 19  2  0  0  0  0
  7 19  1  0  0  0  0
  8  9  2  0  0  0  0
  8 11  1  0  0  0  0
  9 10  1  0  0  0  0
  9 24  1  0  0  0  0
 10 12  2  0  0  0  0
 10 18  1  0  0  0  0
 11 13  2  0  0  0  0
 11 25  1  0  0  0  0
 12 13  1  0  0  0  0
 13 26  1  0  0  0  0
 14 27  1  0  0  0  0
 14 28  1  0  0  0  0
 14 29  1  0  0  0  0
 15 30  1  0  0  0  0
 15 31  1  0  0  0  0
 15 32  1  0  0  0  0
 16 17  1  0  0  0  0
 16 20  2  0  0  0  0
 17 21  2  0  0  0  0
 20 22  1  0  0  0  0
 20 33  1  0  0  0  0
 21 23  1  0  0  0  0
 21 34  1  0  0  0  0
 22 23  2  0  0  0  0
 22 35  1  0  0  0  0
 23 36  1  0  0  0  0
M  END
> <PUBCHEM_COMPOUND_CID>
128559

> <PUBCHEM_CONFORMER_RMSD>
0.8

> <PUBCHEM_CONFORMER_DIVERSEORDER>
1
7
5
4
3
6
2

> <PUBCHEM_MMFF94_PARTIAL_CHARGES>
31
1 -0.08
10 0.09
11 -0.15
12 0.18
13 -0.15
14 0.37
15 0.37
16 0.04
17 0.23
18 0.63
19 0.5
2 -0.65
20 -0.15
21 -0.15
22 -0.15
23 -0.15
24 0.15
25 0.15
26 0.15
3 -0.57
33 0.15
34 0.15
35 0.15
36 0.15
37 0.5
4 -0.84
5 -0.18
6 -0.57
7 -0.13
8 0.1
9 -0.15

> <PUBCHEM_EFFECTIVE_ROTOR_COUNT>
4

> <PUBCHEM_PHARMACOPHORE_FEATURES>
8
1 2 acceptor
1 3 acceptor
1 4 cation
3 2 3 18 anion
3 6 7 19 cation
5 1 6 16 17 19 rings
6 16 17 20 21 22 23 rings
6 8 9 10 11 12 13 rings

> <PUBCHEM_HEAVY_ATOM_COUNT>
23

> <PUBCHEM_ATOM_DEF_STEREO_COUNT>
0

> <PUBCHEM_ATOM_UDEF_STEREO_COUNT>
0

> <PUBCHEM_BOND_DEF_STEREO_COUNT>
0

> <PUBCHEM_BOND_UDEF_STEREO_COUNT>
0

> <PUBCHEM_ISOTOPIC_ATOM_COUNT>
0

> <PUBCHEM_COMPONENT_COUNT>
1

> <PUBCHEM_CACTVS_TAUTO_COUNT>
1

> <PUBCHEM_CONFORMER_ID>
0001F62F00000001

> <PUBCHEM_MMFF94_ENERGY>
75.5746

> <PUBCHEM_FEATURE_SELFOVERLAP>
40.724

> <PUBCHEM_SHAPE_FINGERPRINT>
10 15 17988350556236715026
11315181 36 18040160630031009344
11646440 116 18272099326624200635
11963148 33 18412820313230939454
12107183 9 17466494608910569928
12166972 35 17603587460479438628
12236239 1 17530963587735356114
12403259 415 17560796615968979592
12516196 113 18131353033300773435
12596602 18 17749112235884724098
12730499 353 17132119026948115494
12788726 201 18334573508410021705
13402501 40 17988924478882160674
13533116 47 17894623726334373466
13782708 43 17703519779100416950
13914758 101 16588016866735994677
1420 363 17917714608224988374
14251752 14 17603578617484322917
14294032 229 18043815273533541805
14386348 63 17846502530017715126
15183329 4 15430027760418433671
15419008 47 18060698390647225808
15961568 22 18338516465104926740
17844677 252 16630535020469217704
19141452 34 17418092169804469799
19489759 90 18408886218013336010
200 152 16805039623046279798
20511986 3 17603854620651605628
21033648 29 17274246272067443040
21033650 10 18046090193535118716
21065198 48 17968656013280329162
21236236 1 18272935977816591777
21267235 1 18410300241743809315
2297311 6 18343028782697223716
23198884 109 15502373426908851927
23402539 116 18410849980188021647
23536379 177 16443060599767947431
23557571 272 18202009793775002228
23559900 14 18337950202823677016
283562 15 18341052905069006889
2838139 119 15502093042943649071
29717793 49 17676209057349750054
3004659 81 18187367661736231396
3009799 131 18412819175838825069
314173 85 18201445787312120417
335352 9 18409726275847854045
3411729 13 18193554704715355344
34797466 226 18130516309901365036
3545911 37 17203610393808986158
3633792 109 16950553338294191267
4325135 7 16559028298651818380
5104073 3 17845098367812183554
59755656 215 18341897363990203262
67856867 119 18041565870337279876
7226269 152 18260828194378313499

> <PUBCHEM_SHAPE_MULTIPOLES>
445.52
16.98
1.8
1.2
4.14
1.3
-0.23
-4.38
-0.29
-2.9
0.16
1.68
-0.04
0.54

> <PUBCHEM_SHAPE_SELFOVERLAP>
960.672

> <PUBCHEM_SHAPE_VOLUME>
247.8

> <PUBCHEM_COORDINATE_TYPE>
2
5
10

$$$$
