128522
  -OEChem-03292013323D

 40 42  0     1  0  0  0  0  0999 V2000
   -0.4198    2.2702    1.9765 S   0  0  0  0  0  0  0  0  0  0  0  0
    1.9875    0.7693   -2.1868 O   0  0  0  0  0  0  0  0  0  0  0  0
    2.9065    1.5750    1.1772 O   0  0  0  0  0  0  0  0  0  0  0  0
   -2.2452    0.9667   -1.9151 O   0  0  0  0  0  0  0  0  0  0  0  0
   -4.4746   -0.6659   -2.0109 O   0  0  0  0  0  0  0  0  0  0  0  0
    2.6681    0.7761   -0.9634 N   0  0  0  0  0  0  0  0  0  0  0  0
    0.0061    1.5706   -0.4911 N   0  0  0  0  0  0  0  0  0  0  0  0
    1.1587   -2.5419   -0.5383 N   0  0  0  0  0  0  0  0  0  0  0  0
    1.2825   -2.7122    1.6726 N   0  0  0  0  0  0  0  0  0  0  0  0
    1.1283    2.4506   -0.1264 C   0  0  1  0  0  0  0  0  0  0  0  0
    0.7810    3.2843    1.0947 C   0  0  0  0  0  0  0  0  0  0  0  0
    2.3136    1.5625    0.0975 C   0  0  0  0  0  0  0  0  0  0  0  0
    3.7878   -0.1403   -0.9446 C   0  0  0  0  0  0  0  0  0  0  0  0
   -0.8012    1.3999    0.5064 C   0  0  0  0  0  0  0  0  0  0  0  0
    3.3652   -1.5869   -1.1882 C   0  0  0  0  0  0  0  0  0  0  0  0
   -1.9993    0.5306    0.4253 C   0  0  0  0  0  0  0  0  0  0  0  0
    2.3715   -2.0893   -0.1697 C   0  0  0  0  0  0  0  0  0  0  0  0
   -2.6823    0.3432   -0.7833 C   0  0  0  0  0  0  0  0  0  0  0  0
   -2.4598   -0.1181    1.5778 C   0  0  0  0  0  0  0  0  0  0  0  0
    2.4499   -2.1909    1.1734 C   0  0  0  0  0  0  0  0  0  0  0  0
   -3.8073   -0.4795   -0.8380 C   0  0  0  0  0  0  0  0  0  0  0  0
   -3.5850   -0.9406    1.5232 C   0  0  0  0  0  0  0  0  0  0  0  0
   -4.2586   -1.1215    0.3153 C   0  0  0  0  0  0  0  0  0  0  0  0
    0.5263   -2.9119    0.6160 C   0  0  0  0  0  0  0  0  0  0  0  0
    1.3622    3.1194   -0.9635 H   0  0  0  0  0  0  0  0  0  0  0  0
    1.6282    3.5589    1.7282 H   0  0  0  0  0  0  0  0  0  0  0  0
    0.2731    4.2046    0.7872 H   0  0  0  0  0  0  0  0  0  0  0  0
    4.3188   -0.0572    0.0104 H   0  0  0  0  0  0  0  0  0  0  0  0
    4.4836    0.1746   -1.7310 H   0  0  0  0  0  0  0  0  0  0  0  0
    2.9460   -1.6898   -2.1971 H   0  0  0  0  0  0  0  0  0  0  0  0
    4.2531   -2.2302   -1.1538 H   0  0  0  0  0  0  0  0  0  0  0  0
   -1.9514   -0.0226    2.5331 H   0  0  0  0  0  0  0  0  0  0  0  0
    0.7789   -2.5997   -1.4743 H   0  0  0  0  0  0  0  0  0  0  0  0
    3.2681   -1.9247    1.8264 H   0  0  0  0  0  0  0  0  0  0  0  0
    2.5273    1.3994   -2.6939 H   0  0  0  0  0  0  0  0  0  0  0  0
   -3.9335   -1.4451    2.4197 H   0  0  0  0  0  0  0  0  0  0  0  0
   -5.1334   -1.7651    0.2791 H   0  0  0  0  0  0  0  0  0  0  0  0
   -0.4768   -3.3142    0.6176 H   0  0  0  0  0  0  0  0  0  0  0  0
   -1.5288    1.5882   -1.7121 H   0  0  0  0  0  0  0  0  0  0  0  0
   -4.0263   -0.1492   -2.7030 H   0  0  0  0  0  0  0  0  0  0  0  0
  1 11  1  0  0  0  0
  1 14  1  0  0  0  0
  2  6  1  0  0  0  0
  2 35  1  0  0  0  0
  3 12  2  0  0  0  0
  4 18  1  0  0  0  0
  4 39  1  0  0  0  0
  5 21  1  0  0  0  0
  5 40  1  0  0  0  0
  6 12  1  0  0  0  0
  6 13  1  0  0  0  0
  7 10  1  0  0  0  0
  7 14  2  0  0  0  0
  8 17  1  0  0  0  0
  8 24  1  0  0  0  0
  8 33  1  0  0  0  0
  9 20  1  0  0  0  0
  9 24  2  0  0  0  0
 10 11  1  0  0  0  0
 10 12  1  0  0  0  0
 10 25  1  0  0  0  0
 11 26  1  0  0  0  0
 11 27  1  0  0  0  0
 13 15  1  0  0  0  0
 13 28  1  0  0  0  0
 13 29  1  0  0  0  0
 14 16  1  0  0  0  0
 15 17  1  0  0  0  0
 15 30  1  0  0  0  0
 15 31  1  0  0  0  0
 16 18  2  0  0  0  0
 16 19  1  0  0  0  0
 17 20  2  0  0  0  0
 18 21  1  0  0  0  0
 19 22  2  0  0  0  0
 19 32  1  0  0  0  0
 20 34  1  0  0  0  0
 21 23  2  0  0  0  0
 22 23  1  0  0  0  0
 22 36  1  0  0  0  0
 23 37  1  0  0  0  0
 24 38  1  0  0  0  0
M  END
> <PUBCHEM_COMPOUND_CID>
128522

> <PUBCHEM_CONFORMER_RMSD>
1

> <PUBCHEM_CONFORMER_DIVERSEORDER>
16
298
78
48
172
346
100
299
229
142
207
187
51
388
52
317
404
414
50
301
373
244
221
184
193
118
257
46
174
347
399
166
396
246
259
320
285
58
169
264
274
195
397
12
384
300
363
178
131
307
130
145
402
314
211
306
61
132
281
164
240
290
76
324
196
162
410
7
190
15
136
343
91
263
170
134
202
217
407
144
323
64
160
179
26
409
129
151
255
250
271
295
380
143
38
350
153
406
219
86
235
335
135
181
349
220
392
268
266
22
302
258
318
248
53
338
360
353
122
81
389
310
215
358
230
154
182
352
383
287
42
68
82
25
152
29
254
60
24
382
416
367
84
252
149
278
57
168
379
180
394
183
19
1
371
368
216
309
225
127
167
208
236
157
387
362
393
337
32
326
97
378
156
165
232
413
277
101
286
333
191
204
374
275
102
133
228
297
294
261
67
31
256
18
5
106
289
291
241
150
316
214
332
321
419
231
107
201
296
260
45
345
247
59
63
253
357
227
322
319
328
44
128
188
176
159
104
21
90
336
98
158
331
269
375
88
87
115
282
272
43
400
313
85
356
411
126
3
121
4
94
293
401
6
155
288
238
138
79
366
334
33
199
237
218
370
175
141
13
8
412
242
381
137
421
54
96
364
376
73
110
92
305
311
2
49
212
55
361
276
408
108
355
177
27
93
146
395
359
279
99
80
205
103
239
173
280
200
303
245
120
284
251
249
283
113
403
9
391
125
62
206
327
11
273
223
30
351
119
147
369
348
75
41
209
14
37
124
105
116
163
117
83
95
386
341
312
233
140
77
89
339
148
420
405
194
74
23
385
197
213
34
365
222
47
354
262
192
40
65
189
39
265
329
139
224
109
325
171
342
243
111
315
71
161
28
20
390
123
344
112
10
270
72
340
17
304
36
203
185
330
234
415
114
267
56
186
35
377
69
226
66
398
70
372
210
417
418
292
198
308

> <PUBCHEM_MMFF94_PARTIAL_CHARGES>
33
1 -0.37
10 0.31
11 0.23
12 0.57
13 0.3
14 0.5
15 0.18
16 0.09
17 -0.33
18 0.08
19 -0.15
2 -0.44
20 0.08
21 0.08
22 -0.15
23 -0.15
24 0.04
3 -0.57
32 0.15
33 0.27
34 0.15
35 0.4
36 0.15
37 0.15
38 0.15
39 0.45
4 -0.53
40 0.45
5 -0.53
6 -0.32
7 -0.7
8 0.03
9 -0.57

> <PUBCHEM_EFFECTIVE_ROTOR_COUNT>
6.6

> <PUBCHEM_PHARMACOPHORE_FEATURES>
9
1 3 acceptor
1 4 donor
1 5 donor
1 7 acceptor
1 8 donor
3 8 9 24 cation
5 1 7 10 11 14 rings
5 8 9 17 20 24 rings
6 16 18 19 21 22 23 rings

> <PUBCHEM_HEAVY_ATOM_COUNT>
24

> <PUBCHEM_ATOM_DEF_STEREO_COUNT>
0

> <PUBCHEM_ATOM_UDEF_STEREO_COUNT>
1

> <PUBCHEM_BOND_DEF_STEREO_COUNT>
0

> <PUBCHEM_BOND_UDEF_STEREO_COUNT>
0

> <PUBCHEM_ISOTOPIC_ATOM_COUNT>
0

> <PUBCHEM_COMPONENT_COUNT>
1

> <PUBCHEM_CACTVS_TAUTO_COUNT>
26

> <PUBCHEM_CONFORMER_ID>
0001F60A00000010

> <PUBCHEM_MMFF94_ENERGY>
51.877

> <PUBCHEM_FEATURE_SELFOVERLAP>
45.676

> <PUBCHEM_SHAPE_FINGERPRINT>
11112662 9 16267382972543980504
12156800 1 16547438548463115362
12553582 1 18268718220630551419
12596599 1 17775297074761068167
12788726 201 17837209273114538393
14251757 17 17241325755644046471
14787075 74 18342746226122263548
17492 54 18262252091901087638
19026451 147 18271508858557188295
20645477 70 18338229496320933021
21421861 104 18271253737552339601
21731516 1 18129944459979101664
23419403 2 16965134988671993960
23559900 14 17530961350210538287
238 59 18263915691384900079
3323516 105 18335145331839962931
35225 105 17261889152455399591
3524813 1 18115038501037363398
4409770 3 15823511438149688632
463206 1 18340201994416764031
81228 2 17474659560351171939

> <PUBCHEM_SHAPE_MULTIPOLES>
454.36
7.06
3.6
1.92
4.35
0.22
0.23
-3.21
2.2
-2.6
-1.57
0.66
0.01
-0.24

> <PUBCHEM_SHAPE_SELFOVERLAP>
968.171

> <PUBCHEM_SHAPE_VOLUME>
255.1

> <PUBCHEM_COORDINATE_TYPE>
2
5
10

$$$$
