128557
  -OEChem-03292013323D

 34 36  0     1  0  0  0  0  0999 V2000
    2.0123   -0.5178   -0.9503 O   0  0  0  0  0  0  0  0  0  0  0  0
    1.1588    2.2404    1.1908 O   0  0  0  0  0  0  0  0  0  0  0  0
    3.3454    2.1731   -0.4214 O   0  0  0  0  0  0  0  0  0  0  0  0
    3.8593   -2.5536   -0.3966 O   0  0  0  0  0  0  0  0  0  0  0  0
   -0.2027   -0.3174   -0.1234 N   0  0  0  0  0  0  0  0  0  0  0  0
   -1.7334    1.4968   -0.5389 N   0  0  0  0  0  0  0  0  0  0  0  0
   -4.7555   -1.3595    0.4029 N   0  0  0  0  0  0  0  0  0  0  0  0
    1.0485    0.3908   -0.3841 C   0  0  1  0  0  0  0  0  0  0  0  0
    1.6993    0.9776    0.8592 C   0  0  1  0  0  0  0  0  0  0  0  0
    3.1529    1.0469    0.4345 C   0  0  1  0  0  0  0  0  0  0  0  0
    3.3128   -0.2283   -0.3871 C   0  0  1  0  0  0  0  0  0  0  0  0
    3.7500   -1.4225    0.4496 C   0  0  0  0  0  0  0  0  0  0  0  0
   -1.4632    0.2209   -0.2039 C   0  0  0  0  0  0  0  0  0  0  0  0
   -0.2967   -1.6378    0.2441 C   0  0  0  0  0  0  0  0  0  0  0  0
   -2.3799   -0.7758    0.1179 C   0  0  0  0  0  0  0  0  0  0  0  0
   -1.6304   -1.9482    0.4002 C   0  0  0  0  0  0  0  0  0  0  0  0
   -3.7414   -0.4328    0.0956 C   0  0  0  0  0  0  0  0  0  0  0  0
   -4.0774    0.8762   -0.2454 C   0  0  0  0  0  0  0  0  0  0  0  0
   -3.0586    1.7710   -0.5437 C   0  0  0  0  0  0  0  0  0  0  0  0
    0.8325    1.1538   -1.1419 H   0  0  0  0  0  0  0  0  0  0  0  0
    1.5872    0.3106    1.7218 H   0  0  0  0  0  0  0  0  0  0  0  0
    3.8573    1.1333    1.2668 H   0  0  0  0  0  0  0  0  0  0  0  0
    3.9976   -0.0919   -1.2317 H   0  0  0  0  0  0  0  0  0  0  0  0
    3.0264   -1.6630    1.2346 H   0  0  0  0  0  0  0  0  0  0  0  0
    4.7247   -1.2433    0.9127 H   0  0  0  0  0  0  0  0  0  0  0  0
    0.5843   -2.2517    0.3725 H   0  0  0  0  0  0  0  0  0  0  0  0
    1.1861    2.8025    0.3982 H   0  0  0  0  0  0  0  0  0  0  0  0
    3.2648    2.9709    0.1286 H   0  0  0  0  0  0  0  0  0  0  0  0
   -2.0162   -2.9166    0.6882 H   0  0  0  0  0  0  0  0  0  0  0  0
    2.9886   -2.6999   -0.8044 H   0  0  0  0  0  0  0  0  0  0  0  0
   -5.1128    1.2012   -0.2794 H   0  0  0  0  0  0  0  0  0  0  0  0
   -3.3024    2.7959   -0.8112 H   0  0  0  0  0  0  0  0  0  0  0  0
   -5.6805   -1.2067    0.0208 H   0  0  0  0  0  0  0  0  0  0  0  0
   -4.4917   -2.3059    0.6466 H   0  0  0  0  0  0  0  0  0  0  0  0
  1  8  1  0  0  0  0
  1 11  1  0  0  0  0
  2  9  1  0  0  0  0
  2 27  1  0  0  0  0
  3 10  1  0  0  0  0
  3 28  1  0  0  0  0
  4 12  1  0  0  0  0
  4 30  1  0  0  0  0
  5  8  1  0  0  0  0
  5 13  1  0  0  0  0
  5 14  1  0  0  0  0
  6 13  2  0  0  0  0
  6 19  1  0  0  0  0
  7 17  1  0  0  0  0
  7 33  1  0  0  0  0
  7 34  1  0  0  0  0
  8  9  1  0  0  0  0
  8 20  1  0  0  0  0
  9 10  1  0  0  0  0
  9 21  1  0  0  0  0
 10 11  1  0  0  0  0
 10 22  1  0  0  0  0
 11 12  1  0  0  0  0
 11 23  1  0  0  0  0
 12 24  1  0  0  0  0
 12 25  1  0  0  0  0
 13 15  1  0  0  0  0
 14 16  2  0  0  0  0
 14 26  1  0  0  0  0
 15 16  1  0  0  0  0
 15 17  2  0  0  0  0
 16 29  1  0  0  0  0
 17 18  1  0  0  0  0
 18 19  2  0  0  0  0
 18 31  1  0  0  0  0
 19 32  1  0  0  0  0
M  END
> <PUBCHEM_COMPOUND_CID>
128557

> <PUBCHEM_CONFORMER_RMSD>
0.6

> <PUBCHEM_CONFORMER_DIVERSEORDER>
3
11
15
4
9
6
2
13
5
1
12
10
14
8
7

> <PUBCHEM_MMFF94_PARTIAL_CHARGES>
27
1 -0.56
10 0.28
11 0.28
12 0.28
13 0.11
14 -0.3
16 -0.15
17 0.1
18 -0.15
19 0.16
2 -0.68
26 0.15
27 0.4
28 0.4
29 0.15
3 -0.68
30 0.4
31 0.15
32 0.15
33 0.4
34 0.4
4 -0.68
5 0.05
6 -0.57
7 -0.9
8 0.54
9 0.28

> <PUBCHEM_EFFECTIVE_ROTOR_COUNT>
3

> <PUBCHEM_PHARMACOPHORE_FEATURES>
13
1 1 acceptor
1 2 acceptor
1 2 donor
1 3 acceptor
1 3 donor
1 4 acceptor
1 4 donor
1 7 cation
1 7 donor
3 5 6 13 cation
5 1 8 9 10 11 rings
5 5 13 14 15 16 rings
6 6 13 15 17 18 19 rings

> <PUBCHEM_HEAVY_ATOM_COUNT>
19

> <PUBCHEM_ATOM_DEF_STEREO_COUNT>
4

> <PUBCHEM_ATOM_UDEF_STEREO_COUNT>
0

> <PUBCHEM_BOND_DEF_STEREO_COUNT>
0

> <PUBCHEM_BOND_UDEF_STEREO_COUNT>
0

> <PUBCHEM_ISOTOPIC_ATOM_COUNT>
0

> <PUBCHEM_COMPONENT_COUNT>
1

> <PUBCHEM_CACTVS_TAUTO_COUNT>
4

> <PUBCHEM_CONFORMER_ID>
0001F62D00000003

> <PUBCHEM_MMFF94_ENERGY>
50.6635

> <PUBCHEM_FEATURE_SELFOVERLAP>
66.1

> <PUBCHEM_SHAPE_FINGERPRINT>
10498660 4 18114173134295193453
10608611 8 18411133675246118621
10646746 165 18335980891667400061
1100329 8 16538483588731636034
12403259 226 18410851058177203453
12403259 415 18334010571452570469
12403260 363 18411691063538437207
13134695 92 17703211924471412408
13581323 91 18261671557976795565
13675066 3 18271515421240336186
14866123 147 16902156994195018946
15196674 1 18408885135750214093
15219456 202 18341891909011893685
15442244 35 18338517435170520736
15536298 74 18409727352729734250
16945 1 18124021584066236848
17802600 8 18410851053813573427
17804303 29 18336267851190805631
1813 80 16515955979249226766
18186145 218 18343027657347317797
19049666 15 18411979169786371504
19591789 44 18408885118518097699
200 152 17704062980893943629
20510252 161 18410576210514599705
20645477 70 18202290203747607822
21267235 1 18408612456524011066
21501502 16 18341044232976167582
23402539 116 18338508746873908279
23559900 14 18411134715139549932
296302 2 13182729351542564730
3004659 81 17970074336426877782
3286 77 18343017796323893917
335352 9 18265613169839528957
350125 39 18263648377136793445
4214541 1 18408040688912618581
43471831 8 18040709247752963163
474 4 16155408695750653996
495365 180 17631718461344383920
5104073 3 18409450280321115761
633830 44 18334568028052928527
69090 78 18272366516439548591
7364860 26 18411419540364857214
77779 3 18408324384477208957
81228 2 17971748033051067123
9709674 26 18408889559245262762

> <PUBCHEM_SHAPE_MULTIPOLES>
352.59
8.25
2.36
0.83
1.41
0.07
0.07
1.15
-0.2
-0.96
0.14
-0.27
-0.16
0.77

> <PUBCHEM_SHAPE_SELFOVERLAP>
768.748

> <PUBCHEM_SHAPE_VOLUME>
191.8

> <PUBCHEM_COORDINATE_TYPE>
2
5
10

$$$$
