REMARK  Name = 128559
REMARK  6 active torsions:
REMARK  status: ('A' for Active; 'I' for Inactive)
REMARK    1  A    between atoms: C_1  and  N_7
REMARK    2  A    between atoms: C_3  and  C_11
REMARK    3  A    between atoms: C_5  and  N_14
REMARK    4  A    between atoms: C_11  and  O_12
REMARK    5  A    between atoms: N_14  and  N_15
REMARK    6  A    between atoms: N_15  and  C_20
REMARK                            x       y       z     vdW  Elec       q    Type
REMARK                         _______ _______ _______ _____ _____    ______ ____
ROOT
ATOM      1  C   UNL     1      -4.203  -0.536   0.020  0.00  0.00    +0.048 C 
ATOM      2  C   UNL     1      -3.568   0.706   0.047  0.00  0.00    +0.022 C 
ATOM      3  C   UNL     1      -2.185   0.779   0.209  0.00  0.00    +0.093 C 
ATOM      4  C   UNL     1      -3.455  -1.705   0.155  0.00  0.00    +0.016 C 
ATOM      5  C   UNL     1      -1.441  -0.391   0.344  0.00  0.00    +0.095 C 
ATOM      6  C   UNL     1      -2.071  -1.632   0.318  0.00  0.00    +0.020 C 
ENDROOT
BRANCH   1   7
ATOM      7  N   UNL     1      -5.602  -0.609  -0.144  0.00  0.00    -0.304 N 
ATOM      8  C   UNL     1      -6.353  -1.704   0.439  0.00  0.00    +0.112 C 
ATOM      9  C   UNL     1      -6.309   0.416  -0.886  0.00  0.00    +0.112 C 
ENDBRANCH   1   7
BRANCH   3  11
ATOM     10  O   UNL     1      -0.518   2.369   0.853  0.00  0.00    -0.245 OA
ATOM     11  C   UNL     1      -1.548   2.089   0.234  0.00  0.00    +0.339 C 
BRANCH  11  12
ATOM     12  O   UNL     1      -2.217   3.004  -0.517  0.00  0.00    -0.477 OA
ATOM     13  H   UNL     1      -2.996   2.756  -0.974  0.00  0.00    +0.295 HD
ENDBRANCH  11  12
ENDBRANCH   3  11
BRANCH   5  14
ATOM     14  N   UNL     1      -0.046  -0.340   0.508  0.00  0.00    -0.125 NA
BRANCH  14  15
ATOM     15  N   UNL     1       0.560  -0.369  -0.606  0.00  0.00    -0.089 NA
BRANCH  15  20
ATOM     16  S   UNL     1       2.877  -0.351  -1.855  0.00  0.00    -0.035 S 
ATOM     17  N   UNL     1       2.541  -0.251   0.701  0.00  0.00    -0.381 NA
ATOM     18  C   UNL     1       4.290  -0.265  -0.870  0.00  0.00    +0.059 C 
ATOM     19  C   UNL     1       3.909  -0.218   0.474  0.00  0.00    +0.122 C 
ATOM     20  C   UNL     1       1.907  -0.320  -0.447  0.00  0.00    +0.250 C 
ATOM     21  C   UNL     1       5.639  -0.240  -1.260  0.00  0.00    +0.009 C 
ATOM     22  C   UNL     1       4.915  -0.144   1.462  0.00  0.00    +0.086 C 
ATOM     23  C   UNL     1       6.615  -0.167  -0.263  0.00  0.00    -0.004 C 
ATOM     24  C   UNL     1       6.260  -0.120   1.081  0.00  0.00    -0.019 C 
ENDBRANCH  15  20
ENDBRANCH  14  15
ENDBRANCH   5  14
TORSDOF 6
