REMARK  Name = 128530
REMARK  9 active torsions:
REMARK  status: ('A' for Active; 'I' for Inactive)
REMARK    1  A    between atoms: C_2  and  C_10
REMARK    2  A    between atoms: C_3  and  C_20
REMARK    3  A    between atoms: C_4  and  C_28
REMARK    4  A    between atoms: C_13  and  N_18
REMARK    5  A    between atoms: C_20  and  O_21
REMARK    6  A    between atoms: O_21  and  C_22
REMARK    7  A    between atoms: C_22  and  C_24
REMARK    8  A    between atoms: C_24  and  O_25
REMARK    9  A    between atoms: C_28  and  O_29
REMARK                            x       y       z     vdW  Elec       q    Type
REMARK                         _______ _______ _______ _____ _____    ______ ____
ROOT
ATOM      1  N   UNL     1      -1.754   1.759  -1.931  0.00  0.00    -0.334 N 
ATOM      2  C   UNL     1      -1.060   0.670   0.591  0.00  0.00    +0.011 C 
ATOM      3  C   UNL     1      -0.220   1.731  -0.129  0.00  0.00    +0.071 C 
ATOM      4  C   UNL     1      -2.390   0.383  -0.114  0.00  0.00    +0.085 C 
ATOM      5  C   UNL     1      -0.585   2.211  -1.340  0.00  0.00    +0.098 C 
ATOM      6  C   UNL     1      -2.665   0.904  -1.330  0.00  0.00    +0.028 C 
ATOM      7  C   UNL     1       0.185   3.221  -2.147  0.00  0.00    +0.026 C 
ATOM      8  C   UNL     1      -3.914   0.645  -2.129  0.00  0.00    +0.047 C 
ATOM      9  H   UNL     1      -1.953   2.067  -2.845  0.00  0.00    +0.147 HD
ENDROOT
BRANCH   2  10
ATOM     10  C   UNL     1      -0.270  -0.600   0.731  0.00  0.00    +0.002 C 
ATOM     11  C   UNL     1       0.146  -1.280  -0.407  0.00  0.00    +0.024 C 
ATOM     12  C   UNL     1       0.038  -1.080   1.999  0.00  0.00    +0.000 C 
ATOM     13  C   UNL     1       0.881  -2.459  -0.276  0.00  0.00    +0.143 C 
ATOM     14  C   UNL     1       0.773  -2.258   2.130  0.00  0.00    +0.002 C 
ATOM     15  C   UNL     1       1.194  -2.948   0.993  0.00  0.00    +0.024 C 
BRANCH  13  18
ATOM     16  O   UNL     1       1.972  -4.216  -1.287  0.00  0.00    -0.126 OA
ATOM     17  O   UNL     1       1.016  -2.699  -2.561  0.00  0.00    -0.126 OA
ATOM     18  N   UNL     1       1.312  -3.160  -1.433  0.00  0.00    +0.058 N 
ENDBRANCH  13  18
ENDBRANCH   2  10
BRANCH   3  20
ATOM     19  O   UNL     1       0.913   3.172   1.373  0.00  0.00    -0.245 OA
ATOM     20  C   UNL     1       0.958   2.240   0.592  0.00  0.00    +0.339 C 
BRANCH  20  21
ATOM     21  O   UNL     1       2.034   1.501   0.229  0.00  0.00    -0.433 OA
BRANCH  21  22
ATOM     22  C   UNL     1       3.267   1.878   0.852  0.00  0.00    +0.317 C 
BRANCH  22  24
ATOM     23  O   UNL     1       4.255   0.059  -0.420  0.00  0.00    -0.246 OA
ATOM     24  C   UNL     1       4.376   0.986   0.367  0.00  0.00    +0.359 C 
BRANCH  24  25
ATOM     25  O   UNL     1       5.554   1.355   0.929  0.00  0.00    -0.478 OA
ATOM     26  H   UNL     1       5.582   2.076   1.527  0.00  0.00    +0.295 HD
ENDBRANCH  24  25
ENDBRANCH  22  24
ENDBRANCH  21  22
ENDBRANCH  20  21
ENDBRANCH   3  20
BRANCH   4  28
ATOM     27  O   UNL     1      -3.426  -1.654   0.515  0.00  0.00    -0.245 OA
ATOM     28  C   UNL     1      -3.360  -0.443   0.623  0.00  0.00    +0.342 C 
BRANCH  28  29
ATOM     29  O   UNL     1      -4.116   0.372   1.397  0.00  0.00    -0.441 OA
ATOM     30  C   UNL     1      -5.114  -0.288   2.182  0.00  0.00    +0.256 C 
ENDBRANCH  28  29
ENDBRANCH   4  28
TORSDOF 9
