REMARK  Name = 128587
REMARK  6 active torsions:
REMARK  status: ('A' for Active; 'I' for Inactive)
REMARK    1  A    between atoms: N_2  and  C_15
REMARK    2  A    between atoms: C_4  and  S_7
REMARK    3  A    between atoms: S_7  and  C_9
REMARK    4  A    between atoms: C_9  and  C_11
REMARK    5  A    between atoms: C_15  and  C_17
REMARK    6  A    between atoms: C_17  and  O_18
REMARK                            x       y       z     vdW  Elec       q    Type
REMARK                         _______ _______ _______ _____ _____    ______ ____
ROOT
ATOM      1  O   UNL     1      -2.438  -1.480  -1.670  0.00  0.00    -0.274 OA
ATOM      2  N   UNL     1      -2.587  -0.570   0.493  0.00  0.00    -0.269 N 
ATOM      3  C   UNL     1      -0.601  -1.381   1.382  0.00  0.00    +0.042 C 
ATOM      4  C   UNL     1      -0.553  -1.549  -0.137  0.00  0.00    +0.133 C 
ATOM      5  C   UNL     1      -1.706  -0.368   1.619  0.00  0.00    +0.095 C 
ATOM      6  C   UNL     1      -1.969  -1.229  -0.569  0.00  0.00    +0.236 C 
ENDROOT
BRANCH   4   7
ATOM      7  S   UNL     1       0.577  -0.373  -0.933  0.00  0.00    -0.064 S 
BRANCH   7   9
ATOM      8  O   UNL     1       2.321  -2.120  -0.049  0.00  0.00    -0.279 OA
ATOM      9  C   UNL     1       2.128  -0.933  -0.292  0.00  0.00    +0.228 C 
BRANCH   9  11
ATOM     10  S   UNL     1       4.685  -0.361   0.403  0.00  0.00    -0.083 S 
ATOM     11  C   UNL     1       3.150   0.106  -0.140  0.00  0.00    +0.074 C 
ATOM     12  C   UNL     1       3.022   1.431  -0.385  0.00  0.00    +0.011 C 
ATOM     13  C   UNL     1       4.243   2.115  -0.117  0.00  0.00    +0.008 C 
ATOM     14  C   UNL     1       5.231   1.260   0.318  0.00  0.00    +0.036 C 
ENDBRANCH   9  11
ENDBRANCH   7   9
ENDBRANCH   4   7
BRANCH   2  15
ATOM     15  C   UNL     1      -3.917   0.000   0.464  0.00  0.00    +0.204 C 
BRANCH  15  17
ATOM     16  O   UNL     1      -4.953   2.103  -0.085  0.00  0.00    -0.248 OA
ATOM     17  C   UNL     1      -3.929   1.435   0.003  0.00  0.00    +0.334 C 
BRANCH  17  18
ATOM     18  O   UNL     1      -2.703   1.915  -0.307  0.00  0.00    -0.479 OA
ATOM     19  H   UNL     1      -1.949   1.364  -0.223  0.00  0.00    +0.295 HD
ENDBRANCH  17  18
ENDBRANCH  15  17
ENDBRANCH   2  15
TORSDOF 6
