REMARK  Name = 128519
REMARK  16 active torsions:
REMARK  status: ('A' for Active; 'I' for Inactive)
REMARK    1  A    between atoms: C_1  and  C_2
REMARK    2  A    between atoms: C_1  and  C_17
REMARK    3  A    between atoms: C_2  and  P_3
REMARK    4  A    between atoms: C_2  and  P_9
REMARK    5  A    between atoms: C_2  and  O_15
REMARK    6  A    between atoms: P_3  and  O_5
REMARK    7  A    between atoms: P_3  and  O_7
REMARK    8  A    between atoms: P_9  and  O_11
REMARK    9  A    between atoms: P_9  and  O_13
REMARK   10  A    between atoms: C_17  and  C_18
REMARK   11  A    between atoms: C_18  and  C_19
REMARK   12  A    between atoms: C_22  and  N_25
REMARK   13  A    between atoms: N_25  and  C_26
REMARK   14  A    between atoms: N_25  and  C_29
REMARK   15  A    between atoms: C_26  and  C_28
REMARK   16  A    between atoms: C_29  and  C_31
REMARK                            x       y       z     vdW  Elec       q    Type
REMARK                         _______ _______ _______ _____ _____    ______ ____
ROOT
ATOM      1  C   UNL     1      -3.149  -0.052  -1.413  0.00  0.00    +0.051 C 
ENDROOT
BRANCH   1   2
ATOM      2  C   UNL     1      -4.344  -0.031  -0.436  0.00  0.00    +0.275 C 
BRANCH   2   3
ATOM      3  P   UNL     1      -4.508   1.585   0.411  0.00  0.00    +0.372 P 
ATOM      4  O   UNL     1      -4.252   2.778  -0.460  0.00  0.00    -0.255 OA
BRANCH   3   5
ATOM      5  O   UNL     1      -3.509   1.454   1.676  0.00  0.00    -0.322 OA
ATOM      6  H   UNL     1      -3.529   2.275   2.192  0.00  0.00    +0.220 HD
ENDBRANCH   3   5
BRANCH   3   7
ATOM      7  O   UNL     1      -5.973   1.531   1.092  0.00  0.00    -0.322 OA
ATOM      8  H   UNL     1      -6.140   2.361   1.567  0.00  0.00    +0.220 HD
ENDBRANCH   3   7
ENDBRANCH   2   3
BRANCH   2   9
ATOM      9  P   UNL     1      -4.476  -1.595   0.505  0.00  0.00    +0.372 P 
ATOM     10  O   UNL     1      -4.198  -2.836  -0.291  0.00  0.00    -0.255 OA
BRANCH   9  11
ATOM     11  O   UNL     1      -3.503  -1.353   1.773  0.00  0.00    -0.322 OA
ATOM     12  H   UNL     1      -3.507  -2.141   2.338  0.00  0.00    +0.220 HD
ENDBRANCH   9  11
BRANCH   9  13
ATOM     13  O   UNL     1      -5.951  -1.519   1.164  0.00  0.00    -0.322 OA
ATOM     14  H   UNL     1      -6.112  -2.318   1.689  0.00  0.00    +0.220 HD
ENDBRANCH   9  13
ENDBRANCH   2   9
BRANCH   2  15
ATOM     15  O   UNL     1      -5.528  -0.065  -1.247  0.00  0.00    -0.367 OA
ATOM     16  H   UNL     1      -6.312  -0.053  -0.676  0.00  0.00    +0.212 HD
ENDBRANCH   2  15
ENDBRANCH   1   2
BRANCH   1  17
ATOM     17  C   UNL     1      -1.780  -0.021  -0.736  0.00  0.00    +0.008 C 
BRANCH  17  18
ATOM     18  C   UNL     1      -0.654   0.017  -1.774  0.00  0.00    +0.026 C 
BRANCH  18  19
ATOM     19  C   UNL     1       0.705   0.005  -1.121  0.00  0.00    -0.022 C 
ATOM     20  C   UNL     1       1.340  -1.207  -0.856  0.00  0.00    -0.003 C 
ATOM     21  C   UNL     1       1.326   1.207  -0.783  0.00  0.00    -0.003 C 
ATOM     22  C   UNL     1       3.219  -0.017   0.087  0.00  0.00    +0.048 C 
ATOM     23  C   UNL     1       2.597  -1.218  -0.251  0.00  0.00    +0.014 C 
ATOM     24  C   UNL     1       2.583   1.196  -0.178  0.00  0.00    +0.014 C 
BRANCH  22  25
ATOM     25  N   UNL     1       4.490  -0.028   0.698  0.00  0.00    -0.305 N 
BRANCH  25  26
ATOM     26  C   UNL     1       5.152  -1.283   0.991  0.00  0.00    +0.108 C 
BRANCH  26  28
ATOM     27 CL   UNL     1       6.840  -3.269   0.172  0.00  0.00    -0.112 Cl
ATOM     28  C   UNL     1       6.013  -1.732  -0.180  0.00  0.00    +0.116 C 
ENDBRANCH  26  28
ENDBRANCH  25  26
BRANCH  25  29
ATOM     29  C   UNL     1       5.144   1.216   1.054  0.00  0.00    +0.108 C 
BRANCH  29  31
ATOM     30 CL   UNL     1       6.607   3.384   0.264  0.00  0.00    -0.112 Cl
ATOM     31  C   UNL     1       5.808   1.849  -0.159  0.00  0.00    +0.116 C 
ENDBRANCH  29  31
ENDBRANCH  25  29
ENDBRANCH  22  25
ENDBRANCH  18  19
ENDBRANCH  17  18
ENDBRANCH   1  17
TORSDOF 16
