REMARK  Name = 128523
REMARK  10 active torsions:
REMARK  status: ('A' for Active; 'I' for Inactive)
REMARK    1  A    between atoms: C_1  and  P_2
REMARK    2  A    between atoms: C_1  and  P_8
REMARK    3  A    between atoms: C_1  and  O_14
REMARK    4  A    between atoms: C_1  and  C_16
REMARK    5  A    between atoms: P_2  and  O_4
REMARK    6  A    between atoms: P_2  and  O_6
REMARK    7  A    between atoms: P_8  and  O_10
REMARK    8  A    between atoms: P_8  and  O_12
REMARK    9  A    between atoms: C_16  and  C_17
REMARK   10  A    between atoms: C_17  and  C_19
REMARK                            x       y       z     vdW  Elec       q    Type
REMARK                         _______ _______ _______ _____ _____    ______ ____
ROOT
ATOM      1  C   UNL     1      -1.570   0.005  -0.445  0.00  0.00    +0.275 C 
ENDROOT
BRANCH   1   2
ATOM      2  P   UNL     1      -2.105  -1.606   0.235  0.00  0.00    +0.372 P 
ATOM      3  O   UNL     1      -1.486  -1.976   1.550  0.00  0.00    -0.255 OA
BRANCH   2   4
ATOM      4  O   UNL     1      -3.717  -1.496   0.235  0.00  0.00    -0.322 OA
ATOM      5  H   UNL     1      -4.098  -2.317   0.584  0.00  0.00    +0.220 HD
ENDBRANCH   2   4
BRANCH   2   6
ATOM      6  O   UNL     1      -1.816  -2.641  -0.975  0.00  0.00    -0.322 OA
ATOM      7  H   UNL     1      -2.073  -3.536  -0.703  0.00  0.00    +0.220 HD
ENDBRANCH   2   6
ENDBRANCH   1   2
BRANCH   1   8
ATOM      8  P   UNL     1      -2.188   1.581   0.251  0.00  0.00    +0.372 P 
ATOM      9  O   UNL     1      -1.590   1.960   1.572  0.00  0.00    -0.255 OA
BRANCH   8  10
ATOM     10  O   UNL     1      -1.971   2.654  -0.938  0.00  0.00    -0.322 OA
ATOM     11  H   UNL     1      -2.278   3.527  -0.646  0.00  0.00    +0.220 HD
ENDBRANCH   8  10
BRANCH   8  12
ATOM     12  O   UNL     1      -3.793   1.378   0.276  0.00  0.00    -0.322 OA
ATOM     13  H   UNL     1      -4.214   2.174   0.635  0.00  0.00    +0.220 HD
ENDBRANCH   8  12
ENDBRANCH   1   8
BRANCH   1  14
ATOM     14  O   UNL     1      -2.154  -0.014  -1.755  0.00  0.00    -0.367 OA
ATOM     15  H   UNL     1      -3.121  -0.035  -1.677  0.00  0.00    +0.212 HD
ENDBRANCH   1  14
BRANCH   1  16
ATOM     16  C   UNL     1      -0.046   0.037  -0.680  0.00  0.00    +0.056 C 
BRANCH  16  17
ATOM     17  C   UNL     1       0.789   0.062   0.600  0.00  0.00    +0.032 C 
BRANCH  17  19
ATOM     18  N   UNL     1       4.293   1.218  -0.166  0.00  0.00    -0.243 NA
ATOM     19  C   UNL     1       2.266   0.020   0.293  0.00  0.00    -0.003 C 
ATOM     20  C   UNL     1       2.920  -1.191   0.191  0.00  0.00    -0.001 C 
ATOM     21  C   UNL     1       2.971   1.186   0.112  0.00  0.00    +0.095 C 
ATOM     22  C   UNL     1       4.281  -1.199  -0.093  0.00  0.00    +0.020 C 
ATOM     23  C   UNL     1       4.916   0.021  -0.261  0.00  0.00    +0.099 C 
ENDBRANCH  17  19
ENDBRANCH  16  17
ENDBRANCH   1  16
TORSDOF 10
