128587
  -OEChem-03292013323D

 29 30  0     1  0  0  0  0  0999 V2000
    0.5768   -0.3729   -0.9326 S   0  0  0  0  0  0  0  0  0  0  0  0
    4.6850   -0.3613    0.4029 S   0  0  0  0  0  0  0  0  0  0  0  0
   -2.4382   -1.4804   -1.6700 O   0  0  0  0  0  0  0  0  0  0  0  0
   -2.7027    1.9149   -0.3070 O   0  0  0  0  0  0  0  0  0  0  0  0
   -4.9529    2.1025   -0.0848 O   0  0  0  0  0  0  0  0  0  0  0  0
    2.3207   -2.1202   -0.0487 O   0  0  0  0  0  0  0  0  0  0  0  0
   -2.5871   -0.5699    0.4935 N   0  0  0  0  0  0  0  0  0  0  0  0
   -0.6014   -1.3812    1.3823 C   0  0  0  0  0  0  0  0  0  0  0  0
   -0.5532   -1.5491   -0.1367 C   0  0  1  0  0  0  0  0  0  0  0  0
   -1.7058   -0.3677    1.6192 C   0  0  0  0  0  0  0  0  0  0  0  0
   -1.9692   -1.2288   -0.5690 C   0  0  0  0  0  0  0  0  0  0  0  0
   -3.9166    0.0002    0.4637 C   0  0  0  0  0  0  0  0  0  0  0  0
   -3.9295    1.4349    0.0027 C   0  0  0  0  0  0  0  0  0  0  0  0
    2.1284   -0.9335   -0.2918 C   0  0  0  0  0  0  0  0  0  0  0  0
    3.1501    0.1063   -0.1400 C   0  0  0  0  0  0  0  0  0  0  0  0
    3.0220    1.4315   -0.3849 C   0  0  0  0  0  0  0  0  0  0  0  0
    4.2430    2.1153   -0.1172 C   0  0  0  0  0  0  0  0  0  0  0  0
    5.2307    1.2595    0.3183 C   0  0  0  0  0  0  0  0  0  0  0  0
    0.3418   -1.0953    1.8567 H   0  0  0  0  0  0  0  0  0  0  0  0
   -0.9036   -2.3388    1.8277 H   0  0  0  0  0  0  0  0  0  0  0  0
   -0.3036   -2.5763   -0.4188 H   0  0  0  0  0  0  0  0  0  0  0  0
   -2.2330   -0.5505    2.5600 H   0  0  0  0  0  0  0  0  0  0  0  0
   -1.3271    0.6586    1.5998 H   0  0  0  0  0  0  0  0  0  0  0  0
   -4.3517   -0.0667    1.4648 H   0  0  0  0  0  0  0  0  0  0  0  0
   -4.5191   -0.5759   -0.2459 H   0  0  0  0  0  0  0  0  0  0  0  0
    2.1344    1.9421   -0.7337 H   0  0  0  0  0  0  0  0  0  0  0  0
   -2.7378    2.8490   -0.6042 H   0  0  0  0  0  0  0  0  0  0  0  0
    4.3896    3.1810   -0.2371 H   0  0  0  0  0  0  0  0  0  0  0  0
    6.2466    1.5087    0.5909 H   0  0  0  0  0  0  0  0  0  0  0  0
  1  9  1  0  0  0  0
  1 14  1  0  0  0  0
  2 15  1  0  0  0  0
  2 18  1  0  0  0  0
  3 11  2  0  0  0  0
  4 13  1  0  0  0  0
  4 27  1  0  0  0  0
  5 13  2  0  0  0  0
  6 14  2  0  0  0  0
  7 10  1  0  0  0  0
  7 11  1  0  0  0  0
  7 12  1  0  0  0  0
  8  9  1  0  0  0  0
  8 10  1  0  0  0  0
  8 19  1  0  0  0  0
  8 20  1  0  0  0  0
  9 11  1  0  0  0  0
  9 21  1  0  0  0  0
 10 22  1  0  0  0  0
 10 23  1  0  0  0  0
 12 13  1  0  0  0  0
 12 24  1  0  0  0  0
 12 25  1  0  0  0  0
 14 15  1  0  0  0  0
 15 16  2  0  0  0  0
 16 17  1  0  0  0  0
 16 26  1  0  0  0  0
 17 18  2  0  0  0  0
 17 28  1  0  0  0  0
 18 29  1  0  0  0  0
M  END
> <PUBCHEM_COMPOUND_CID>
128587

> <PUBCHEM_CONFORMER_RMSD>
0.8

> <PUBCHEM_CONFORMER_DIVERSEORDER>
1
165
167
185
229
143
222
153
13
60
43
212
21
28
172
235
95
163
241
71
186
29
193
47
226
51
26
157
62
4
130
131
123
216
90
84
228
166
203
7
35
174
30
156
68
109
184
107
180
121
39
50
129
5
178
38
64
36
197
192
183
85
54
141
66
134
76
65
126
182
118
206
231
124
34
99
215
52
205
219
41
59
70
232
213
189
155
63
234
22
115
48
116
170
227
31
238
106
73
137
100
195
81
83
173
136
239
224
210
79
77
164
169
114
2
151
37
150
3
211
145
202
139
233
49
78
96
42
45
86
208
179
159
17
56
144
207
16
15
74
201
61
46
161
40
218
204
19
214
44
32
223
8
94
175
108
12
18
57
217
69
236
200
88
176
25
10
111
58
11
103
127
104
194
27
101
14
177
33
240
135
221
93
89
188
91
187
55
72
92
120
171
138
128
181
147
24
209
53
152
154
6
225
82
23
113
148
133
199
220
191
132
160
20
98
168
149
196
102
125
140
67
119
142
198
122
190
117
87
230
110
237
80
97
9
162
75
112
146
105
158

> <PUBCHEM_MMFF94_PARTIAL_CHARGES>
21
1 -0.37
10 0.3
11 0.57
12 0.36
13 0.66
14 0.8
15 -0.05
16 -0.15
17 -0.15
18 -0.11
2 -0.08
26 0.15
27 0.5
28 0.15
29 0.15
3 -0.57
4 -0.65
5 -0.57
6 -0.57
7 -0.66
9 0.29

> <PUBCHEM_EFFECTIVE_ROTOR_COUNT>
5.8

> <PUBCHEM_PHARMACOPHORE_FEATURES>
6
1 3 acceptor
1 4 acceptor
1 5 acceptor
3 4 5 13 anion
5 2 15 16 17 18 rings
5 7 8 9 10 11 rings

> <PUBCHEM_HEAVY_ATOM_COUNT>
18

> <PUBCHEM_ATOM_DEF_STEREO_COUNT>
0

> <PUBCHEM_ATOM_UDEF_STEREO_COUNT>
1

> <PUBCHEM_BOND_DEF_STEREO_COUNT>
0

> <PUBCHEM_BOND_UDEF_STEREO_COUNT>
0

> <PUBCHEM_ISOTOPIC_ATOM_COUNT>
0

> <PUBCHEM_COMPONENT_COUNT>
1

> <PUBCHEM_CACTVS_TAUTO_COUNT>
2

> <PUBCHEM_CONFORMER_ID>
0001F64B00000001

> <PUBCHEM_MMFF94_ENERGY>
29.4552

> <PUBCHEM_FEATURE_SELFOVERLAP>
30.505

> <PUBCHEM_SHAPE_FINGERPRINT>
10014705 185 18272088318095207403
10498660 4 17632860862631641768
11046707 91 9727639401165673489
11370993 144 17967812756496989890
11552529 35 17243305104249917826
122479 349 18334862722585489683
12403814 3 18272096045469691579
12596602 18 16226054434811143568
12633257 1 17023177284321638496
12892183 10 17894356591704779203
13103583 49 12757444791386988629
13288520 33 8862951580104355666
13675066 3 18114190713168742867
14123255 352 18410573985199248748
14178342 30 17604440698635281306
14251764 38 18268153058637662472
14576447 43 9727637211492124708
15061688 2 18410295766213625035
15196674 1 18410013242948662348
15209294 21 18040716961060058427
15238133 3 17967824829587054620
17834072 32 18341897385074395877
17959699 21 18342457045330483152
18915474 69 10519990374480649736
193927 3 11746927673264526040
19422 9 8286202764197112150
20112054 13 18040719155867519919
20157964 124 18339921507392872733
20374829 77 11095888133395675709
20645477 56 18335146371100664087
20715895 44 18126001564301410129
20871999 31 17346309440909896751
21475661 188 18041279851132280013
21864079 5 18337959007949725908
231179 274 18272660064758809972
23227448 37 18341614853893991535
23557571 272 17917715750717846903
23559900 14 17560523902641754510
27216 239 18261959643061233603
2838139 119 18338508634904325069
351380 180 18335702719404599361
4028521 119 18130793364544240712
4175511 318 17704354389898031343
465052 167 11386381321937054753
474 4 18260828224015849022
5104073 3 18260832583312800706
57724786 102 17822297924626660388
633830 44 18333732451140736510

> <PUBCHEM_SHAPE_MULTIPOLES>
349.67
10.54
2.25
1.13
3.6
0.69
0.1
6.76
0.72
-0.51
-0.19
-0.62
-0.41
-0.08

> <PUBCHEM_SHAPE_SELFOVERLAP>
709.786

> <PUBCHEM_SHAPE_VOLUME>
204

> <PUBCHEM_COORDINATE_TYPE>
2
5
10

$$$$
