REMARK  Name = 128522
REMARK  8 active torsions:
REMARK  status: ('A' for Active; 'I' for Inactive)
REMARK    1  A    between atoms: C_3  and  C_18
REMARK    2  A    between atoms: C_5  and  C_6
REMARK    3  A    between atoms: C_7  and  O_12
REMARK    4  A    between atoms: C_9  and  O_14
REMARK    5  A    between atoms: N_17  and  O_19
REMARK    6  A    between atoms: N_17  and  C_21
REMARK    7  A    between atoms: C_21  and  C_22
REMARK    8  A    between atoms: C_22  and  C_25
REMARK                            x       y       z     vdW  Elec       q    Type
REMARK                         _______ _______ _______ _____ _____    ______ ____
ROOT
ATOM      1  S   UNL     1      -0.420   2.270   1.976  0.00  0.00    -0.093 S 
ATOM      2  N   UNL     1       0.006   1.571  -0.491  0.00  0.00    -0.256 NA
ATOM      3  C   UNL     1       1.128   2.451  -0.126  0.00  0.00    +0.193 C 
ATOM      4  C   UNL     1       0.781   3.284   1.095  0.00  0.00    +0.097 C 
ATOM      5  C   UNL     1      -0.801   1.400   0.506  0.00  0.00    +0.105 C 
ENDROOT
BRANCH   5   6
ATOM      6  C   UNL     1      -1.999   0.531   0.425  0.00  0.00    +0.060 C 
ATOM      7  C   UNL     1      -2.682   0.343  -0.783  0.00  0.00    +0.169 C 
ATOM      8  C   UNL     1      -2.460  -0.118   1.578  0.00  0.00    +0.005 C 
ATOM      9  C   UNL     1      -3.807  -0.479  -0.838  0.00  0.00    +0.168 C 
ATOM     10  C   UNL     1      -3.585  -0.941   1.523  0.00  0.00    +0.003 C 
ATOM     11  C   UNL     1      -4.259  -1.121   0.315  0.00  0.00    +0.040 C 
BRANCH   7  12
ATOM     12  O   UNL     1      -2.245   0.967  -1.915  0.00  0.00    -0.503 OA
ATOM     13  H   UNL     1      -1.490   1.520  -1.883  0.00  0.00    +0.292 HD
ENDBRANCH   7  12
BRANCH   9  14
ATOM     14  O   UNL     1      -4.475  -0.666  -2.011  0.00  0.00    -0.503 OA
ATOM     15  H   UNL     1      -4.179  -0.239  -2.791  0.00  0.00    +0.292 HD
ENDBRANCH   9  14
ENDBRANCH   5   6
BRANCH   3  18
ATOM     16  O   UNL     1       2.906   1.575   1.177  0.00  0.00    -0.271 OA
ATOM     17  N   UNL     1       2.668   0.776  -0.963  0.00  0.00    -0.170 N 
ATOM     18  C   UNL     1       2.314   1.563   0.098  0.00  0.00    +0.271 C 
BRANCH  17  19
ATOM     19  O   UNL     1       1.988   0.769  -2.187  0.00  0.00    -0.292 OA
ATOM     20  H   UNL     1       1.249   1.397  -2.149  0.00  0.00    +0.242 HD
ENDBRANCH  17  19
BRANCH  17  21
ATOM     21  C   UNL     1       3.788  -0.140  -0.945  0.00  0.00    +0.130 C 
BRANCH  21  22
ATOM     22  C   UNL     1       3.365  -1.587  -1.188  0.00  0.00    +0.066 C 
BRANCH  22  25
ATOM     23  N   UNL     1       1.159  -2.542  -0.538  0.00  0.00    -0.319 N 
ATOM     24  N   UNL     1       1.282  -2.712   1.673  0.00  0.00    -0.315 N 
ATOM     25  C   UNL     1       2.372  -2.089  -0.170  0.00  0.00    +0.039 C 
ATOM     26  C   UNL     1       2.450  -2.191   1.173  0.00  0.00    +0.069 C 
ATOM     27  C   UNL     1       0.526  -2.912   0.616  0.00  0.00    +0.182 C 
ATOM     28  H   UNL     1       0.800  -2.596  -1.453  0.00  0.00    +0.148 HD
ATOM     29  H   UNL     1       1.060  -2.896   2.614  0.00  0.00    +0.148 HD
ENDBRANCH  22  25
ENDBRANCH  21  22
ENDBRANCH  17  21
ENDBRANCH   3  18
TORSDOF 8
