REMARK  Name = 128526
REMARK  8 active torsions:
REMARK  status: ('A' for Active; 'I' for Inactive)
REMARK    1  A    between atoms: C_6  and  C_24
REMARK    2  A    between atoms: C_6  and  O_28
REMARK    3  A    between atoms: C_9  and  O_21
REMARK    4  A    between atoms: C_24  and  C_25
REMARK    5  A    between atoms: C_25  and  O_26
REMARK    6  A    between atoms: O_28  and  C_30
REMARK    7  A    between atoms: C_30  and  O_31
REMARK    8  A    between atoms: O_31  and  C_32
REMARK                            x       y       z     vdW  Elec       q    Type
REMARK                         _______ _______ _______ _____ _____    ______ ____
ROOT
ATOM      1  O   UNL     1       6.347  -2.607   0.680  0.00  0.00    -0.287 OA
ATOM      2  C   UNL     1      -0.939   1.134  -0.071  0.00  0.00    +0.043 C 
ATOM      3  C   UNL     1      -0.144   0.357  -1.143  0.00  0.00    +0.004 C 
ATOM      4  C   UNL     1       1.360   0.668  -1.139  0.00  0.00    +0.003 C 
ATOM      5  C   UNL     1       1.951   0.282   0.263  0.00  0.00    +0.034 C 
ATOM      6  C   UNL     1      -2.372   0.635  -0.407  0.00  0.00    +0.192 C 
ATOM      7  C   UNL     1      -0.383   0.723   1.307  0.00  0.00    +0.033 C 
ATOM      8  C   UNL     1      -0.943   0.596  -2.421  0.00  0.00    +0.004 C 
ATOM      9  C   UNL     1       1.143   0.928   1.433  0.00  0.00    +0.111 C 
ATOM     10  C   UNL     1       3.520   0.465   0.321  0.00  0.00    +0.036 C 
ATOM     11  C   UNL     1      -2.413   0.610  -1.952  0.00  0.00    +0.048 C 
ATOM     12  C   UNL     1       2.071  -0.095  -2.271  0.00  0.00    +0.004 C 
ATOM     13  C   UNL     1      -0.870   2.676  -0.254  0.00  0.00    +0.004 C 
ATOM     14  C   UNL     1       3.584   0.081  -2.228  0.00  0.00    +0.022 C 
ATOM     15  C   UNL     1       4.113  -0.299  -0.869  0.00  0.00    -0.038 C 
ATOM     16  C   UNL     1       3.986   1.936   0.228  0.00  0.00    +0.009 C 
ATOM     17  C   UNL     1       4.059  -0.068   1.640  0.00  0.00    -0.020 C 
ATOM     18  C   UNL     1       5.016  -1.284  -0.747  0.00  0.00    +0.034 C 
ATOM     19  C   UNL     1       4.956  -1.050   1.768  0.00  0.00    +0.038 C 
ATOM     20  C   UNL     1       5.509  -1.718   0.576  0.00  0.00    +0.195 C 
ENDROOT
BRANCH   9  21
ATOM     21  O   UNL     1       1.429   2.314   1.554  0.00  0.00    -0.384 OA
ATOM     22  H   UNL     1       2.387   2.441   1.633  0.00  0.00    +0.210 HD
ENDBRANCH   9  21
BRANCH   6  24
ATOM     23  O   UNL     1      -4.305   2.023  -0.507  0.00  0.00    -0.290 OA
ATOM     24  C   UNL     1      -3.475   1.450   0.197  0.00  0.00    +0.216 C 
BRANCH  24  25
ATOM     25  C   UNL     1      -3.503   1.525   1.709  0.00  0.00    +0.206 C 
BRANCH  25  26
ATOM     26  O   UNL     1      -4.828   1.667   2.176  0.00  0.00    -0.375 OA
ATOM     27  H   UNL     1      -4.826   1.713   3.145  0.00  0.00    +0.211 HD
ENDBRANCH  25  26
ENDBRANCH  24  25
ENDBRANCH   6  24
BRANCH   6  28
ATOM     28  O   UNL     1      -2.591  -0.681   0.094  0.00  0.00    -0.418 OA
BRANCH  28  30
ATOM     29  O   UNL     1      -4.674  -0.722  -0.892  0.00  0.00    -0.203 OA
ATOM     30  C   UNL     1      -3.792  -1.246  -0.225  0.00  0.00    +0.512 C 
BRANCH  30  31
ATOM     31  O   UNL     1      -3.838  -2.491   0.327  0.00  0.00    -0.418 OA
BRANCH  31  32
ATOM     32  C   UNL     1      -5.041  -3.229   0.088  0.00  0.00    +0.212 C 
ATOM     33  C   UNL     1      -4.933  -4.580   0.763  0.00  0.00    +0.051 C 
ENDBRANCH  31  32
ENDBRANCH  30  31
ENDBRANCH  28  30
ENDBRANCH   6  28
TORSDOF 8
