REMARK  Name = 1285941
REMARK  6 active torsions:
REMARK  status: ('A' for Active; 'I' for Inactive)
REMARK    1  A    between atoms: N_2  and  C_9
REMARK    2  A    between atoms: C_6  and  C_21
REMARK    3  A    between atoms: C_14  and  C_16
REMARK    4  A    between atoms: C_16  and  O_17
REMARK    5  A    between atoms: C_20  and  C_24
REMARK    6  A    between atoms: C_27  and  N_34
REMARK                            x       y       z     vdW  Elec       q    Type
REMARK                         _______ _______ _______ _____ _____    ______ ____
ROOT
ATOM      1  O   UNL     1      -0.319   0.654  -0.225  0.00  0.00    -0.268 OA
ATOM      2  N   UNL     1      -2.465   1.582   0.232  0.00  0.00    -0.155 N 
ATOM      3  N   UNL     1      -2.983   2.844   0.513  0.00  0.00    -0.176 NA
ATOM      4  C   UNL     1      -0.720   2.993   0.217  0.00  0.00    +0.074 C 
ATOM      5  C   UNL     1      -1.980   3.678   0.506  0.00  0.00    +0.082 C 
ATOM      6  C   UNL     1       0.503   3.511   0.130  0.00  0.00    +0.043 C 
ATOM      7  C   UNL     1      -1.073   1.572   0.033  0.00  0.00    +0.273 C 
ATOM      8  C   UNL     1      -2.098   5.141   0.763  0.00  0.00    +0.054 C 
ENDROOT
BRANCH   2   9
ATOM      9  C   UNL     1      -3.249   0.441   0.156  0.00  0.00    +0.077 C 
ATOM     10  C   UNL     1      -2.882  -0.614  -0.688  0.00  0.00    +0.017 C 
ATOM     11  C   UNL     1      -4.415   0.334   0.921  0.00  0.00    +0.017 C 
ATOM     12  C   UNL     1      -3.671  -1.761  -0.764  0.00  0.00    +0.008 C 
ATOM     13  C   UNL     1      -5.204  -0.814   0.845  0.00  0.00    +0.008 C 
ATOM     14  C   UNL     1      -4.832  -1.861   0.002  0.00  0.00    +0.076 C 
BRANCH  14  16
ATOM     15  O   UNL     1      -5.421  -4.042  -0.785  0.00  0.00    -0.245 OA
ATOM     16  C   UNL     1      -5.655  -3.058  -0.076  0.00  0.00    +0.338 C 
BRANCH  16  17
ATOM     17  O   UNL     1      -6.747  -2.993   0.734  0.00  0.00    -0.477 OA
ATOM     18  H   UNL     1      -6.896  -2.232   1.260  0.00  0.00    +0.295 HD
ENDBRANCH  16  17
ENDBRANCH  14  16
ENDBRANCH   2   9
BRANCH   6  21
ATOM     19  O   UNL     1       1.859   1.500   0.217  0.00  0.00    -0.453 OA
ATOM     20  C   UNL     1       3.096   1.132  -0.209  0.00  0.00    +0.147 C 
ATOM     21  C   UNL     1       1.742   2.764  -0.167  0.00  0.00    +0.146 C 
ATOM     22  C   UNL     1       3.718   2.178  -0.848  0.00  0.00    +0.041 C 
ATOM     23  C   UNL     1       2.805   3.259  -0.813  0.00  0.00    +0.041 C 
BRANCH  20  24
ATOM     24  C   UNL     1       3.472  -0.221   0.089  0.00  0.00    +0.057 C 
ATOM     25  C   UNL     1       4.505  -1.795   1.619  0.00  0.00    -0.026 C 
ATOM     26  C   UNL     1       4.232  -2.839   0.734  0.00  0.00    -0.024 C 
ATOM     27  C   UNL     1       3.202  -1.275  -0.793  0.00  0.00    +0.145 C 
ATOM     28  C   UNL     1       4.127  -0.492   1.298  0.00  0.00    +0.000 C 
ATOM     29  C   UNL     1       3.581  -2.579  -0.472  0.00  0.00    +0.020 C 
ATOM     30  C   UNL     1       5.199  -2.051   2.916  0.00  0.00    +0.031 C 
ATOM     31  C   UNL     1       4.626  -4.243   1.058  0.00  0.00    +0.031 C 
BRANCH  27  34
ATOM     32  O   UNL     1       2.316  -2.021  -2.787  0.00  0.00    -0.126 OA
ATOM     33  O   UNL     1       2.194   0.121  -2.326  0.00  0.00    -0.126 OA
ATOM     34  N   UNL     1       2.537  -1.047  -2.031  0.00  0.00    +0.058 N 
ENDBRANCH  27  34
ENDBRANCH  20  24
ENDBRANCH   6  21
TORSDOF 6
