REMARK  Name = 128549
REMARK  10 active torsions:
REMARK  status: ('A' for Active; 'I' for Inactive)
REMARK    1  A    between atoms: CA_1  and  C_13
REMARK    2  A    between atoms: CA_1  and  N_18
REMARK    3  A    between atoms: CA_8  and  C_15
REMARK    4  A    between atoms: C_15  and  O_16
REMARK    5  A    between atoms: N_18  and  CA_21
REMARK    6  A    between atoms: CA_21  and  C_23
REMARK    7  A    between atoms: CA_21  and  C_26
REMARK    8  A    between atoms: C_23  and  O_24
REMARK    9  A    between atoms: C_26  and  C_27
REMARK   10  A    between atoms: C_27  and  C_28
REMARK                            x       y       z     vdW  Elec       q    Type
REMARK                         _______ _______ _______ _____ _____    ______ ____
ROOT
ATOM      1  CA  UNL     1      -0.805   1.203  -1.534  0.00  0.00    +0.018 C 
ATOM      2  CB  UNL     1      -1.458   1.720  -2.800  0.00  0.00    -0.014 C 
ENDROOT
BRANCH   1  13
ATOM      3  O   UNL     1      -0.884  -1.171  -1.613  0.00  0.00    -0.277 OA
ATOM      4  N   UNL     1      -2.484  -0.117  -0.314  0.00  0.00    -0.275 N 
ATOM      5  C   UNL     1      -4.117  -0.903   1.204  0.00  0.00    +0.020 C 
ATOM      6  C   UNL     1      -3.217  -1.343   0.038  0.00  0.00    +0.076 C 
ATOM      7  C   UNL     1      -4.453   0.549   0.831  0.00  0.00    +0.033 C 
ATOM      8  CA  UNL     1      -3.133   1.066   0.255  0.00  0.00    +0.174 C 
ATOM      9  C   UNL     1      -5.327  -1.791   1.471  0.00  0.00    +0.002 C 
ATOM     10  C   UNL     1      -4.000  -1.866  -1.178  0.00  0.00    +0.020 C 
ATOM     11  C   UNL     1      -6.055  -2.239   0.210  0.00  0.00    +0.000 C 
ATOM     12  C   UNL     1      -5.088  -2.858  -0.790  0.00  0.00    +0.002 C 
ATOM     13  C   UNL     1      -1.388  -0.138  -1.165  0.00  0.00    +0.206 C 
BRANCH   8  15
ATOM     14  OXT UNL     1      -1.504   0.934   2.037  0.00  0.00    -0.248 OA
ATOM     15  C   UNL     1      -2.268   1.602   1.356  0.00  0.00    +0.332 C 
BRANCH  15  16
ATOM     16  O   UNL     1      -2.447   2.938   1.498  0.00  0.00    -0.479 OA
ATOM     17  H   UNL     1      -3.050   3.392   0.942  0.00  0.00    +0.295 HD
ENDBRANCH  15  16
ENDBRANCH   8  15
ENDBRANCH   1  13
BRANCH   1  18
ATOM     18  N   UNL     1       0.621   1.005  -1.724  0.00  0.00    +0.399 N 
ATOM     19  H1  UNL     1       0.993   1.776  -2.279  0.00  0.00    -0.083 HD
ATOM     20  H2  UNL     1       0.764   0.116  -2.203  0.00  0.00    -0.083 HD
BRANCH  18  21
ATOM     21  CA  UNL     1       1.320   0.959  -0.445  0.00  0.00    +0.041 C 
BRANCH  21  23
ATOM     22  OXT UNL     1       1.710   3.343  -0.750  0.00  0.00    -0.253 OA
ATOM     23  C   UNL     1       1.517   2.397   0.004  0.00  0.00    +0.293 C 
BRANCH  23  24
ATOM     24  O   UNL     1       1.432   2.537   1.351  0.00  0.00    -0.482 OA
ATOM     25  H   UNL     1       1.284   1.787   1.892  0.00  0.00    +0.295 HD
ENDBRANCH  23  24
ENDBRANCH  21  23
BRANCH  21  26
ATOM     26  C   UNL     1       2.667   0.247  -0.629  0.00  0.00    -0.006 C 
BRANCH  26  27
ATOM     27  C   UNL     1       3.497   0.112   0.657  0.00  0.00    +0.025 C 
BRANCH  27  28
ATOM     28  C   UNL     1       4.786  -0.655   0.491  0.00  0.00    -0.022 C 
ATOM     29  C   UNL     1       4.804  -2.037   0.680  0.00  0.00    -0.004 C 
ATOM     30  C   UNL     1       5.960   0.018   0.150  0.00  0.00    -0.004 C 
ATOM     31  C   UNL     1       5.996  -2.747   0.527  0.00  0.00    -0.000 C 
ATOM     32  C   UNL     1       7.151  -0.692  -0.003  0.00  0.00    -0.000 C 
ATOM     33  C   UNL     1       7.169  -2.074   0.186  0.00  0.00    -0.000 C 
ENDBRANCH  27  28
ENDBRANCH  26  27
ENDBRANCH  21  26
ENDBRANCH  18  21
ENDBRANCH   1  18
TORSDOF 10
