12859615
  -OEChem-03292013303D

 59 60  0     1  0  0  0  0  0999 V2000
   -0.0374    1.3992    1.3568 O   0  0  0  0  0  0  0  0  0  0  0  0
    4.9689    2.2732    1.5295 O   0  0  0  0  0  0  0  0  0  0  0  0
   -3.7481   -0.1703   -0.2400 O   0  0  0  0  0  0  0  0  0  0  0  0
    4.2519    2.2136   -0.6547 O   0  0  0  0  0  0  0  0  0  0  0  0
   -2.0688   -1.5073   -1.0569 O   0  0  0  0  0  0  0  0  0  0  0  0
    5.5806   -4.0127   -1.3728 O   0  0  0  0  0  0  0  0  0  0  0  0
    1.8441    1.0723    0.0379 N   0  0  0  0  0  0  0  0  0  0  0  0
   -1.7250    0.7416   -0.5996 N   0  0  0  0  0  0  0  0  0  0  0  0
   -0.3377    0.8239   -0.9806 C   0  0  1  0  0  0  0  0  0  0  0  0
   -0.0815    1.8340   -2.1192 C   0  0  0  0  0  0  0  0  0  0  0  0
    2.8307    1.2940    1.0697 C   0  0  1  0  0  0  0  0  0  0  0  0
    0.4780    1.1442    0.2703 C   0  0  0  0  0  0  0  0  0  0  0  0
   -0.8648    1.5124   -3.3963 C   0  0  0  0  0  0  0  0  0  0  0  0
   -0.3910    3.2642   -1.6659 C   0  0  0  0  0  0  0  0  0  0  0  0
    3.1608   -0.0073    1.8157 C   0  0  0  0  0  0  0  0  0  0  0  0
    3.8064   -1.0771    0.9644 C   0  0  0  0  0  0  0  0  0  0  0  0
    4.0822    1.9798    0.5374 C   0  0  0  0  0  0  0  0  0  0  0  0
   -2.4744   -0.4164   -0.6694 C   0  0  0  0  0  0  0  0  0  0  0  0
    5.1956   -1.1334    0.8511 C   0  0  0  0  0  0  0  0  0  0  0  0
    3.0137   -2.0074    0.2923 C   0  0  0  0  0  0  0  0  0  0  0  0
    5.7919   -2.1200    0.0659 C   0  0  0  0  0  0  0  0  0  0  0  0
    3.6100   -2.9940   -0.4930 C   0  0  0  0  0  0  0  0  0  0  0  0
    4.9991   -3.0503   -0.6061 C   0  0  0  0  0  0  0  0  0  0  0  0
   -4.6406   -1.2900   -0.2589 C   0  0  0  0  0  0  0  0  0  0  0  0
   -5.9867   -0.8518    0.2391 C   0  0  0  0  0  0  0  0  0  0  0  0
    6.1835    2.9036    1.1105 C   0  0  0  0  0  0  0  0  0  0  0  0
   -6.2858   -0.9280    1.5994 C   0  0  0  0  0  0  0  0  0  0  0  0
   -6.9389   -0.3688   -0.6583 C   0  0  0  0  0  0  0  0  0  0  0  0
   -7.5371   -0.5212    2.0623 C   0  0  0  0  0  0  0  0  0  0  0  0
   -8.1903    0.0382   -0.1955 C   0  0  0  0  0  0  0  0  0  0  0  0
   -8.4894   -0.0381    1.1648 C   0  0  0  0  0  0  0  0  0  0  0  0
   -0.0132   -0.1676   -1.3226 H   0  0  0  0  0  0  0  0  0  0  0  0
    0.9823    1.8050   -2.3866 H   0  0  0  0  0  0  0  0  0  0  0  0
    2.3881    1.9973    1.7874 H   0  0  0  0  0  0  0  0  0  0  0  0
   -1.9452    1.5976   -3.2400 H   0  0  0  0  0  0  0  0  0  0  0  0
   -0.5880    2.1993   -4.2032 H   0  0  0  0  0  0  0  0  0  0  0  0
   -0.6482    0.4938   -3.7345 H   0  0  0  0  0  0  0  0  0  0  0  0
   -1.4465    3.3903   -1.4040 H   0  0  0  0  0  0  0  0  0  0  0  0
    0.2144    3.5589   -0.8032 H   0  0  0  0  0  0  0  0  0  0  0  0
   -0.1674    3.9738   -2.4705 H   0  0  0  0  0  0  0  0  0  0  0  0
    2.1795    0.8044   -0.8824 H   0  0  0  0  0  0  0  0  0  0  0  0
    3.8194    0.2059    2.6682 H   0  0  0  0  0  0  0  0  0  0  0  0
    2.2444   -0.4191    2.2602 H   0  0  0  0  0  0  0  0  0  0  0  0
   -2.1743    1.5699   -0.2209 H   0  0  0  0  0  0  0  0  0  0  0  0
    5.8274   -0.4211    1.3740 H   0  0  0  0  0  0  0  0  0  0  0  0
    1.9303   -1.9756    0.3725 H   0  0  0  0  0  0  0  0  0  0  0  0
    6.8752   -2.1540   -0.0129 H   0  0  0  0  0  0  0  0  0  0  0  0
    2.9871   -3.7159   -1.0142 H   0  0  0  0  0  0  0  0  0  0  0  0
   -4.2438   -2.0905    0.3778 H   0  0  0  0  0  0  0  0  0  0  0  0
   -4.7238   -1.6798   -1.2810 H   0  0  0  0  0  0  0  0  0  0  0  0
    6.7992    3.0777    1.9969 H   0  0  0  0  0  0  0  0  0  0  0  0
    5.9671    3.8665    0.6381 H   0  0  0  0  0  0  0  0  0  0  0  0
    6.7321    2.2505    0.4250 H   0  0  0  0  0  0  0  0  0  0  0  0
   -5.5515   -1.3007    2.3086 H   0  0  0  0  0  0  0  0  0  0  0  0
   -6.7170   -0.3027   -1.7202 H   0  0  0  0  0  0  0  0  0  0  0  0
    6.5464   -3.9026   -1.3376 H   0  0  0  0  0  0  0  0  0  0  0  0
   -7.7699   -0.5800    3.1214 H   0  0  0  0  0  0  0  0  0  0  0  0
   -8.9315    0.4150   -0.8941 H   0  0  0  0  0  0  0  0  0  0  0  0
   -9.4635    0.2791    1.5252 H   0  0  0  0  0  0  0  0  0  0  0  0
  1 12  2  0  0  0  0
  2 17  1  0  0  0  0
  2 26  1  0  0  0  0
  3 18  1  0  0  0  0
  3 24  1  0  0  0  0
  4 17  2  0  0  0  0
  5 18  2  0  0  0  0
  6 23  1  0  0  0  0
  6 56  1  0  0  0  0
  7 11  1  0  0  0  0
  7 12  1  0  0  0  0
  7 41  1  0  0  0  0
  8  9  1  0  0  0  0
  8 18  1  0  0  0  0
  8 44  1  0  0  0  0
  9 10  1  0  0  0  0
  9 12  1  0  0  0  0
  9 32  1  0  0  0  0
 10 13  1  0  0  0  0
 10 14  1  0  0  0  0
 10 33  1  0  0  0  0
 11 15  1  0  0  0  0
 11 17  1  0  0  0  0
 11 34  1  0  0  0  0
 13 35  1  0  0  0  0
 13 36  1  0  0  0  0
 13 37  1  0  0  0  0
 14 38  1  0  0  0  0
 14 39  1  0  0  0  0
 14 40  1  0  0  0  0
 15 16  1  0  0  0  0
 15 42  1  0  0  0  0
 15 43  1  0  0  0  0
 16 19  2  0  0  0  0
 16 20  1  0  0  0  0
 19 21  1  0  0  0  0
 19 45  1  0  0  0  0
 20 22  2  0  0  0  0
 20 46  1  0  0  0  0
 21 23  2  0  0  0  0
 21 47  1  0  0  0  0
 22 23  1  0  0  0  0
 22 48  1  0  0  0  0
 24 25  1  0  0  0  0
 24 49  1  0  0  0  0
 24 50  1  0  0  0  0
 25 27  2  0  0  0  0
 25 28  1  0  0  0  0
 26 51  1  0  0  0  0
 26 52  1  0  0  0  0
 26 53  1  0  0  0  0
 27 29  1  0  0  0  0
 27 54  1  0  0  0  0
 28 30  2  0  0  0  0
 28 55  1  0  0  0  0
 29 31  2  0  0  0  0
 29 57  1  0  0  0  0
 30 31  1  0  0  0  0
 30 58  1  0  0  0  0
 31 59  1  0  0  0  0
M  END
> <PUBCHEM_COMPOUND_CID>
12859615

> <PUBCHEM_CONFORMER_RMSD>
1.2

> <PUBCHEM_CONFORMER_DIVERSEORDER>
1
127
37
125
41
40
23
124
77
47
48
109
62
65
5
113
31
101
74
43
21
92
111
25
93
3
60
88
33
78
70
123
83
82
91
89
121
50
15
117
80
10
129
107
116
56
76
122
45
59
110
57
30
18
90
100
97
35
104
52
98
103
79
13
58
73
69
6
108
126
114
99
14
96
55
85
67
106
120
54
29
16
75
28
68
61
119
64
105
49
87
51
24
38
86
4
63
94
12
20
7
8
81
72
32
39
2
26
66
53
115
46
17
128
95
42
71
102
11
9
84
118
36
22
34
27
44
112
19

> <PUBCHEM_MMFF94_PARTIAL_CHARGES>
40
1 -0.57
11 0.36
12 0.57
15 0.14
16 -0.14
17 0.66
18 0.78
19 -0.15
2 -0.43
20 -0.15
21 -0.15
22 -0.15
23 0.08
24 0.42
25 -0.14
26 0.28
27 -0.15
28 -0.15
29 -0.15
3 -0.43
30 -0.15
31 -0.15
4 -0.57
41 0.37
44 0.37
45 0.15
46 0.15
47 0.15
48 0.15
5 -0.57
54 0.15
55 0.15
56 0.45
57 0.15
58 0.15
59 0.15
6 -0.53
7 -0.73
8 -0.73
9 0.36

> <PUBCHEM_EFFECTIVE_ROTOR_COUNT>
13

> <PUBCHEM_PHARMACOPHORE_FEATURES>
9
1 1 acceptor
1 4 acceptor
1 5 acceptor
1 6 donor
1 7 donor
1 8 donor
3 10 13 14 hydrophobe
6 16 19 20 21 22 23 rings
6 25 27 28 29 30 31 rings

> <PUBCHEM_HEAVY_ATOM_COUNT>
31

> <PUBCHEM_ATOM_DEF_STEREO_COUNT>
2

> <PUBCHEM_ATOM_UDEF_STEREO_COUNT>
0

> <PUBCHEM_BOND_DEF_STEREO_COUNT>
0

> <PUBCHEM_BOND_UDEF_STEREO_COUNT>
0

> <PUBCHEM_ISOTOPIC_ATOM_COUNT>
0

> <PUBCHEM_COMPONENT_COUNT>
1

> <PUBCHEM_CACTVS_TAUTO_COUNT>
8

> <PUBCHEM_CONFORMER_ID>
00C438DF00000001

> <PUBCHEM_MMFF94_ENERGY>
69.4587

> <PUBCHEM_FEATURE_SELFOVERLAP>
45.671

> <PUBCHEM_SHAPE_FINGERPRINT>
10692045 39 18272657823039751611
11607047 141 18130520647037410530
12778500 126 17418375779068761778
13533116 47 18201998832744000771
13673619 4 18337955576165458870
14347424 109 18131632274752091699
15183329 4 16988850501458994115
15392192 104 18266458891908001443
15669420 48 18041288708103762126
15721738 202 18412544297673366712
1577012 14 17703792553016359875
15840311 113 18413674604622829955
1813 80 17458059357091241381
19315958 150 18411982498581152875
20554085 129 13398628338450584575
20567600 254 11815892353920548975
21130935 74 18271806856906193331
2260408 40 18335423521103485917
22864921 267 18410865334965006907
394071 54 18262232326218933233
4093350 32 18412260662069714802
46194498 28 18260261928974027012
70251023 43 18335986346766379354

> <PUBCHEM_SHAPE_MULTIPOLES>
592.79
21.91
3.67
2.08
40.53
0.5
-0.83
9.49
9.41
-9.13
-1.49
0.46
-1.01
3.51

> <PUBCHEM_SHAPE_SELFOVERLAP>
1228.568

> <PUBCHEM_SHAPE_VOLUME>
337.4

> <PUBCHEM_COORDINATE_TYPE>
2
5
10

$$$$
