REMARK  Name = 128589
REMARK  6 active torsions:
REMARK  status: ('A' for Active; 'I' for Inactive)
REMARK    1  A    between atoms: N_1  and  C_12
REMARK    2  A    between atoms: C_8  and  O_24
REMARK    3  A    between atoms: C_13  and  O_17
REMARK    4  A    between atoms: C_14  and  O_19
REMARK    5  A    between atoms: C_15  and  C_21
REMARK    6  A    between atoms: C_21  and  O_22
REMARK                            x       y       z     vdW  Elec       q    Type
REMARK                         _______ _______ _______ _____ _____    ______ ____
ROOT
ATOM      1  N   UNL     1      -0.130  -0.279   0.278  0.00  0.00    -0.228 NA
ATOM      2  N   UNL     1      -1.353  -2.112  -0.040  0.00  0.00    -0.255 NA
ATOM      3  N   UNL     1      -1.798   1.420   0.330  0.00  0.00    -0.301 N 
ATOM      4  N   UNL     1      -4.252   1.310   0.406  0.00  0.00    -0.251 NA
ATOM      5  C   UNL     1      -1.430   0.131   0.225  0.00  0.00    +0.173 C 
ATOM      6  C   UNL     1      -2.170  -1.009   0.025  0.00  0.00    +0.095 C 
ATOM      7  C   UNL     1      -0.134  -1.638   0.116  0.00  0.00    +0.202 C 
ATOM      8  C   UNL     1      -3.644  -1.097  -0.113  0.00  0.00    +0.173 C 
ATOM      9  C   UNL     1      -4.374  -0.102   0.796  0.00  0.00    +0.162 C 
ATOM     10  C   UNL     1      -3.103   1.869   0.279  0.00  0.00    +0.157 C 
ATOM     11  H   UNL     1      -1.087   2.091   0.450  0.00  0.00    +0.150 HD
ENDROOT
BRANCH   1  12
ATOM     12  C   UNL     1       1.065   0.549   0.470  0.00  0.00    +0.112 C 
ATOM     13  C   UNL     1       1.711   1.023  -0.850  0.00  0.00    +0.160 C 
ATOM     14  C   UNL     1       3.099   0.366  -0.925  0.00  0.00    +0.159 C 
ATOM     15  C   UNL     1       3.274  -0.272   0.420  0.00  0.00    +0.011 C 
ATOM     16  C   UNL     1       2.172  -0.174   1.172  0.00  0.00    -0.012 C 
BRANCH  13  17
ATOM     17  O   UNL     1       1.866   2.442  -0.779  0.00  0.00    -0.380 OA
ATOM     18  H   UNL     1       0.993   2.861  -0.732  0.00  0.00    +0.211 HD
ENDBRANCH  13  17
BRANCH  14  19
ATOM     19  O   UNL     1       3.104  -0.625  -1.943  0.00  0.00    -0.378 OA
ATOM     20  H   UNL     1       2.990  -0.200  -2.808  0.00  0.00    +0.211 HD
ENDBRANCH  14  19
BRANCH  15  21
ATOM     21  C   UNL     1       4.552  -0.924   0.811  0.00  0.00    +0.161 C 
BRANCH  21  22
ATOM     22  O   UNL     1       5.613   0.019   0.781  0.00  0.00    -0.377 OA
ATOM     23  H   UNL     1       6.441  -0.418   1.038  0.00  0.00    +0.211 HD
ENDBRANCH  21  22
ENDBRANCH  15  21
ENDBRANCH   1  12
BRANCH   8  24
ATOM     24  O   UNL     1      -4.070  -0.897  -1.459  0.00  0.00    -0.377 OA
ATOM     25  H   UNL     1      -3.611  -1.524  -2.039  0.00  0.00    +0.211 HD
ENDBRANCH   8  24
TORSDOF 6
