1285941
  -OEChem-03292013313D

 52 55  0     0  0  0  0  0  0999 V2000
    1.8589    1.5000    0.2172 O   0  0  0  0  0  0  0  0  0  0  0  0
   -0.3188    0.6540   -0.2251 O   0  0  0  0  0  0  0  0  0  0  0  0
    2.3158   -2.0213   -2.7866 O   0  5  0  0  0  0  0  0  0  0  0  0
    2.1937    0.1215   -2.3256 O   0  0  0  0  0  0  0  0  0  0  0  0
   -6.7471   -2.9929    0.7340 O   0  0  0  0  0  0  0  0  0  0  0  0
   -5.4214   -4.0422   -0.7853 O   0  0  0  0  0  0  0  0  0  0  0  0
   -2.4649    1.5820    0.2319 N   0  0  0  0  0  0  0  0  0  0  0  0
   -2.9833    2.8442    0.5127 N   0  0  0  0  0  0  0  0  0  0  0  0
    2.5370   -1.0468   -2.0312 N   0  3  0  0  0  0  0  0  0  0  0  0
    3.4720   -0.2213    0.0895 C   0  0  0  0  0  0  0  0  0  0  0  0
    3.0956    1.1316   -0.2087 C   0  0  0  0  0  0  0  0  0  0  0  0
    4.5051   -1.7952    1.6186 C   0  0  0  0  0  0  0  0  0  0  0  0
   -0.7196    2.9932    0.2167 C   0  0  0  0  0  0  0  0  0  0  0  0
    4.2323   -2.8388    0.7341 C   0  0  0  0  0  0  0  0  0  0  0  0
    3.2021   -1.2753   -0.7927 C   0  0  0  0  0  0  0  0  0  0  0  0
    4.1265   -0.4918    1.2975 C   0  0  0  0  0  0  0  0  0  0  0  0
    1.7423    2.7644   -0.1668 C   0  0  0  0  0  0  0  0  0  0  0  0
    3.5809   -2.5788   -0.4716 C   0  0  0  0  0  0  0  0  0  0  0  0
   -1.9797    3.6776    0.5060 C   0  0  0  0  0  0  0  0  0  0  0  0
    0.5035    3.5109    0.1299 C   0  0  0  0  0  0  0  0  0  0  0  0
   -1.0732    1.5719    0.0328 C   0  0  0  0  0  0  0  0  0  0  0  0
    3.7183    2.1784   -0.8478 C   0  0  0  0  0  0  0  0  0  0  0  0
    2.8053    3.2593   -0.8125 C   0  0  0  0  0  0  0  0  0  0  0  0
   -3.2487    0.4414    0.1557 C   0  0  0  0  0  0  0  0  0  0  0  0
    5.1992   -2.0507    2.9162 C   0  0  0  0  0  0  0  0  0  0  0  0
    4.6257   -4.2427    1.0575 C   0  0  0  0  0  0  0  0  0  0  0  0
   -2.0976    5.1408    0.7627 C   0  0  0  0  0  0  0  0  0  0  0  0
   -2.8820   -0.6136   -0.6876 C   0  0  0  0  0  0  0  0  0  0  0  0
   -4.4150    0.3338    0.9215 C   0  0  0  0  0  0  0  0  0  0  0  0
   -3.6713   -1.7611   -0.7640 C   0  0  0  0  0  0  0  0  0  0  0  0
   -5.2043   -0.8137    0.8452 C   0  0  0  0  0  0  0  0  0  0  0  0
   -4.8324   -1.8611    0.0023 C   0  0  0  0  0  0  0  0  0  0  0  0
   -5.6551   -3.0577   -0.0763 C   0  0  0  0  0  0  0  0  0  0  0  0
    4.3394    0.3208    1.9900 H   0  0  0  0  0  0  0  0  0  0  0  0
    3.3788   -3.4093   -1.1441 H   0  0  0  0  0  0  0  0  0  0  0  0
    0.6283    4.5854    0.2449 H   0  0  0  0  0  0  0  0  0  0  0  0
    4.7063    2.1684   -1.2863 H   0  0  0  0  0  0  0  0  0  0  0  0
    2.9468    4.2509   -1.2181 H   0  0  0  0  0  0  0  0  0  0  0  0
    5.3388   -1.1284    3.4909 H   0  0  0  0  0  0  0  0  0  0  0  0
    4.6125   -2.7334    3.5394 H   0  0  0  0  0  0  0  0  0  0  0  0
    6.1930   -2.4769    2.7447 H   0  0  0  0  0  0  0  0  0  0  0  0
    5.7107   -4.3202    1.1816 H   0  0  0  0  0  0  0  0  0  0  0  0
    4.1295   -4.5807    1.9730 H   0  0  0  0  0  0  0  0  0  0  0  0
    4.3421   -4.9396    0.2611 H   0  0  0  0  0  0  0  0  0  0  0  0
   -1.4884    5.4149    1.6281 H   0  0  0  0  0  0  0  0  0  0  0  0
   -3.1393    5.4036    0.9661 H   0  0  0  0  0  0  0  0  0  0  0  0
   -1.7570    5.6982   -0.1140 H   0  0  0  0  0  0  0  0  0  0  0  0
   -2.0121   -0.5641   -1.3351 H   0  0  0  0  0  0  0  0  0  0  0  0
   -4.7218    1.1342    1.5905 H   0  0  0  0  0  0  0  0  0  0  0  0
   -3.3697   -2.5625   -1.4336 H   0  0  0  0  0  0  0  0  0  0  0  0
   -6.0991   -0.8506    1.4602 H   0  0  0  0  0  0  0  0  0  0  0  0
   -7.2948   -3.8045    0.6739 H   0  0  0  0  0  0  0  0  0  0  0  0
  1 11  1  0  0  0  0
  1 17  1  0  0  0  0
  2 21  2  0  0  0  0
  3  9  1  0  0  0  0
  4  9  2  0  0  0  0
  5 33  1  0  0  0  0
  5 52  1  0  0  0  0
  6 33  2  0  0  0  0
  7  8  1  0  0  0  0
  7 21  1  0  0  0  0
  7 24  1  0  0  0  0
  8 19  2  0  0  0  0
  9 15  1  0  0  0  0
 10 11  1  0  0  0  0
 10 15  2  0  0  0  0
 10 16  1  0  0  0  0
 11 22  2  0  0  0  0
 12 14  1  0  0  0  0
 12 16  2  0  0  0  0
 12 25  1  0  0  0  0
 13 19  1  0  0  0  0
 13 20  2  0  0  0  0
 13 21  1  0  0  0  0
 14 18  2  0  0  0  0
 14 26  1  0  0  0  0
 15 18  1  0  0  0  0
 16 34  1  0  0  0  0
 17 20  1  0  0  0  0
 17 23  2  0  0  0  0
 18 35  1  0  0  0  0
 19 27  1  0  0  0  0
 20 36  1  0  0  0  0
 22 23  1  0  0  0  0
 22 37  1  0  0  0  0
 23 38  1  0  0  0  0
 24 28  2  0  0  0  0
 24 29  1  0  0  0  0
 25 39  1  0  0  0  0
 25 40  1  0  0  0  0
 25 41  1  0  0  0  0
 26 42  1  0  0  0  0
 26 43  1  0  0  0  0
 26 44  1  0  0  0  0
 27 45  1  0  0  0  0
 27 46  1  0  0  0  0
 27 47  1  0  0  0  0
 28 30  1  0  0  0  0
 28 48  1  0  0  0  0
 29 31  2  0  0  0  0
 29 49  1  0  0  0  0
 30 32  2  0  0  0  0
 30 50  1  0  0  0  0
 31 32  1  0  0  0  0
 31 51  1  0  0  0  0
 32 33  1  0  0  0  0
M  CHG  2   3  -1   9   1
M  END
> <PUBCHEM_COMPOUND_CID>
1285941

> <PUBCHEM_CONFORMER_RMSD>
0.8

> <PUBCHEM_CONFORMER_DIVERSEORDER>
1
11
7
3
9
8
4
6
10
12
2
5

> <PUBCHEM_MMFF94_PARTIAL_CHARGES>
43
1 -0.28
10 0.05
11 0.09
12 -0.14
13 0.03
14 -0.14
15 0.13
16 -0.15
17 0.09
18 -0.15
19 0.37
2 -0.57
20 -0.11
21 0.62
22 -0.15
23 -0.15
24 0.12
25 0.14
26 0.14
27 0.06
28 -0.15
29 -0.15
3 -0.52
30 -0.15
31 -0.15
32 0.09
33 0.63
34 0.15
35 0.15
36 0.15
37 0.15
38 0.15
4 -0.52
48 0.15
49 0.15
5 -0.65
50 0.15
51 0.15
52 0.5
6 -0.57
7 -0.11
8 -0.51
9 0.91

> <PUBCHEM_EFFECTIVE_ROTOR_COUNT>
5.2

> <PUBCHEM_PHARMACOPHORE_FEATURES>
13
1 1 acceptor
1 2 acceptor
1 3 acceptor
1 3 anion
1 4 acceptor
1 5 acceptor
1 6 acceptor
1 8 acceptor
3 5 6 33 anion
5 1 11 17 22 23 rings
5 7 8 13 19 21 rings
6 10 12 14 15 16 18 rings
6 24 28 29 30 31 32 rings

> <PUBCHEM_HEAVY_ATOM_COUNT>
33

> <PUBCHEM_ATOM_DEF_STEREO_COUNT>
0

> <PUBCHEM_ATOM_UDEF_STEREO_COUNT>
0

> <PUBCHEM_BOND_DEF_STEREO_COUNT>
1

> <PUBCHEM_BOND_UDEF_STEREO_COUNT>
0

> <PUBCHEM_ISOTOPIC_ATOM_COUNT>
0

> <PUBCHEM_COMPONENT_COUNT>
1

> <PUBCHEM_CACTVS_TAUTO_COUNT>
1

> <PUBCHEM_CONFORMER_ID>
00139F3500000001

> <PUBCHEM_MMFF94_ENERGY>
126.4219

> <PUBCHEM_FEATURE_SELFOVERLAP>
66.154

> <PUBCHEM_SHAPE_FINGERPRINT>
10622 236 18260821558131719050
10928967 22 18193299419462226707
11578080 2 16735236977951613508
12107183 9 18270980020204281585
12166972 35 17603862299758316338
12422481 6 17632292341731409543
12655387 17 18337966593621229533
13553639 21 18189622807531330235
1361 2 17908989056040938601
13782708 43 17749953388488243899
14910700 183 17765420337992730008
150020 26 17129039186718738046
15003188 105 18336270157862446446
15320294 125 17249213501453246746
15324884 4 17344070663146838276
15484559 13 17620207858465391253
15776043 110 18125471785049816665
15927050 60 16543556280332874653
17492 89 18410012109119228026
19301679 30 18339652234840210953
19315092 285 18040983068749409322
19319366 153 17903636629047383036
1979834 28 17632585971623940511
20775530 9 18273216421547360261
21133410 52 18265883835270051286
21421861 104 18411429418299384940
21458453 9 17842521198972507066
21703447 108 18341325703695549024
23559900 14 17914912949486617196
23569914 152 18050810453189020807
25222932 49 18196936784273189038
3044373 233 17824567363470357747
3383291 50 18051691045616881961
345986 75 17988370376941372809
3886686 26 17619347611144518603
404807 78 16955925801258261106
4394409 98 17756412774034351661
444735 79 18266437924515726098
463206 1 18051134984173110087
50009960 94 18115845529645396307
508706 21 18056481638609691285
5309563 4 18198348553298896637
56633871 153 18194406584911407577
6058803 2 18262533502359304572
613672 6 18269540659543876670
6823239 73 17845113799977591220
7970288 3 18338230570147374291
79837 15 17695918730653474305
9831232 110 17609501880567574299
9961470 85 17547845261867246203

> <PUBCHEM_SHAPE_MULTIPOLES>
628.97
13.59
6.44
1.7
9.84
2.44
0.27
-17.82
-4.23
3.02
-0.96
-2.64
-1.12
-2.84

> <PUBCHEM_SHAPE_SELFOVERLAP>
1399.675

> <PUBCHEM_SHAPE_VOLUME>
335.7

> <PUBCHEM_COORDINATE_TYPE>
2
5
10

$$$$
