REMARK  Name = 128517
REMARK  7 active torsions:
REMARK  status: ('A' for Active; 'I' for Inactive)
REMARK    1  A    between atoms: N_1  and  C_13
REMARK    2  A    between atoms: C_13  and  C_14
REMARK    3  A    between atoms: C_14  and  C_15
REMARK    4  A    between atoms: C_15  and  C_16
REMARK    5  A    between atoms: C_15  and  C_19
REMARK    6  A    between atoms: C_16  and  O_17
REMARK    7  A    between atoms: C_19  and  O_20
REMARK                            x       y       z     vdW  Elec       q    Type
REMARK                         _______ _______ _______ _____ _____    ______ ____
ROOT
ATOM      1  N   UNL     1      -0.467  -0.952   0.618  0.00  0.00    -0.261 N 
ATOM      2  N   UNL     1      -2.152  -2.348   0.280  0.00  0.00    -0.246 NA
ATOM      3  N   UNL     1      -1.536   1.161   0.090  0.00  0.00    -0.322 NA
ATOM      4  N   UNL     1      -3.868   0.823  -0.544  0.00  0.00    -0.191 NA
ATOM      5  N   UNL     1      -2.912   2.961  -0.492  0.00  0.00    -0.293 N 
ATOM      6  C   UNL     1      -1.509  -0.172   0.237  0.00  0.00    +0.213 C 
ATOM      7  C   UNL     1      -0.887  -2.245   0.632  0.00  0.00    +0.222 C 
ATOM      8  C   UNL     1      -2.553  -1.059   0.031  0.00  0.00    +0.126 C 
ATOM      9  C   UNL     1      -3.768  -0.517  -0.375  0.00  0.00    +0.187 C 
ATOM     10  C   UNL     1      -2.762   1.568  -0.304  0.00  0.00    +0.139 C 
ATOM     11  H   UNL     1      -2.150   3.564  -0.336  0.00  0.00    +0.155 HD
ATOM     12  H   UNL     1      -3.779   3.329  -0.780  0.00  0.00    +0.155 HD
ENDROOT
BRANCH   1  13
ATOM     13  C   UNL     1       0.876  -0.494   0.958  0.00  0.00    +0.095 C 
BRANCH  13  14
ATOM     14  C   UNL     1       1.835  -0.440  -0.237  0.00  0.00    +0.027 C 
BRANCH  14  15
ATOM     15  C   UNL     1       3.292  -0.041   0.102  0.00  0.00    +0.060 C 
BRANCH  15  16
ATOM     16  C   UNL     1       3.310   1.327   0.806  0.00  0.00    +0.140 C 
BRANCH  16  17
ATOM     17  O   UNL     1       4.650   1.707   1.095  0.00  0.00    -0.382 OA
ATOM     18  H   UNL     1       4.653   2.570   1.538  0.00  0.00    +0.210 HD
ENDBRANCH  16  17
ENDBRANCH  15  16
BRANCH  15  19
ATOM     19  C   UNL     1       4.206  -0.005  -1.131  0.00  0.00    +0.140 C 
BRANCH  19  20
ATOM     20  O   UNL     1       4.246  -1.275  -1.767  0.00  0.00    -0.382 OA
ATOM     21  H   UNL     1       4.828  -1.230  -2.542  0.00  0.00    +0.210 HD
ENDBRANCH  19  20
ENDBRANCH  15  19
ENDBRANCH  14  15
ENDBRANCH  13  14
ENDBRANCH   1  13
TORSDOF 7
