REMARK  Name = 128547
REMARK  8 active torsions:
REMARK  status: ('A' for Active; 'I' for Inactive)
REMARK    1  A    between atoms: C_6  and  O_19
REMARK    2  A    between atoms: C_9  and  C_27
REMARK    3  A    between atoms: C_15  and  N_21
REMARK    4  A    between atoms: N_21  and  C_23
REMARK    5  A    between atoms: C_23  and  C_24
REMARK    6  A    between atoms: C_24  and  S_25
REMARK    7  A    between atoms: C_27  and  O_28
REMARK    8  A    between atoms: O_28  and  C_31
REMARK                            x       y       z     vdW  Elec       q    Type
REMARK                         _______ _______ _______ _____ _____    ______ ____
ROOT
ATOM      1  O   UNL     1      -1.248  -3.509   0.507  0.00  0.00    -0.286 OA
ATOM      2  O   UNL     1      -1.667   1.669  -0.769  0.00  0.00    -0.286 OA
ATOM      3  N   UNL     1       3.034  -0.930   1.664  0.00  0.00    +0.388 N 
ATOM      4  N   UNL     1       1.096  -1.946  -0.221  0.00  0.00    -0.290 N 
ATOM      5  C   UNL     1       3.163  -0.918   0.209  0.00  0.00    -0.036 C 
ATOM      6  C   UNL     1       1.982  -0.866  -0.713  0.00  0.00    +0.141 C 
ATOM      7  C   UNL     1       3.077  -2.205   0.968  0.00  0.00    -0.057 C 
ATOM      8  C   UNL     1       1.790  -2.902   0.633  0.00  0.00    +0.070 C 
ATOM      9  C   UNL     1       1.058   0.395  -0.735  0.00  0.00    +0.111 C 
ATOM     10  C   UNL     1      -0.201  -1.500  -0.131  0.00  0.00    +0.088 C 
ATOM     11  C   UNL     1      -0.300  -0.206  -0.433  0.00  0.00    +0.042 C 
ATOM     12  C   UNL     1      -1.357  -2.314   0.250  0.00  0.00    +0.206 C 
ATOM     13  C   UNL     1      -1.589   0.489  -0.441  0.00  0.00    +0.206 C 
ATOM     14  C   UNL     1      -2.681  -1.608   0.295  0.00  0.00    +0.035 C 
ATOM     15  C   UNL     1      -2.798  -0.302  -0.028  0.00  0.00    +0.083 C 
ATOM     16  C   UNL     1      -3.828  -2.486   0.721  0.00  0.00    +0.036 C 
ATOM     17  H   UNL     1       2.163  -0.620   2.096  0.00  0.00    -0.084 HD
ATOM     18  H   UNL     1       3.568  -0.519   2.429  0.00  0.00    -0.084 HD
ENDROOT
BRANCH   6  19
ATOM     19  O   UNL     1       2.407  -1.167  -2.042  0.00  0.00    -0.341 OA
ATOM     20  C   UNL     1       3.131  -0.087  -2.609  0.00  0.00    +0.176 C 
ENDBRANCH   6  19
BRANCH  15  21
ATOM     21  N   UNL     1      -3.956   0.427  -0.023  0.00  0.00    -0.330 N 
ATOM     22  H   UNL     1      -4.701   0.124  -0.591  0.00  0.00    +0.147 HD
BRANCH  21  23
ATOM     23  C   UNL     1      -4.138   1.613   0.769  0.00  0.00    +0.099 C 
BRANCH  23  24
ATOM     24  C   UNL     1      -5.530   2.201   0.576  0.00  0.00    +0.075 C 
BRANCH  24  25
ATOM     25  S   UNL     1      -5.834   2.708  -1.145  0.00  0.00    -0.166 S 
ATOM     26  H   UNL     1      -7.088   3.223  -1.251  0.00  0.00    +0.102 HD
ENDBRANCH  24  25
ENDBRANCH  23  24
ENDBRANCH  21  23
ENDBRANCH  15  21
BRANCH   9  27
ATOM     27  C   UNL     1       1.428   1.507   0.241  0.00  0.00    +0.218 C 
BRANCH  27  28
ATOM     28  O   UNL     1       2.708   2.003  -0.105  0.00  0.00    -0.434 OA
BRANCH  28  31
ATOM     29  O   UNL     1       2.611   3.507   1.635  0.00  0.00    -0.227 OA
ATOM     30  N   UNL     1       4.442   3.413   0.247  0.00  0.00    -0.295 N 
ATOM     31  C   UNL     1       3.200   3.016   0.678  0.00  0.00    +0.398 C 
ATOM     32  H   UNL     1       4.856   2.974  -0.531  0.00  0.00    +0.148 HD
ATOM     33  H   UNL     1       4.918   4.135   0.716  0.00  0.00    +0.148 HD
ENDBRANCH  28  31
ENDBRANCH  27  28
ENDBRANCH   9  27
TORSDOF 8
