128589
  -OEChem-03292013323D

 36 38  0     1  0  0  0  0  0999 V2000
    1.8662    2.4419   -0.7795 O   0  0  0  0  0  0  0  0  0  0  0  0
    3.1036   -0.6248   -1.9430 O   0  0  0  0  0  0  0  0  0  0  0  0
    5.6133    0.0186    0.7809 O   0  0  0  0  0  0  0  0  0  0  0  0
   -4.0698   -0.8967   -1.4586 O   0  0  0  0  0  0  0  0  0  0  0  0
   -0.1300   -0.2788    0.2777 N   0  0  0  0  0  0  0  0  0  0  0  0
   -1.3527   -2.1120   -0.0400 N   0  0  0  0  0  0  0  0  0  0  0  0
   -1.7979    1.4204    0.3296 N   0  0  0  0  0  0  0  0  0  0  0  0
   -4.2522    1.3099    0.4055 N   0  0  0  0  0  0  0  0  0  0  0  0
    1.0654    0.5488    0.4696 C   0  0  2  0  0  0  0  0  0  0  0  0
    1.7111    1.0234   -0.8503 C   0  0  2  0  0  0  0  0  0  0  0  0
    3.0994    0.3656   -0.9249 C   0  0  1  0  0  0  0  0  0  0  0  0
    3.2743   -0.2721    0.4202 C   0  0  0  0  0  0  0  0  0  0  0  0
    2.1724   -0.1739    1.1724 C   0  0  0  0  0  0  0  0  0  0  0  0
   -1.4298    0.1310    0.2253 C   0  0  0  0  0  0  0  0  0  0  0  0
   -2.1703   -1.0092    0.0248 C   0  0  0  0  0  0  0  0  0  0  0  0
    4.5523   -0.9242    0.8114 C   0  0  0  0  0  0  0  0  0  0  0  0
   -0.1343   -1.6384    0.1160 C   0  0  0  0  0  0  0  0  0  0  0  0
   -3.6444   -1.0968   -0.1125 C   0  0  1  0  0  0  0  0  0  0  0  0
   -4.3739   -0.1016    0.7961 C   0  0  0  0  0  0  0  0  0  0  0  0
   -3.1028    1.8690    0.2794 C   0  0  0  0  0  0  0  0  0  0  0  0
    0.7672    1.3930    1.1028 H   0  0  0  0  0  0  0  0  0  0  0  0
    1.0965    0.8018   -1.7304 H   0  0  0  0  0  0  0  0  0  0  0  0
    3.8921    1.0931   -1.1297 H   0  0  0  0  0  0  0  0  0  0  0  0
    2.0849   -0.5629    2.1780 H   0  0  0  0  0  0  0  0  0  0  0  0
    0.7648   -2.2395    0.1057 H   0  0  0  0  0  0  0  0  0  0  0  0
    4.7941   -1.7351    0.1173 H   0  0  0  0  0  0  0  0  0  0  0  0
    4.5020   -1.3524    1.8179 H   0  0  0  0  0  0  0  0  0  0  0  0
   -3.9563   -2.1092    0.1699 H   0  0  0  0  0  0  0  0  0  0  0  0
    0.9753    2.8289   -0.7312 H   0  0  0  0  0  0  0  0  0  0  0  0
    2.9462   -0.1732   -2.7898 H   0  0  0  0  0  0  0  0  0  0  0  0
   -1.0810    2.1415    0.3521 H   0  0  0  0  0  0  0  0  0  0  0  0
   -5.4452   -0.3345    0.7612 H   0  0  0  0  0  0  0  0  0  0  0  0
   -4.0631   -0.2197    1.8419 H   0  0  0  0  0  0  0  0  0  0  0  0
   -3.1090    2.9522    0.0706 H   0  0  0  0  0  0  0  0  0  0  0  0
    5.4026    0.7219    1.4188 H   0  0  0  0  0  0  0  0  0  0  0  0
   -3.8624    0.0206   -1.7059 H   0  0  0  0  0  0  0  0  0  0  0  0
  1 10  1  0  0  0  0
  1 29  1  0  0  0  0
  2 11  1  0  0  0  0
  2 30  1  0  0  0  0
  3 16  1  0  0  0  0
  3 35  1  0  0  0  0
  4 18  1  0  0  0  0
  4 36  1  0  0  0  0
  5  9  1  0  0  0  0
  5 14  1  0  0  0  0
  5 17  1  0  0  0  0
  6 15  1  0  0  0  0
  6 17  2  0  0  0  0
  7 14  1  0  0  0  0
  7 20  1  0  0  0  0
  7 31  1  0  0  0  0
  8 19  1  0  0  0  0
  8 20  2  0  0  0  0
  9 10  1  0  0  0  0
  9 13  1  0  0  0  0
  9 21  1  0  0  0  0
 10 11  1  0  0  0  0
 10 22  1  0  0  0  0
 11 12  1  0  0  0  0
 11 23  1  0  0  0  0
 12 13  2  0  0  0  0
 12 16  1  0  0  0  0
 13 24  1  0  0  0  0
 14 15  2  0  0  0  0
 15 18  1  0  0  0  0
 16 26  1  0  0  0  0
 16 27  1  0  0  0  0
 17 25  1  0  0  0  0
 18 19  1  0  0  0  0
 18 28  1  0  0  0  0
 19 32  1  0  0  0  0
 19 33  1  0  0  0  0
 20 34  1  0  0  0  0
M  END
> <PUBCHEM_COMPOUND_CID>
128589

> <PUBCHEM_CONFORMER_RMSD>
0.6

> <PUBCHEM_CONFORMER_DIVERSEORDER>
1
124
158
44
164
155
9
161
125
71
156
96
106
119
74
34
67
141
113
98
7
117
134
91
165
101
14
32
115
43
18
133
94
45
151
76
90
111
100
83
137
103
148
61
146
47
70
136
82
56
105
144
69
150
132
149
57
162
41
60
118
13
131
54
140
114
163
86
78
97
37
107
110
72
153
64
112
75
129
3
130
92
88
122
35
102
143
53
59
89
123
25
159
80
38
28
81
6
157
8
73
50
27
4
127
85
12
93
138
66
10
68
104
77
99
121
109
87
36
139
79
55
5
24
128
65
16
116
120
145
51
11
58
84
20
95
152
42
46
142
29
40
147
19
21
63
2
31
135
22
62
23
26
126
39
160
108
30
17
49
15
33
48
154
52

> <PUBCHEM_MMFF94_PARTIAL_CHARGES>
28
1 -0.68
10 0.28
11 0.42
12 -0.28
13 -0.29
14 -0.07
15 0.05
16 0.42
17 0.04
18 0.46
19 0.25
2 -0.68
20 0.44
24 0.15
25 0.15
29 0.4
3 -0.68
30 0.4
31 0.4
34 0.06
35 0.4
36 0.4
4 -0.68
5 0.05
6 -0.57
7 -0.53
8 -0.7
9 0.39

> <PUBCHEM_EFFECTIVE_ROTOR_COUNT>
3.2

> <PUBCHEM_PHARMACOPHORE_FEATURES>
14
1 1 acceptor
1 1 donor
1 2 acceptor
1 2 donor
1 3 acceptor
1 3 donor
1 4 acceptor
1 4 donor
1 7 donor
3 5 6 17 cation
3 7 8 20 cation
5 5 6 14 15 17 rings
5 9 10 11 12 13 rings
7 7 8 14 15 18 19 20 rings

> <PUBCHEM_HEAVY_ATOM_COUNT>
20

> <PUBCHEM_ATOM_DEF_STEREO_COUNT>
0

> <PUBCHEM_ATOM_UDEF_STEREO_COUNT>
4

> <PUBCHEM_BOND_DEF_STEREO_COUNT>
0

> <PUBCHEM_BOND_UDEF_STEREO_COUNT>
0

> <PUBCHEM_ISOTOPIC_ATOM_COUNT>
0

> <PUBCHEM_COMPONENT_COUNT>
1

> <PUBCHEM_CACTVS_TAUTO_COUNT>
2

> <PUBCHEM_CONFORMER_ID>
0001F64D00000001

> <PUBCHEM_MMFF94_ENERGY>
33.5813

> <PUBCHEM_FEATURE_SELFOVERLAP>
71.089

> <PUBCHEM_SHAPE_FINGERPRINT>
10062212 137 18410852153467743083
11132069 177 18202005413098075985
11615757 297 17240202148970197435
12236239 1 18040152907284192056
12507557 5 17967810557162634265
13140716 1 18266180728324799715
13583140 156 16200138902889099093
13675066 3 18202004334570875819
13862211 1 18340204215474265691
14004511 7 18408319986377937427
15375358 24 17561082505887220746
15442244 35 18334857229623232288
16752209 62 18411408514972967851
16945 1 18409730685898630059
17980427 23 18272926167863588764
1813 80 17023748893230003758
18186145 218 18187928429999097637
192875 21 18339071683372572509
19862831 5 17822285816359374443
200 152 18335129912870316871
20279233 1 17203612592362639158
21267235 1 18334864925898723883
23402539 116 18272642441880435388
23557571 272 17704348892266117323
23559900 14 17989214707619275750
2748010 2 17764863989719741035
296302 2 17131830980254463274
34797466 226 17702955867591337068
474 4 17243309493569603988
5104073 3 18337113461531860145
633830 44 18411146844037575287
74978 22 18261396714387469818
9709674 26 18202007650422973326
9981440 41 17251183203752760912

> <PUBCHEM_SHAPE_MULTIPOLES>
368.19
9.52
1.82
1.14
2.3
0.43
-0.36
-0.33
1
-0.93
-0.18
0.64
-0.07
-0.84

> <PUBCHEM_SHAPE_SELFOVERLAP>
792.769

> <PUBCHEM_SHAPE_VOLUME>
202.4

> <PUBCHEM_COORDINATE_TYPE>
2
5
10

$$$$
