REMARK  Name = 12859615
REMARK  12 active torsions:
REMARK  status: ('A' for Active; 'I' for Inactive)
REMARK    1  A    between atoms: N_2  and  C_21
REMARK    2  A    between atoms: C_3  and  C_5
REMARK    3  A    between atoms: C_5  and  N_7
REMARK    4  A    between atoms: C_5  and  C_18
REMARK    5  A    between atoms: C_8  and  O_10
REMARK    6  A    between atoms: O_10  and  C_11
REMARK    7  A    between atoms: C_11  and  C_12
REMARK    8  A    between atoms: C_21  and  C_23
REMARK    9  A    between atoms: C_21  and  C_26
REMARK   10  A    between atoms: C_23  and  O_24
REMARK   11  A    between atoms: C_26  and  C_27
REMARK   12  A    between atoms: C_32  and  O_33
REMARK                            x       y       z     vdW  Elec       q    Type
REMARK                         _______ _______ _______ _____ _____    ______ ____
ROOT
ATOM      1  O   UNL     1      -0.037   1.399   1.357  0.00  0.00    -0.273 OA
ATOM      2  N   UNL     1       1.844   1.072   0.038  0.00  0.00    -0.295 N 
ATOM      3  C   UNL     1       0.478   1.144   0.270  0.00  0.00    +0.241 C 
ATOM      4  H   UNL     1       2.155   0.861  -0.872  0.00  0.00    +0.150 HD
ENDROOT
BRANCH   3   5
ATOM      5  C   UNL     1      -0.338   0.824  -0.981  0.00  0.00    +0.151 C 
BRANCH   5   7
ATOM      6  O   UNL     1      -2.069  -1.507  -1.057  0.00  0.00    -0.226 OA
ATOM      7  N   UNL     1      -1.725   0.742  -0.600  0.00  0.00    -0.264 N 
ATOM      8  C   UNL     1      -2.474  -0.416  -0.669  0.00  0.00    +0.402 C 
ATOM      9  H   UNL     1      -2.164   1.559  -0.270  0.00  0.00    +0.153 HD
BRANCH   8  10
ATOM     10  O   UNL     1      -3.748  -0.170  -0.240  0.00  0.00    -0.430 OA
BRANCH  10  11
ATOM     11  C   UNL     1      -4.641  -1.290  -0.259  0.00  0.00    +0.237 C 
BRANCH  11  12
ATOM     12  C   UNL     1      -5.987  -0.852   0.239  0.00  0.00    +0.021 C 
ATOM     13  C   UNL     1      -6.286  -0.928   1.599  0.00  0.00    -0.001 C 
ATOM     14  C   UNL     1      -6.939  -0.369  -0.658  0.00  0.00    -0.001 C 
ATOM     15  C   UNL     1      -7.537  -0.521   2.062  0.00  0.00    -0.000 C 
ATOM     16  C   UNL     1      -8.190   0.038  -0.196  0.00  0.00    -0.000 C 
ATOM     17  C   UNL     1      -8.489  -0.038   1.165  0.00  0.00    -0.000 C 
ENDBRANCH  11  12
ENDBRANCH  10  11
ENDBRANCH   8  10
ENDBRANCH   5   7
BRANCH   5  18
ATOM     18  C   UNL     1      -0.082   1.834  -2.119  0.00  0.00    +0.027 C 
ATOM     19  C   UNL     1      -0.865   1.512  -3.396  0.00  0.00    +0.002 C 
ATOM     20  C   UNL     1      -0.391   3.264  -1.666  0.00  0.00    +0.002 C 
ENDBRANCH   5  18
ENDBRANCH   3   5
BRANCH   2  21
ATOM     21  C   UNL     1       2.831   1.294   1.070  0.00  0.00    +0.176 C 
BRANCH  21  23
ATOM     22  O   UNL     1       4.252   2.214  -0.655  0.00  0.00    -0.248 OA
ATOM     23  C   UNL     1       4.082   1.980   0.537  0.00  0.00    +0.335 C 
BRANCH  23  24
ATOM     24  O   UNL     1       4.969   2.273   1.530  0.00  0.00    -0.443 OA
ATOM     25  C   UNL     1       6.184   2.904   1.111  0.00  0.00    +0.256 C 
ENDBRANCH  23  24
ENDBRANCH  21  23
BRANCH  21  26
ATOM     26  C   UNL     1       3.161  -0.007   1.816  0.00  0.00    +0.057 C 
BRANCH  26  27
ATOM     27  C   UNL     1       3.806  -1.077   0.964  0.00  0.00    -0.020 C 
ATOM     28  C   UNL     1       5.196  -1.133   0.851  0.00  0.00    -0.001 C 
ATOM     29  C   UNL     1       3.014  -2.007   0.292  0.00  0.00    -0.001 C 
ATOM     30  C   UNL     1       5.792  -2.120   0.066  0.00  0.00    +0.036 C 
ATOM     31  C   UNL     1       3.610  -2.994  -0.493  0.00  0.00    +0.036 C 
ATOM     32  C   UNL     1       4.999  -3.050  -0.606  0.00  0.00    +0.134 C 
BRANCH  32  33
ATOM     33  O   UNL     1       5.581  -4.013  -1.373  0.00  0.00    -0.506 OA
ATOM     34  H   UNL     1       6.514  -4.051  -1.449  0.00  0.00    +0.292 HD
ENDBRANCH  32  33
ENDBRANCH  26  27
ENDBRANCH  21  26
ENDBRANCH   2  21
TORSDOF 12
