128549
  -OEChem-03292013323D

 59 61  0     1  0  0  0  0  0999 V2000
   -0.8843   -1.1711   -1.6126 O   0  0  0  0  0  0  0  0  0  0  0  0
   -2.4475    2.9383    1.4982 O   0  0  0  0  0  0  0  0  0  0  0  0
   -1.5042    0.9345    2.0373 O   0  0  0  0  0  0  0  0  0  0  0  0
    1.4322    2.5374    1.3510 O   0  0  0  0  0  0  0  0  0  0  0  0
    1.7095    3.3434   -0.7496 O   0  0  0  0  0  0  0  0  0  0  0  0
   -2.4839   -0.1170   -0.3144 N   0  0  0  0  0  0  0  0  0  0  0  0
    0.6212    1.0053   -1.7238 N   0  0  0  0  0  0  0  0  0  0  0  0
   -4.1165   -0.9028    1.2035 C   0  0  1  0  0  0  0  0  0  0  0  0
   -3.2173   -1.3427    0.0378 C   0  0  1  0  0  0  0  0  0  0  0  0
   -4.4526    0.5489    0.8310 C   0  0  0  0  0  0  0  0  0  0  0  0
   -3.1334    1.0657    0.2548 C   0  0  1  0  0  0  0  0  0  0  0  0
   -5.3273   -1.7914    1.4706 C   0  0  0  0  0  0  0  0  0  0  0  0
   -4.0005   -1.8660   -1.1781 C   0  0  0  0  0  0  0  0  0  0  0  0
   -6.0553   -2.2393    0.2097 C   0  0  0  0  0  0  0  0  0  0  0  0
   -5.0879   -2.8581   -0.7901 C   0  0  0  0  0  0  0  0  0  0  0  0
   -1.3877   -0.1384   -1.1650 C   0  0  0  0  0  0  0  0  0  0  0  0
   -2.2677    1.6024    1.3558 C   0  0  0  0  0  0  0  0  0  0  0  0
   -0.8055    1.2030   -1.5338 C   0  0  2  0  0  0  0  0  0  0  0  0
   -1.4577    1.7198   -2.8004 C   0  0  0  0  0  0  0  0  0  0  0  0
    1.3196    0.9593   -0.4448 C   0  0  1  0  0  0  0  0  0  0  0  0
    2.6669    0.2470   -0.6293 C   0  0  0  0  0  0  0  0  0  0  0  0
    1.5171    2.3967    0.0036 C   0  0  0  0  0  0  0  0  0  0  0  0
    3.4973    0.1120    0.6567 C   0  0  0  0  0  0  0  0  0  0  0  0
    4.7862   -0.6552    0.4915 C   0  0  0  0  0  0  0  0  0  0  0  0
    4.8042   -2.0372    0.6798 C   0  0  0  0  0  0  0  0  0  0  0  0
    5.9597    0.0175    0.1503 C   0  0  0  0  0  0  0  0  0  0  0  0
    5.9956   -2.7465    0.5271 C   0  0  0  0  0  0  0  0  0  0  0  0
    7.1510   -0.6918   -0.0025 C   0  0  0  0  0  0  0  0  0  0  0  0
    7.1688   -2.0739    0.1859 C   0  0  0  0  0  0  0  0  0  0  0  0
   -3.5159   -0.8781    2.1236 H   0  0  0  0  0  0  0  0  0  0  0  0
   -2.5029   -2.1081    0.3638 H   0  0  0  0  0  0  0  0  0  0  0  0
   -5.2322    0.5840    0.0613 H   0  0  0  0  0  0  0  0  0  0  0  0
   -4.8043    1.1226    1.6948 H   0  0  0  0  0  0  0  0  0  0  0  0
   -3.2857    1.8266   -0.5149 H   0  0  0  0  0  0  0  0  0  0  0  0
   -4.9836   -2.6884    2.0022 H   0  0  0  0  0  0  0  0  0  0  0  0
   -6.0285   -1.2826    2.1423 H   0  0  0  0  0  0  0  0  0  0  0  0
   -4.4599   -1.0298   -1.7218 H   0  0  0  0  0  0  0  0  0  0  0  0
   -3.3117   -2.3407   -1.8870 H   0  0  0  0  0  0  0  0  0  0  0  0
   -6.5707   -1.3875   -0.2493 H   0  0  0  0  0  0  0  0  0  0  0  0
   -6.8276   -2.9705    0.4745 H   0  0  0  0  0  0  0  0  0  0  0  0
   -4.6327   -3.7591   -0.3615 H   0  0  0  0  0  0  0  0  0  0  0  0
   -5.6361   -3.1703   -1.6862 H   0  0  0  0  0  0  0  0  0  0  0  0
   -0.9712    1.9576   -0.7647 H   0  0  0  0  0  0  0  0  0  0  0  0
    1.0204    1.7297   -2.3197 H   0  0  0  0  0  0  0  0  0  0  0  0
   -1.0539    2.6989   -3.0810 H   0  0  0  0  0  0  0  0  0  0  0  0
   -2.5408    1.8267   -2.6826 H   0  0  0  0  0  0  0  0  0  0  0  0
   -1.2965    1.0361   -3.6426 H   0  0  0  0  0  0  0  0  0  0  0  0
   -1.8882    3.3087    2.2139 H   0  0  0  0  0  0  0  0  0  0  0  0
    0.7393    0.4180    0.3118 H   0  0  0  0  0  0  0  0  0  0  0  0
    3.2706    0.7801   -1.3773 H   0  0  0  0  0  0  0  0  0  0  0  0
    2.4867   -0.7562   -1.0395 H   0  0  0  0  0  0  0  0  0  0  0  0
    3.7360    1.1061    1.0549 H   0  0  0  0  0  0  0  0  0  0  0  0
    2.8908   -0.3744    1.4320 H   0  0  0  0  0  0  0  0  0  0  0  0
    1.5495    3.4707    1.6294 H   0  0  0  0  0  0  0  0  0  0  0  0
    3.8961   -2.5726    0.9436 H   0  0  0  0  0  0  0  0  0  0  0  0
    5.9578    1.0937   -0.0012 H   0  0  0  0  0  0  0  0  0  0  0  0
    6.0096   -3.8226    0.6732 H   0  0  0  0  0  0  0  0  0  0  0  0
    8.0646   -0.1683   -0.2688 H   0  0  0  0  0  0  0  0  0  0  0  0
    8.0963   -2.6262    0.0665 H   0  0  0  0  0  0  0  0  0  0  0  0
  1 16  2  0  0  0  0
  2 17  1  0  0  0  0
  2 48  1  0  0  0  0
  3 17  2  0  0  0  0
  4 22  1  0  0  0  0
  4 54  1  0  0  0  0
  5 22  2  0  0  0  0
  6  9  1  0  0  0  0
  6 11  1  0  0  0  0
  6 16  1  0  0  0  0
  7 18  1  0  0  0  0
  7 20  1  0  0  0  0
  7 44  1  0  0  0  0
  8  9  1  0  0  0  0
  8 10  1  0  0  0  0
  8 12  1  0  0  0  0
  8 30  1  0  0  0  0
  9 13  1  0  0  0  0
  9 31  1  0  0  0  0
 10 11  1  0  0  0  0
 10 32  1  0  0  0  0
 10 33  1  0  0  0  0
 11 17  1  0  0  0  0
 11 34  1  0  0  0  0
 12 14  1  0  0  0  0
 12 35  1  0  0  0  0
 12 36  1  0  0  0  0
 13 15  1  0  0  0  0
 13 37  1  0  0  0  0
 13 38  1  0  0  0  0
 14 15  1  0  0  0  0
 14 39  1  0  0  0  0
 14 40  1  0  0  0  0
 15 41  1  0  0  0  0
 15 42  1  0  0  0  0
 16 18  1  0  0  0  0
 18 19  1  0  0  0  0
 18 43  1  0  0  0  0
 19 45  1  0  0  0  0
 19 46  1  0  0  0  0
 19 47  1  0  0  0  0
 20 21  1  0  0  0  0
 20 22  1  0  0  0  0
 20 49  1  0  0  0  0
 21 23  1  0  0  0  0
 21 50  1  0  0  0  0
 21 51  1  0  0  0  0
 23 24  1  0  0  0  0
 23 52  1  0  0  0  0
 23 53  1  0  0  0  0
 24 25  2  0  0  0  0
 24 26  1  0  0  0  0
 25 27  1  0  0  0  0
 25 55  1  0  0  0  0
 26 28  2  0  0  0  0
 26 56  1  0  0  0  0
 27 29  2  0  0  0  0
 27 57  1  0  0  0  0
 28 29  1  0  0  0  0
 28 58  1  0  0  0  0
 29 59  1  0  0  0  0
M  END
> <PUBCHEM_COMPOUND_CID>
128549

> <PUBCHEM_CONFORMER_RMSD>
1.4

> <PUBCHEM_CONFORMER_DIVERSEORDER>
1
107
117
166
167
134
50
132
43
10
124
165
170
87
172
33
24
69
161
77
93
145
89
115
109
90
64
46
97
58
40
164
112
37
36
143
28
12
136
44
106
102
65
74
30
60
11
96
48
101
160
53
31
169
83
157
125
91
116
41
71
27
127
135
168
22
128
113
20
92
126
133
63
140
66
111
110
147
130
118
144
80
155
98
142
9
42
103
5
120
34
88
154
57
73
137
152
56
4
76
17
131
7
79
78
54
16
49
51
149
123
129
158
163
105
21
55
153
139
3
8
114
94
29
84
25
72
119
62
141
38
6
156
86
122
52
138
70
95
39
14
171
104
32
59
82
99
47
148
100
174
18
15
19
151
23
146
108
13
45
67
26
35
173
162
81
68
85
159
75
150
61
121
2

> <PUBCHEM_MMFF94_PARTIAL_CHARGES>
29
1 -0.57
11 0.36
16 0.57
17 0.66
18 0.33
2 -0.65
20 0.33
22 0.66
23 0.14
24 -0.14
25 -0.15
26 -0.15
27 -0.15
28 -0.15
29 -0.15
3 -0.57
4 -0.65
44 0.36
48 0.5
5 -0.57
54 0.5
55 0.15
56 0.15
57 0.15
58 0.15
59 0.15
6 -0.66
7 -0.9
9 0.3

> <PUBCHEM_EFFECTIVE_ROTOR_COUNT>
10.4

> <PUBCHEM_PHARMACOPHORE_FEATURES>
12
1 1 acceptor
1 2 acceptor
1 3 acceptor
1 4 acceptor
1 5 acceptor
1 7 cation
1 7 donor
3 2 3 17 anion
3 4 5 22 anion
5 6 8 9 10 11 rings
6 24 25 26 27 28 29 rings
6 8 9 12 13 14 15 rings

> <PUBCHEM_HEAVY_ATOM_COUNT>
29

> <PUBCHEM_ATOM_DEF_STEREO_COUNT>
0

> <PUBCHEM_ATOM_UDEF_STEREO_COUNT>
5

> <PUBCHEM_BOND_DEF_STEREO_COUNT>
0

> <PUBCHEM_BOND_UDEF_STEREO_COUNT>
0

> <PUBCHEM_ISOTOPIC_ATOM_COUNT>
0

> <PUBCHEM_COMPONENT_COUNT>
1

> <PUBCHEM_CACTVS_TAUTO_COUNT>
1

> <PUBCHEM_CONFORMER_ID>
0001F62500000001

> <PUBCHEM_MMFF94_ENERGY>
59.175

> <PUBCHEM_FEATURE_SELFOVERLAP>
61.16

> <PUBCHEM_SHAPE_FINGERPRINT>
10319926 262 17632030662248137295
10928967 22 18263342764623981202
11607047 141 16880788381710672193
11991303 11 17171507789114041308
12107183 9 18339369561109273393
12166972 35 18412546548046228064
12422481 6 16486982803478825097
12596602 18 18343863325377242850
12633257 1 17702954754540264135
13103583 49 18201163165515994272
13533116 47 18264771136989844251
13673619 4 18187363246699579822
13757389 114 17025141926384404933
13782708 43 18261107500027644698
14068700 675 18342457070963176131
14251764 30 18335137583872071570
14950920 106 17632573893964654298
15183329 4 11025793202284841910
15361156 5 17386018213047173524
16728300 4 18343017757532635999
17780758 139 18271522009725300050
1813 80 18189067434210090932
19319366 153 17693097774526768908
19958102 18 14851887998721180490
21033648 29 15625950793997227552
22950370 63 18409448056018594524
23522609 53 18118434837143644404
23559900 14 17751082624940492705
2838139 119 11383829355723292890
3737641 26 18265050220366908794
3886686 26 17768264409469533775
392239 28 17846225496491096811
437815 12 18186239541136000711
474113 269 18059563733676548055
484985 159 18191577554172410604
4938544 92 18268993085837657872
497634 4 18408884001757554670
5104073 3 17846782948332342385
5385378 56 13973694897388525206
57527293 21 17345473867928239665
7288768 16 12607408805871977381

> <PUBCHEM_SHAPE_MULTIPOLES>
557.5
16.54
3.38
1.78
21.45
0.51
-0.48
-17.09
3.54
-0.53
0.13
-1.91
0.89
-0.96

> <PUBCHEM_SHAPE_SELFOVERLAP>
1167.377

> <PUBCHEM_SHAPE_VOLUME>
313.2

> <PUBCHEM_COORDINATE_TYPE>
2
5
10

$$$$
