REMARK  Name = 128557
REMARK  6 active torsions:
REMARK  status: ('A' for Active; 'I' for Inactive)
REMARK    1  A    between atoms: N_1  and  C1*_11
REMARK    2  A    between atoms: C_7  and  N_22
REMARK    3  A    between atoms: C2*_12  and  O2*_15
REMARK    4  A    between atoms: C3*_13  and  O3*_17
REMARK    5  A    between atoms: C4*_14  and  C5*_19
REMARK    6  A    between atoms: C5*_19  and  O5*_20
REMARK                            x       y       z     vdW  Elec       q    Type
REMARK                         _______ _______ _______ _____ _____    ______ ____
ROOT
ATOM      1  N   UNL     1      -0.203  -0.317  -0.123  0.00  0.00    -0.247 N 
ATOM      2  N   UNL     1      -1.733   1.497  -0.539  0.00  0.00    -0.229 NA
ATOM      3  C   UNL     1      -1.463   0.221  -0.204  0.00  0.00    +0.138 C 
ATOM      4  C   UNL     1      -0.297  -1.638   0.244  0.00  0.00    +0.069 C 
ATOM      5  C   UNL     1      -2.380  -0.776   0.118  0.00  0.00    +0.046 C 
ATOM      6  C   UNL     1      -1.630  -1.948   0.400  0.00  0.00    +0.020 C 
ATOM      7  C   UNL     1      -3.741  -0.433   0.096  0.00  0.00    +0.046 C 
ATOM      8  C   UNL     1      -4.077   0.876  -0.245  0.00  0.00    +0.035 C 
ATOM      9  C   UNL     1      -3.059   1.771  -0.544  0.00  0.00    +0.102 C 
ENDROOT
BRANCH   1  11
ATOM     10  O4* UNL     1       2.012  -0.518  -0.950  0.00  0.00    -0.333 OA
ATOM     11  C1* UNL     1       1.048   0.391  -0.384  0.00  0.00    +0.227 C 
ATOM     12  C2* UNL     1       1.699   0.978   0.859  0.00  0.00    +0.187 C 
ATOM     13  C3* UNL     1       3.153   1.047   0.434  0.00  0.00    +0.171 C 
ATOM     14  C4* UNL     1       3.313  -0.228  -0.387  0.00  0.00    +0.175 C 
BRANCH  12  15
ATOM     15  O2* UNL     1       1.159   2.240   1.191  0.00  0.00    -0.378 OA
ATOM     16  H2* UNL     1       0.231   2.136   1.454  0.00  0.00    +0.211 HD
ENDBRANCH  12  15
BRANCH  13  17
ATOM     17  O3* UNL     1       3.345   2.173  -0.421  0.00  0.00    -0.379 OA
ATOM     18  H3* UNL     1       3.246   2.990   0.092  0.00  0.00    +0.211 HD
ENDBRANCH  13  17
BRANCH  14  19
ATOM     19  C5* UNL     1       3.750  -1.423   0.450  0.00  0.00    +0.169 C 
BRANCH  19  20
ATOM     20  O5* UNL     1       3.859  -2.554  -0.397  0.00  0.00    -0.379 OA
ATOM     21  H5* UNL     1       4.138  -3.322   0.125  0.00  0.00    +0.211 HD
ENDBRANCH  19  20
ENDBRANCH  14  19
ENDBRANCH   1  11
BRANCH   7  22
ATOM     22  N   UNL     1      -4.755  -1.359   0.403  0.00  0.00    -0.357 N 
ATOM     23  H   UNL     1      -4.520  -2.285   0.644  0.00  0.00    +0.142 HD
ATOM     24  H   UNL     1      -5.700  -1.083   0.377  0.00  0.00    +0.142 HD
ENDBRANCH   7  22
TORSDOF 6
