128523
  -OEChem-03292013323D

 31 31  0     0  0  0  0  0  0999 V2000
   -2.1046   -1.6064    0.2347 P   0  0  0  0  0  0  0  0  0  0  0  0
   -2.1882    1.5807    0.2505 P   0  0  0  0  0  0  0  0  0  0  0  0
   -2.1544   -0.0142   -1.7548 O   0  0  0  0  0  0  0  0  0  0  0  0
   -3.7171   -1.4957    0.2347 O   0  0  0  0  0  0  0  0  0  0  0  0
   -1.8160   -2.6407   -0.9745 O   0  0  0  0  0  0  0  0  0  0  0  0
   -1.9714    2.6544   -0.9384 O   0  0  0  0  0  0  0  0  0  0  0  0
   -3.7929    1.3776    0.2757 O   0  0  0  0  0  0  0  0  0  0  0  0
   -1.4857   -1.9761    1.5497 O   0  0  0  0  0  0  0  0  0  0  0  0
   -1.5897    1.9602    1.5720 O   0  0  0  0  0  0  0  0  0  0  0  0
    4.2935    1.2177   -0.1655 N   0  0  0  0  0  0  0  0  0  0  0  0
   -1.5699    0.0055   -0.4445 C   0  0  0  0  0  0  0  0  0  0  0  0
   -0.0462    0.0373   -0.6804 C   0  0  0  0  0  0  0  0  0  0  0  0
    0.7891    0.0623    0.5995 C   0  0  0  0  0  0  0  0  0  0  0  0
    2.2661    0.0197    0.2930 C   0  0  0  0  0  0  0  0  0  0  0  0
    2.9199   -1.1906    0.1910 C   0  0  0  0  0  0  0  0  0  0  0  0
    2.9707    1.1859    0.1121 C   0  0  0  0  0  0  0  0  0  0  0  0
    4.2810   -1.1988   -0.0935 C   0  0  0  0  0  0  0  0  0  0  0  0
    4.9157    0.0212   -0.2614 C   0  0  0  0  0  0  0  0  0  0  0  0
    0.2029    0.9118   -1.2963 H   0  0  0  0  0  0  0  0  0  0  0  0
    0.2379   -0.8318   -1.2887 H   0  0  0  0  0  0  0  0  0  0  0  0
    0.5521   -0.7799    1.2531 H   0  0  0  0  0  0  0  0  0  0  0  0
    0.5860    0.9641    1.1837 H   0  0  0  0  0  0  0  0  0  0  0  0
   -3.1199   -0.0314   -1.6401 H   0  0  0  0  0  0  0  0  0  0  0  0
   -4.2442   -2.2420    0.5913 H   0  0  0  0  0  0  0  0  0  0  0  0
   -1.9975   -3.5946   -0.8362 H   0  0  0  0  0  0  0  0  0  0  0  0
   -2.2042    3.5936   -0.7780 H   0  0  0  0  0  0  0  0  0  0  0  0
   -4.3546    2.0862    0.6558 H   0  0  0  0  0  0  0  0  0  0  0  0
    2.3929   -2.1304    0.3260 H   0  0  0  0  0  0  0  0  0  0  0  0
    2.4969    2.1595    0.1809 H   0  0  0  0  0  0  0  0  0  0  0  0
    4.8274   -2.1308   -0.1817 H   0  0  0  0  0  0  0  0  0  0  0  0
    5.9764    0.0692   -0.4849 H   0  0  0  0  0  0  0  0  0  0  0  0
  1  4  1  0  0  0  0
  1  5  1  0  0  0  0
  1  8  2  0  0  0  0
  1 11  1  0  0  0  0
  2  6  1  0  0  0  0
  2  7  1  0  0  0  0
  2  9  2  0  0  0  0
  2 11  1  0  0  0  0
  3 11  1  0  0  0  0
  3 23  1  0  0  0  0
  4 24  1  0  0  0  0
  5 25  1  0  0  0  0
  6 26  1  0  0  0  0
  7 27  1  0  0  0  0
 10 16  1  0  0  0  0
 10 18  2  0  0  0  0
 11 12  1  0  0  0  0
 12 13  1  0  0  0  0
 12 19  1  0  0  0  0
 12 20  1  0  0  0  0
 13 14  1  0  0  0  0
 13 21  1  0  0  0  0
 13 22  1  0  0  0  0
 14 15  1  0  0  0  0
 14 16  2  0  0  0  0
 15 17  2  0  0  0  0
 15 28  1  0  0  0  0
 16 29  1  0  0  0  0
 17 18  1  0  0  0  0
 17 30  1  0  0  0  0
 18 31  1  0  0  0  0
M  END
> <PUBCHEM_COMPOUND_CID>
128523

> <PUBCHEM_CONFORMER_RMSD>
0.6

> <PUBCHEM_CONFORMER_DIVERSEORDER>
1
13
16
3
5
15
14
2
6
4
7
11
9
8
12
10

> <PUBCHEM_MMFF94_PARTIAL_CHARGES>
26
1 1.24
10 -0.62
11 0.28
13 0.14
14 -0.14
15 -0.15
16 0.16
17 -0.15
18 0.16
2 1.24
23 0.4
24 0.5
25 0.5
26 0.5
27 0.5
28 0.15
29 0.15
3 -0.68
30 0.15
31 0.15
4 -0.77
5 -0.77
6 -0.77
7 -0.77
8 -0.7
9 -0.7

> <PUBCHEM_EFFECTIVE_ROTOR_COUNT>
5

> <PUBCHEM_PHARMACOPHORE_FEATURES>
12
1 10 acceptor
1 3 acceptor
1 3 donor
1 4 acceptor
1 5 acceptor
1 6 acceptor
1 7 acceptor
1 8 acceptor
1 9 acceptor
4 1 4 5 8 anion
4 2 6 7 9 anion
6 10 14 15 16 17 18 rings

> <PUBCHEM_HEAVY_ATOM_COUNT>
18

> <PUBCHEM_ATOM_DEF_STEREO_COUNT>
0

> <PUBCHEM_ATOM_UDEF_STEREO_COUNT>
0

> <PUBCHEM_BOND_DEF_STEREO_COUNT>
0

> <PUBCHEM_BOND_UDEF_STEREO_COUNT>
0

> <PUBCHEM_ISOTOPIC_ATOM_COUNT>
0

> <PUBCHEM_COMPONENT_COUNT>
1

> <PUBCHEM_CACTVS_TAUTO_COUNT>
1

> <PUBCHEM_CONFORMER_ID>
0001F60B00000001

> <PUBCHEM_MMFF94_ENERGY>
-28.2439

> <PUBCHEM_FEATURE_SELFOVERLAP>
60.988

> <PUBCHEM_SHAPE_FINGERPRINT>
10616163 171 18412546522303356382
121448 382 16660921196797243922
12173636 292 18334853874979350877
12932764 1 17346310540310345082
13296908 3 18342175583650150358
14289901 80 18340766061277596490
14965852 173 18409446990449973718
18186145 218 18186516575802277582
200 152 18341608273687914102
20281475 54 18187923933611690586
20510252 161 18410011056847128323
20645477 70 17417532389879648694
21524375 3 18266740169326707153
2306618 200 16271927099382567475
23402539 116 18272364296215516487
23402655 69 18410012144117191940
23419403 2 16375248409246206353
23557571 272 18342466984095698844
23559900 14 18412820292314076624
4214541 1 18411420588131155592
5104073 3 18410570683123376738
559249 180 18264482885204106730
58051976 100 18411985728407251710
6049 1 17988350581220665072
69090 78 18337390448388941537
74978 22 18411976936704116200
77779 3 18410577284176892932
9709674 26 18411424998984051550

> <PUBCHEM_SHAPE_MULTIPOLES>
332.06
8.3
2.44
1.11
8.13
0.08
-0.01
-0.15
0.32
-2.28
-0.07
-0.82
0.01
-0.05

> <PUBCHEM_SHAPE_SELFOVERLAP>
646.934

> <PUBCHEM_SHAPE_VOLUME>
200.3

> <PUBCHEM_COORDINATE_TYPE>
2
5
10

$$$$
