REMARK  Name = 128524
REMARK  10 active torsions:
REMARK  status: ('A' for Active; 'I' for Inactive)
REMARK    1  A    between atoms: C_1  and  C_38
REMARK    2  A    between atoms: C_2  and  N_19
REMARK    3  A    between atoms: C_3  and  N_6
REMARK    4  A    between atoms: C_4  and  O_36
REMARK    5  A    between atoms: C_20  and  C_22
REMARK    6  A    between atoms: C_22  and  N_23
REMARK    7  A    between atoms: C_22  and  C_27
REMARK    8  A    between atoms: C_27  and  C_28
REMARK    9  A    between atoms: C_33  and  O_34
REMARK   10  A    between atoms: C_38  and  O_39
REMARK                            x       y       z     vdW  Elec       q    Type
REMARK                         _______ _______ _______ _____ _____    ______ ____
ROOT
ATOM      1  C   UNL     1       0.191   2.551  -1.700  0.00  0.00    +0.051 C 
ATOM      2  C   UNL     1       0.571   1.713  -0.475  0.00  0.00    +0.102 C 
ATOM      3  C   UNL     1      -1.006   0.432  -1.836  0.00  0.00    +0.104 C 
ATOM      4  C   UNL     1       0.216   0.282  -0.902  0.00  0.00    +0.146 C 
ATOM      5  C   UNL     1      -1.155   1.942  -2.108  0.00  0.00    +0.027 C 
ENDROOT
BRANCH   3   6
ATOM      6  N   UNL     1      -2.229  -0.184  -1.323  0.00  0.00    -0.271 N 
ATOM      7  N   UNL     1      -4.003  -1.532  -1.228  0.00  0.00    -0.242 NA
ATOM      8  N   UNL     1      -2.519   1.033   0.760  0.00  0.00    -0.228 NA
ATOM      9  N   UNL     1      -4.508   0.280   1.957  0.00  0.00    -0.228 NA
ATOM     10  N   UNL     1      -5.937  -1.447   1.117  0.00  0.00    -0.289 N 
ATOM     11  C   UNL     1      -2.871   0.116  -0.155  0.00  0.00    +0.151 C 
ATOM     12  C   UNL     1      -2.947  -1.179  -1.932  0.00  0.00    +0.221 C 
ATOM     13  C   UNL     1      -3.967  -0.730  -0.115  0.00  0.00    +0.140 C 
ATOM     14  C   UNL     1      -4.802  -0.626   0.993  0.00  0.00    +0.149 C 
ATOM     15  C   UNL     1      -3.401   1.041   1.783  0.00  0.00    +0.253 C 
ATOM     16  C   UNL     1      -6.260  -2.420   0.089  0.00  0.00    +0.114 C 
ATOM     17  C   UNL     1      -6.799  -1.345   2.281  0.00  0.00    +0.114 C 
ENDBRANCH   3   6
BRANCH   2  19
ATOM     18  O   UNL     1       1.610   1.418   2.175  0.00  0.00    -0.277 OA
ATOM     19  N   UNL     1       1.943   1.864  -0.077  0.00  0.00    -0.305 N 
ATOM     20  C   UNL     1       2.358   1.702   1.241  0.00  0.00    +0.202 C 
ATOM     21  H   UNL     1       2.613   2.091  -0.761  0.00  0.00    +0.149 HD
BRANCH  20  22
ATOM     22  C   UNL     1       3.862   1.885   1.415  0.00  0.00    +0.017 C 
BRANCH  22  23
ATOM     23  N   UNL     1       4.048   3.019   2.321  0.00  0.00    +0.388 N 
ATOM     24  H   UNL     1       3.623   3.852   1.914  0.00  0.00    -0.089 HD
ATOM     25  H   UNL     1       5.044   3.180   2.465  0.00  0.00    -0.089 HD
ATOM     26  H   UNL     1       3.604   2.814   3.217  0.00  0.00    -0.089 HD
ENDBRANCH  22  23
BRANCH  22  27
ATOM     27  C   UNL     1       4.498   0.624   2.019  0.00  0.00    +0.013 C 
BRANCH  27  28
ATOM     28  C   UNL     1       4.355  -0.588   1.129  0.00  0.00    -0.024 C 
ATOM     29  C   UNL     1       3.241  -1.419   1.254  0.00  0.00    -0.001 C 
ATOM     30  C   UNL     1       5.337  -0.876   0.181  0.00  0.00    -0.001 C 
ATOM     31  C   UNL     1       3.110  -2.538   0.431  0.00  0.00    +0.037 C 
ATOM     32  C   UNL     1       5.206  -1.995  -0.642  0.00  0.00    +0.037 C 
ATOM     33  C   UNL     1       4.092  -2.826  -0.516  0.00  0.00    +0.139 C 
BRANCH  33  34
ATOM     34  O   UNL     1       3.963  -3.918  -1.319  0.00  0.00    -0.471 OA
ATOM     35  C   UNL     1       2.800  -4.723  -1.138  0.00  0.00    +0.252 C 
ENDBRANCH  33  34
ENDBRANCH  27  28
ENDBRANCH  22  27
ENDBRANCH  20  22
ENDBRANCH   2  19
BRANCH   4  36
ATOM     36  O   UNL     1       1.273  -0.296  -1.670  0.00  0.00    -0.381 OA
ATOM     37  H   UNL     1       2.058  -0.404  -1.111  0.00  0.00    +0.210 HD
ENDBRANCH   4  36
BRANCH   1  38
ATOM     38  C   UNL     1       0.086   4.043  -1.417  0.00  0.00    +0.139 C 
BRANCH  38  39
ATOM     39  O   UNL     1      -0.355   4.699  -2.592  0.00  0.00    -0.382 OA
ATOM     40  H   UNL     1      -0.426   5.652  -2.423  0.00  0.00    +0.210 HD
ENDBRANCH  38  39
ENDBRANCH   1  38
TORSDOF 10
