128519
  -OEChem-03292013323D

 49 49  0     0  0  0  0  0  0999 V2000
    6.8405   -3.2692    0.1724 Cl  0  0  0  0  0  0  0  0  0  0  0  0
    6.6072    3.3840    0.2640 Cl  0  0  0  0  0  0  0  0  0  0  0  0
   -4.5083    1.5852    0.4113 P   0  0  0  0  0  0  0  0  0  0  0  0
   -4.4758   -1.5952    0.5046 P   0  0  0  0  0  0  0  0  0  0  0  0
   -5.5276   -0.0647   -1.2471 O   0  0  0  0  0  0  0  0  0  0  0  0
   -3.5087    1.4535    1.6763 O   0  0  0  0  0  0  0  0  0  0  0  0
   -5.9735    1.5314    1.0924 O   0  0  0  0  0  0  0  0  0  0  0  0
   -3.5032   -1.3531    1.7726 O   0  0  0  0  0  0  0  0  0  0  0  0
   -5.9506   -1.5190    1.1636 O   0  0  0  0  0  0  0  0  0  0  0  0
   -4.2518    2.7784   -0.4603 O   0  0  0  0  0  0  0  0  0  0  0  0
   -4.1980   -2.8356   -0.2911 O   0  0  0  0  0  0  0  0  0  0  0  0
    4.4899   -0.0275    0.6980 N   0  0  0  0  0  0  0  0  0  0  0  0
   -4.3444   -0.0309   -0.4360 C   0  0  0  0  0  0  0  0  0  0  0  0
   -3.1490   -0.0516   -1.4127 C   0  0  0  0  0  0  0  0  0  0  0  0
   -1.7797   -0.0206   -0.7361 C   0  0  0  0  0  0  0  0  0  0  0  0
   -0.6540    0.0173   -1.7745 C   0  0  0  0  0  0  0  0  0  0  0  0
    0.7045    0.0055   -1.1213 C   0  0  0  0  0  0  0  0  0  0  0  0
    1.3401   -1.2074   -0.8556 C   0  0  0  0  0  0  0  0  0  0  0  0
    1.3260    1.2074   -0.7827 C   0  0  0  0  0  0  0  0  0  0  0  0
    3.2187   -0.0165    0.0871 C   0  0  0  0  0  0  0  0  0  0  0  0
    2.5972   -1.2184   -0.2514 C   0  0  0  0  0  0  0  0  0  0  0  0
    2.5831    1.1965   -0.1785 C   0  0  0  0  0  0  0  0  0  0  0  0
    5.1525   -1.2829    0.9908 C   0  0  0  0  0  0  0  0  0  0  0  0
    5.1442    1.2160    1.0535 C   0  0  0  0  0  0  0  0  0  0  0  0
    6.0125   -1.7319   -0.1801 C   0  0  0  0  0  0  0  0  0  0  0  0
    5.8083    1.8491   -0.1590 C   0  0  0  0  0  0  0  0  0  0  0  0
   -3.2156   -0.9436   -2.0488 H   0  0  0  0  0  0  0  0  0  0  0  0
   -3.2357    0.8020   -2.0972 H   0  0  0  0  0  0  0  0  0  0  0  0
   -1.6998    0.8581   -0.0871 H   0  0  0  0  0  0  0  0  0  0  0  0
   -1.6608   -0.9031   -0.0975 H   0  0  0  0  0  0  0  0  0  0  0  0
   -0.7383   -0.8397   -2.4550 H   0  0  0  0  0  0  0  0  0  0  0  0
   -0.7505    0.9110   -2.4044 H   0  0  0  0  0  0  0  0  0  0  0  0
   -5.5056   -0.8807   -1.7757 H   0  0  0  0  0  0  0  0  0  0  0  0
    0.8660   -2.1497   -1.1175 H   0  0  0  0  0  0  0  0  0  0  0  0
    0.8387    2.1581   -0.9826 H   0  0  0  0  0  0  0  0  0  0  0  0
    3.0429   -2.1935   -0.0921 H   0  0  0  0  0  0  0  0  0  0  0  0
    3.0086    2.1640    0.0635 H   0  0  0  0  0  0  0  0  0  0  0  0
   -3.3886    2.2263    2.2684 H   0  0  0  0  0  0  0  0  0  0  0  0
   -6.2992    2.3175    1.5805 H   0  0  0  0  0  0  0  0  0  0  0  0
   -3.3782   -2.0786    2.4207 H   0  0  0  0  0  0  0  0  0  0  0  0
   -6.2697   -2.2749    1.7011 H   0  0  0  0  0  0  0  0  0  0  0  0
    5.8132   -1.1425    1.8577 H   0  0  0  0  0  0  0  0  0  0  0  0
    4.4658   -2.0664    1.3300 H   0  0  0  0  0  0  0  0  0  0  0  0
    4.4610    1.9083    1.5605 H   0  0  0  0  0  0  0  0  0  0  0  0
    5.9234    1.0208    1.8027 H   0  0  0  0  0  0  0  0  0  0  0  0
    6.7930   -1.0021   -0.4075 H   0  0  0  0  0  0  0  0  0  0  0  0
    5.4175   -1.8814   -1.0859 H   0  0  0  0  0  0  0  0  0  0  0  0
    5.1021    2.0677   -0.9638 H   0  0  0  0  0  0  0  0  0  0  0  0
    6.5819    1.1987   -0.5742 H   0  0  0  0  0  0  0  0  0  0  0  0
  1 25  1  0  0  0  0
  2 26  1  0  0  0  0
  3  6  1  0  0  0  0
  3  7  1  0  0  0  0
  3 10  2  0  0  0  0
  3 13  1  0  0  0  0
  4  8  1  0  0  0  0
  4  9  1  0  0  0  0
  4 11  2  0  0  0  0
  4 13  1  0  0  0  0
  5 13  1  0  0  0  0
  5 33  1  0  0  0  0
  6 38  1  0  0  0  0
  7 39  1  0  0  0  0
  8 40  1  0  0  0  0
  9 41  1  0  0  0  0
 12 20  1  0  0  0  0
 12 23  1  0  0  0  0
 12 24  1  0  0  0  0
 13 14  1  0  0  0  0
 14 15  1  0  0  0  0
 14 27  1  0  0  0  0
 14 28  1  0  0  0  0
 15 16  1  0  0  0  0
 15 29  1  0  0  0  0
 15 30  1  0  0  0  0
 16 17  1  0  0  0  0
 16 31  1  0  0  0  0
 16 32  1  0  0  0  0
 17 18  2  0  0  0  0
 17 19  1  0  0  0  0
 18 21  1  0  0  0  0
 18 34  1  0  0  0  0
 19 22  2  0  0  0  0
 19 35  1  0  0  0  0
 20 21  2  0  0  0  0
 20 22  1  0  0  0  0
 21 36  1  0  0  0  0
 22 37  1  0  0  0  0
 23 25  1  0  0  0  0
 23 42  1  0  0  0  0
 23 43  1  0  0  0  0
 24 26  1  0  0  0  0
 24 44  1  0  0  0  0
 24 45  1  0  0  0  0
 25 46  1  0  0  0  0
 25 47  1  0  0  0  0
 26 48  1  0  0  0  0
 26 49  1  0  0  0  0
M  END
> <PUBCHEM_COMPOUND_CID>
128519

> <PUBCHEM_CONFORMER_RMSD>
1

> <PUBCHEM_CONFORMER_DIVERSEORDER>
2
20
24
30
19
11
25
32
28
6
22
18
27
26
8
31
9
23
29
5
13
7
21
33
10
4
17
14
3
15
12
16
1

> <PUBCHEM_MMFF94_PARTIAL_CHARGES>
33
1 -0.29
10 -0.7
11 -0.7
12 -0.84
13 0.28
16 0.14
17 -0.14
18 -0.15
19 -0.15
2 -0.29
20 0.1
21 -0.15
22 -0.15
23 0.37
24 0.37
25 0.29
26 0.29
3 1.24
33 0.4
34 0.15
35 0.15
36 0.15
37 0.15
38 0.5
39 0.5
4 1.24
40 0.5
41 0.5
5 -0.68
6 -0.77
7 -0.77
8 -0.77
9 -0.77

> <PUBCHEM_EFFECTIVE_ROTOR_COUNT>
11

> <PUBCHEM_PHARMACOPHORE_FEATURES>
12
1 10 acceptor
1 11 acceptor
1 12 cation
1 5 acceptor
1 5 donor
1 6 acceptor
1 7 acceptor
1 8 acceptor
1 9 acceptor
4 3 6 7 10 anion
4 4 8 9 11 anion
6 17 18 19 20 21 22 rings

> <PUBCHEM_HEAVY_ATOM_COUNT>
26

> <PUBCHEM_ATOM_DEF_STEREO_COUNT>
0

> <PUBCHEM_ATOM_UDEF_STEREO_COUNT>
0

> <PUBCHEM_BOND_DEF_STEREO_COUNT>
0

> <PUBCHEM_BOND_UDEF_STEREO_COUNT>
0

> <PUBCHEM_ISOTOPIC_ATOM_COUNT>
0

> <PUBCHEM_COMPONENT_COUNT>
1

> <PUBCHEM_CACTVS_TAUTO_COUNT>
1

> <PUBCHEM_CONFORMER_ID>
0001F60700000002

> <PUBCHEM_MMFF94_ENERGY>
-3.0084

> <PUBCHEM_FEATURE_SELFOVERLAP>
60.981

> <PUBCHEM_SHAPE_FINGERPRINT>
10 15 18202569497002043233
12236239 1 18131063831546126052
12596602 18 18410011052499361808
12616971 3 17845921975578806534
13073987 5 18409730685803645500
13782708 43 17677040253812434218
13785724 45 17912930479384625110
13955234 65 18339631327266461456
14341114 176 18408603677668490702
15183329 4 8358266951162612432
15348495 7 18410291406721703386
15880784 105 18334012796029261066
17780758 139 18335138674846180863
17844677 252 18412546500843792044
18222031 100 16515400755699475862
18927931 339 16226049972893627647
19377110 9 18115030821720228164
20281389 69 17346309414802177128
21130935 74 18408042922317400362
21315759 148 18260552251150857170
2303208 19 17822006476572286414
23081809 10 17917701427202206204
23559900 14 18263073465921317317
2838139 119 16486679269455293017
3004659 81 11169908352254313200
312425 54 18040996219844161864
3663271 9 18410855494619834304
4073 2 18187365475803619146
5104073 3 18409443683335803080
9981440 41 17917715644119234839

> <PUBCHEM_SHAPE_MULTIPOLES>
500.44
19.44
3.19
1.38
5.38
0.18
0.06
-0.37
5.4
4.35
0.53
-1.41
-0.02
0.17

> <PUBCHEM_SHAPE_SELFOVERLAP>
955.538

> <PUBCHEM_SHAPE_VOLUME>
310

> <PUBCHEM_COORDINATE_TYPE>
2
5
10

$$$$
