REMARK  Name = 128651
REMARK  11 active torsions:
REMARK  status: ('A' for Active; 'I' for Inactive)
REMARK    1  A    between atoms: N_2  and  C_21
REMARK    2  A    between atoms: C_3  and  C_6
REMARK    3  A    between atoms: C_7  and  C_11
REMARK    4  A    between atoms: C_11  and  N_12
REMARK    5  A    between atoms: N_12  and  C_15
REMARK    6  A    between atoms: C_15  and  C_16
REMARK    7  A    between atoms: C_16  and  N_17
REMARK    8  A    between atoms: C_21  and  C_23
REMARK    9  A    between atoms: C_21  and  C_26
REMARK   10  A    between atoms: C_23  and  O_24
REMARK   11  A    between atoms: C_26  and  C_29
REMARK                            x       y       z     vdW  Elec       q    Type
REMARK                         _______ _______ _______ _____ _____    ______ ____
ROOT
ATOM      1  O   UNL     1       1.280  -3.141  -1.047  0.00  0.00    -0.268 OA
ATOM      2  N   UNL     1       1.257  -1.143   0.130  0.00  0.00    -0.291 N 
ATOM      3  C   UNL     1       0.669  -2.256  -0.453  0.00  0.00    +0.272 C 
ATOM      4  H   UNL     1       0.681  -0.487   0.585  0.00  0.00    +0.150 HD
ENDROOT
BRANCH   3   6
ATOM      5  N   UNL     1      -1.412  -1.315   0.296  0.00  0.00    -0.408 NA
ATOM      6  C   UNL     1      -0.811  -2.337  -0.353  0.00  0.00    +0.166 C 
ATOM      7  C   UNL     1      -2.759  -1.376   0.395  0.00  0.00    +0.087 C 
ATOM      8  C   UNL     1      -1.490  -3.412  -0.904  0.00  0.00    +0.090 C 
ATOM      9  C   UNL     1      -3.529  -2.406  -0.121  0.00  0.00    +0.021 C 
ATOM     10  C   UNL     1      -2.875  -3.439  -0.782  0.00  0.00    -0.016 C 
BRANCH   7  11
ATOM     11  C   UNL     1      -3.428  -0.251   1.112  0.00  0.00    -0.021 C 
BRANCH  11  12
ATOM     12  N   UNL     1      -3.795   0.843   0.211  0.00  0.00    +0.387 N 
ATOM     13  H   UNL     1      -4.429   0.489  -0.504  0.00  0.00    -0.084 HD
ATOM     14  H   UNL     1      -2.947   1.212  -0.219  0.00  0.00    -0.084 HD
BRANCH  12  15
ATOM     15  C   UNL     1      -4.452   1.913   0.944  0.00  0.00    -0.106 C 
BRANCH  15  16
ATOM     16  C   UNL     1      -4.863   3.030  -0.012  0.00  0.00    -0.110 C 
BRANCH  16  17
ATOM     17  N   UNL     1      -5.538   4.096   0.721  0.00  0.00    +0.379 N 
ATOM     18  H   UNL     1      -5.808   4.835   0.072  0.00  0.00    -0.089 HD
ATOM     19  H   UNL     1      -4.907   4.476   1.426  0.00  0.00    -0.089 HD
ATOM     20  H   UNL     1      -6.371   3.721   1.175  0.00  0.00    -0.089 HD
ENDBRANCH  16  17
ENDBRANCH  15  16
ENDBRANCH  12  15
ENDBRANCH  11  12
ENDBRANCH   7  11
ENDBRANCH   3   6
BRANCH   2  21
ATOM     21  C   UNL     1       2.679  -0.909   0.095  0.00  0.00    +0.177 C 
BRANCH  21  23
ATOM     22  O   UNL     1       2.440   0.139   2.259  0.00  0.00    -0.248 OA
ATOM     23  C   UNL     1       3.189  -0.242   1.366  0.00  0.00    +0.336 C 
BRANCH  23  24
ATOM     24  O   UNL     1       4.546  -0.114   1.370  0.00  0.00    -0.443 OA
ATOM     25  C   UNL     1       5.106   0.521   2.524  0.00  0.00    +0.256 C 
ENDBRANCH  23  24
ENDBRANCH  21  23
BRANCH  21  26
ATOM     26  C   UNL     1       3.089  -0.138  -1.168  0.00  0.00    +0.073 C 
BRANCH  26  29
ATOM     27  N   UNL     1       3.297   2.376  -1.360  0.00  0.00    -0.319 N 
ATOM     28  N   UNL     1       1.199   3.105  -1.334  0.00  0.00    -0.315 N 
ATOM     29  C   UNL     1       2.515   1.261  -1.249  0.00  0.00    +0.040 C 
ATOM     30  C   UNL     1       1.224   1.736  -1.234  0.00  0.00    +0.069 C 
ATOM     31  C   UNL     1       2.463   3.459  -1.407  0.00  0.00    +0.182 C 
ATOM     32  H   UNL     1       4.280   2.396  -1.399  0.00  0.00    +0.148 HD
ATOM     33  H   UNL     1       0.409   3.692  -1.347  0.00  0.00    +0.148 HD
ENDBRANCH  26  29
ENDBRANCH  21  26
ENDBRANCH   2  21
TORSDOF 11
