REMARK  Name = 128639
REMARK  8 active torsions:
REMARK  status: ('A' for Active; 'I' for Inactive)
REMARK    1  A    between atoms: N_1  and  C1*_12
REMARK    2  A    between atoms: C_9  and  C_22
REMARK    3  A    between atoms: C2*_11  and  O2*_15
REMARK    4  A    between atoms: C3*_13  and  O3*_17
REMARK    5  A    between atoms: C4*_14  and  C5*_19
REMARK    6  A    between atoms: C5*_19  and  O5*_20
REMARK    7  A    between atoms: N_25  and  C_27
REMARK    8  A    between atoms: C_32  and  O_33
REMARK                            x       y       z     vdW  Elec       q    Type
REMARK                         _______ _______ _______ _____ _____    ______ ____
ROOT
ATOM      1  N   UNL     1       2.044   0.260   0.183  0.00  0.00    -0.236 N 
ATOM      2  N   UNL     1       0.521   1.865  -0.104  0.00  0.00    -0.240 NA
ATOM      3  N   UNL     1       0.580  -1.666   0.401  0.00  0.00    -0.327 NA
ATOM      4  N   UNL     1      -1.767  -1.023   0.218  0.00  0.00    -0.327 NA
ATOM      5  C   UNL     1       0.826  -0.359   0.224  0.00  0.00    +0.220 C 
ATOM      6  C   UNL     1       1.807   1.596  -0.015  0.00  0.00    +0.224 C 
ATOM      7  C   UNL     1      -0.103   0.652   0.044  0.00  0.00    +0.168 C 
ATOM      8  C   UNL     1      -1.444   0.281   0.044  0.00  0.00    +0.217 C 
ATOM      9  C   UNL     1      -0.750  -1.903   0.383  0.00  0.00    +0.115 C 
ATOM     10  N   UNL     1      -2.455   1.242  -0.133  0.00  0.00    -0.286 N 
ATOM     11  H   UNL     1      -2.113   2.158  -0.251  0.00  0.00    +0.155 HD
ENDROOT
BRANCH  10  12
ATOM     12  C   UNL     1      -3.864   1.155  -0.174  0.00  0.00    +0.050 C 
ATOM     13  C   UNL     1      -4.641   2.231   0.253  0.00  0.00    +0.018 C 
ATOM     14  C   UNL     1      -4.476  -0.007  -0.642  0.00  0.00    +0.018 C 
ATOM     15  C   UNL     1      -6.032   2.144   0.212  0.00  0.00    +0.038 C 
ATOM     16  C   UNL     1      -5.867  -0.094  -0.683  0.00  0.00    +0.038 C 
ATOM     17  C   UNL     1      -6.646   0.982  -0.256  0.00  0.00    +0.134 C 
BRANCH  17  18
ATOM     18  O   UNL     1      -8.003   0.898  -0.297  0.00  0.00    -0.506 OA
ATOM     19  H   UNL     1      -8.526   1.621  -0.010  0.00  0.00    +0.292 HD
ENDBRANCH  17  18
ENDBRANCH  10  12
BRANCH   1  22
ATOM     20  O4* UNL     1       4.256   0.535   0.998  0.00  0.00    -0.333 OA
ATOM     21  C2* UNL     1       4.000  -0.755  -1.009  0.00  0.00    +0.187 C 
ATOM     22  C1* UNL     1       3.357  -0.371   0.325  0.00  0.00    +0.226 C 
ATOM     23  C3* UNL     1       5.040   0.332  -1.206  0.00  0.00    +0.171 C 
ATOM     24  C4* UNL     1       5.460   0.640   0.221  0.00  0.00    +0.175 C 
BRANCH  21  25
ATOM     25  O2* UNL     1       4.611  -2.038  -0.885  0.00  0.00    -0.378 OA
ATOM     26  H2* UNL     1       3.925  -2.712  -0.760  0.00  0.00    +0.211 HD
ENDBRANCH  21  25
BRANCH  23  27
ATOM     27  O3* UNL     1       6.131  -0.072  -2.006  0.00  0.00    -0.379 OA
ATOM     28  H3* UNL     1       5.821  -0.258  -2.906  0.00  0.00    +0.211 HD
ENDBRANCH  23  27
BRANCH  24  29
ATOM     29  C5* UNL     1       6.063   2.023   0.389  0.00  0.00    +0.169 C 
BRANCH  29  30
ATOM     30  O5* UNL     1       6.406   2.205   1.752  0.00  0.00    -0.379 OA
ATOM     31  H5* UNL     1       6.793   3.086   1.873  0.00  0.00    +0.211 HD
ENDBRANCH  29  30
ENDBRANCH  24  29
ENDBRANCH   1  22
BRANCH   9  32
ATOM     32  C   UNL     1      -1.155  -3.328   0.572  0.00  0.00    +0.109 C 
ATOM     33  C   UNL     1      -1.902  -3.892  -0.651  0.00  0.00    +0.018 C 
ATOM     34  C   UNL     1      -1.999  -3.535   1.843  0.00  0.00    +0.018 C 
ENDBRANCH   9  32
TORSDOF 8
