REMARK  Name = 128676
REMARK  4 active torsions:
REMARK  status: ('A' for Active; 'I' for Inactive)
REMARK    1  A    between atoms: C_7  and  S_12
REMARK    2  A    between atoms: S_12  and  C_15
REMARK    3  A    between atoms: N_14  and  C_17
REMARK    4  A    between atoms: C_17  and  C_19
REMARK                            x       y       z     vdW  Elec       q    Type
REMARK                         _______ _______ _______ _____ _____    ______ ____
ROOT
ATOM      1  N   UNL     1      -2.593   1.596  -0.345  0.00  0.00    -0.271 NA
ATOM      2  N   UNL     1      -4.176   0.184   0.342  0.00  0.00    -0.307 N 
ATOM      3  N   UNL     1      -2.788  -1.812   0.355  0.00  0.00    -0.232 NA
ATOM      4  N   UNL     1      -0.480  -1.415  -0.330  0.00  0.00    -0.240 NA
ATOM      5  C   UNL     1      -1.991   0.372  -0.271  0.00  0.00    +0.156 C 
ATOM      6  C   UNL     1      -2.994  -0.488   0.158  0.00  0.00    +0.124 C 
ATOM      7  C   UNL     1      -0.716  -0.097  -0.518  0.00  0.00    +0.111 C 
ATOM      8  C   UNL     1      -3.900   1.433   0.031  0.00  0.00    +0.163 C 
ATOM      9  C   UNL     1      -1.516  -2.180   0.090  0.00  0.00    +0.252 C 
ATOM     10  H   UNL     1      -2.166   2.440  -0.618  0.00  0.00    +0.125 HD
ATOM     11  H   UNL     1      -5.038  -0.186   0.640  0.00  0.00    +0.149 HD
ENDROOT
BRANCH   7  12
ATOM     12  S   UNL     1       0.584   0.961  -1.062  0.00  0.00    -0.014 S 
BRANCH  12  15
ATOM     13  O   UNL     1       1.460   0.544   1.389  0.00  0.00    -0.263 OA
ATOM     14  N   UNL     1       3.051   0.950  -0.261  0.00  0.00    -0.294 N 
ATOM     15  C   UNL     1       1.775   0.782   0.231  0.00  0.00    +0.278 C 
ATOM     16  H   UNL     1       3.159   1.138  -1.221  0.00  0.00    +0.150 HD
BRANCH  14  17
ATOM     17  C   UNL     1       4.239   0.864   0.556  0.00  0.00    +0.108 C 
BRANCH  17  19
ATOM     18 CL   UNL     1       5.245  -1.147  -0.991  0.00  0.00    -0.112 Cl
ATOM     19  C   UNL     1       4.800  -0.546   0.625  0.00  0.00    +0.116 C 
ENDBRANCH  17  19
ENDBRANCH  14  17
ENDBRANCH  12  15
ENDBRANCH   7  12
TORSDOF 4
