128676
  -OEChem-03292013323D

 24 25  0     0  0  0  0  0  0999 V2000
    5.2451   -1.1466   -0.9911 Cl  0  0  0  0  0  0  0  0  0  0  0  0
    0.5841    0.9609   -1.0624 S   0  0  0  0  0  0  0  0  0  0  0  0
    1.4603    0.5438    1.3894 O   0  0  0  0  0  0  0  0  0  0  0  0
   -2.5930    1.5957   -0.3447 N   0  0  0  0  0  0  0  0  0  0  0  0
    3.0507    0.9496   -0.2607 N   0  0  0  0  0  0  0  0  0  0  0  0
   -4.1756    0.1840    0.3416 N   0  0  0  0  0  0  0  0  0  0  0  0
   -2.7879   -1.8121    0.3553 N   0  0  0  0  0  0  0  0  0  0  0  0
   -0.4804   -1.4147   -0.3295 N   0  0  0  0  0  0  0  0  0  0  0  0
   -1.9912    0.3718   -0.2707 C   0  0  0  0  0  0  0  0  0  0  0  0
   -2.9940   -0.4878    0.1575 C   0  0  0  0  0  0  0  0  0  0  0  0
   -0.7160   -0.0968   -0.5180 C   0  0  0  0  0  0  0  0  0  0  0  0
    4.2392    0.8642    0.5563 C   0  0  0  0  0  0  0  0  0  0  0  0
   -3.9002    1.4328    0.0313 C   0  0  0  0  0  0  0  0  0  0  0  0
    4.7998   -0.5464    0.6255 C   0  0  0  0  0  0  0  0  0  0  0  0
    1.7752    0.7819    0.2305 C   0  0  0  0  0  0  0  0  0  0  0  0
   -1.5161   -2.1802    0.0896 C   0  0  0  0  0  0  0  0  0  0  0  0
    4.9760    1.5538    0.1305 H   0  0  0  0  0  0  0  0  0  0  0  0
    3.9983    1.2122    1.5667 H   0  0  0  0  0  0  0  0  0  0  0  0
   -2.1565    2.4640   -0.6249 H   0  0  0  0  0  0  0  0  0  0  0  0
    3.1623    1.1365   -1.2526 H   0  0  0  0  0  0  0  0  0  0  0  0
   -4.5937    2.2611    0.0568 H   0  0  0  0  0  0  0  0  0  0  0  0
    4.0657   -1.2435    1.0410 H   0  0  0  0  0  0  0  0  0  0  0  0
    5.6977   -0.5733    1.2494 H   0  0  0  0  0  0  0  0  0  0  0  0
   -1.2923   -3.2321    0.2311 H   0  0  0  0  0  0  0  0  0  0  0  0
  1 14  1  0  0  0  0
  2 11  1  0  0  0  0
  2 15  1  0  0  0  0
  3 15  2  0  0  0  0
  4  9  1  0  0  0  0
  4 13  1  0  0  0  0
  4 19  1  0  0  0  0
  5 12  1  0  0  0  0
  5 15  1  0  0  0  0
  5 20  1  0  0  0  0
  6 10  1  0  0  0  0
  6 13  2  0  0  0  0
  7 10  1  0  0  0  0
  7 16  2  0  0  0  0
  8 11  2  0  0  0  0
  8 16  1  0  0  0  0
  9 10  2  0  0  0  0
  9 11  1  0  0  0  0
 12 14  1  0  0  0  0
 12 17  1  0  0  0  0
 12 18  1  0  0  0  0
 13 21  1  0  0  0  0
 14 22  1  0  0  0  0
 14 23  1  0  0  0  0
 16 24  1  0  0  0  0
M  END
> <PUBCHEM_COMPOUND_CID>
128676

> <PUBCHEM_CONFORMER_RMSD>
0.6

> <PUBCHEM_CONFORMER_DIVERSEORDER>
1
152
17
140
109
156
120
67
103
154
86
153
128
9
125
107
55
130
151
146
85
131
144
114
93
96
117
15
102
100
46
91
158
43
31
123
54
39
142
80
138
160
62
143
77
137
82
29
159
113
45
94
7
88
87
157
32
111
92
139
20
5
57
56
150
16
133
68
104
105
71
124
81
122
134
84
59
4
101
90
148
116
23
78
127
2
21
44
110
74
65
115
129
89
50
97
135
83
136
53
155
26
12
48
33
95
13
99
30
47
25
11
141
106
24
108
40
3
79
18
60
75
51
14
147
112
41
118
76
132
22
37
119
58
49
19
36
6
70
35
126
121
42
63
64
52
98
73
149
10
38
145
66
69
28
8
34
27
61
72

> <PUBCHEM_MMFF94_PARTIAL_CHARGES>
20
1 -0.29
10 0.48
11 0.41
12 0.3
13 0.04
14 0.29
15 0.77
16 0.47
19 0.27
2 -0.24
20 0.37
21 0.15
24 0.15
3 -0.57
4 0.03
5 -0.73
6 -0.57
7 -0.57
8 -0.62
9 -0.15

> <PUBCHEM_EFFECTIVE_ROTOR_COUNT>
5

> <PUBCHEM_PHARMACOPHORE_FEATURES>
7
1 4 donor
1 5 donor
1 8 acceptor
3 4 6 13 cation
3 7 8 16 cation
5 4 6 9 10 13 rings
6 7 8 9 10 11 16 rings

> <PUBCHEM_HEAVY_ATOM_COUNT>
16

> <PUBCHEM_ATOM_DEF_STEREO_COUNT>
0

> <PUBCHEM_ATOM_UDEF_STEREO_COUNT>
0

> <PUBCHEM_BOND_DEF_STEREO_COUNT>
0

> <PUBCHEM_BOND_UDEF_STEREO_COUNT>
0

> <PUBCHEM_ISOTOPIC_ATOM_COUNT>
0

> <PUBCHEM_COMPONENT_COUNT>
1

> <PUBCHEM_CACTVS_TAUTO_COUNT>
8

> <PUBCHEM_CONFORMER_ID>
0001F6A400000001

> <PUBCHEM_MMFF94_ENERGY>
16.8121

> <PUBCHEM_FEATURE_SELFOVERLAP>
35.652

> <PUBCHEM_SHAPE_FINGERPRINT>
11128504 68 16370734725446704478
12119455 92 17203607077413784333
12251169 10 18187082875524442605
124424 183 17775283872005031408
13544592 145 18341898451006786422
13583140 156 16772937255302132518
13675066 3 18202559601413087512
14251731 8 18411140199928890142
14420673 8 18263646161140072826
15042514 8 18264213689655095755
15295992 7 17703507796004218513
17349148 13 13686295803250644236
17804303 29 18410014359661044060
17834072 8 18341896256051443446
17834074 16 18410855456371511574
1813 80 16877944919417252478
18186145 218 16081368605080442948
19107657 47 16630525150534033936
19422 9 17968096486025627804
20645477 70 17274825736296614004
21065199 12 18270396234588929928
21618674 57 17847063263730939448
2215653 11 18202003175467640078
23175994 123 17704076187686621160
23402539 116 18342448271271525373
23559900 14 18273214214567263752
23598291 2 17677055762268979380
2748010 2 18190474762059824727
2838139 119 16199590156878511817
3004659 81 18261962835119188262
351380 180 17847055584366700897
42 15 18409166615021885540
4214541 1 18410291423970248136
5104073 3 18410572929027470560
532947 4 18057611958054556870
5706482 22 18410854369892322839
58051976 100 18261111889515655422
5924683 9 18059000825749626791
6430166 295 18411416194052720112
77779 3 18337109059723189208
9709674 26 18339644567849307694

> <PUBCHEM_SHAPE_MULTIPOLES>
304.22
9.95
1.82
0.95
9.54
0.71
0.02
0.37
-0.46
-0.98
0.06
0.72
-0.07
0.62

> <PUBCHEM_SHAPE_SELFOVERLAP>
620.355

> <PUBCHEM_SHAPE_VOLUME>
178.6

> <PUBCHEM_COORDINATE_TYPE>
2
5
10

$$$$
