REMARK  Name = 128650
REMARK  5 active torsions:
REMARK  status: ('A' for Active; 'I' for Inactive)
REMARK    1  A    between atoms: N_2  and  C1*_18
REMARK    2  A    between atoms: C_8  and  O_27
REMARK    3  A    between atoms: C3*_20  and  O3*_22
REMARK    4  A    between atoms: C4*_21  and  C5*_24
REMARK    5  A    between atoms: C5*_24  and  O5*_25
REMARK                            x       y       z     vdW  Elec       q    Type
REMARK                         _______ _______ _______ _____ _____    ______ ____
ROOT
ATOM      1  O   UNL     1      -2.438  -2.943   0.456  0.00  0.00    -0.268 OA
ATOM      2  N   UNL     1       1.299  -0.483  -0.019  0.00  0.00    -0.239 N 
ATOM      3  N   UNL     1      -2.674  -0.618   0.106  0.00  0.00    -0.194 N 
ATOM      4  N   UNL     1      -2.851   1.770  -0.306  0.00  0.00    -0.297 N 
ATOM      5  N   UNL     1      -0.739   0.799  -0.200  0.00  0.00    -0.356 NA
ATOM      6  N   UNL     1       0.468  -2.523   0.353  0.00  0.00    -0.240 NA
ATOM      7  C   UNL     1      -4.301   1.764  -0.313  0.00  0.00    +0.077 C 
ATOM      8  C   UNL     1      -4.137  -0.703   0.103  0.00  0.00    +0.199 C 
ATOM      9  C   UNL     1      -4.798   0.600   0.542  0.00  0.00    +0.071 C 
ATOM     10  C   UNL     1      -0.058  -0.348  -0.013  0.00  0.00    +0.211 C 
ATOM     11  C   UNL     1      -2.048   0.654  -0.140  0.00  0.00    +0.248 C 
ATOM     12  C   UNL     1      -0.537  -1.610   0.218  0.00  0.00    +0.176 C 
ATOM     13  C   UNL     1      -1.955  -1.830   0.282  0.00  0.00    +0.278 C 
ATOM     14  C   UNL     1       1.567  -1.810   0.206  0.00  0.00    +0.224 C 
ATOM     15  C   UNL     1      -4.823   3.095   0.215  0.00  0.00    +0.021 C 
ATOM     16  H   UNL     1      -2.401   2.637  -0.429  0.00  0.00    +0.150 HD
ENDROOT
BRANCH   2  18
ATOM     17  O4* UNL     1       3.434   0.037  -0.913  0.00  0.00    -0.335 OA
ATOM     18  C1* UNL     1       2.289   0.568  -0.223  0.00  0.00    +0.198 C 
ATOM     19  C2* UNL     1       2.806   1.200   1.061  0.00  0.00    +0.083 C 
ATOM     20  C3* UNL     1       4.166   1.701   0.628  0.00  0.00    +0.144 C 
ATOM     21  C4* UNL     1       4.626   0.641  -0.367  0.00  0.00    +0.173 C 
BRANCH  20  22
ATOM     22  O3* UNL     1       3.994   2.946  -0.045  0.00  0.00    -0.382 OA
ATOM     23  H3* UNL     1       3.702   3.619   0.590  0.00  0.00    +0.210 HD
ENDBRANCH  20  22
BRANCH  21  24
ATOM     24  C5* UNL     1       5.455  -0.457   0.285  0.00  0.00    +0.169 C 
BRANCH  24  25
ATOM     25  O5* UNL     1       5.826  -1.396  -0.709  0.00  0.00    -0.379 OA
ATOM     26  H5* UNL     1       6.355  -2.102  -0.305  0.00  0.00    +0.211 HD
ENDBRANCH  24  25
ENDBRANCH  21  24
ENDBRANCH   2  18
BRANCH   8  27
ATOM     27  O   UNL     1      -4.571  -1.056  -1.208  0.00  0.00    -0.367 OA
ATOM     28  H   UNL     1      -4.145  -1.885  -1.477  0.00  0.00    +0.212 HD
ENDBRANCH   8  27
TORSDOF 5
