128664
  -OEChem-03292013323D

 61 63  0     0  0  0  0  0  0999 V2000
    0.4947    2.5072   -0.1620 O   0  0  0  0  0  0  0  0  0  0  0  0
   -3.9651   -1.6406   -0.1842 O   0  0  0  0  0  0  0  0  0  0  0  0
   -1.5314    4.2618   -0.0141 O   0  0  0  0  0  0  0  0  0  0  0  0
   -4.1518    3.3973    0.0416 O   0  0  0  0  0  0  0  0  0  0  0  0
    1.1616   -3.0882    0.8419 O   0  0  0  0  0  0  0  0  0  0  0  0
   -2.6451   -3.9459    0.7723 O   0  0  0  0  0  0  0  0  0  0  0  0
    4.1534    0.6106    2.0235 O   0  0  0  0  0  0  0  0  0  0  0  0
    5.4129    1.0600   -0.4125 O   0  0  0  0  0  0  0  0  0  0  0  0
    1.2171   -3.1226   -1.4591 O   0  0  0  0  0  0  0  0  0  0  0  0
   -1.6422   -4.2984   -1.2695 O   0  0  0  0  0  0  0  0  0  0  0  0
   -1.0495    0.6187   -0.1880 C   0  0  0  0  0  0  0  0  0  0  0  0
   -0.0200   -0.3333   -0.2661 C   0  0  0  0  0  0  0  0  0  0  0  0
   -2.3953    0.1819   -0.1590 C   0  0  0  0  0  0  0  0  0  0  0  0
   -0.3133   -1.6965   -0.3151 C   0  0  0  0  0  0  0  0  0  0  0  0
   -1.6368   -2.1259   -0.2869 C   0  0  0  0  0  0  0  0  0  0  0  0
   -0.7728    1.9947   -0.1381 C   0  0  0  0  0  0  0  0  0  0  0  0
   -2.6721   -1.1940   -0.2094 C   0  0  0  0  0  0  0  0  0  0  0  0
    1.3926    0.0289   -0.3008 C   0  0  0  0  0  0  0  0  0  0  0  0
   -3.4248    1.1341   -0.0812 C   0  0  0  0  0  0  0  0  0  0  0  0
   -1.8081    2.9267   -0.0608 C   0  0  0  0  0  0  0  0  0  0  0  0
   -3.1316    2.4972   -0.0324 C   0  0  0  0  0  0  0  0  0  0  0  0
    2.1111    0.1496    0.8887 C   0  0  0  0  0  0  0  0  0  0  0  0
    2.0248    0.2545   -1.5235 C   0  0  0  0  0  0  0  0  0  0  0  0
    0.7533   -2.6965   -0.3998 C   0  0  0  0  0  0  0  0  0  0  0  0
   -1.9565   -3.5503   -0.3391 C   0  0  0  0  0  0  0  0  0  0  0  0
    3.4620    0.4956    0.8554 C   0  0  0  0  0  0  0  0  0  0  0  0
    3.3756    0.6008   -1.5567 C   0  0  0  0  0  0  0  0  0  0  0  0
    4.0943    0.7213   -0.3673 C   0  0  0  0  0  0  0  0  0  0  0  0
    0.8936    3.2886    0.9596 C   0  0  0  0  0  0  0  0  0  0  0  0
   -1.4449    4.9476   -1.2606 C   0  0  0  0  0  0  0  0  0  0  0  0
   -4.5922    3.7716    1.3453 C   0  0  0  0  0  0  0  0  0  0  0  0
    2.2057   -4.0664    0.8912 C   0  0  0  0  0  0  0  0  0  0  0  0
   -3.0162   -5.3270    0.8391 C   0  0  0  0  0  0  0  0  0  0  0  0
    3.4335    0.3634    3.2298 C   0  0  0  0  0  0  0  0  0  0  0  0
    5.9834    1.2734   -1.7022 C   0  0  0  0  0  0  0  0  0  0  0  0
   -4.4736    0.8491   -0.0744 H   0  0  0  0  0  0  0  0  0  0  0  0
    1.5691   -0.0360    1.8107 H   0  0  0  0  0  0  0  0  0  0  0  0
    1.4777    0.1647   -2.4591 H   0  0  0  0  0  0  0  0  0  0  0  0
    3.8002    0.7613   -2.5416 H   0  0  0  0  0  0  0  0  0  0  0  0
   -4.5072   -1.0532    0.3659 H   0  0  0  0  0  0  0  0  0  0  0  0
    0.7827    4.3546    0.7431 H   0  0  0  0  0  0  0  0  0  0  0  0
    0.3481    3.0219    1.8718 H   0  0  0  0  0  0  0  0  0  0  0  0
    1.9579    3.1121    1.1390 H   0  0  0  0  0  0  0  0  0  0  0  0
   -1.1988    5.9937   -1.0591 H   0  0  0  0  0  0  0  0  0  0  0  0
   -2.4033    4.9096   -1.7879 H   0  0  0  0  0  0  0  0  0  0  0  0
   -0.6559    4.5177   -1.8858 H   0  0  0  0  0  0  0  0  0  0  0  0
   -5.4012    4.4992    1.2379 H   0  0  0  0  0  0  0  0  0  0  0  0
   -3.7770    4.2355    1.9095 H   0  0  0  0  0  0  0  0  0  0  0  0
   -4.9748    2.8999    1.8856 H   0  0  0  0  0  0  0  0  0  0  0  0
    2.4235   -4.2787    1.9411 H   0  0  0  0  0  0  0  0  0  0  0  0
    3.1103   -3.6758    0.4156 H   0  0  0  0  0  0  0  0  0  0  0  0
    1.8802   -4.9904    0.4043 H   0  0  0  0  0  0  0  0  0  0  0  0
   -3.5541   -5.4900    1.7767 H   0  0  0  0  0  0  0  0  0  0  0  0
   -2.1226   -5.9582    0.8308 H   0  0  0  0  0  0  0  0  0  0  0  0
   -3.6768   -5.5806    0.0047 H   0  0  0  0  0  0  0  0  0  0  0  0
    4.1369    0.4988    4.0580 H   0  0  0  0  0  0  0  0  0  0  0  0
    3.0767   -0.6709    3.2824 H   0  0  0  0  0  0  0  0  0  0  0  0
    2.6280    1.0914    3.3754 H   0  0  0  0  0  0  0  0  0  0  0  0
    7.0361    1.5338   -1.5498 H   0  0  0  0  0  0  0  0  0  0  0  0
    5.5171    2.1220   -2.2143 H   0  0  0  0  0  0  0  0  0  0  0  0
    5.9663    0.3605   -2.3072 H   0  0  0  0  0  0  0  0  0  0  0  0
  1 16  1  0  0  0  0
  1 29  1  0  0  0  0
  2 17  1  0  0  0  0
  2 40  1  0  0  0  0
  3 20  1  0  0  0  0
  3 30  1  0  0  0  0
  4 21  1  0  0  0  0
  4 31  1  0  0  0  0
  5 24  1  0  0  0  0
  5 32  1  0  0  0  0
  6 25  1  0  0  0  0
  6 33  1  0  0  0  0
  7 26  1  0  0  0  0
  7 34  1  0  0  0  0
  8 28  1  0  0  0  0
  8 35  1  0  0  0  0
  9 24  2  0  0  0  0
 10 25  2  0  0  0  0
 11 12  1  0  0  0  0
 11 13  1  0  0  0  0
 11 16  2  0  0  0  0
 12 14  2  0  0  0  0
 12 18  1  0  0  0  0
 13 17  1  0  0  0  0
 13 19  2  0  0  0  0
 14 15  1  0  0  0  0
 14 24  1  0  0  0  0
 15 17  2  0  0  0  0
 15 25  1  0  0  0  0
 16 20  1  0  0  0  0
 18 22  2  0  0  0  0
 18 23  1  0  0  0  0
 19 21  1  0  0  0  0
 19 36  1  0  0  0  0
 20 21  2  0  0  0  0
 22 26  1  0  0  0  0
 22 37  1  0  0  0  0
 23 27  2  0  0  0  0
 23 38  1  0  0  0  0
 26 28  2  0  0  0  0
 27 28  1  0  0  0  0
 27 39  1  0  0  0  0
 29 41  1  0  0  0  0
 29 42  1  0  0  0  0
 29 43  1  0  0  0  0
 30 44  1  0  0  0  0
 30 45  1  0  0  0  0
 30 46  1  0  0  0  0
 31 47  1  0  0  0  0
 31 48  1  0  0  0  0
 31 49  1  0  0  0  0
 32 50  1  0  0  0  0
 32 51  1  0  0  0  0
 32 52  1  0  0  0  0
 33 53  1  0  0  0  0
 33 54  1  0  0  0  0
 33 55  1  0  0  0  0
 34 56  1  0  0  0  0
 34 57  1  0  0  0  0
 34 58  1  0  0  0  0
 35 59  1  0  0  0  0
 35 60  1  0  0  0  0
 35 61  1  0  0  0  0
M  END
> <PUBCHEM_COMPOUND_CID>
128664

> <PUBCHEM_CONFORMER_RMSD>
1

> <PUBCHEM_CONFORMER_DIVERSEORDER>
1
2
8
7
5
9
10
3
4
6

> <PUBCHEM_MMFF94_PARTIAL_CHARGES>
36
1 -0.36
10 -0.57
14 0.09
15 0.09
16 0.08
17 0.08
19 -0.15
2 -0.53
20 0.08
21 0.08
22 -0.15
23 -0.15
24 0.63
25 0.63
26 0.08
27 -0.15
28 0.08
29 0.28
3 -0.36
30 0.28
31 0.28
32 0.28
33 0.28
34 0.28
35 0.28
36 0.15
37 0.15
38 0.15
39 0.15
4 -0.36
40 0.45
5 -0.43
6 -0.43
7 -0.36
8 -0.36
9 -0.57

> <PUBCHEM_EFFECTIVE_ROTOR_COUNT>
10

> <PUBCHEM_PHARMACOPHORE_FEATURES>
11
1 1 acceptor
1 10 acceptor
1 2 donor
1 3 acceptor
1 4 acceptor
1 7 acceptor
1 8 acceptor
1 9 acceptor
6 11 12 13 14 15 17 rings
6 11 13 16 19 20 21 rings
6 18 22 23 26 27 28 rings

> <PUBCHEM_HEAVY_ATOM_COUNT>
35

> <PUBCHEM_ATOM_DEF_STEREO_COUNT>
0

> <PUBCHEM_ATOM_UDEF_STEREO_COUNT>
0

> <PUBCHEM_BOND_DEF_STEREO_COUNT>
0

> <PUBCHEM_BOND_UDEF_STEREO_COUNT>
0

> <PUBCHEM_ISOTOPIC_ATOM_COUNT>
0

> <PUBCHEM_COMPONENT_COUNT>
1

> <PUBCHEM_CACTVS_TAUTO_COUNT>
4

> <PUBCHEM_CONFORMER_ID>
0001F69800000001

> <PUBCHEM_MMFF94_ENERGY>
181.7379

> <PUBCHEM_FEATURE_SELFOVERLAP>
55.87

> <PUBCHEM_SHAPE_FINGERPRINT>
10074138 170 18193807479997024985
10165383 225 18126861408037774472
10411042 1 17906741653836479894
1100329 8 18121504811162749375
11582403 64 16912798325531583352
12160290 23 18199447970099710533
12422481 6 17687151251072203146
12553582 1 18266173014669115151
12788726 201 18118121609494429722
13140716 1 18050568736117646899
13726171 33 18341065107024603072
138480 1 16897369707566307109
140371 6 18339366387407737023
14790565 3 17980776938865098925
14955137 171 17976272544568623443
15297060 5 18271260326327849444
15324884 4 17703512198635924932
20505436 4 17895208653682985592
20600515 1 17909527795147492690
20642791 178 17472150475043661004
21033648 29 17487900218691533146
21796203 349 17395618259274692171
22311459 1 18338240478800248303
2334 1 17618785095272489887
23559900 14 18200036132254886772
350125 39 17906178351679610612
469060 322 18265071252647132473
5252454 2 18127976312627788385
6700243 42 17552686733945186420
7808743 9 18410298004055811772
9896288 288 18339345470859107266

> <PUBCHEM_SHAPE_MULTIPOLES>
661.59
8.38
7.23
1.61
6.47
4.53
-0.93
-5.36
-0.37
-8.47
-0.16
2.22
-0.32
-0.63

> <PUBCHEM_SHAPE_SELFOVERLAP>
1444.96

> <PUBCHEM_SHAPE_VOLUME>
363.4

> <PUBCHEM_COORDINATE_TYPE>
2
5
10

$$$$
