128651
  -OEChem-03292013323D

 47 48  0     1  0  0  0  0  0999 V2000
    4.5456   -0.1139    1.3702 O   0  0  0  0  0  0  0  0  0  0  0  0
    2.4398    0.1393    2.2591 O   0  0  0  0  0  0  0  0  0  0  0  0
    1.2796   -3.1408   -1.0469 O   0  0  0  0  0  0  0  0  0  0  0  0
    1.2574   -1.1426    0.1301 N   0  0  0  0  0  0  0  0  0  0  0  0
    3.2967    2.3763   -1.3601 N   0  0  0  0  0  0  0  0  0  0  0  0
   -3.7950    0.8428    0.2114 N   0  0  0  0  0  0  0  0  0  0  0  0
   -1.4124   -1.3153    0.2964 N   0  0  0  0  0  0  0  0  0  0  0  0
    1.1990    3.1049   -1.3336 N   0  0  0  0  0  0  0  0  0  0  0  0
   -5.5378    4.0956    0.7205 N   0  0  0  0  0  0  0  0  0  0  0  0
    2.6794   -0.9093    0.0948 C   0  0  1  0  0  0  0  0  0  0  0  0
    3.0891   -0.1375   -1.1682 C   0  0  0  0  0  0  0  0  0  0  0  0
    2.5148    1.2613   -1.2487 C   0  0  0  0  0  0  0  0  0  0  0  0
    3.1891   -0.2424    1.3659 C   0  0  0  0  0  0  0  0  0  0  0  0
    0.6689   -2.2561   -0.4530 C   0  0  0  0  0  0  0  0  0  0  0  0
   -3.4282   -0.2509    1.1121 C   0  0  0  0  0  0  0  0  0  0  0  0
   -0.8111   -2.3374   -0.3526 C   0  0  0  0  0  0  0  0  0  0  0  0
   -2.7593   -1.3762    0.3954 C   0  0  0  0  0  0  0  0  0  0  0  0
    1.2245    1.7363   -1.2340 C   0  0  0  0  0  0  0  0  0  0  0  0
   -4.4519    1.9135    0.9440 C   0  0  0  0  0  0  0  0  0  0  0  0
   -1.4898   -3.4120   -0.9043 C   0  0  0  0  0  0  0  0  0  0  0  0
   -3.5293   -2.4058   -0.1215 C   0  0  0  0  0  0  0  0  0  0  0  0
    2.4629    3.4588   -1.4074 C   0  0  0  0  0  0  0  0  0  0  0  0
   -4.8630    3.0295   -0.0117 C   0  0  0  0  0  0  0  0  0  0  0  0
   -2.8747   -3.4393   -0.7822 C   0  0  0  0  0  0  0  0  0  0  0  0
    5.1058    0.5212    2.5241 C   0  0  0  0  0  0  0  0  0  0  0  0
    3.1640   -1.8942    0.0640 H   0  0  0  0  0  0  0  0  0  0  0  0
    4.1833   -0.0790   -1.2283 H   0  0  0  0  0  0  0  0  0  0  0  0
    2.7585   -0.6855   -2.0601 H   0  0  0  0  0  0  0  0  0  0  0  0
    0.6678   -0.4631    0.6026 H   0  0  0  0  0  0  0  0  0  0  0  0
   -4.3164   -0.6308    1.6333 H   0  0  0  0  0  0  0  0  0  0  0  0
   -2.7470    0.1196    1.8895 H   0  0  0  0  0  0  0  0  0  0  0  0
    4.3070    2.4002   -1.3995 H   0  0  0  0  0  0  0  0  0  0  0  0
    0.3064    1.1709   -1.1667 H   0  0  0  0  0  0  0  0  0  0  0  0
   -3.7796    2.3160    1.7124 H   0  0  0  0  0  0  0  0  0  0  0  0
   -5.3446    1.5253    1.4507 H   0  0  0  0  0  0  0  0  0  0  0  0
   -2.9573    1.2057   -0.2439 H   0  0  0  0  0  0  0  0  0  0  0  0
   -0.9802   -4.2189   -1.4198 H   0  0  0  0  0  0  0  0  0  0  0  0
   -4.6095   -2.4181   -0.0229 H   0  0  0  0  0  0  0  0  0  0  0  0
    2.8375    4.4687   -1.4952 H   0  0  0  0  0  0  0  0  0  0  0  0
   -3.9824    3.4462   -0.5134 H   0  0  0  0  0  0  0  0  0  0  0  0
   -5.5357    2.6428   -0.7859 H   0  0  0  0  0  0  0  0  0  0  0  0
   -3.4429   -4.2643   -1.2016 H   0  0  0  0  0  0  0  0  0  0  0  0
    6.1913    0.5564    2.3992 H   0  0  0  0  0  0  0  0  0  0  0  0
    4.8742   -0.0558    3.4243 H   0  0  0  0  0  0  0  0  0  0  0  0
    4.7293    1.5448    2.6123 H   0  0  0  0  0  0  0  0  0  0  0  0
   -5.8507    4.8102    0.0645 H   0  0  0  0  0  0  0  0  0  0  0  0
   -6.3784    3.7285    1.1650 H   0  0  0  0  0  0  0  0  0  0  0  0
  1 13  1  0  0  0  0
  1 25  1  0  0  0  0
  2 13  2  0  0  0  0
  3 14  2  0  0  0  0
  4 10  1  0  0  0  0
  4 14  1  0  0  0  0
  4 29  1  0  0  0  0
  5 12  1  0  0  0  0
  5 22  1  0  0  0  0
  5 32  1  0  0  0  0
  6 15  1  0  0  0  0
  6 19  1  0  0  0  0
  6 36  1  0  0  0  0
  7 16  1  0  0  0  0
  7 17  2  0  0  0  0
  8 18  1  0  0  0  0
  8 22  2  0  0  0  0
  9 23  1  0  0  0  0
  9 46  1  0  0  0  0
  9 47  1  0  0  0  0
 10 11  1  0  0  0  0
 10 13  1  0  0  0  0
 10 26  1  0  0  0  0
 11 12  1  0  0  0  0
 11 27  1  0  0  0  0
 11 28  1  0  0  0  0
 12 18  2  0  0  0  0
 14 16  1  0  0  0  0
 15 17  1  0  0  0  0
 15 30  1  0  0  0  0
 15 31  1  0  0  0  0
 16 20  2  0  0  0  0
 17 21  1  0  0  0  0
 18 33  1  0  0  0  0
 19 23  1  0  0  0  0
 19 34  1  0  0  0  0
 19 35  1  0  0  0  0
 20 24  1  0  0  0  0
 20 37  1  0  0  0  0
 21 24  2  0  0  0  0
 21 38  1  0  0  0  0
 22 39  1  0  0  0  0
 23 40  1  0  0  0  0
 23 41  1  0  0  0  0
 24 42  1  0  0  0  0
 25 43  1  0  0  0  0
 25 44  1  0  0  0  0
 25 45  1  0  0  0  0
M  END
> <PUBCHEM_COMPOUND_CID>
128651

> <PUBCHEM_CONFORMER_RMSD>
1

> <PUBCHEM_CONFORMER_DIVERSEORDER>
1
53
82
103
63
66
47
32
100
62
50
69
97
20
112
30
110
108
73
109
78
113
83
87
43
70
102
129
80
42
44
106
15
92
54
68
52
18
23
21
49
89
9
51
94
13
26
3
58
86
35
96
98
33
60
59
17
119
11
55
117
24
40
38
95
125
85
25
10
105
81
41
76
88
14
12
31
90
36
91
115
116
84
126
27
71
16
46
22
130
75
56
39
93
123
118
48
79
111
99
101
34
45
7
127
8
64
5
29
65
67
61
128
57
28
37
120
74
121
107
72
77
6
122
124
104
4
114
2
19

> <PUBCHEM_MMFF94_PARTIAL_CHARGES>
35
1 -0.43
10 0.36
11 0.18
12 -0.33
13 0.66
14 0.54
15 0.41
16 0.4
17 0.17
18 0.08
19 0.27
2 -0.57
20 -0.15
21 -0.15
22 0.04
23 0.27
24 -0.15
25 0.28
29 0.37
3 -0.57
32 0.27
33 0.15
36 0.36
37 0.15
38 0.15
39 0.15
4 -0.73
42 0.15
46 0.36
47 0.36
5 0.03
6 -0.9
7 -0.62
8 -0.57
9 -0.99

> <PUBCHEM_EFFECTIVE_ROTOR_COUNT>
11

> <PUBCHEM_PHARMACOPHORE_FEATURES>
12
1 2 acceptor
1 3 acceptor
1 4 donor
1 5 donor
1 6 cation
1 6 donor
1 7 acceptor
1 9 cation
1 9 donor
3 5 8 22 cation
5 5 8 12 18 22 rings
6 7 16 17 20 21 24 rings

> <PUBCHEM_HEAVY_ATOM_COUNT>
25

> <PUBCHEM_ATOM_DEF_STEREO_COUNT>
1

> <PUBCHEM_ATOM_UDEF_STEREO_COUNT>
0

> <PUBCHEM_BOND_DEF_STEREO_COUNT>
0

> <PUBCHEM_BOND_UDEF_STEREO_COUNT>
0

> <PUBCHEM_ISOTOPIC_ATOM_COUNT>
0

> <PUBCHEM_COMPONENT_COUNT>
1

> <PUBCHEM_CACTVS_TAUTO_COUNT>
4

> <PUBCHEM_CONFORMER_ID>
0001F68B00000001

> <PUBCHEM_MMFF94_ENERGY>
34.3262

> <PUBCHEM_FEATURE_SELFOVERLAP>
60.897

> <PUBCHEM_SHAPE_FINGERPRINT>
10369192 42 14328345946108524890
10670039 82 18126582329520186486
10764073 3 17986094242186113002
10838868 217 18117256095874701540
12403259 118 18334579036307302987
12422481 6 18261104119983341568
12633257 1 17968093092975168245
12788726 201 18123472941171293351
12978246 48 18337965514936189649
13257819 101 16557337366381490040
13965767 371 18265317426971158394
14117953 113 18048883991945522501
14178342 30 18411693318138415347
14251764 38 18335710399713355965
14294032 229 18272100422294327083
14739800 52 17550658255430734920
14950920 106 17313393369761535859
14957384 54 18334022683107071959
15003188 8 18337664196904336777
17093844 170 18195249905903217996
1813 80 18115570661388429522
19078846 21 18187645834167869390
20775438 99 16385892300569013213
21033648 29 18201424844714014611
2132832 1 18120354708629871271
21344244 78 17759213560577747322
21864079 5 18191599737741817399
238918 7 17904747895852753357
550186 83 17387709201421595780
57527585 21 15338845316924570795
5895379 119 18340771554308743860
6371009 1 18337941343076337213
7064713 232 18412257333222276384

> <PUBCHEM_SHAPE_MULTIPOLES>
466.99
10.29
5.27
1.81
4.32
2.28
-0.82
8.17
-4.82
6.49
2.18
-2.81
0.66
-2.58

> <PUBCHEM_SHAPE_SELFOVERLAP>
966.198

> <PUBCHEM_SHAPE_VOLUME>
266.5

> <PUBCHEM_COORDINATE_TYPE>
2
5
10

$$$$
