REMARK  Name = 128617
REMARK  6 active torsions:
REMARK  status: ('A' for Active; 'I' for Inactive)
REMARK    1  A    between atoms: N_3  and  C1*_12
REMARK    2  A    between atoms: C_7  and  C_20
REMARK    3  A    between atoms: C3*_11  and  O3*_15
REMARK    4  A    between atoms: C4*_14  and  C5*_17
REMARK    5  A    between atoms: C5*_17  and  O5*_18
REMARK    6  A    between atoms: C_20  and  O_21
REMARK                            x       y       z     vdW  Elec       q    Type
REMARK                         _______ _______ _______ _____ _____    ______ ____
ROOT
ATOM      1  O   UNL     1       0.147  -3.284   0.162  0.00  0.00    -0.252 OA
ATOM      2  O   UNL     1       4.080  -0.920   0.458  0.00  0.00    -0.270 OA
ATOM      3  N   UNL     1       0.024  -0.953   0.148  0.00  0.00    -0.219 N 
ATOM      4  N   UNL     1       2.101  -2.092   0.310  0.00  0.00    -0.236 N 
ATOM      5  C   UNL     1       0.735   0.241   0.200  0.00  0.00    +0.074 C 
ATOM      6  C   UNL     1       0.709  -2.188   0.203  0.00  0.00    +0.315 C 
ATOM      7  C   UNL     1       2.067   0.329   0.302  0.00  0.00    +0.076 C 
ATOM      8  C   UNL     1       2.855  -0.930   0.365  0.00  0.00    +0.252 C 
ATOM      9  H   UNL     1       2.597  -2.941   0.350  0.00  0.00    +0.159 HD
ENDROOT
BRANCH   3  12
ATOM     10  O4* UNL     1      -1.893   0.258   0.737  0.00  0.00    -0.335 OA
ATOM     11  C3* UNL     1      -3.149   0.031  -1.255  0.00  0.00    +0.144 C 
ATOM     12  C1* UNL     1      -1.405  -0.896   0.037  0.00  0.00    +0.202 C 
ATOM     13  C2* UNL     1      -1.888  -0.789  -1.402  0.00  0.00    +0.083 C 
ATOM     14  C4* UNL     1      -2.749   1.002  -0.151  0.00  0.00    +0.173 C 
BRANCH  11  15
ATOM     15  O3* UNL     1      -4.206  -0.830  -0.848  0.00  0.00    -0.382 OA
ATOM     16  H3* UNL     1      -4.431  -1.431  -1.576  0.00  0.00    +0.210 HD
ENDBRANCH  11  15
BRANCH  14  17
ATOM     17  C5* UNL     1      -3.892   1.605   0.644  0.00  0.00    +0.169 C 
BRANCH  17  18
ATOM     18  O5* UNL     1      -3.356   2.472   1.632  0.00  0.00    -0.379 OA
ATOM     19  H5* UNL     1      -4.080   2.862   2.146  0.00  0.00    +0.211 HD
ENDBRANCH  17  18
ENDBRANCH  14  17
ENDBRANCH   3  12
BRANCH   7  20
ATOM     20  C   UNL     1       2.809   1.626   0.357  0.00  0.00    +0.174 C 
BRANCH  20  21
ATOM     21  O   UNL     1       3.151   2.042  -0.954  0.00  0.00    -0.346 OA
ATOM     22  C   UNL     1       3.860   3.275  -0.946  0.00  0.00    +0.175 C 
ENDBRANCH  20  21
ENDBRANCH   7  20
TORSDOF 6
