128617
  -OEChem-03292013323D

 35 36  0     1  0  0  0  0  0999 V2000
   -1.8933    0.2582    0.7370 O   0  0  0  0  0  0  0  0  0  0  0  0
   -4.2057   -0.8298   -0.8484 O   0  0  0  0  0  0  0  0  0  0  0  0
   -3.3561    2.4716    1.6320 O   0  0  0  0  0  0  0  0  0  0  0  0
    0.1466   -3.2842    0.1619 O   0  0  0  0  0  0  0  0  0  0  0  0
    3.1510    2.0420   -0.9539 O   0  0  0  0  0  0  0  0  0  0  0  0
    4.0798   -0.9197    0.4584 O   0  0  0  0  0  0  0  0  0  0  0  0
    0.0236   -0.9525    0.1477 N   0  0  0  0  0  0  0  0  0  0  0  0
    2.1006   -2.0924    0.3099 N   0  0  0  0  0  0  0  0  0  0  0  0
   -3.1489    0.0312   -1.2546 C   0  0  2  0  0  0  0  0  0  0  0  0
   -1.4052   -0.8965    0.0375 C   0  0  2  0  0  0  0  0  0  0  0  0
   -1.8878   -0.7889   -1.4023 C   0  0  0  0  0  0  0  0  0  0  0  0
   -2.7488    1.0021   -0.1510 C   0  0  1  0  0  0  0  0  0  0  0  0
   -3.8915    1.6053    0.6444 C   0  0  0  0  0  0  0  0  0  0  0  0
    0.7353    0.2415    0.2001 C   0  0  0  0  0  0  0  0  0  0  0  0
    0.7086   -2.1877    0.2031 C   0  0  0  0  0  0  0  0  0  0  0  0
    2.0673    0.3292    0.3023 C   0  0  0  0  0  0  0  0  0  0  0  0
    2.8552   -0.9305    0.3651 C   0  0  0  0  0  0  0  0  0  0  0  0
    2.8092    1.6258    0.3569 C   0  0  0  0  0  0  0  0  0  0  0  0
    3.8601    3.2753   -0.9461 C   0  0  0  0  0  0  0  0  0  0  0  0
   -1.8466   -1.7776    0.5185 H   0  0  0  0  0  0  0  0  0  0  0  0
   -3.4514    0.5419   -2.1732 H   0  0  0  0  0  0  0  0  0  0  0  0
   -2.0419   -1.7762   -1.8490 H   0  0  0  0  0  0  0  0  0  0  0  0
   -1.1644   -0.2442   -2.0214 H   0  0  0  0  0  0  0  0  0  0  0  0
   -2.1256    1.8049   -0.5655 H   0  0  0  0  0  0  0  0  0  0  0  0
   -4.4741    0.8391    1.1654 H   0  0  0  0  0  0  0  0  0  0  0  0
   -4.5610    2.1823    0.0001 H   0  0  0  0  0  0  0  0  0  0  0  0
    0.1607    1.1587    0.1321 H   0  0  0  0  0  0  0  0  0  0  0  0
   -4.3691   -1.4546   -1.5753 H   0  0  0  0  0  0  0  0  0  0  0  0
    2.6122   -2.9695    0.3508 H   0  0  0  0  0  0  0  0  0  0  0  0
   -2.7563    1.9463    2.1889 H   0  0  0  0  0  0  0  0  0  0  0  0
    3.7117    1.5344    0.9730 H   0  0  0  0  0  0  0  0  0  0  0  0
    2.1801    2.3940    0.8251 H   0  0  0  0  0  0  0  0  0  0  0  0
    4.0941    3.5436   -1.9797 H   0  0  0  0  0  0  0  0  0  0  0  0
    4.7973    3.1747   -0.3904 H   0  0  0  0  0  0  0  0  0  0  0  0
    3.2452    4.0683   -0.5097 H   0  0  0  0  0  0  0  0  0  0  0  0
  1 10  1  0  0  0  0
  1 12  1  0  0  0  0
  2  9  1  0  0  0  0
  2 28  1  0  0  0  0
  3 13  1  0  0  0  0
  3 30  1  0  0  0  0
  4 15  2  0  0  0  0
  5 18  1  0  0  0  0
  5 19  1  0  0  0  0
  6 17  2  0  0  0  0
  7 10  1  0  0  0  0
  7 14  1  0  0  0  0
  7 15  1  0  0  0  0
  8 15  1  0  0  0  0
  8 17  1  0  0  0  0
  8 29  1  0  0  0  0
  9 11  1  0  0  0  0
  9 12  1  0  0  0  0
  9 21  1  0  0  0  0
 10 11  1  0  0  0  0
 10 20  1  0  0  0  0
 11 22  1  0  0  0  0
 11 23  1  0  0  0  0
 12 13  1  0  0  0  0
 12 24  1  0  0  0  0
 13 25  1  0  0  0  0
 13 26  1  0  0  0  0
 14 16  2  0  0  0  0
 14 27  1  0  0  0  0
 16 17  1  0  0  0  0
 16 18  1  0  0  0  0
 18 31  1  0  0  0  0
 18 32  1  0  0  0  0
 19 33  1  0  0  0  0
 19 34  1  0  0  0  0
 19 35  1  0  0  0  0
M  END
> <PUBCHEM_COMPOUND_CID>
128617

> <PUBCHEM_CONFORMER_RMSD>
0.6

> <PUBCHEM_CONFORMER_DIVERSEORDER>
1
46
43
79
64
63
22
24
68
32
41
27
67
5
76
55
47
85
45
16
65
21
59
60
71
80
37
6
78
66
23
74
10
18
15
69
81
17
58
62
70
52
33
35
44
49
38
14
72
8
82
56
30
11
73
53
40
77
7
20
34
83
19
84
29
57
3
54
13
12
51
48
61
42
2
25
75
31
4
39
36
50
26
28
9

> <PUBCHEM_MMFF94_PARTIAL_CHARGES>
22
1 -0.56
10 0.58
12 0.28
13 0.28
14 -0.04
15 0.69
16 -0.12
17 0.62
18 0.42
19 0.28
2 -0.68
27 0.15
28 0.4
29 0.37
3 -0.68
30 0.4
4 -0.57
5 -0.56
6 -0.57
7 -0.47
8 -0.49
9 0.28

> <PUBCHEM_EFFECTIVE_ROTOR_COUNT>
5

> <PUBCHEM_PHARMACOPHORE_FEATURES>
11
1 1 acceptor
1 2 acceptor
1 2 donor
1 3 acceptor
1 3 donor
1 4 acceptor
1 5 acceptor
1 6 acceptor
1 8 donor
5 1 9 10 11 12 rings
6 7 8 14 15 16 17 rings

> <PUBCHEM_HEAVY_ATOM_COUNT>
19

> <PUBCHEM_ATOM_DEF_STEREO_COUNT>
3

> <PUBCHEM_ATOM_UDEF_STEREO_COUNT>
0

> <PUBCHEM_BOND_DEF_STEREO_COUNT>
0

> <PUBCHEM_BOND_UDEF_STEREO_COUNT>
0

> <PUBCHEM_ISOTOPIC_ATOM_COUNT>
0

> <PUBCHEM_COMPONENT_COUNT>
1

> <PUBCHEM_CACTVS_TAUTO_COUNT>
3

> <PUBCHEM_CONFORMER_ID>
0001F66900000001

> <PUBCHEM_MMFF94_ENERGY>
46.3545

> <PUBCHEM_FEATURE_SELFOVERLAP>
55.83

> <PUBCHEM_SHAPE_FINGERPRINT>
12173636 292 18268148832357408629
12403260 363 18337658780713329626
13134695 92 17751624473798989314
13140716 1 18334016098843196538
13583140 156 17095510825386008304
14787075 74 18120647187851293095
15342168 16 18260834834118730661
15475509 8 18055090783003866534
16945 1 18263638459556439387
1741750 31 18193276519139611784
18186145 218 18410006615908875502
20671657 1 18334010627476717974
21524375 3 18335973272516788194
21864079 5 18339936964458503128
2255824 54 18337105670751536002
23419403 2 14425737442974666155
23557571 272 15913319221477744859
23558518 356 18263637532382022202
23598291 2 18272931587922061501
25 1 18336264527055131442
312423 11 18342459240085067151
38570 142 18125194638625406820
474 4 18408321064472731513
57096353 35 18129366250344260853
633830 44 18341902874079140613
7832392 63 17984137063489176803
84936 182 18272644692823438408
9981440 41 17909809261724355344

> <PUBCHEM_SHAPE_MULTIPOLES>
345.83
7.72
3.21
1.11
0.62
0.38
0.11
5.06
0.57
-2.34
-0.1
0.76
0.5
-2.12

> <PUBCHEM_SHAPE_SELFOVERLAP>
718.358

> <PUBCHEM_SHAPE_VOLUME>
197.5

> <PUBCHEM_COORDINATE_TYPE>
2
5
10

$$$$
