REMARK  Name = 128664
REMARK  11 active torsions:
REMARK  status: ('A' for Active; 'I' for Inactive)
REMARK    1  A    between atoms: C_2  and  C_11
REMARK    2  A    between atoms: C_4  and  C_30
REMARK    3  A    between atoms: C_5  and  C_34
REMARK    4  A    between atoms: C_6  and  O_21
REMARK    5  A    between atoms: C_7  and  O_23
REMARK    6  A    between atoms: C_9  and  O_25
REMARK    7  A    between atoms: C_10  and  O_27
REMARK    8  A    between atoms: C_14  and  O_17
REMARK    9  A    between atoms: C_16  and  O_19
REMARK   10  A    between atoms: C_30  and  O_31
REMARK   11  A    between atoms: C_34  and  O_35
REMARK                            x       y       z     vdW  Elec       q    Type
REMARK                         _______ _______ _______ _____ _____    ______ ____
ROOT
ATOM      1  C   UNL     1      -1.050   0.619  -0.188  0.00  0.00    +0.040 A 
ATOM      2  C   UNL     1      -0.020  -0.333  -0.266  0.00  0.00    +0.010 A 
ATOM      3  C   UNL     1      -2.395   0.182  -0.159  0.00  0.00    +0.040 A 
ATOM      4  C   UNL     1      -0.313  -1.696  -0.315  0.00  0.00    +0.085 A 
ATOM      5  C   UNL     1      -1.637  -2.126  -0.287  0.00  0.00    +0.115 A 
ATOM      6  C   UNL     1      -0.773   1.995  -0.138  0.00  0.00    +0.175 C 
ATOM      7  C   UNL     1      -2.672  -1.194  -0.209  0.00  0.00    +0.140 A 
ATOM      8  C   UNL     1      -3.425   1.134  -0.081  0.00  0.00    +0.043 C 
ATOM      9  C   UNL     1      -1.808   2.927  -0.061  0.00  0.00    +0.206 C 
ATOM     10  C   UNL     1      -3.132   2.497  -0.032  0.00  0.00    +0.176 C 
ENDROOT
BRANCH   2  11
ATOM     11  C   UNL     1       1.393   0.029  -0.301  0.00  0.00    +0.004 C 
ATOM     12  C   UNL     1       2.111   0.150   0.889  0.00  0.00    +0.040 C 
ATOM     13  C   UNL     1       2.025   0.255  -1.524  0.00  0.00    +0.003 C 
ATOM     14  C   UNL     1       3.462   0.496   0.855  0.00  0.00    +0.172 C 
ATOM     15  C   UNL     1       3.376   0.601  -1.557  0.00  0.00    +0.040 C 
ATOM     16  C   UNL     1       4.094   0.721  -0.367  0.00  0.00    +0.172 C 
BRANCH  14  17
ATOM     17  O   UNL     1       4.153   0.611   2.023  0.00  0.00    -0.468 OA
ATOM     18  C   UNL     1       3.433   0.363   3.230  0.00  0.00    +0.253 C 
ENDBRANCH  14  17
BRANCH  16  19
ATOM     19  O   UNL     1       5.413   1.060  -0.412  0.00  0.00    -0.468 OA
ATOM     20  C   UNL     1       5.983   1.273  -1.702  0.00  0.00    +0.253 C 
ENDBRANCH  16  19
ENDBRANCH   2  11
BRANCH   6  21
ATOM     21  O   UNL     1       0.495   2.507  -0.162  0.00  0.00    -0.468 OA
ATOM     22  C   UNL     1       0.894   3.289   0.960  0.00  0.00    +0.253 C 
ENDBRANCH   6  21
BRANCH   7  23
ATOM     23  O   UNL     1      -3.965  -1.641  -0.184  0.00  0.00    -0.505 OA
ATOM     24  H   UNL     1      -4.672  -1.027  -0.132  0.00  0.00    +0.292 HD
ENDBRANCH   7  23
BRANCH   9  25
ATOM     25  O   UNL     1      -1.531   4.262  -0.014  0.00  0.00    -0.465 OA
ATOM     26  C   UNL     1      -1.445   4.948  -1.261  0.00  0.00    +0.253 C 
ENDBRANCH   9  25
BRANCH  10  27
ATOM     27  O   UNL     1      -4.152   3.397   0.042  0.00  0.00    -0.468 OA
ATOM     28  C   UNL     1      -4.592   3.772   1.345  0.00  0.00    +0.253 C 
ENDBRANCH  10  27
BRANCH   4  30
ATOM     29  O   UNL     1       1.217  -3.123  -1.459  0.00  0.00    -0.245 OA
ATOM     30  C   UNL     1       0.753  -2.696  -0.400  0.00  0.00    +0.342 C 
BRANCH  30  31
ATOM     31  O   UNL     1       1.162  -3.088   0.842  0.00  0.00    -0.441 OA
ATOM     32  C   UNL     1       2.206  -4.066   0.891  0.00  0.00    +0.256 C 
ENDBRANCH  30  31
ENDBRANCH   4  30
BRANCH   5  34
ATOM     33  O   UNL     1      -1.642  -4.298  -1.270  0.00  0.00    -0.245 OA
ATOM     34  C   UNL     1      -1.956  -3.550  -0.339  0.00  0.00    +0.345 C 
BRANCH  34  35
ATOM     35  O   UNL     1      -2.645  -3.946   0.772  0.00  0.00    -0.441 OA
ATOM     36  C   UNL     1      -3.016  -5.327   0.839  0.00  0.00    +0.256 C 
ENDBRANCH  34  35
ENDBRANCH   5  34
TORSDOF 11
