REMARK  Name = 128708
REMARK  11 active torsions:
REMARK  status: ('A' for Active; 'I' for Inactive)
REMARK    1  A    between atoms: C_2  and  O_7
REMARK    2  A    between atoms: C_3  and  O_9
REMARK    3  A    between atoms: C_4  and  C_20
REMARK    4  A    between atoms: C_5  and  O_11
REMARK    5  A    between atoms: C_6  and  O_13
REMARK    6  A    between atoms: O_13  and  C_14
REMARK    7  A    between atoms: C_20  and  O_21
REMARK    8  A    between atoms: O_21  and  C_23
REMARK    9  A    between atoms: C_23  and  C_24
REMARK   10  A    between atoms: C_24  and  C_26
REMARK   11  A    between atoms: C_26  and  O_27
REMARK                            x       y       z     vdW  Elec       q    Type
REMARK                         _______ _______ _______ _____ _____    ______ ____
ROOT
ATOM      1  O   UNL     1       0.832  -0.652   0.859  0.00  0.00    -0.315 OA
ATOM      2  C   UNL     1       1.170  -2.959   0.198  0.00  0.00    +0.171 C 
ATOM      3  C   UNL     1       2.393  -2.552  -0.624  0.00  0.00    +0.173 C 
ATOM      4  C   UNL     1       0.179  -1.798   0.310  0.00  0.00    +0.192 C 
ATOM      5  C   UNL     1       2.972  -1.224  -0.135  0.00  0.00    +0.210 C 
ATOM      6  C   UNL     1       1.880  -0.166   0.024  0.00  0.00    +0.318 C 
ENDROOT
BRANCH   2   7
ATOM      7  O   UNL     1       0.529  -4.067  -0.427  0.00  0.00    -0.379 OA
ATOM      8  H   UNL     1       1.155  -4.805  -0.499  0.00  0.00    +0.211 HD
ENDBRANCH   2   7
BRANCH   3   9
ATOM      9  O   UNL     1       3.377  -3.578  -0.491  0.00  0.00    -0.379 OA
ATOM     10  H   UNL     1       3.010  -4.421  -0.801  0.00  0.00    +0.211 HD
ENDBRANCH   3   9
BRANCH   5  11
ATOM     11  O   UNL     1       3.924  -0.745  -1.084  0.00  0.00    -0.377 OA
ATOM     12  H   UNL     1       4.627  -1.404  -1.199  0.00  0.00    +0.211 HD
ENDBRANCH   5  11
BRANCH   6  13
ATOM     13  O   UNL     1       2.471   0.990   0.615  0.00  0.00    -0.451 OA
BRANCH  13  14
ATOM     14  C   UNL     1       1.914   2.197   0.291  0.00  0.00    +0.141 C 
ATOM     15  C   UNL     1       0.558   2.272  -0.011  0.00  0.00    +0.037 C 
ATOM     16  C   UNL     1       2.708   3.339   0.267  0.00  0.00    +0.037 C 
ATOM     17  C   UNL     1      -0.010   3.502  -0.342  0.00  0.00    +0.003 C 
ATOM     18  C   UNL     1       2.139   4.569  -0.064  0.00  0.00    +0.003 C 
ATOM     19  C   UNL     1       0.780   4.651  -0.369  0.00  0.00    +0.000 C 
ENDBRANCH  13  14
ENDBRANCH   6  13
BRANCH   4  20
ATOM     20  C   UNL     1      -0.993  -2.142   1.223  0.00  0.00    +0.240 C 
BRANCH  20  21
ATOM     21  O   UNL     1      -1.858  -1.023   1.287  0.00  0.00    -0.445 OA
BRANCH  21  23
ATOM     22  O   UNL     1      -3.044  -1.816  -0.525  0.00  0.00    -0.249 OA
ATOM     23  C   UNL     1      -2.857  -0.976   0.344  0.00  0.00    +0.329 C 
BRANCH  23  24
ATOM     24  C   UNL     1      -3.675   0.276   0.547  0.00  0.00    +0.218 C 
BRANCH  24  26
ATOM     25  O   UNL     1      -5.130  -0.245  -1.341  0.00  0.00    -0.250 OA
ATOM     26  C   UNL     1      -4.807   0.492  -0.423  0.00  0.00    +0.325 C 
BRANCH  26  27
ATOM     27  O   UNL     1      -5.451   1.652  -0.129  0.00  0.00    -0.480 OA
ATOM     28  H   UNL     1      -5.161   2.181   0.588  0.00  0.00    +0.295 HD
ENDBRANCH  26  27
ENDBRANCH  24  26
ENDBRANCH  23  24
ENDBRANCH  21  23
ENDBRANCH  20  21
ENDBRANCH   4  20
TORSDOF 11
