128746
  -OEChem-03292013323D

 41 43  0     1  0  0  0  0  0999 V2000
    1.9407    0.4947    0.6329 O   0  0  0  0  0  0  0  0  0  0  0  0
    0.8315   -1.3029   -0.4426 O   0  0  0  0  0  0  0  0  0  0  0  0
    3.4995   -1.8963   -1.5288 O   0  0  0  0  0  0  0  0  0  0  0  0
    3.4342   -1.6072    2.0858 O   0  0  0  0  0  0  0  0  0  0  0  0
    4.8260    0.5532    0.8265 O   0  0  0  0  0  0  0  0  0  0  0  0
    3.7191    2.7538   -1.4296 O   0  0  0  0  0  0  0  0  0  0  0  0
    2.4986    3.0394    0.4743 O   0  0  0  0  0  0  0  0  0  0  0  0
   -2.9315    1.5698    0.1498 O   0  0  0  0  0  0  0  0  0  0  0  0
   -4.7247    2.9598    0.4347 O   0  0  0  0  0  0  0  0  0  0  0  0
    3.9249   -1.4064   -0.2596 C   0  0  2  0  0  0  0  0  0  0  0  0
    2.8639   -1.7701    0.7885 C   0  0  2  0  0  0  0  0  0  0  0  0
    4.1411    0.1094   -0.3444 C   0  0  1  0  0  0  0  0  0  0  0  0
    1.6061   -0.8962    0.6817 C   0  0  1  0  0  0  0  0  0  0  0  0
    2.7975    0.8300   -0.4522 C   0  0  2  0  0  0  0  0  0  0  0  0
    2.9687    2.3144   -0.3898 C   0  0  0  0  0  0  0  0  0  0  0  0
   -0.5245   -1.1427   -0.3450 C   0  0  0  0  0  0  0  0  0  0  0  0
   -1.0573    0.1223   -0.1472 C   0  0  0  0  0  0  0  0  0  0  0  0
   -1.3593   -2.2490   -0.4450 C   0  0  0  0  0  0  0  0  0  0  0  0
   -3.3114   -0.8251   -0.1461 C   0  0  0  0  0  0  0  0  0  0  0  0
   -2.4429    0.2631   -0.0505 C   0  0  0  0  0  0  0  0  0  0  0  0
   -2.7465   -2.0919   -0.3461 C   0  0  0  0  0  0  0  0  0  0  0  0
   -4.7563   -0.5844   -0.0332 C   0  0  0  0  0  0  0  0  0  0  0  0
   -5.1925    0.6688    0.1575 C   0  0  0  0  0  0  0  0  0  0  0  0
   -5.7162   -1.7336   -0.1315 C   0  0  0  0  0  0  0  0  0  0  0  0
   -4.2890    1.8271    0.2600 C   0  0  0  0  0  0  0  0  0  0  0  0
    4.8758   -1.8909   -0.0064 H   0  0  0  0  0  0  0  0  0  0  0  0
    2.5832   -2.8243    0.6820 H   0  0  0  0  0  0  0  0  0  0  0  0
    4.7712    0.3421   -1.2111 H   0  0  0  0  0  0  0  0  0  0  0  0
    1.0229   -1.0375    1.6019 H   0  0  0  0  0  0  0  0  0  0  0  0
    2.2858    0.5961   -1.3937 H   0  0  0  0  0  0  0  0  0  0  0  0
    3.4115   -2.8620   -1.4570 H   0  0  0  0  0  0  0  0  0  0  0  0
    3.6108   -0.6604    2.2193 H   0  0  0  0  0  0  0  0  0  0  0  0
    5.1111    1.4701    0.6758 H   0  0  0  0  0  0  0  0  0  0  0  0
   -0.4261    1.0025   -0.0848 H   0  0  0  0  0  0  0  0  0  0  0  0
   -0.9420   -3.2404   -0.5997 H   0  0  0  0  0  0  0  0  0  0  0  0
   -3.3667   -2.9805   -0.4292 H   0  0  0  0  0  0  0  0  0  0  0  0
    3.8429    3.7267   -1.4068 H   0  0  0  0  0  0  0  0  0  0  0  0
   -6.2533    0.8833    0.2455 H   0  0  0  0  0  0  0  0  0  0  0  0
   -5.5292   -2.4658    0.6613 H   0  0  0  0  0  0  0  0  0  0  0  0
   -5.6284   -2.2319   -1.1030 H   0  0  0  0  0  0  0  0  0  0  0  0
   -6.7571   -1.4065   -0.0296 H   0  0  0  0  0  0  0  0  0  0  0  0
  1 13  1  0  0  0  0
  1 14  1  0  0  0  0
  2 13  1  0  0  0  0
  2 16  1  0  0  0  0
  3 10  1  0  0  0  0
  3 31  1  0  0  0  0
  4 11  1  0  0  0  0
  4 32  1  0  0  0  0
  5 12  1  0  0  0  0
  5 33  1  0  0  0  0
  6 15  1  0  0  0  0
  6 37  1  0  0  0  0
  7 15  2  0  0  0  0
  8 20  1  0  0  0  0
  8 25  1  0  0  0  0
  9 25  2  0  0  0  0
 10 11  1  0  0  0  0
 10 12  1  0  0  0  0
 10 26  1  0  0  0  0
 11 13  1  0  0  0  0
 11 27  1  0  0  0  0
 12 14  1  0  0  0  0
 12 28  1  0  0  0  0
 13 29  1  0  0  0  0
 14 15  1  0  0  0  0
 14 30  1  0  0  0  0
 16 17  2  0  0  0  0
 16 18  1  0  0  0  0
 17 20  1  0  0  0  0
 17 34  1  0  0  0  0
 18 21  2  0  0  0  0
 18 35  1  0  0  0  0
 19 20  2  0  0  0  0
 19 21  1  0  0  0  0
 19 22  1  0  0  0  0
 21 36  1  0  0  0  0
 22 23  2  0  0  0  0
 22 24  1  0  0  0  0
 23 25  1  0  0  0  0
 23 38  1  0  0  0  0
 24 39  1  0  0  0  0
 24 40  1  0  0  0  0
 24 41  1  0  0  0  0
M  END
> <PUBCHEM_COMPOUND_CID>
128746

> <PUBCHEM_CONFORMER_RMSD>
0.8

> <PUBCHEM_CONFORMER_DIVERSEORDER>
1
56
49
51
59
70
6
64
18
66
74
27
54
19
50
34
72
12
55
52
61
30
75
16
60
38
46
68
47
65
13
28
21
22
48
32
24
44
26
31
73
45
8
39
57
25
41
63
17
42
53
11
58
3
35
36
69
14
9
67
29
7
20
10
23
33
37
43
71
2
4
15
5
62
40

> <PUBCHEM_MMFF94_PARTIAL_CHARGES>
33
1 -0.56
10 0.28
11 0.28
12 0.28
13 0.56
14 0.34
15 0.66
16 0.08
17 -0.15
18 -0.15
19 0.03
2 -0.36
20 0.08
21 -0.15
22 -0.17
23 -0.14
24 0.14
25 0.71
3 -0.68
31 0.4
32 0.4
33 0.4
34 0.15
35 0.15
36 0.15
37 0.5
38 0.15
4 -0.68
5 -0.68
6 -0.65
7 -0.57
8 -0.23
9 -0.57

> <PUBCHEM_EFFECTIVE_ROTOR_COUNT>
4.2

> <PUBCHEM_PHARMACOPHORE_FEATURES>
15
1 1 acceptor
1 2 acceptor
1 3 acceptor
1 3 donor
1 4 acceptor
1 4 donor
1 5 acceptor
1 5 donor
1 6 acceptor
1 7 acceptor
1 9 acceptor
3 6 7 15 anion
6 1 10 11 12 13 14 rings
6 16 17 18 19 20 21 rings
6 8 19 20 22 23 25 rings

> <PUBCHEM_HEAVY_ATOM_COUNT>
25

> <PUBCHEM_ATOM_DEF_STEREO_COUNT>
5

> <PUBCHEM_ATOM_UDEF_STEREO_COUNT>
0

> <PUBCHEM_BOND_DEF_STEREO_COUNT>
0

> <PUBCHEM_BOND_UDEF_STEREO_COUNT>
0

> <PUBCHEM_ISOTOPIC_ATOM_COUNT>
0

> <PUBCHEM_COMPONENT_COUNT>
1

> <PUBCHEM_CACTVS_TAUTO_COUNT>
1

> <PUBCHEM_CONFORMER_ID>
0001F6EA00000001

> <PUBCHEM_MMFF94_ENERGY>
81.1081

> <PUBCHEM_FEATURE_SELFOVERLAP>
76.268

> <PUBCHEM_SHAPE_FINGERPRINT>
10366900 7 17458069248321633458
12107183 9 17975970964991879891
12173636 292 18270111435191617671
12236239 1 18261109664569914066
12403259 118 18339632357293877323
12403260 363 18411689972907134663
12633257 1 18263921038576868597
13167823 11 18409729564959644975
13583140 156 17895204259820289185
14251764 38 18410016533226095861
14341114 176 18411986836361133923
14739800 52 18198327649703766448
14849402 71 18114461279867921228
15196674 1 18412826863339518319
15238133 3 18188213092137122742
1601671 61 18340206276567483174
17492 89 18411702092967792551
17844677 252 18411707569214060043
17980427 23 17984953077801541514
18681886 176 18272366486606808058
19078846 21 18335412422950022370
20715895 44 18051125887944892049
21033648 29 17488441023561422298
21065198 48 18333726892936162299
21065198 57 18411139134376645535
21267235 1 18410581703287271119
21315764 371 16298666208948195233
21421861 104 17968366837548628346
21503847 285 18334017185617491726
21864079 5 18411417323697658311
23227448 37 18341612637780726135
23558518 356 17972602357664389018
23559900 14 17987242131423496455
245318 6 16810963997660944364
3004659 81 18412545401216178042
350125 39 18410572911414914909
38570 142 17823439243466082948
4214541 1 18411700963601506741
474 4 17677898018362010804
5104073 3 18408605864302600257
5281201 14 18343309149419540926
543358 83 18408888412815490242
54446538 1 18409728486759128509
633830 44 18410009918797222759
7097593 13 18116417155469665394
7832392 63 18411416203011802958
90127 26 18336277781434885899
9709674 26 18413112774896834743
9981440 41 17687742058056918328

> <PUBCHEM_SHAPE_MULTIPOLES>
461.66
12.23
3.1
1.01
6.82
1.85
-0.14
2.06
-0.36
-0.27
0.19
-1.25
-0.22
-1.19

> <PUBCHEM_SHAPE_SELFOVERLAP>
999.781

> <PUBCHEM_SHAPE_VOLUME>
249.8

> <PUBCHEM_COORDINATE_TYPE>
2
5
10

$$$$
