REMARK  Name = 128726
REMARK  10 active torsions:
REMARK  status: ('A' for Active; 'I' for Inactive)
REMARK    1  A    between atoms: C_1  and  C_4
REMARK    2  A    between atoms: C_1  and  N_15
REMARK    3  A    between atoms: C_1  and  C_19
REMARK    4  A    between atoms: N_3  and  C_6
REMARK    5  A    between atoms: C_11  and  N_14
REMARK    6  A    between atoms: C_19  and  C_20
REMARK    7  A    between atoms: C_20  and  C_21
REMARK    8  A    between atoms: C_21  and  N_22
REMARK    9  A    between atoms: N_22  and  C_25
REMARK   10  A    between atoms: N_23  and  N_31
REMARK                            x       y       z     vdW  Elec       q    Type
REMARK                         _______ _______ _______ _____ _____    ______ ____
ROOT
ATOM      1  C   UNL     1       0.598  -1.332  -0.219  0.00  0.00    +0.013 C 
ENDROOT
BRANCH   1   4
ATOM      2  O   UNL     1      -0.735   0.300  -1.389  0.00  0.00    -0.277 OA
ATOM      3  N   UNL     1      -1.762  -1.061   0.223  0.00  0.00    -0.286 N 
ATOM      4  C   UNL     1      -0.702  -0.597  -0.551  0.00  0.00    +0.206 C 
ATOM      5  H   UNL     1      -1.551  -1.778   0.864  0.00  0.00    +0.155 HD
BRANCH   3   6
ATOM      6  C   UNL     1      -3.108  -0.622   0.195  0.00  0.00    +0.050 C 
ATOM      7  C   UNL     1      -4.046  -1.195   1.054  0.00  0.00    +0.016 C 
ATOM      8  C   UNL     1      -3.495   0.385  -0.688  0.00  0.00    +0.016 C 
ATOM      9  C   UNL     1      -5.371  -0.761   1.028  0.00  0.00    +0.025 C 
ATOM     10  C   UNL     1      -4.820   0.820  -0.714  0.00  0.00    +0.025 C 
ATOM     11  C   UNL     1      -5.758   0.247   0.145  0.00  0.00    +0.143 C 
BRANCH  11  14
ATOM     12  O   UNL     1      -7.936   0.160   0.899  0.00  0.00    -0.126 OA
ATOM     13  O   UNL     1      -7.434   1.596  -0.683  0.00  0.00    -0.126 OA
ATOM     14  N   UNL     1      -7.107   0.689   0.119  0.00  0.00    +0.058 N 
ENDBRANCH  11  14
ENDBRANCH   3   6
ENDBRANCH   1   4
BRANCH   1  15
ATOM     15  N   UNL     1       0.624  -2.505  -1.095  0.00  0.00    +0.387 N 
ATOM     16  H   UNL     1       1.474  -3.041  -0.921  0.00  0.00    -0.089 HD
ATOM     17  H   UNL     1       0.607  -2.202  -2.069  0.00  0.00    -0.089 HD
ATOM     18  H   UNL     1      -0.191  -3.088  -0.907  0.00  0.00    -0.089 HD
ENDBRANCH   1  15
BRANCH   1  19
ATOM     19  C   UNL     1       1.844  -0.467  -0.462  0.00  0.00    -0.011 C 
BRANCH  19  20
ATOM     20  C   UNL     1       2.059   0.557   0.660  0.00  0.00    +0.025 C 
BRANCH  20  21
ATOM     21  C   UNL     1       3.252   1.470   0.395  0.00  0.00    +0.129 C 
BRANCH  21  22
ATOM     22  N   UNL     1       4.480   0.677   0.322  0.00  0.00    -0.239 NA
BRANCH  22  25
ATOM     23  N   UNL     1       6.853   0.706   0.061  0.00  0.00    -0.197 N 
ATOM     24  N   UNL     1       5.735   2.683   0.029  0.00  0.00    -0.368 N 
ATOM     25  C   UNL     1       5.598   1.312   0.151  0.00  0.00    +0.215 C 
ATOM     26  H   UNL     1       7.641   1.281  -0.071  0.00  0.00    +0.197 HD
ATOM     27  H   UNL     1       4.940   3.263   0.071  0.00  0.00    +0.159 HD
ATOM     28  H   UNL     1       6.627   3.080  -0.099  0.00  0.00    +0.159 HD
BRANCH  23  31
ATOM     29  O   UNL     1       6.005  -1.299   0.313  0.00  0.00    -0.108 OA
ATOM     30  O   UNL     1       8.184  -1.114   0.060  0.00  0.00    -0.108 OA
ATOM     31  N   UNL     1       7.043  -0.649   0.148  0.00  0.00    +0.133 N 
ENDBRANCH  23  31
ENDBRANCH  22  25
ENDBRANCH  21  22
ENDBRANCH  20  21
ENDBRANCH  19  20
ENDBRANCH   1  19
TORSDOF 10
