REMARK  Name = 128757
REMARK  6 active torsions:
REMARK  status: ('A' for Active; 'I' for Inactive)
REMARK    1  A    between atoms: N_1  and  C1*_13
REMARK    2  A    between atoms: C_9  and  O_24
REMARK    3  A    between atoms: C2*_14  and  O2*_17
REMARK    4  A    between atoms: C3*_15  and  O3*_19
REMARK    5  A    between atoms: C4*_16  and  C5*_21
REMARK    6  A    between atoms: C5*_21  and  O5*_22
REMARK                            x       y       z     vdW  Elec       q    Type
REMARK                         _______ _______ _______ _____ _____    ______ ____
ROOT
ATOM      1  N   UNL     1      -0.031  -0.462   0.243  0.00  0.00    -0.208 NA
ATOM      2  N   UNL     1       1.176  -2.269  -0.244  0.00  0.00    -0.258 NA
ATOM      3  N   UNL     1       1.662   1.120   0.796  0.00  0.00    -0.301 N 
ATOM      4  N   UNL     1       4.110   1.049   0.575  0.00  0.00    -0.226 NA
ATOM      5  C   UNL     1       1.276  -0.105   0.398  0.00  0.00    +0.173 C 
ATOM      6  C   UNL     1       2.006  -1.230   0.099  0.00  0.00    +0.071 C 
ATOM      7  C   UNL     1      -0.040  -1.775  -0.149  0.00  0.00    +0.204 C 
ATOM      8  C   UNL     1       3.485  -1.357   0.130  0.00  0.00    +0.099 C 
ATOM      9  C   UNL     1       4.200  -0.087  -0.357  0.00  0.00    +0.223 C 
ATOM     10  C   UNL     1       2.976   1.511   0.963  0.00  0.00    +0.159 C 
ATOM     11  H   UNL     1       0.960   1.785   0.981  0.00  0.00    +0.150 HD
ENDROOT
BRANCH   1  13
ATOM     12  O4* UNL     1      -2.303  -0.445   0.927  0.00  0.00    -0.336 OA
ATOM     13  C1* UNL     1      -1.216   0.368   0.443  0.00  0.00    +0.209 C 
ATOM     14  C2* UNL     1      -1.722   1.042  -0.823  0.00  0.00    +0.183 C 
ATOM     15  C3* UNL     1      -3.185   1.256  -0.487  0.00  0.00    +0.171 C 
ATOM     16  C4* UNL     1      -3.528  -0.011   0.292  0.00  0.00    +0.175 C 
BRANCH  14  17
ATOM     17  O2* UNL     1      -1.034   2.247  -1.090  0.00  0.00    -0.378 OA
ATOM     18  H2* UNL     1      -0.107   2.051  -1.298  0.00  0.00    +0.211 HD
ENDBRANCH  14  17
BRANCH  15  19
ATOM     19  O3* UNL     1      -3.314   2.380   0.383  0.00  0.00    -0.379 OA
ATOM     20  H3* UNL     1      -3.098   3.191  -0.103  0.00  0.00    +0.211 HD
ENDBRANCH  15  19
BRANCH  16  21
ATOM     21  C5* UNL     1      -4.032  -1.137  -0.599  0.00  0.00    +0.169 C 
BRANCH  21  22
ATOM     22  O5* UNL     1      -4.311  -2.266   0.211  0.00  0.00    -0.379 OA
ATOM     23  H5* UNL     1      -4.633  -2.991  -0.345  0.00  0.00    +0.211 HD
ENDBRANCH  21  22
ENDBRANCH  16  21
ENDBRANCH   1  13
BRANCH   9  24
ATOM     24  O   UNL     1       3.823   0.170  -1.713  0.00  0.00    -0.364 OA
ATOM     25  H   UNL     1       4.271   0.971  -2.027  0.00  0.00    +0.212 HD
ENDBRANCH   9  24
TORSDOF 6
