REMARK  Name = 128766
REMARK  17 active torsions:
REMARK  status: ('A' for Active; 'I' for Inactive)
REMARK    1  A    between atoms: C_2  and  C_21
REMARK    2  A    between atoms: C_3  and  C_9
REMARK    3  A    between atoms: C_4  and  O_7
REMARK    4  A    between atoms: C_10  and  C_11
REMARK    5  A    between atoms: C_11  and  O_12
REMARK    6  A    between atoms: C_11  and  C_14
REMARK    7  A    between atoms: C_14  and  C_15
REMARK    8  A    between atoms: C_15  and  C_16
REMARK    9  A    between atoms: C_16  and  O_17
REMARK   10  A    between atoms: C_16  and  C_19
REMARK   11  A    between atoms: C_21  and  C_22
REMARK   12  A    between atoms: C_22  and  C_23
REMARK   13  A    between atoms: C_23  and  C_24
REMARK   14  A    between atoms: C_24  and  C_25
REMARK   15  A    between atoms: C_25  and  C_26
REMARK   16  A    between atoms: C_26  and  C_28
REMARK   17  A    between atoms: C_28  and  O_29
REMARK                            x       y       z     vdW  Elec       q    Type
REMARK                         _______ _______ _______ _____ _____    ______ ____
ROOT
ATOM      1  O   UNL     1       0.729   4.308  -0.169  0.00  0.00    -0.296 OA
ATOM      2  C   UNL     1       1.566   2.038  -0.369  0.00  0.00    +0.064 C 
ATOM      3  C   UNL     1       2.926   1.560   0.161  0.00  0.00    +0.056 C 
ATOM      4  C   UNL     1       3.888   2.694  -0.218  0.00  0.00    +0.122 C 
ATOM      5  C   UNL     1       3.103   3.972   0.066  0.00  0.00    +0.094 C 
ATOM      6  C   UNL     1       1.678   3.534  -0.155  0.00  0.00    +0.153 C 
ENDROOT
BRANCH   4   7
ATOM      7  O   UNL     1       5.053   2.636   0.590  0.00  0.00    -0.384 OA
ATOM      8  H   UNL     1       5.540   1.819   0.397  0.00  0.00    +0.210 HD
ENDBRANCH   4   7
BRANCH   3   9
ATOM      9  C   UNL     1       3.332   0.238  -0.408  0.00  0.00    -0.026 C 
ATOM     10  C   UNL     1       3.597  -0.846   0.336  0.00  0.00    -0.002 C 
BRANCH  10  11
ATOM     11  C   UNL     1       4.002  -2.174  -0.241  0.00  0.00    +0.132 C 
BRANCH  11  12
ATOM     12  O   UNL     1       5.307  -2.498   0.234  0.00  0.00    -0.380 OA
ATOM     13  H   UNL     1       5.930  -1.804  -0.034  0.00  0.00    +0.211 HD
ENDBRANCH  11  12
BRANCH  11  14
ATOM     14  C   UNL     1       3.026  -3.277   0.189  0.00  0.00    +0.036 C 
BRANCH  14  15
ATOM     15  C   UNL     1       1.594  -2.999  -0.295  0.00  0.00    +0.032 C 
BRANCH  15  16
ATOM     16  C   UNL     1       0.619  -4.113   0.109  0.00  0.00    +0.111 C 
BRANCH  16  17
ATOM     17  O   UNL     1       0.591  -4.194   1.535  0.00  0.00    -0.384 OA
ATOM     18  H   UNL     1       1.489  -4.350   1.868  0.00  0.00    +0.210 HD
ENDBRANCH  16  17
BRANCH  16  19
ATOM     19  C   UNL     1      -0.813  -3.866  -0.381  0.00  0.00    +0.029 C 
ATOM     20  C   UNL     1      -0.936  -3.759  -1.892  0.00  0.00    +0.003 C 
ENDBRANCH  16  19
ENDBRANCH  15  16
ENDBRANCH  14  15
ENDBRANCH  11  14
ENDBRANCH  10  11
ENDBRANCH   3   9
BRANCH   2  21
ATOM     21  C   UNL     1       0.385   1.432   0.368  0.00  0.00    +0.008 C 
BRANCH  21  22
ATOM     22  C   UNL     1      -0.918   1.618  -0.411  0.00  0.00    +0.000 C 
BRANCH  22  23
ATOM     23  C   UNL     1      -2.110   1.039   0.354  0.00  0.00    +0.000 C 
BRANCH  23  24
ATOM     24  C   UNL     1      -3.442   1.192  -0.385  0.00  0.00    +0.001 C 
BRANCH  24  25
ATOM     25  C   UNL     1      -4.668   0.609   0.324  0.00  0.00    +0.012 C 
BRANCH  25  26
ATOM     26  C   UNL     1      -5.959   0.741  -0.485  0.00  0.00    +0.109 C 
BRANCH  26  28
ATOM     27  O   UNL     1      -7.111  -0.360   1.356  0.00  0.00    -0.250 OA
ATOM     28  C   UNL     1      -7.147   0.166   0.253  0.00  0.00    +0.314 C 
BRANCH  28  29
ATOM     29  O   UNL     1      -8.292   0.309  -0.464  0.00  0.00    -0.480 OA
ATOM     30  H   UNL     1      -8.269   0.720  -1.306  0.00  0.00    +0.295 HD
ENDBRANCH  28  29
ENDBRANCH  26  28
ENDBRANCH  25  26
ENDBRANCH  24  25
ENDBRANCH  23  24
ENDBRANCH  22  23
ENDBRANCH  21  22
ENDBRANCH   2  21
TORSDOF 17
