REMARK  Name = 128781
REMARK  5 active torsions:
REMARK  status: ('A' for Active; 'I' for Inactive)
REMARK    1  A    between atoms: N_3  and  C_23
REMARK    2  A    between atoms: C_7  and  N_13
REMARK    3  A    between atoms: C_9  and  C_27
REMARK    4  A    between atoms: N_14  and  S_19
REMARK    5  A    between atoms: C_27  and  O_28
REMARK                            x       y       z     vdW  Elec       q    Type
REMARK                         _______ _______ _______ _____ _____    ______ ____
ROOT
ATOM      1  F   UNL     1      -0.974   2.913   0.352  0.00  0.00    -0.203 F 
ATOM      2  O   UNL     1       4.037   2.447   0.242  0.00  0.00    -0.286 OA
ATOM      3  N   UNL     1       2.601  -1.331  -0.296  0.00  0.00    -0.287 N 
ATOM      4  C   UNL     1       1.666  -0.269  -0.132  0.00  0.00    +0.056 C 
ATOM      5  C   UNL     1       3.955  -1.057  -0.268  0.00  0.00    +0.075 C 
ATOM      6  C   UNL     1       2.135   1.049   0.056  0.00  0.00    +0.055 C 
ATOM      7  C   UNL     1      -0.610   0.593   0.013  0.00  0.00    +0.077 C 
ATOM      8  C   UNL     1       0.277  -0.475  -0.150  0.00  0.00    +0.032 C 
ATOM      9  C   UNL     1       4.504   0.152  -0.096  0.00  0.00    +0.129 C 
ATOM     10  C   UNL     1       3.598   1.315   0.082  0.00  0.00    +0.204 C 
ATOM     11  C   UNL     1      -0.127   1.885   0.197  0.00  0.00    +0.153 C 
ATOM     12  C   UNL     1       1.246   2.118   0.219  0.00  0.00    +0.035 C 
ENDROOT
BRANCH   7  13
ATOM     13  N   UNL     1      -1.990   0.359  -0.007  0.00  0.00    -0.303 N 
ATOM     14  N   UNL     1      -4.760  -0.197  -0.250  0.00  0.00    -0.150 NA
ATOM     15  C   UNL     1      -2.783   1.038  -1.042  0.00  0.00    +0.110 C 
ATOM     16  C   UNL     1      -2.515  -0.931   0.455  0.00  0.00    +0.110 C 
ATOM     17  C   UNL     1      -4.240   1.154  -0.604  0.00  0.00    +0.117 C 
ATOM     18  C   UNL     1      -3.978  -0.794   0.869  0.00  0.00    +0.117 C 
BRANCH  14  19
ATOM     19  S   UNL     1      -6.463  -0.313  -0.099  0.00  0.00    +0.080 S 
ATOM     20  O   UNL     1      -6.776   0.489   1.285  0.00  0.00    -0.053 OA
ATOM     21  O   UNL     1      -6.802  -1.707   0.114  0.00  0.00    -0.053 OA
ATOM     22  O   UNL     1      -7.064   0.432  -1.189  0.00  0.00    -0.053 OA
ENDBRANCH  14  19
ENDBRANCH   7  13
BRANCH   3  23
ATOM     23  C   UNL     1       2.162  -2.729  -0.496  0.00  0.00    +0.077 C 
ATOM     24  C   UNL     1       2.659  -3.821   0.391  0.00  0.00    +0.022 C 
ATOM     25  C   UNL     1       1.226  -3.382   0.466  0.00  0.00    +0.022 C 
ENDBRANCH   3  23
BRANCH   9  27
ATOM     26  O   UNL     1       6.712  -0.478  -0.713  0.00  0.00    -0.245 OA
ATOM     27  C   UNL     1       5.964   0.257  -0.093  0.00  0.00    +0.342 C 
BRANCH  27  28
ATOM     28  O   UNL     1       6.343   1.285   0.696  0.00  0.00    -0.477 OA
ATOM     29  H   UNL     1       5.696   1.800   1.138  0.00  0.00    +0.295 HD
ENDBRANCH  27  28
ENDBRANCH   9  27
TORSDOF 5
