REMARK  Name = 128799
REMARK  10 active torsions:
REMARK  status: ('A' for Active; 'I' for Inactive)
REMARK    1  A    between atoms: N_2  and  C_20
REMARK    2  A    between atoms: C_3  and  O_5
REMARK    3  A    between atoms: O_5  and  C_6
REMARK    4  A    between atoms: C_6  and  C_7
REMARK    5  A    between atoms: C_20  and  C_22
REMARK    6  A    between atoms: C_20  and  C_25
REMARK    7  A    between atoms: C_22  and  O_23
REMARK    8  A    between atoms: C_25  and  S_26
REMARK    9  A    between atoms: S_26  and  C_27
REMARK   10  A    between atoms: C_27  and  N_29
REMARK                            x       y       z     vdW  Elec       q    Type
REMARK                         _______ _______ _______ _____ _____    ______ ____
ROOT
ATOM      1  O   UNK A   0       1.127   1.990   2.549  0.00  0.00    -0.226 OA
ATOM      2  N   UNK A   1       1.680   1.825   0.302  0.00  0.00    -0.262 N 
ATOM      3  C   UNK A   0       0.813   1.828   1.374  0.00  0.00    +0.402 C 
ATOM      4  H   UNK A   1       1.305   1.684  -0.598  0.00  0.00    +0.153 HD
ENDROOT
BRANCH   3   5
ATOM      5  O   UNK A   0      -0.475   1.620   0.945  0.00  0.00    -0.434 OA
BRANCH   5   6
ATOM      6  C   UNK A   0      -1.477   1.598   1.946  0.00  0.00    +0.219 C 
BRANCH   6   7
ATOM      7  C   UNK A   0      -2.602   0.677   1.489  0.00  0.00    +0.088 C 
ATOM      8  C   UNK A   0      -3.153   1.057   0.122  0.00  0.00    -0.015 C 
ATOM      9  C   UNK A   0      -2.128  -0.748   1.242  0.00  0.00    -0.015 C 
ATOM     10  C   UNK A   0      -3.023  -0.024  -0.779  0.00  0.00    -0.004 C 
ATOM     11  C   UNK A   0      -2.394  -1.131  -0.092  0.00  0.00    -0.004 C 
ATOM     12  C   UNK A   0      -3.732   2.253  -0.269  0.00  0.00    -0.004 C 
ATOM     13  C   UNK A   0      -1.533  -1.623   2.136  0.00  0.00    -0.004 C 
ATOM     14  C   UNK A   0      -3.467   0.091  -2.087  0.00  0.00    -0.000 C 
ATOM     15  C   UNK A   0      -2.055  -2.396  -0.544  0.00  0.00    -0.000 C 
ATOM     16  C   UNK A   0      -4.179   2.369  -1.586  0.00  0.00    -0.000 C 
ATOM     17  C   UNK A   0      -1.191  -2.898   1.680  0.00  0.00    -0.000 C 
ATOM     18  C   UNK A   0      -4.047   1.298  -2.487  0.00  0.00    -0.000 C 
ATOM     19  C   UNK A   0      -1.449  -3.280   0.354  0.00  0.00    -0.000 C 
ENDBRANCH   6   7
ENDBRANCH   5   6
ENDBRANCH   3   5
BRANCH   2  20
ATOM     20  C   UNK A   1       3.107   2.018   0.423  0.00  0.00    +0.185 C 
BRANCH  20  22
ATOM     21  O   UNK A   1       4.842   3.164  -0.824  0.00  0.00    -0.248 OA
ATOM     22  C   UNK A   1       3.677   2.791  -0.754  0.00  0.00    +0.333 C 
BRANCH  22  23
ATOM     23  O   UNK A   1       2.763   3.046  -1.721  0.00  0.00    -0.479 OA
ATOM     24  H   UNK A   1       1.883   2.741  -1.626  0.00  0.00    +0.295 HD
ENDBRANCH  22  23
ENDBRANCH  20  22
BRANCH  20  25
ATOM     25  C   UNK A   1       3.844   0.699   0.666  0.00  0.00    +0.090 C 
BRANCH  25  26
ATOM     26  S   UNK A   1       3.792  -0.444  -0.754  0.00  0.00    -0.117 S 
BRANCH  26  27
ATOM     27  C   UNK A   1       2.158  -1.162  -0.472  0.00  0.00    +0.149 C 
BRANCH  27  29
ATOM     28  O   UNK A   1       2.749  -3.805   0.513  0.00  0.00    -0.275 OA
ATOM     29  N   UNK A   1       1.994  -2.408  -1.186  0.00  0.00    -0.295 N 
ATOM     30  C   UNK A   1       2.309  -3.632  -0.621  0.00  0.00    +0.224 C 
ATOM     31  C   UNK A   1       2.050  -4.776  -1.562  0.00  0.00    +0.095 C 
ATOM     32  H   UNK A   1       1.647  -2.386  -2.107  0.00  0.00    +0.150 HD
ENDBRANCH  27  29
ENDBRANCH  26  27
ENDBRANCH  25  26
ENDBRANCH  20  25
ENDBRANCH   2  20
TORSDOF 10
