128771
  -OEChem-03292013323D

 32 34  0     1  0  0  0  0  0999 V2000
    3.8675   -2.8642   -0.4803 Cl  0  0  0  0  0  0  0  0  0  0  0  0
    2.0242   -0.4914   -0.9275 O   0  0  0  0  0  0  0  0  0  0  0  0
    1.1978    2.3244    1.1483 O   0  0  0  0  0  0  0  0  0  0  0  0
    3.4006    2.1850   -0.4371 O   0  0  0  0  0  0  0  0  0  0  0  0
   -0.1958   -0.2342   -0.1302 N   0  0  0  0  0  0  0  0  0  0  0  0
   -1.5984   -1.8727    0.4198 N   0  0  0  0  0  0  0  0  0  0  0  0
   -4.1628    0.7215   -0.2258 N   0  0  0  0  0  0  0  0  0  0  0  0
   -4.5806   -1.5294    0.4580 N   0  0  0  0  0  0  0  0  0  0  0  0
    1.0710    0.4458   -0.3905 C   0  0  1  0  0  0  0  0  0  0  0  0
    1.7186    1.0456    0.8482 C   0  0  1  0  0  0  0  0  0  0  0  0
    3.1780    1.0799    0.4389 C   0  0  1  0  0  0  0  0  0  0  0  0
    3.3234   -0.2143   -0.3553 C   0  0  1  0  0  0  0  0  0  0  0  0
    3.7294   -1.3991    0.5100 C   0  0  0  0  0  0  0  0  0  0  0  0
   -1.4539    0.3061   -0.2302 C   0  0  0  0  0  0  0  0  0  0  0  0
   -0.3371   -1.5385    0.2615 C   0  0  0  0  0  0  0  0  0  0  0  0
   -2.3089   -0.7349    0.1173 C   0  0  0  0  0  0  0  0  0  0  0  0
   -1.9037    1.5711   -0.5823 C   0  0  0  0  0  0  0  0  0  0  0  0
   -3.6845   -0.5016    0.1128 C   0  0  0  0  0  0  0  0  0  0  0  0
   -3.2848    1.7011   -0.5558 C   0  0  0  0  0  0  0  0  0  0  0  0
    0.8781    1.1975   -1.1652 H   0  0  0  0  0  0  0  0  0  0  0  0
    1.5831    0.3977    1.7219 H   0  0  0  0  0  0  0  0  0  0  0  0
    3.8640    1.1791    1.2848 H   0  0  0  0  0  0  0  0  0  0  0  0
    4.0282   -0.0943   -1.1865 H   0  0  0  0  0  0  0  0  0  0  0  0
    2.9837   -1.6116    1.2816 H   0  0  0  0  0  0  0  0  0  0  0  0
    4.6966   -1.2251    0.9902 H   0  0  0  0  0  0  0  0  0  0  0  0
    1.3646    2.9037    0.3854 H   0  0  0  0  0  0  0  0  0  0  0  0
    0.5059   -2.1965    0.4216 H   0  0  0  0  0  0  0  0  0  0  0  0
    4.3329    2.1538   -0.7121 H   0  0  0  0  0  0  0  0  0  0  0  0
   -1.2457    2.3858   -0.8518 H   0  0  0  0  0  0  0  0  0  0  0  0
   -3.7460    2.6502   -0.8136 H   0  0  0  0  0  0  0  0  0  0  0  0
   -5.5738   -1.3414    0.4493 H   0  0  0  0  0  0  0  0  0  0  0  0
   -4.2345   -2.4447    0.7123 H   0  0  0  0  0  0  0  0  0  0  0  0
  1 13  1  0  0  0  0
  2  9  1  0  0  0  0
  2 12  1  0  0  0  0
  3 10  1  0  0  0  0
  3 26  1  0  0  0  0
  4 11  1  0  0  0  0
  4 28  1  0  0  0  0
  5  9  1  0  0  0  0
  5 14  1  0  0  0  0
  5 15  1  0  0  0  0
  6 15  2  0  0  0  0
  6 16  1  0  0  0  0
  7 18  2  0  0  0  0
  7 19  1  0  0  0  0
  8 18  1  0  0  0  0
  8 31  1  0  0  0  0
  8 32  1  0  0  0  0
  9 10  1  0  0  0  0
  9 20  1  0  0  0  0
 10 11  1  0  0  0  0
 10 21  1  0  0  0  0
 11 12  1  0  0  0  0
 11 22  1  0  0  0  0
 12 13  1  0  0  0  0
 12 23  1  0  0  0  0
 13 24  1  0  0  0  0
 13 25  1  0  0  0  0
 14 16  2  0  0  0  0
 14 17  1  0  0  0  0
 15 27  1  0  0  0  0
 16 18  1  0  0  0  0
 17 19  2  0  0  0  0
 17 29  1  0  0  0  0
 19 30  1  0  0  0  0
M  END
> <PUBCHEM_COMPOUND_CID>
128771

> <PUBCHEM_CONFORMER_RMSD>
0.6

> <PUBCHEM_CONFORMER_DIVERSEORDER>
2
8
19
7
14
1
22
5
11
9
12
20
4
15
18
10
21
17
13
3
6
16

> <PUBCHEM_MMFF94_PARTIAL_CHARGES>
26
1 -0.29
10 0.28
11 0.28
12 0.28
13 0.29
14 -0.15
15 0.04
16 0.23
17 -0.15
18 0.41
19 0.16
2 -0.56
26 0.4
27 0.15
28 0.4
29 0.15
3 -0.68
30 0.15
31 0.4
32 0.4
4 -0.68
5 0.05
6 -0.57
7 -0.62
8 -0.9
9 0.54

> <PUBCHEM_EFFECTIVE_ROTOR_COUNT>
3

> <PUBCHEM_PHARMACOPHORE_FEATURES>
11
1 2 acceptor
1 3 acceptor
1 3 donor
1 4 acceptor
1 4 donor
1 8 donor
3 5 6 15 cation
3 7 8 18 cation
5 2 9 10 11 12 rings
5 5 6 14 15 16 rings
6 7 14 16 17 18 19 rings

> <PUBCHEM_HEAVY_ATOM_COUNT>
19

> <PUBCHEM_ATOM_DEF_STEREO_COUNT>
4

> <PUBCHEM_ATOM_UDEF_STEREO_COUNT>
0

> <PUBCHEM_BOND_DEF_STEREO_COUNT>
0

> <PUBCHEM_BOND_UDEF_STEREO_COUNT>
0

> <PUBCHEM_ISOTOPIC_ATOM_COUNT>
0

> <PUBCHEM_COMPONENT_COUNT>
1

> <PUBCHEM_CACTVS_TAUTO_COUNT>
2

> <PUBCHEM_CONFORMER_ID>
0001F70300000002

> <PUBCHEM_MMFF94_ENERGY>
44.5342

> <PUBCHEM_FEATURE_SELFOVERLAP>
55.948

> <PUBCHEM_SHAPE_FINGERPRINT>
10498660 4 18113610188594547933
10608611 8 18410852195979760909
1100329 8 16466143411641821754
11405975 8 18340771442581559049
11578080 2 14188458010795295034
12403259 226 18410851053824168445
12403259 415 18260827064580732565
12507560 14 18059572443236987078
13134695 92 17702929345730291664
13581323 91 18261670467060455085
13675066 3 18271232838204274146
14866123 147 16901874419696092034
15196674 1 18408603665026266221
15219456 202 18341610438335457573
15442244 35 18339080376544595944
15536298 74 18409444769709522490
16945 1 18195797703143323824
17492 89 18409729577491827103
17804303 29 18335705992180209006
18186145 218 18342182128605367973
19049666 15 18411979156901508520
19591789 44 18408885118497024651
200 152 17703781505890885221
20510252 161 18410013264829758937
20645477 70 18411982459926901758
21501502 16 18340762749409450878
221490 88 18409173203269862402
23402539 116 18338226168069458135
23559900 14 18411134706554909612
3004659 81 17898016738072877078
3286 77 18412542102517667167
335352 9 18193838141700089325
350125 39 18263367988818483181
4214541 1 18335701615576645436
474 4 16155125026056256548
5104073 3 18409449180777832977
633830 44 18260541212952991991
69090 78 18272083946235588983
7364860 26 18411701006783359750
77779 3 18408041809941404261
81228 2 17971186178298436579
9709674 26 18408045130009633546

> <PUBCHEM_SHAPE_MULTIPOLES>
355.35
8.37
2.56
0.85
1.72
0.25
0.04
2.23
-0.32
-1.59
0.11
-0.26
-0.15
0.94

> <PUBCHEM_SHAPE_SELFOVERLAP>
763.118

> <PUBCHEM_SHAPE_VOLUME>
199.6

> <PUBCHEM_COORDINATE_TYPE>
2
5
10

$$$$
