REMARK  Name = 128749
REMARK  6 active torsions:
REMARK  status: ('A' for Active; 'I' for Inactive)
REMARK    1  A    between atoms: C_2  and  C_13
REMARK    2  A    between atoms: C_8  and  O_11
REMARK    3  A    between atoms: C_13  and  CA_14
REMARK    4  A    between atoms: CA_14  and  N_16
REMARK    5  A    between atoms: CA_14  and  C_21
REMARK    6  A    between atoms: C_21  and  O_22
REMARK                            x       y       z     vdW  Elec       q    Type
REMARK                         _______ _______ _______ _____ _____    ______ ____
ROOT
ATOM      1  N   UNL     1       1.332   2.648  -0.130  0.00  0.00    -0.312 N 
ATOM      2  C   UNL     1      -0.040   1.161   0.783  0.00  0.00    -0.004 C 
ATOM      3  C   UNL     1       1.160   0.491   0.413  0.00  0.00    +0.014 C 
ATOM      4  C   UNL     1       2.003   1.446  -0.158  0.00  0.00    +0.048 C 
ATOM      5  C   UNL     1       0.096   2.485   0.437  0.00  0.00    +0.058 C 
ATOM      6  C   UNL     1       1.610  -0.841   0.508  0.00  0.00    +0.038 C 
ATOM      7  C   UNL     1       3.280   1.135  -0.640  0.00  0.00    +0.018 C 
ATOM      8  C   UNL     1       2.885  -1.167   0.031  0.00  0.00    +0.134 C 
ATOM      9  C   UNL     1       3.705  -0.192  -0.534  0.00  0.00    +0.038 C 
ATOM     10  H   UNL     1       1.688   3.500  -0.469  0.00  0.00    +0.152 HD
ENDROOT
BRANCH   8  11
ATOM     11  O   UNL     1       3.327  -2.453   0.119  0.00  0.00    -0.506 OA
ATOM     12  H   UNL     1       2.779  -3.111   0.498  0.00  0.00    +0.292 HD
ENDBRANCH   8  11
BRANCH   2  13
ATOM     13  C   UNL     1      -1.224   0.554   1.424  0.00  0.00    +0.059 C 
BRANCH  13  14
ATOM     14  CA  UNL     1      -2.277   0.018   0.427  0.00  0.00    +0.176 C 
BRANCH  14  16
ATOM     15  O   UNL     1      -2.307  -2.830   0.990  0.00  0.00    -0.275 OA
ATOM     16  N   UNL     1      -1.730  -1.041  -0.384  0.00  0.00    -0.297 N 
ATOM     17  C   UNL     1      -1.793  -2.380  -0.031  0.00  0.00    +0.223 C 
ATOM     18  C   UNL     1      -1.169  -3.276  -1.067  0.00  0.00    +0.095 C 
ATOM     19  H   UNL     1      -1.291  -0.801  -1.231  0.00  0.00    +0.150 HD
ENDBRANCH  14  16
BRANCH  14  21
ATOM     20  OXT UNL     1      -3.417   2.112   0.021  0.00  0.00    -0.248 OA
ATOM     21  C   UNL     1      -2.825   1.141  -0.440  0.00  0.00    +0.332 C 
BRANCH  21  22
ATOM     22  O   UNL     1      -2.618   0.987  -1.770  0.00  0.00    -0.479 OA
ATOM     23  H   UNL     1      -2.162   0.233  -2.088  0.00  0.00    +0.295 HD
ENDBRANCH  21  22
ENDBRANCH  14  21
ENDBRANCH  13  14
ENDBRANCH   2  13
TORSDOF 6
