128785
  -OEChem-03292013323D

 56 62  0     1  0  0  0  0  0999 V2000
   -2.9458    2.2914   -0.6858 O   0  0  0  0  0  0  0  0  0  0  0  0
    2.9458    2.2909    0.6864 O   0  0  0  0  0  0  0  0  0  0  0  0
   -2.0027    4.3481   -0.9876 O   0  0  0  0  0  0  0  0  0  0  0  0
    2.0035    4.3483    0.9866 O   0  0  0  0  0  0  0  0  0  0  0  0
   -0.8117   -1.5382    1.3866 O   0  0  0  0  0  0  0  0  0  0  0  0
    0.8111   -1.5383   -1.3853 O   0  0  0  0  0  0  0  0  0  0  0  0
   -5.3425   -1.7157   -0.2499 O   0  0  0  0  0  0  0  0  0  0  0  0
    5.3430   -1.7157    0.2481 O   0  0  0  0  0  0  0  0  0  0  0  0
   -3.0952   -3.0529    1.0272 O   0  0  0  0  0  0  0  0  0  0  0  0
    3.0943   -3.0535   -1.0264 O   0  0  0  0  0  0  0  0  0  0  0  0
   -0.5283    1.2298    0.5743 C   0  0  1  0  0  0  0  0  0  0  0  0
    0.5281    1.2292   -0.5730 C   0  0  1  0  0  0  0  0  0  0  0  0
   -0.6982    2.7486    0.3471 C   0  0  1  0  0  0  0  0  0  0  0  0
    0.6983    2.7482   -0.3470 C   0  0  1  0  0  0  0  0  0  0  0  0
   -1.8244    0.3805    0.3772 C   0  0  0  0  0  0  0  0  0  0  0  0
    1.8241    0.3799   -0.3758 C   0  0  0  0  0  0  0  0  0  0  0  0
   -1.9046    3.2214   -0.4959 C   0  0  0  0  0  0  0  0  0  0  0  0
    1.9049    3.2212    0.4957 C   0  0  0  0  0  0  0  0  0  0  0  0
   -2.9667    0.9428   -0.2286 C   0  0  0  0  0  0  0  0  0  0  0  0
    2.9667    0.9423    0.2293 C   0  0  0  0  0  0  0  0  0  0  0  0
   -1.9040   -0.9663    0.7870 C   0  0  0  0  0  0  0  0  0  0  0  0
    1.9036   -0.9670   -0.7856 C   0  0  0  0  0  0  0  0  0  0  0  0
   -4.1372    0.1862   -0.4199 C   0  0  0  0  0  0  0  0  0  0  0  0
    4.1374    0.1859    0.4195 C   0  0  0  0  0  0  0  0  0  0  0  0
   -3.0516   -1.7527    0.6181 C   0  0  0  0  0  0  0  0  0  0  0  0
    3.0513   -1.7531   -0.6178 C   0  0  0  0  0  0  0  0  0  0  0  0
   -4.1385   -1.1339    0.0111 C   0  0  0  0  0  0  0  0  0  0  0  0
    4.1386   -1.1342   -0.0115 C   0  0  0  0  0  0  0  0  0  0  0  0
   -5.4235    0.4112   -0.9781 C   0  0  0  0  0  0  0  0  0  0  0  0
    5.4247    0.4115    0.9754 C   0  0  0  0  0  0  0  0  0  0  0  0
   -6.1139   -0.7716   -0.8494 C   0  0  0  0  0  0  0  0  0  0  0  0
    6.1151   -0.7713    0.8462 C   0  0  0  0  0  0  0  0  0  0  0  0
   -0.7319   -1.4336    2.8029 C   0  0  0  0  0  0  0  0  0  0  0  0
    0.7314   -1.4337   -2.8015 C   0  0  0  0  0  0  0  0  0  0  0  0
   -4.0813   -3.3923    1.9990 C   0  0  0  0  0  0  0  0  0  0  0  0
    4.0800   -3.3935   -1.9986 C   0  0  0  0  0  0  0  0  0  0  0  0
   -0.0662    1.0519    1.5570 H   0  0  0  0  0  0  0  0  0  0  0  0
    0.0659    1.0510   -1.5556 H   0  0  0  0  0  0  0  0  0  0  0  0
   -0.6947    3.3005    1.2984 H   0  0  0  0  0  0  0  0  0  0  0  0
    0.6949    3.2994   -1.2986 H   0  0  0  0  0  0  0  0  0  0  0  0
   -5.8005    1.3231   -1.4192 H   0  0  0  0  0  0  0  0  0  0  0  0
    5.8023    1.3236    1.4155 H   0  0  0  0  0  0  0  0  0  0  0  0
   -7.1107   -1.0872   -1.1205 H   0  0  0  0  0  0  0  0  0  0  0  0
    7.1123   -1.0867    1.1160 H   0  0  0  0  0  0  0  0  0  0  0  0
   -1.3825   -2.1803    3.2681 H   0  0  0  0  0  0  0  0  0  0  0  0
   -1.0089   -0.4348    3.1554 H   0  0  0  0  0  0  0  0  0  0  0  0
    0.2998   -1.6356    3.1038 H   0  0  0  0  0  0  0  0  0  0  0  0
    1.0096   -0.4353   -3.1542 H   0  0  0  0  0  0  0  0  0  0  0  0
   -0.3006   -1.6344   -3.1024 H   0  0  0  0  0  0  0  0  0  0  0  0
    1.3809   -2.1813   -3.2668 H   0  0  0  0  0  0  0  0  0  0  0  0
   -5.0348   -3.6116    1.5106 H   0  0  0  0  0  0  0  0  0  0  0  0
   -4.2072   -2.5947    2.7392 H   0  0  0  0  0  0  0  0  0  0  0  0
   -3.7478   -4.2948    2.5191 H   0  0  0  0  0  0  0  0  0  0  0  0
    5.0336   -3.6130   -1.5103 H   0  0  0  0  0  0  0  0  0  0  0  0
    4.2059   -2.5962   -2.7391 H   0  0  0  0  0  0  0  0  0  0  0  0
    3.7459   -4.2960   -2.5184 H   0  0  0  0  0  0  0  0  0  0  0  0
  1 17  1  0  0  0  0
  1 19  1  0  0  0  0
  2 18  1  0  0  0  0
  2 20  1  0  0  0  0
  3 17  2  0  0  0  0
  4 18  2  0  0  0  0
  5 21  1  0  0  0  0
  5 33  1  0  0  0  0
  6 22  1  0  0  0  0
  6 34  1  0  0  0  0
  7 27  1  0  0  0  0
  7 31  1  0  0  0  0
  8 28  1  0  0  0  0
  8 32  1  0  0  0  0
  9 25  1  0  0  0  0
  9 35  1  0  0  0  0
 10 26  1  0  0  0  0
 10 36  1  0  0  0  0
 11 12  1  0  0  0  0
 11 13  1  0  0  0  0
 11 15  1  0  0  0  0
 11 37  1  0  0  0  0
 12 14  1  0  0  0  0
 12 16  1  0  0  0  0
 12 38  1  0  0  0  0
 13 14  1  0  0  0  0
 13 17  1  0  0  0  0
 13 39  1  0  0  0  0
 14 18  1  0  0  0  0
 14 40  1  0  0  0  0
 15 19  2  0  0  0  0
 15 21  1  0  0  0  0
 16 20  2  0  0  0  0
 16 22  1  0  0  0  0
 19 23  1  0  0  0  0
 20 24  1  0  0  0  0
 21 25  2  0  0  0  0
 22 26  2  0  0  0  0
 23 27  2  0  0  0  0
 23 29  1  0  0  0  0
 24 28  2  0  0  0  0
 24 30  1  0  0  0  0
 25 27  1  0  0  0  0
 26 28  1  0  0  0  0
 29 31  2  0  0  0  0
 29 41  1  0  0  0  0
 30 32  2  0  0  0  0
 30 42  1  0  0  0  0
 31 43  1  0  0  0  0
 32 44  1  0  0  0  0
 33 45  1  0  0  0  0
 33 46  1  0  0  0  0
 33 47  1  0  0  0  0
 34 48  1  0  0  0  0
 34 49  1  0  0  0  0
 34 50  1  0  0  0  0
 35 51  1  0  0  0  0
 35 52  1  0  0  0  0
 35 53  1  0  0  0  0
 36 54  1  0  0  0  0
 36 55  1  0  0  0  0
 36 56  1  0  0  0  0
M  END
> <PUBCHEM_COMPOUND_CID>
128785

> <PUBCHEM_CONFORMER_RMSD>
0.8

> <PUBCHEM_CONFORMER_DIVERSEORDER>
1
4
5
3
2
6
9
7
8

> <PUBCHEM_MMFF94_PARTIAL_CHARGES>
38
1 -0.23
10 -0.36
11 0.11
12 0.11
13 0.05
14 0.05
15 -0.11
16 -0.11
17 0.67
18 0.67
19 0.08
2 -0.23
20 0.08
21 0.08
22 0.08
25 0.08
26 0.08
27 0.14
28 0.14
29 -0.15
3 -0.57
30 -0.15
31 -0.01
32 -0.01
33 0.28
34 0.28
35 0.28
36 0.28
4 -0.57
41 0.15
42 0.15
43 0.15
44 0.15
5 -0.36
6 -0.36
7 -0.28
8 -0.28
9 -0.36

> <PUBCHEM_EFFECTIVE_ROTOR_COUNT>
4.4

> <PUBCHEM_PHARMACOPHORE_FEATURES>
15
1 10 acceptor
1 3 acceptor
1 4 acceptor
1 5 acceptor
1 6 acceptor
1 7 acceptor
1 8 acceptor
1 9 acceptor
4 11 12 13 14 rings
5 7 23 27 29 31 rings
5 8 24 28 30 32 rings
6 1 11 13 15 17 19 rings
6 15 19 21 23 25 27 rings
6 16 20 22 24 26 28 rings
6 2 12 14 16 18 20 rings

> <PUBCHEM_HEAVY_ATOM_COUNT>
36

> <PUBCHEM_ATOM_DEF_STEREO_COUNT>
0

> <PUBCHEM_ATOM_UDEF_STEREO_COUNT>
4

> <PUBCHEM_BOND_DEF_STEREO_COUNT>
0

> <PUBCHEM_BOND_UDEF_STEREO_COUNT>
0

> <PUBCHEM_ISOTOPIC_ATOM_COUNT>
0

> <PUBCHEM_COMPONENT_COUNT>
1

> <PUBCHEM_CACTVS_TAUTO_COUNT>
1

> <PUBCHEM_CONFORMER_ID>
0001F71100000001

> <PUBCHEM_MMFF94_ENERGY>
131.8831

> <PUBCHEM_FEATURE_SELFOVERLAP>
77.119

> <PUBCHEM_SHAPE_FINGERPRINT>
10 15 18271507781485034280
10906281 52 18338535087117283848
11828532 37 17896323696181886875
12107698 1 18410845568818660997
12166972 35 17167865304933423183
12202916 173 18338502101758069954
12608794 3 18266763336707532209
13140716 1 18337962293536527505
13402501 40 18410849966864990212
140371 6 18410300206762052820
14725015 67 18336533958943206561
14840074 17 17917991710924797350
14866123 147 18265896861447184441
15351339 4 17971741195494598987
15361156 5 18409735079391490621
15927050 60 17762610699806202933
19315092 285 16986861575023792303
19611394 137 18410009945305206218
20642791 13 18339642230901925368
21033648 29 17416946397051969104
21781051 124 16878522223642364459
23559900 14 18263637518974705337
23572383 38 18410573989452394758
24893992 56 17895463809859462887
3004659 81 17967527995675248840
3380486 145 18196391229080228424
4015057 19 18269542992412809277
4403749 210 17259323995928658841
463206 1 18199743816248113735
508706 21 18336836268780116982
57527585 103 17897758472212503419
6004065 56 18270389602964434255
613672 6 18410858758663733711
7226269 152 18113616781173681003
9709674 26 18339646646196344878

> <PUBCHEM_SHAPE_MULTIPOLES>
682.17
11.72
4.68
1.72
0.01
2.94
0
-7.01
0
0
0
0
-1.51
3.15

> <PUBCHEM_SHAPE_SELFOVERLAP>
1543.296

> <PUBCHEM_SHAPE_VOLUME>
357.6

> <PUBCHEM_COORDINATE_TYPE>
2
5
10

$$$$
