REMARK  Name = 128785
REMARK  4 active torsions:
REMARK  status: ('A' for Active; 'I' for Inactive)
REMARK    1  A    between atoms: C_17  and  O_29
REMARK    2  A    between atoms: C_18  and  O_31
REMARK    3  A    between atoms: C_21  and  O_33
REMARK    4  A    between atoms: C_22  and  O_35
REMARK                            x       y       z     vdW  Elec       q    Type
REMARK                         _______ _______ _______ _____ _____    ______ ____
ROOT
ATOM      1  O   UNL     1      -2.946   2.291  -0.686  0.00  0.00    -0.424 OA
ATOM      2  O   UNL     1       2.946   2.291   0.686  0.00  0.00    -0.424 OA
ATOM      3  O   UNL     1      -2.003   4.348  -0.988  0.00  0.00    -0.250 OA
ATOM      4  O   UNL     1       2.003   4.348   0.987  0.00  0.00    -0.250 OA
ATOM      5  O   UNL     1      -5.343  -1.716  -0.250  0.00  0.00    -0.447 OA
ATOM      6  O   UNL     1       5.343  -1.716   0.248  0.00  0.00    -0.447 OA
ATOM      7  C   UNL     1      -0.528   1.230   0.574  0.00  0.00    +0.044 C 
ATOM      8  C   UNL     1       0.528   1.229  -0.573  0.00  0.00    +0.044 C 
ATOM      9  C   UNL     1      -0.698   2.749   0.347  0.00  0.00    +0.115 C 
ATOM     10  C   UNL     1       0.698   2.748  -0.347  0.00  0.00    +0.115 C 
ATOM     11  C   UNL     1      -1.824   0.381   0.377  0.00  0.00    +0.050 A 
ATOM     12  C   UNL     1       1.824   0.380  -0.376  0.00  0.00    +0.050 A 
ATOM     13  C   UNL     1      -1.905   3.221  -0.496  0.00  0.00    +0.322 C 
ATOM     14  C   UNL     1       1.905   3.221   0.496  0.00  0.00    +0.322 C 
ATOM     15  C   UNL     1      -2.967   0.943  -0.229  0.00  0.00    +0.150 A 
ATOM     16  C   UNL     1       2.967   0.942   0.229  0.00  0.00    +0.150 A 
ATOM     17  C   UNL     1      -1.904  -0.966   0.787  0.00  0.00    +0.174 A 
ATOM     18  C   UNL     1       1.904  -0.967  -0.786  0.00  0.00    +0.174 A 
ATOM     19  C   UNL     1      -4.137   0.186  -0.420  0.00  0.00    +0.075 A 
ATOM     20  C   UNL     1       4.137   0.186   0.419  0.00  0.00    +0.075 A 
ATOM     21  C   UNL     1      -3.052  -1.753   0.618  0.00  0.00    +0.207 A 
ATOM     22  C   UNL     1       3.051  -1.753  -0.618  0.00  0.00    +0.207 A 
ATOM     23  C   UNL     1      -4.138  -1.134   0.011  0.00  0.00    +0.185 A 
ATOM     24  C   UNL     1       4.139  -1.134  -0.011  0.00  0.00    +0.185 A 
ATOM     25  C   UNL     1      -5.423   0.411  -0.978  0.00  0.00    +0.047 C 
ATOM     26  C   UNL     1       5.425   0.411   0.975  0.00  0.00    +0.047 C 
ATOM     27  C   UNL     1      -6.114  -0.772  -0.849  0.00  0.00    +0.180 C 
ATOM     28  C   UNL     1       6.115  -0.771   0.846  0.00  0.00    +0.180 C 
ENDROOT
BRANCH  17  29
ATOM     29  O   UNL     1      -0.812  -1.538   1.387  0.00  0.00    -0.468 OA
ATOM     30  C   UNL     1      -0.732  -1.434   2.803  0.00  0.00    +0.253 C 
ENDBRANCH  17  29
BRANCH  18  31
ATOM     31  O   UNL     1       0.811  -1.538  -1.385  0.00  0.00    -0.468 OA
ATOM     32  C   UNL     1       0.731  -1.434  -2.801  0.00  0.00    +0.253 C 
ENDBRANCH  18  31
BRANCH  21  33
ATOM     33  O   UNL     1      -3.095  -3.053   1.027  0.00  0.00    -0.465 OA
ATOM     34  C   UNL     1      -4.081  -3.392   1.999  0.00  0.00    +0.253 C 
ENDBRANCH  21  33
BRANCH  22  35
ATOM     35  O   UNL     1       3.094  -3.054  -1.026  0.00  0.00    -0.465 OA
ATOM     36  C   UNL     1       4.080  -3.393  -1.999  0.00  0.00    +0.253 C 
ENDBRANCH  22  35
TORSDOF 4
