REMARK  Name = 128742
REMARK  5 active torsions:
REMARK  status: ('A' for Active; 'I' for Inactive)
REMARK    1  A    between atoms: N_4  and  C_11
REMARK    2  A    between atoms: C_5  and  S_16
REMARK    3  A    between atoms: C_12  and  O_22
REMARK    4  A    between atoms: S_16  and  C_18
REMARK    5  A    between atoms: C_18  and  C_19
REMARK                            x       y       z     vdW  Elec       q    Type
REMARK                         _______ _______ _______ _____ _____    ______ ____
ROOT
ATOM      1  N   UNL     1      -1.171  -0.013  -1.192  0.00  0.00    -0.302 N 
ATOM      2  N   UNL     1      -1.832  -0.434   0.888  0.00  0.00    -0.302 N 
ATOM      3  C   UNL     1       2.162  -0.936   0.068  0.00  0.00    +0.057 C 
ATOM      4  C   UNL     1      -0.039  -0.390  -0.518  0.00  0.00    +0.061 C 
ATOM      5  C   UNL     1       1.291  -0.525  -0.918  0.00  0.00    +0.024 C 
ATOM      6  C   UNL     1      -0.477  -0.648   0.778  0.00  0.00    +0.060 C 
ATOM      7  C   UNL     1       1.793  -1.207   1.366  0.00  0.00    +0.010 C 
ATOM      8  C   UNL     1       0.452  -1.065   1.746  0.00  0.00    +0.016 C 
ATOM      9  C   UNL     1      -2.216  -0.055  -0.311  0.00  0.00    +0.229 C 
ATOM     10  H   UNL     1      -1.224   0.243  -2.142  0.00  0.00    +0.150 HD
ATOM     11  H   UNL     1      -2.393  -0.541   1.690  0.00  0.00    +0.150 HD
ENDROOT
BRANCH   9  13
ATOM     12  O   UNL     1      -4.811   0.017   1.202  0.00  0.00    -0.226 OA
ATOM     13  N   UNL     1      -3.481   0.276  -0.720  0.00  0.00    -0.240 N 
ATOM     14  C   UNL     1      -4.681   0.299   0.017  0.00  0.00    +0.404 C 
ATOM     15  H   UNL     1      -3.563   0.535  -1.666  0.00  0.00    +0.156 HD
BRANCH  14  16
ATOM     16  O   UNL     1      -5.719   0.691  -0.786  0.00  0.00    -0.431 OA
ATOM     17  C   UNL     1      -7.006   0.758  -0.162  0.00  0.00    +0.257 C 
ENDBRANCH  14  16
ENDBRANCH   9  13
BRANCH   3  18
ATOM     18  S   UNL     1       3.934  -1.136  -0.384  0.00  0.00    +0.065 S 
ATOM     19  O   UNL     1       3.982  -2.001  -1.603  0.00  0.00    -0.251 OA
BRANCH  18  20
ATOM     20  C   UNL     1       4.262   0.577  -0.906  0.00  0.00    +0.096 C 
BRANCH  20  21
ATOM     21  C   UNL     1       4.109   1.575   0.247  0.00  0.00    +0.014 C 
ATOM     22  C   UNL     1       5.066   1.200   1.382  0.00  0.00    +0.001 C 
ATOM     23  C   UNL     1       4.382   3.016  -0.193  0.00  0.00    +0.001 C 
ENDBRANCH  20  21
ENDBRANCH  18  20
ENDBRANCH   3  18
TORSDOF 5
