REMARK  Name = 12876462
REMARK  9 active torsions:
REMARK  status: ('A' for Active; 'I' for Inactive)
REMARK    1  A    between atoms: C_1  and  N_3
REMARK    2  A    between atoms: C_1  and  C_12
REMARK    3  A    between atoms: C_1  and  C_21
REMARK    4  A    between atoms: C_4  and  O_6
REMARK    5  A    between atoms: O_6  and  C_7
REMARK    6  A    between atoms: C_12  and  O_13
REMARK    7  A    between atoms: O_13  and  N_16
REMARK    8  A    between atoms: C_21  and  C_22
REMARK    9  A    between atoms: C_22  and  S_23
REMARK                            x       y       z     vdW  Elec       q    Type
REMARK                         _______ _______ _______ _____ _____    ______ ____
ROOT
ATOM      1  C   UNL     1      -0.253  -1.063   0.450  0.00  0.00    +0.177 C 
ENDROOT
BRANCH   1   3
ATOM      2  O   UNL     1      -1.875   1.232   1.185  0.00  0.00    -0.226 OA
ATOM      3  N   UNL     1      -1.444  -0.580  -0.200  0.00  0.00    -0.262 N 
ATOM      4  C   UNL     1      -2.156   0.527   0.221  0.00  0.00    +0.402 C 
ATOM      5  H   UNL     1      -1.770  -1.067  -0.991  0.00  0.00    +0.153 HD
BRANCH   4   6
ATOM      6  O   UNL     1      -3.231   0.726  -0.599  0.00  0.00    -0.442 OA
BRANCH   6   7
ATOM      7  C   UNL     1      -4.062   1.847  -0.277  0.00  0.00    +0.138 C 
ATOM      8  C   UNL     1      -3.215   3.117  -0.346  0.00  0.00    +0.044 C 
ATOM      9  C   UNL     1      -5.188   1.896  -1.308  0.00  0.00    +0.044 C 
ATOM     10  C   UNL     1      -4.628   1.645   1.128  0.00  0.00    +0.044 C 
ENDBRANCH   6   7
ENDBRANCH   4   6
ENDBRANCH   1   3
BRANCH   1  12
ATOM     11  O   UNL     1       0.980   0.057  -1.324  0.00  0.00    -0.246 OA
ATOM     12  C   UNL     1       0.908  -0.297  -0.154  0.00  0.00    +0.358 C 
BRANCH  12  13
ATOM     13  O   UNL     1       1.870  -0.115   0.800  0.00  0.00    -0.334 OA
BRANCH  13  16
ATOM     14  O   UNL     1       2.228   2.734   0.811  0.00  0.00    -0.267 OA
ATOM     15  O   UNL     1       4.271  -1.246  -0.297  0.00  0.00    -0.267 OA
ATOM     16  N   UNL     1       2.977   0.596   0.287  0.00  0.00    -0.054 N 
ATOM     17  C   UNL     1       4.330   2.346  -0.325  0.00  0.00    +0.066 C 
ATOM     18  C   UNL     1       5.008   1.025  -0.693  0.00  0.00    +0.066 C 
ATOM     19  C   UNL     1       3.039   1.952   0.340  0.00  0.00    +0.287 C 
ATOM     20  C   UNL     1       4.064  -0.045  -0.216  0.00  0.00    +0.287 C 
ENDBRANCH  13  16
ENDBRANCH  12  13
ENDBRANCH   1  12
BRANCH   1  21
ATOM     21  C   UNL     1      -0.051  -2.568   0.262  0.00  0.00    +0.043 C 
BRANCH  21  22
ATOM     22  C   UNL     1      -1.217  -3.376   0.829  0.00  0.00    +0.060 C 
BRANCH  22  23
ATOM     23  S   UNL     1      -0.944  -5.155   0.585  0.00  0.00    -0.139 S 
ATOM     24  C   UNL     1      -1.409  -5.255  -1.158  0.00  0.00    +0.069 C 
ENDBRANCH  22  23
ENDBRANCH  21  22
ENDBRANCH   1  21
TORSDOF 9
