REMARK  Name = 128746
REMARK  7 active torsions:
REMARK  status: ('A' for Active; 'I' for Inactive)
REMARK    1  A    between atoms: C_2  and  O_7
REMARK    2  A    between atoms: C_3  and  O_9
REMARK    3  A    between atoms: C_4  and  O_11
REMARK    4  A    between atoms: C_5  and  O_17
REMARK    5  A    between atoms: C_6  and  C_14
REMARK    6  A    between atoms: C_14  and  O_15
REMARK    7  A    between atoms: O_17  and  C_20
REMARK                            x       y       z     vdW  Elec       q    Type
REMARK                         _______ _______ _______ _____ _____    ______ ____
ROOT
ATOM      1  O   UNL     1       1.941   0.495   0.633  0.00  0.00    -0.307 OA
ATOM      2  C   UNL     1       3.925  -1.406  -0.260  0.00  0.00    +0.173 C 
ATOM      3  C   UNL     1       2.864  -1.770   0.788  0.00  0.00    +0.210 C 
ATOM      4  C   UNL     1       4.141   0.109  -0.344  0.00  0.00    +0.178 C 
ATOM      5  C   UNL     1       1.606  -0.896   0.682  0.00  0.00    +0.318 C 
ATOM      6  C   UNL     1       2.797   0.830  -0.452  0.00  0.00    +0.246 C 
ENDROOT
BRANCH   2   7
ATOM      7  O   UNL     1       3.499  -1.896  -1.529  0.00  0.00    -0.379 OA
ATOM      8  H   UNL     1       3.363  -2.855  -1.476  0.00  0.00    +0.211 HD
ENDBRANCH   2   7
BRANCH   3   9
ATOM      9  O   UNL     1       3.434  -1.607   2.086  0.00  0.00    -0.377 OA
ATOM     10  H   UNL     1       4.230  -2.157   2.161  0.00  0.00    +0.211 HD
ENDBRANCH   3   9
BRANCH   4  11
ATOM     11  O   UNL     1       4.826   0.553   0.827  0.00  0.00    -0.379 OA
ATOM     12  H   UNL     1       5.679   0.096   0.895  0.00  0.00    +0.211 HD
ENDBRANCH   4  11
BRANCH   6  14
ATOM     13  O   UNL     1       2.499   3.039   0.474  0.00  0.00    -0.247 OA
ATOM     14  C   UNL     1       2.969   2.314  -0.390  0.00  0.00    +0.344 C 
BRANCH  14  15
ATOM     15  O   UNL     1       3.719   2.754  -1.430  0.00  0.00    -0.478 OA
ATOM     16  H   UNL     1       4.050   2.144  -2.059  0.00  0.00    +0.295 HD
ENDBRANCH  14  15
ENDBRANCH   6  14
BRANCH   5  17
ATOM     17  O   UNL     1       0.832  -1.303  -0.443  0.00  0.00    -0.450 OA
BRANCH  17  20
ATOM     18  O   UNL     1      -2.932   1.570   0.150  0.00  0.00    -0.421 OA
ATOM     19  O   UNL     1      -4.725   2.960   0.435  0.00  0.00    -0.244 OA
ATOM     20  C   UNL     1      -0.524  -1.143  -0.345  0.00  0.00    +0.144 C 
ATOM     21  C   UNL     1      -1.057   0.122  -0.147  0.00  0.00    +0.075 C 
ATOM     22  C   UNL     1      -1.359  -2.249  -0.445  0.00  0.00    +0.037 C 
ATOM     23  C   UNL     1      -3.311  -0.825  -0.146  0.00  0.00    +0.031 C 
ATOM     24  C   UNL     1      -2.443   0.263  -0.051  0.00  0.00    +0.151 C 
ATOM     25  C   UNL     1      -2.747  -2.092  -0.346  0.00  0.00    +0.006 C 
ATOM     26  C   UNL     1      -4.756  -0.584  -0.033  0.00  0.00    -0.012 C 
ATOM     27  C   UNL     1      -5.192   0.669   0.158  0.00  0.00    +0.078 C 
ATOM     28  C   UNL     1      -5.716  -1.734  -0.132  0.00  0.00    +0.031 C 
ATOM     29  C   UNL     1      -4.289   1.827   0.260  0.00  0.00    +0.346 C 
ENDBRANCH  17  20
ENDBRANCH   5  17
TORSDOF 7
