REMARK  Name = 128715
REMARK  7 active torsions:
REMARK  status: ('A' for Active; 'I' for Inactive)
REMARK    1  A    between atoms: C_2  and  C_7
REMARK    2  A    between atoms: C_3  and  C_15
REMARK    3  A    between atoms: C_7  and  O_8
REMARK    4  A    between atoms: O_8  and  C_11
REMARK    5  A    between atoms: N_10  and  N_14
REMARK    6  A    between atoms: C_15  and  O_16
REMARK    7  A    between atoms: O_16  and  C_19
REMARK                            x       y       z     vdW  Elec       q    Type
REMARK                         _______ _______ _______ _____ _____    ______ ____
ROOT
ATOM      1  N   UNL     1       0.548  -1.206   0.656  0.00  0.00    -0.407 NA
ATOM      2  C   UNL     1      -0.556  -1.792   0.150  0.00  0.00    +0.152 C 
ATOM      3  C   UNL     1       1.714  -1.508   0.042  0.00  0.00    +0.135 C 
ATOM      4  C   UNL     1      -0.563  -2.657  -0.927  0.00  0.00    +0.027 C 
ATOM      5  C   UNL     1       1.821  -2.362  -1.044  0.00  0.00    +0.084 C 
ATOM      6  C   UNL     1       0.656  -2.943  -1.532  0.00  0.00    -0.016 C 
ENDROOT
BRANCH   2   7
ATOM      7  C   UNL     1      -1.853  -1.461   0.827  0.00  0.00    +0.268 C 
BRANCH   7   8
ATOM      8  O   UNL     1      -2.429  -0.309   0.198  0.00  0.00    -0.426 OA
BRANCH   8  11
ATOM      9  O   UNL     1      -4.194  -0.432   1.650  0.00  0.00    -0.225 OA
ATOM     10  N   UNL     1      -4.123   1.245   0.047  0.00  0.00    -0.144 N 
ATOM     11  C   UNL     1      -3.627   0.121   0.709  0.00  0.00    +0.422 C 
ATOM     12  C   UNL     1      -5.380   1.872   0.423  0.00  0.00    +0.142 C 
BRANCH  10  14
ATOM     13  O   UNL     1      -3.857   2.806  -1.596  0.00  0.00    -0.078 OA
ATOM     14  N   UNL     1      -3.332   1.815  -1.078  0.00  0.00    +0.056 NA
ENDBRANCH  10  14
ENDBRANCH   8  11
ENDBRANCH   7   8
ENDBRANCH   2   7
BRANCH   3  15
ATOM     15  C   UNL     1       2.944  -0.866   0.592  0.00  0.00    +0.264 C 
BRANCH  15  16
ATOM     16  O   UNL     1       3.163   0.375  -0.067  0.00  0.00    -0.427 OA
BRANCH  16  19
ATOM     17  O   UNL     1       5.045   0.718   1.203  0.00  0.00    -0.226 OA
ATOM     18  N   UNL     1       4.354   2.261  -0.385  0.00  0.00    -0.269 N 
ATOM     19  C   UNL     1       4.264   1.087   0.333  0.00  0.00    +0.402 C 
ATOM     20  C   UNL     1       5.405   3.236  -0.201  0.00  0.00    +0.114 C 
ATOM     21  H   UNL     1       3.662   2.447  -1.061  0.00  0.00    +0.153 HD
ENDBRANCH  16  19
ENDBRANCH  15  16
ENDBRANCH   3  15
TORSDOF 7
