128742
  -OEChem-03292013323D

 37 38  0     1  0  0  0  0  0999 V2000
    3.9338   -1.1361   -0.3837 S   0  0  1  0  0  0  0  0  0  0  0  0
    3.9822   -2.0009   -1.6028 O   0  0  0  0  0  0  0  0  0  0  0  0
   -5.7187    0.6907   -0.7862 O   0  0  0  0  0  0  0  0  0  0  0  0
   -4.8112    0.0165    1.2018 O   0  0  0  0  0  0  0  0  0  0  0  0
   -1.1715   -0.0129   -1.1924 N   0  0  0  0  0  0  0  0  0  0  0  0
   -1.8321   -0.4339    0.8877 N   0  0  0  0  0  0  0  0  0  0  0  0
   -3.4812    0.2762   -0.7199 N   0  0  0  0  0  0  0  0  0  0  0  0
    4.1088    1.5753    0.2470 C   0  0  0  0  0  0  0  0  0  0  0  0
    4.2620    0.5774   -0.9064 C   0  0  0  0  0  0  0  0  0  0  0  0
    2.1617   -0.9364    0.0684 C   0  0  0  0  0  0  0  0  0  0  0  0
    5.0663    1.2004    1.3817 C   0  0  0  0  0  0  0  0  0  0  0  0
    4.3817    3.0160   -0.1933 C   0  0  0  0  0  0  0  0  0  0  0  0
   -0.0387   -0.3904   -0.5180 C   0  0  0  0  0  0  0  0  0  0  0  0
    1.2912   -0.5249   -0.9180 C   0  0  0  0  0  0  0  0  0  0  0  0
   -0.4773   -0.6479    0.7780 C   0  0  0  0  0  0  0  0  0  0  0  0
    1.7932   -1.2066    1.3664 C   0  0  0  0  0  0  0  0  0  0  0  0
    0.4524   -1.0649    1.7455 C   0  0  0  0  0  0  0  0  0  0  0  0
   -2.2156   -0.0547   -0.3108 C   0  0  0  0  0  0  0  0  0  0  0  0
   -4.6809    0.2994    0.0171 C   0  0  0  0  0  0  0  0  0  0  0  0
   -7.0062    0.7577   -0.1622 C   0  0  0  0  0  0  0  0  0  0  0  0
    3.0866    1.5501    0.6410 H   0  0  0  0  0  0  0  0  0  0  0  0
    3.6032    0.8363   -1.7407 H   0  0  0  0  0  0  0  0  0  0  0  0
    5.2876    0.5939   -1.2926 H   0  0  0  0  0  0  0  0  0  0  0  0
    6.0987    1.1181    1.0243 H   0  0  0  0  0  0  0  0  0  0  0  0
    5.0492    1.9671    2.1649 H   0  0  0  0  0  0  0  0  0  0  0  0
    4.7933    0.2588    1.8666 H   0  0  0  0  0  0  0  0  0  0  0  0
    5.4046    3.1290   -0.5682 H   0  0  0  0  0  0  0  0  0  0  0  0
    4.2450    3.7132    0.6400 H   0  0  0  0  0  0  0  0  0  0  0  0
    3.6936    3.3097   -0.9929 H   0  0  0  0  0  0  0  0  0  0  0  0
    1.5893   -0.3272   -1.9403 H   0  0  0  0  0  0  0  0  0  0  0  0
    2.5192   -1.5279    2.1081 H   0  0  0  0  0  0  0  0  0  0  0  0
    0.1440   -1.2735    2.7650 H   0  0  0  0  0  0  0  0  0  0  0  0
   -1.2252    0.2493   -2.1675 H   0  0  0  0  0  0  0  0  0  0  0  0
   -3.5667    0.5441   -1.6976 H   0  0  0  0  0  0  0  0  0  0  0  0
   -6.9947    1.4891    0.6514 H   0  0  0  0  0  0  0  0  0  0  0  0
   -7.2993   -0.2294    0.2076 H   0  0  0  0  0  0  0  0  0  0  0  0
   -7.7313    1.0803   -0.9140 H   0  0  0  0  0  0  0  0  0  0  0  0
  1  2  2  0  0  0  0
  1  9  1  0  0  0  0
  1 10  1  0  0  0  0
  3 19  1  0  0  0  0
  3 20  1  0  0  0  0
  4 19  2  0  0  0  0
  5 13  1  0  0  0  0
  5 18  1  0  0  0  0
  5 33  1  0  0  0  0
  6 15  1  0  0  0  0
  6 18  2  0  0  0  0
  7 18  1  0  0  0  0
  7 19  1  0  0  0  0
  7 34  1  0  0  0  0
  8  9  1  0  0  0  0
  8 11  1  0  0  0  0
  8 12  1  0  0  0  0
  8 21  1  0  0  0  0
  9 22  1  0  0  0  0
  9 23  1  0  0  0  0
 10 14  2  0  0  0  0
 10 16  1  0  0  0  0
 11 24  1  0  0  0  0
 11 25  1  0  0  0  0
 11 26  1  0  0  0  0
 12 27  1  0  0  0  0
 12 28  1  0  0  0  0
 12 29  1  0  0  0  0
 13 14  1  0  0  0  0
 13 15  2  0  0  0  0
 14 30  1  0  0  0  0
 15 17  1  0  0  0  0
 16 17  2  0  0  0  0
 16 31  1  0  0  0  0
 17 32  1  0  0  0  0
 20 35  1  0  0  0  0
 20 36  1  0  0  0  0
 20 37  1  0  0  0  0
M  END
> <PUBCHEM_COMPOUND_CID>
128742

> <PUBCHEM_CONFORMER_RMSD>
0.8

> <PUBCHEM_CONFORMER_DIVERSEORDER>
1
23
22
9
2
17
5
20
21
3
6
14
18
16
12
19
4
11
24
15
13
8
7
10

> <PUBCHEM_MMFF94_PARTIAL_CHARGES>
22
1 0.24
10 0.06
13 -0.15
14 -0.15
15 0.23
16 -0.15
17 -0.15
18 0.25
19 0.78
2 -0.5
20 0.28
3 -0.43
30 0.15
31 0.15
32 0.15
33 0.27
34 0.37
4 -0.57
5 0.03
6 -0.57
7 -0.49
9 0.19

> <PUBCHEM_EFFECTIVE_ROTOR_COUNT>
6

> <PUBCHEM_PHARMACOPHORE_FEATURES>
7
1 2 acceptor
1 4 acceptor
1 5 donor
1 7 donor
3 8 11 12 hydrophobe
5 5 6 13 15 18 rings
6 10 13 14 15 16 17 rings

> <PUBCHEM_HEAVY_ATOM_COUNT>
20

> <PUBCHEM_ATOM_DEF_STEREO_COUNT>
0

> <PUBCHEM_ATOM_UDEF_STEREO_COUNT>
1

> <PUBCHEM_BOND_DEF_STEREO_COUNT>
0

> <PUBCHEM_BOND_UDEF_STEREO_COUNT>
0

> <PUBCHEM_ISOTOPIC_ATOM_COUNT>
0

> <PUBCHEM_COMPONENT_COUNT>
1

> <PUBCHEM_CACTVS_TAUTO_COUNT>
5

> <PUBCHEM_CONFORMER_ID>
0001F6E600000001

> <PUBCHEM_MMFF94_ENERGY>
37.9473

> <PUBCHEM_FEATURE_SELFOVERLAP>
35.666

> <PUBCHEM_SHAPE_FINGERPRINT>
11287383 113 18413390951338272111
11543360 7 18202561808625676030
11719270 70 15574711383585087779
11796584 16 11241973655120454945
11858739 19 10303815380495683601
12403259 415 17240472603298203798
12730499 353 18260838076523665978
12839892 36 15502373456509439185
13533116 47 17895751790525048402
13955234 65 18261106310290471602
14211702 104 10087054385721870997
14251757 52 18271806792518464425
14366163 111 18131067143002769536
15183329 4 15267347318839902777
15342168 16 18339080518426392036
16079462 125 17313653889925326317
17349148 13 15068622690530742131
17844677 252 18270405984027613109
17959699 21 18342459231242327848
1813 80 12607409905373204946
18222031 100 12535628284142272419
18785283 64 17387987605533808325
20645477 56 18259985998003633622
20871999 31 14261366772782667282
21150785 3 16128368316036091185
21285901 2 13110975218582758640
21452121 103 17894900798494500834
21475661 188 18116712005412307232
22079108 93 18040996267326262955
23081809 10 17132113516536430527
23402539 116 12829491459196718863
23522609 53 16199890443848220187
23559900 14 17676217870643766486
270888 7 18122342647845956884
2916195 48 18187081793124170673
300161 21 17748820801121641815
3004659 81 16558475193127579566
34797466 226 18413673504757618391
4072396 5 15647048261633661275
4340502 62 17676486146747795491
474 4 18410576232063191688
495365 180 18334294267201829042
5104073 3 16806721777638579169
5374978 207 15213018245697745054
58807428 26 16588294025644892314
7164475 11 16701192858985161658
960060 61 16343704339525174940

> <PUBCHEM_SHAPE_MULTIPOLES>
382.89
13.89
1.85
1.4
19.88
1.04
-0.19
7.39
0.56
-3.51
-0.02
-0.88
-0.43
1.1

> <PUBCHEM_SHAPE_SELFOVERLAP>
786.932

> <PUBCHEM_SHAPE_VOLUME>
224

> <PUBCHEM_COORDINATE_TYPE>
2
5
10

$$$$
