REMARK  Name = 128772
REMARK  7 active torsions:
REMARK  status: ('A' for Active; 'I' for Inactive)
REMARK    1  A    between atoms: C_1  and  C_9
REMARK    2  A    between atoms: C_3  and  O_26
REMARK    3  A    between atoms: C_4  and  S_20
REMARK    4  A    between atoms: N_8  and  C_11
REMARK    5  A    between atoms: C_11  and  C_14
REMARK    6  A    between atoms: N_13  and  C_18
REMARK    7  A    between atoms: S_20  and  N_23
REMARK                            x       y       z     vdW  Elec       q    Type
REMARK                         _______ _______ _______ _____ _____    ______ ____
ROOT
ATOM      1  C   UNL     1      -1.265   0.313  -0.004  0.00  0.00    +0.089 C 
ATOM      2  C   UNL     1      -2.582   0.725   0.044  0.00  0.00    +0.027 C 
ATOM      3  C   UNL     1      -0.913  -1.022   0.008  0.00  0.00    +0.143 C 
ATOM      4  C   UNL     1      -3.588  -0.238   0.108  0.00  0.00    +0.122 C 
ATOM      5  C   UNL     1      -1.920  -1.985   0.072  0.00  0.00    +0.038 C 
ATOM      6  C   UNL     1      -3.257  -1.593   0.122  0.00  0.00    +0.023 C 
ENDROOT
BRANCH   1   9
ATOM      7  O   UNL     1      -0.461   2.433  -0.601  0.00  0.00    -0.270 OA
ATOM      8  N   UNL     1       1.017   1.030   0.507  0.00  0.00    -0.299 N 
ATOM      9  C   UNL     1      -0.208   1.355  -0.071  0.00  0.00    +0.249 C 
ATOM     10  H   UNL     1       1.126   0.137   0.909  0.00  0.00    +0.150 HD
BRANCH   8  11
ATOM     11  C   UNL     1       2.124   1.937   0.544  0.00  0.00    +0.109 C 
BRANCH  11  14
ATOM     12  O   UNL     1       4.740  -1.871  -0.617  0.00  0.00    -0.275 OA
ATOM     13  N   UNL     1       3.779   0.070   0.313  0.00  0.00    -0.279 N 
ATOM     14  C   UNL     1       3.330   1.359  -0.182  0.00  0.00    +0.095 C 
ATOM     15  C   UNL     1       3.033   1.065  -1.648  0.00  0.00    +0.031 C 
ATOM     16  C   UNL     1       4.043  -0.016  -2.010  0.00  0.00    +0.087 C 
ATOM     17  C   UNL     1       4.233  -0.763  -0.712  0.00  0.00    +0.226 C 
BRANCH  13  18
ATOM     18  C   UNL     1       3.925  -0.220   1.726  0.00  0.00    +0.093 C 
ATOM     19  C   UNL     1       5.223   0.335   2.275  0.00  0.00    +0.023 C 
ENDBRANCH  13  18
ENDBRANCH  11  14
ENDBRANCH   8  11
ENDBRANCH   1   9
BRANCH   4  20
ATOM     20  S   UNL     1      -5.263   0.251   0.171  0.00  0.00    +0.057 S 
ATOM     21  O   UNL     1      -6.031  -0.817   0.795  0.00  0.00    -0.153 OA
ATOM     22  O   UNL     1      -5.330   1.602   0.712  0.00  0.00    -0.153 OA
BRANCH  20  23
ATOM     23  N   UNL     1      -5.649   0.308  -1.492  0.00  0.00    -0.203 NA
ATOM     24  H   UNL     1      -6.623   0.587  -1.607  0.00  0.00    +0.144 HD
ATOM     25  H   UNL     1      -5.509  -0.615  -1.905  0.00  0.00    +0.144 HD
ENDBRANCH  20  23
ENDBRANCH   4  20
BRANCH   3  26
ATOM     26  O   UNL     1       0.388  -1.425  -0.040  0.00  0.00    -0.471 OA
ATOM     27  C   UNL     1       0.632  -2.830  -0.021  0.00  0.00    +0.252 C 
ENDBRANCH   3  26
TORSDOF 7
