128726
  -OEChem-03292013323D

 41 41  0     1  0  0  0  0  0999 V2000
   -0.7347    0.3003   -1.3891 O   0  0  0  0  0  0  0  0  0  0  0  0
   -7.9355    0.1598    0.8989 O   0  5  0  0  0  0  0  0  0  0  0  0
   -7.4343    1.5964   -0.6834 O   0  0  0  0  0  0  0  0  0  0  0  0
    6.0050   -1.2988    0.3127 O   0  5  0  0  0  0  0  0  0  0  0  0
    8.1836   -1.1144    0.0605 O   0  0  0  0  0  0  0  0  0  0  0  0
    0.6238   -2.5047   -1.0955 N   0  0  0  0  0  0  0  0  0  0  0  0
   -1.7622   -1.0611    0.2230 N   0  0  0  0  0  0  0  0  0  0  0  0
    4.4804    0.6775    0.3224 N   0  0  0  0  0  0  0  0  0  0  0  0
    6.8529    0.7063    0.0612 N   0  0  0  0  0  0  0  0  0  0  0  0
   -7.1071    0.6887    0.1187 N   0  3  0  0  0  0  0  0  0  0  0  0
    5.7347    2.6835    0.0291 N   0  0  0  0  0  0  0  0  0  0  0  0
    7.0429   -0.6494    0.1476 N   0  3  0  0  0  0  0  0  0  0  0  0
    1.8439   -0.4674   -0.4621 C   0  0  0  0  0  0  0  0  0  0  0  0
    0.5976   -1.3319   -0.2191 C   0  0  1  0  0  0  0  0  0  0  0  0
    2.0590    0.5573    0.6605 C   0  0  0  0  0  0  0  0  0  0  0  0
    3.2518    1.4701    0.3946 C   0  0  0  0  0  0  0  0  0  0  0  0
   -0.7024   -0.5973   -0.5514 C   0  0  0  0  0  0  0  0  0  0  0  0
   -3.1076   -0.6222    0.1953 C   0  0  0  0  0  0  0  0  0  0  0  0
   -4.0460   -1.1953    1.0537 C   0  0  0  0  0  0  0  0  0  0  0  0
   -3.4946    0.3854   -0.6882 C   0  0  0  0  0  0  0  0  0  0  0  0
   -5.3712   -0.7609    1.0285 C   0  0  0  0  0  0  0  0  0  0  0  0
   -4.8198    0.8198   -0.7136 C   0  0  0  0  0  0  0  0  0  0  0  0
   -5.7581    0.2466    0.1448 C   0  0  0  0  0  0  0  0  0  0  0  0
    5.5978    1.3118    0.1510 C   0  0  0  0  0  0  0  0  0  0  0  0
    1.7828    0.0476   -1.4291 H   0  0  0  0  0  0  0  0  0  0  0  0
    2.7278   -1.1171   -0.5092 H   0  0  0  0  0  0  0  0  0  0  0  0
    0.5872   -1.6709    0.8234 H   0  0  0  0  0  0  0  0  0  0  0  0
    2.2071    0.0283    1.6102 H   0  0  0  0  0  0  0  0  0  0  0  0
    1.1618    1.1772    0.7725 H   0  0  0  0  0  0  0  0  0  0  0  0
    3.0897    2.0135   -0.5441 H   0  0  0  0  0  0  0  0  0  0  0  0
    3.3148    2.1971    1.2132 H   0  0  0  0  0  0  0  0  0  0  0  0
    1.4713   -3.0437   -0.9208 H   0  0  0  0  0  0  0  0  0  0  0  0
   -0.1545   -3.1214   -0.8639 H   0  0  0  0  0  0  0  0  0  0  0  0
   -1.5687   -1.8071    0.8875 H   0  0  0  0  0  0  0  0  0  0  0  0
   -3.7570   -1.9808    1.7473 H   0  0  0  0  0  0  0  0  0  0  0  0
   -2.8284    0.8750   -1.3842 H   0  0  0  0  0  0  0  0  0  0  0  0
   -6.0747   -1.2301    1.7116 H   0  0  0  0  0  0  0  0  0  0  0  0
   -5.0867    1.6062   -1.4152 H   0  0  0  0  0  0  0  0  0  0  0  0
    7.6435    1.3318   -0.0742 H   0  0  0  0  0  0  0  0  0  0  0  0
    6.6450    3.1110   -0.1030 H   0  0  0  0  0  0  0  0  0  0  0  0
    4.9406    3.3125    0.0630 H   0  0  0  0  0  0  0  0  0  0  0  0
  1 17  2  0  0  0  0
  2 10  1  0  0  0  0
  3 10  2  0  0  0  0
  4 12  1  0  0  0  0
  5 12  2  0  0  0  0
  6 14  1  0  0  0  0
  6 32  1  0  0  0  0
  6 33  1  0  0  0  0
  7 17  1  0  0  0  0
  7 18  1  0  0  0  0
  7 34  1  0  0  0  0
  8 16  1  0  0  0  0
  8 24  2  0  0  0  0
  9 12  1  0  0  0  0
  9 24  1  0  0  0  0
  9 39  1  0  0  0  0
 10 23  1  0  0  0  0
 11 24  1  0  0  0  0
 11 40  1  0  0  0  0
 11 41  1  0  0  0  0
 13 14  1  0  0  0  0
 13 15  1  0  0  0  0
 13 25  1  0  0  0  0
 13 26  1  0  0  0  0
 14 17  1  0  0  0  0
 14 27  1  0  0  0  0
 15 16  1  0  0  0  0
 15 28  1  0  0  0  0
 15 29  1  0  0  0  0
 16 30  1  0  0  0  0
 16 31  1  0  0  0  0
 18 19  2  0  0  0  0
 18 20  1  0  0  0  0
 19 21  1  0  0  0  0
 19 35  1  0  0  0  0
 20 22  2  0  0  0  0
 20 36  1  0  0  0  0
 21 23  2  0  0  0  0
 21 37  1  0  0  0  0
 22 23  1  0  0  0  0
 22 38  1  0  0  0  0
M  CHG  4   2  -1   4  -1  10   1  12   1
M  END
> <PUBCHEM_COMPOUND_CID>
128726

> <PUBCHEM_CONFORMER_RMSD>
1

> <PUBCHEM_CONFORMER_DIVERSEORDER>
1
63
13
38
42
56
48
92
29
69
62
81
7
58
79
4
51
89
30
70
25
17
5
87
9
27
73
2
83
77
33
52
72
65
54
39
22
60
12
18
74
43
24
84
23
6
36
41
67
35
64
16
68
57
59
90
46
8
49
40
20
61
50
93
45
47
15
26
55
66
28
71
3
88
34
14
10
37
44
21
11
85
82
53
75
19
80
76
31
78
86
91
32

> <PUBCHEM_MMFF94_PARTIAL_CHARGES>
32
1 -0.57
10 0.91
11 -0.85
12 1.04
14 0.33
16 0.25
17 0.57
18 0.12
19 -0.15
2 -0.52
20 -0.15
21 -0.15
22 -0.15
23 0.13
24 0.55
3 -0.52
32 0.36
33 0.36
34 0.37
35 0.15
36 0.15
37 0.15
38 0.15
39 0.4
4 -0.52
40 0.4
41 0.4
5 -0.52
6 -0.99
7 -0.55
8 -0.7
9 -0.45

> <PUBCHEM_EFFECTIVE_ROTOR_COUNT>
10

> <PUBCHEM_PHARMACOPHORE_FEATURES>
13
1 1 acceptor
1 11 donor
1 2 acceptor
1 2 anion
1 3 acceptor
1 4 acceptor
1 5 acceptor
1 6 cation
1 6 donor
1 7 donor
1 9 donor
4 8 9 11 24 cation
6 18 19 20 21 22 23 rings

> <PUBCHEM_HEAVY_ATOM_COUNT>
24

> <PUBCHEM_ATOM_DEF_STEREO_COUNT>
1

> <PUBCHEM_ATOM_UDEF_STEREO_COUNT>
0

> <PUBCHEM_BOND_DEF_STEREO_COUNT>
0

> <PUBCHEM_BOND_UDEF_STEREO_COUNT>
0

> <PUBCHEM_ISOTOPIC_ATOM_COUNT>
0

> <PUBCHEM_COMPONENT_COUNT>
1

> <PUBCHEM_CACTVS_TAUTO_COUNT>
6

> <PUBCHEM_CONFORMER_ID>
0001F6D600000001

> <PUBCHEM_MMFF94_ENERGY>
65.9261

> <PUBCHEM_FEATURE_SELFOVERLAP>
66.192

> <PUBCHEM_SHAPE_FINGERPRINT>
10 15 18187368757184993729
10299344 5 15864069867103786090
10670039 82 14405193842015915683
12516196 113 11314306157182513966
13533116 47 16988567875784871798
14123256 10 13830132793547031853
14216079 64 17917717843527866110
14251764 18 12396298153880849797
14341114 176 18186519925481441380
14933364 13 18187365450018049264
15183329 4 15554455110525412260
15301273 46 17821727225792347590
15461852 350 18335696179293027655
15716309 27 11674873403204328505
1577012 14 18200590419048145284
17492 89 10666595926803946664
18335252 114 18272362075063738125
20281389 69 18408039628151096672
21033648 29 18268981158639390480
21049683 271 8502364542958696246
21095086 128 15430033241418975194
21150785 3 12103843457996853070
21403212 168 18201717336851934270
22224240 67 18260265278705853499
22956985 138 13625741197248084008
23559900 14 17968955080522959087
2838139 119 17632857533947909729
28498 318 18342740689872320174
3009799 131 11959731581699374590
4073 2 17822578316902535914
5104073 3 18041286444703093179
59755656 520 18410567418437275407

> <PUBCHEM_SHAPE_MULTIPOLES>
429.7
23.86
1.83
0.94
9.46
0.13
-0.05
6.04
3.63
1.98
-0.19
-0.91
-0.12
1.06

> <PUBCHEM_SHAPE_SELFOVERLAP>
878.162

> <PUBCHEM_SHAPE_VOLUME>
247

> <PUBCHEM_COORDINATE_TYPE>
2
5
10

$$$$
