REMARK  Name = 128753
REMARK  6 active torsions:
REMARK  status: ('A' for Active; 'I' for Inactive)
REMARK    1  A    between atoms: C_2  and  C_9
REMARK    2  A    between atoms: C_3  and  C_19
REMARK    3  A    between atoms: C_4  and  C_23
REMARK    4  A    between atoms: C_10  and  N_17
REMARK    5  A    between atoms: C_19  and  O_20
REMARK    6  A    between atoms: C_23  and  O_24
REMARK                            x       y       z     vdW  Elec       q    Type
REMARK                         _______ _______ _______ _____ _____    ______ ____
ROOT
ATOM      1  N   UNL     1      -0.005   3.223  -0.036  0.00  0.00    -0.414 NA
ATOM      2  C   UNL     1       0.000   0.460   0.396  0.00  0.00    +0.004 C 
ATOM      3  C   UNL     1       1.201   1.154   0.287  0.00  0.00    +0.098 C 
ATOM      4  C   UNL     1      -1.204   1.149   0.288  0.00  0.00    +0.169 C 
ATOM      5  C   UNL     1       1.145   2.521   0.074  0.00  0.00    +0.115 C 
ATOM      6  C   UNL     1      -1.153   2.517   0.074  0.00  0.00    +0.101 C 
ATOM      7  C   UNL     1       2.399   3.324  -0.051  0.00  0.00    +0.067 C 
ATOM      8  C   UNL     1      -2.411   3.314  -0.050  0.00  0.00    +0.062 C 
ENDROOT
BRANCH   2   9
ATOM      9  C   UNL     1       0.002  -0.974   0.619  0.00  0.00    +0.020 C 
ATOM     10  C   UNL     1       0.003  -1.877  -0.444  0.00  0.00    +0.143 C 
ATOM     11  C   UNL     1       0.004  -1.444   1.933  0.00  0.00    +0.001 C 
ATOM     12  C   UNL     1       0.005  -3.250  -0.194  0.00  0.00    +0.024 C 
ATOM     13  C   UNL     1       0.006  -2.816   2.183  0.00  0.00    +0.000 C 
ATOM     14  C   UNL     1       0.006  -3.719   1.120  0.00  0.00    +0.002 C 
BRANCH  10  17
ATOM     15  O   UNL     1       0.003  -2.292  -2.709  0.00  0.00    -0.126 OA
ATOM     16  O   UNL     1      -0.001  -0.202  -2.024  0.00  0.00    -0.126 OA
ATOM     17  N   UNL     1       0.002  -1.434  -1.798  0.00  0.00    +0.058 N 
ENDBRANCH  10  17
ENDBRANCH   2   9
BRANCH   3  19
ATOM     18  O   UNL     1       3.102   0.310   1.453  0.00  0.00    -0.245 OA
ATOM     19  C   UNL     1       2.489   0.475   0.393  0.00  0.00    +0.343 C 
BRANCH  19  20
ATOM     20  O   UNL     1       2.928   0.046  -0.827  0.00  0.00    -0.441 OA
ATOM     21  C   UNL     1       4.185  -0.638  -0.854  0.00  0.00    +0.256 C 
ENDBRANCH  19  20
ENDBRANCH   3  19
BRANCH   4  23
ATOM     22  O   UNL     1      -3.102   0.298   1.454  0.00  0.00    -0.249 OA
ATOM     23  C   UNL     1      -2.490   0.466   0.394  0.00  0.00    +0.327 C 
BRANCH  23  24
ATOM     24  O   UNL     1      -2.929   0.038  -0.827  0.00  0.00    -0.444 OA
ATOM     25  C   UNL     1      -4.185  -0.649  -0.853  0.00  0.00    +0.256 C 
ENDBRANCH  23  24
ENDBRANCH   4  23
TORSDOF 6
