REMARK  Name = 128777
REMARK  11 active torsions:
REMARK  status: ('A' for Active; 'I' for Inactive)
REMARK    1  A    between atoms: C_3  and  C_10
REMARK    2  A    between atoms: C_7  and  C_22
REMARK    3  A    between atoms: N_9  and  C_12
REMARK    4  A    between atoms: C_12  and  C_13
REMARK    5  A    between atoms: C_12  and  C_17
REMARK    6  A    between atoms: C_17  and  C_21
REMARK    7  A    between atoms: C_22  and  N_24
REMARK    8  A    between atoms: C_22  and  C_35
REMARK    9  A    between atoms: C_25  and  O_27
REMARK   10  A    between atoms: O_27  and  C_28
REMARK   11  A    between atoms: C_28  and  C_29
REMARK                            x       y       z     vdW  Elec       q    Type
REMARK                         _______ _______ _______ _____ _____    ______ ____
ROOT
ATOM      1  O   UNL     1      -0.080  -0.355  -1.238  0.00  0.00    -0.273 OA
ATOM      2  N   UNL     1       0.332  -0.927   0.966  0.00  0.00    -0.272 N 
ATOM      3  C   UNL     1       1.346   0.089   1.215  0.00  0.00    +0.152 C 
ATOM      4  C   UNL     1       1.491   0.127   2.732  0.00  0.00    +0.031 C 
ATOM      5  C   UNL     1       1.135  -1.295   3.159  0.00  0.00    +0.024 C 
ATOM      6  C   UNL     1       0.043  -1.691   2.177  0.00  0.00    +0.094 C 
ATOM      7  C   UNL     1      -0.354  -1.016  -0.236  0.00  0.00    +0.244 C 
ENDROOT
BRANCH   3  10
ATOM      8  O   UNL     1       2.869  -1.562   0.407  0.00  0.00    -0.273 OA
ATOM      9  N   UNL     1       3.405   0.689   0.150  0.00  0.00    -0.298 N 
ATOM     10  C   UNL     1       2.606  -0.370   0.547  0.00  0.00    +0.241 C 
ATOM     11  H   UNL     1       3.086   1.605   0.317  0.00  0.00    +0.150 HD
BRANCH   9  12
ATOM     12  C   UNL     1       4.685   0.514  -0.497  0.00  0.00    +0.138 C 
BRANCH  12  13
ATOM     13  C   UNL     1       4.596   0.463  -2.034  0.00  0.00    +0.025 C 
ATOM     14  C   UNL     1       3.679   1.570  -2.565  0.00  0.00    +0.002 C 
ATOM     15  C   UNL     1       4.134  -0.894  -2.574  0.00  0.00    +0.002 C 
ENDBRANCH  12  13
BRANCH  12  17
ATOM     16  O   UNL     1       5.192   2.762   0.241  0.00  0.00    -0.286 OA
ATOM     17  C   UNL     1       5.603   1.628  -0.006  0.00  0.00    +0.262 C 
BRANCH  17  21
ATOM     18  F   UNL     1       7.301  -0.029  -0.089  0.00  0.00    -0.163 F 
ATOM     19  F   UNL     1       7.433   1.465   1.491  0.00  0.00    -0.163 F 
ATOM     20  F   UNL     1       7.874   2.016  -0.572  0.00  0.00    -0.163 F 
ATOM     21  C   UNL     1       7.049   1.272   0.205  0.00  0.00    +0.453 C 
ENDBRANCH  17  21
ENDBRANCH  12  17
ENDBRANCH   9  12
ENDBRANCH   3  10
BRANCH   7  22
ATOM     22  C   UNL     1      -1.489  -2.009  -0.264  0.00  0.00    +0.151 C 
BRANCH  22  24
ATOM     23  O   UNL     1      -3.661  -1.550   1.609  0.00  0.00    -0.226 OA
ATOM     24  N   UNL     1      -2.631  -1.155  -0.434  0.00  0.00    -0.264 N 
ATOM     25  C   UNL     1      -3.625  -0.994   0.516  0.00  0.00    +0.402 C 
ATOM     26  H   UNL     1      -2.713  -0.654  -1.277  0.00  0.00    +0.153 HD
BRANCH  25  27
ATOM     27  O   UNL     1      -4.571  -0.120   0.058  0.00  0.00    -0.430 OA
BRANCH  27  28
ATOM     28  C   UNL     1      -5.663   0.139   0.947  0.00  0.00    +0.237 C 
BRANCH  28  29
ATOM     29  C   UNL     1      -6.603   1.111   0.296  0.00  0.00    +0.021 C 
ATOM     30  C   UNL     1      -6.426   2.482   0.481  0.00  0.00    -0.001 C 
ATOM     31  C   UNL     1      -7.654   0.644  -0.493  0.00  0.00    -0.001 C 
ATOM     32  C   UNL     1      -7.299   3.386  -0.124  0.00  0.00    -0.000 C 
ATOM     33  C   UNL     1      -8.528   1.548  -1.098  0.00  0.00    -0.000 C 
ATOM     34  C   UNL     1      -8.350   2.919  -0.913  0.00  0.00    -0.000 C 
ENDBRANCH  28  29
ENDBRANCH  27  28
ENDBRANCH  25  27
ENDBRANCH  22  24
BRANCH  22  35
ATOM     35  C   UNL     1      -1.323  -3.031  -1.393  0.00  0.00    +0.027 C 
ATOM     36  C   UNL     1      -2.500  -4.013  -1.418  0.00  0.00    +0.002 C 
ATOM     37  C   UNL     1      -0.015  -3.816  -1.246  0.00  0.00    +0.002 C 
ENDBRANCH  22  35
ENDBRANCH   7  22
TORSDOF 11
