REMARK  Name = 128752
REMARK  8 active torsions:
REMARK  status: ('A' for Active; 'I' for Inactive)
REMARK    1  A    between atoms: C_6  and  C_22
REMARK    2  A    between atoms: C_7  and  O_20
REMARK    3  A    between atoms: C_19  and  O_30
REMARK    4  A    between atoms: C_22  and  C_24
REMARK    5  A    between atoms: C_24  and  C_25
REMARK    6  A    between atoms: C_25  and  C_27
REMARK    7  A    between atoms: C_27  and  O_28
REMARK    8  A    between atoms: O_30  and  S_31
REMARK                            x       y       z     vdW  Elec       q    Type
REMARK                         _______ _______ _______ _____ _____    ______ ____
ROOT
ATOM      1  C   UNL     1      -1.954  -1.103  -0.526  0.00  0.00    +0.025 C 
ATOM      2  C   UNL     1      -1.179  -1.095   0.813  0.00  0.00    +0.002 C 
ATOM      3  C   UNL     1       0.172  -1.818   0.727  0.00  0.00    +0.000 C 
ATOM      4  C   UNL     1       1.052  -1.122  -0.361  0.00  0.00    +0.002 C 
ATOM      5  C   UNL     1       2.478  -1.783  -0.476  0.00  0.00    +0.000 C 
ATOM      6  C   UNL     1      -3.244  -0.378  -0.059  0.00  0.00    +0.002 C 
ATOM      7  C   UNL     1      -1.109  -0.367  -1.586  0.00  0.00    +0.110 C 
ATOM      8  C   UNL     1       0.297  -0.994  -1.716  0.00  0.00    +0.029 C 
ATOM      9  C   UNL     1       3.161  -1.796   0.933  0.00  0.00    +0.002 C 
ATOM     10  C   UNL     1      -2.208  -1.580   1.831  0.00  0.00    +0.000 C 
ATOM     11  C   UNL     1       0.879  -1.837   2.089  0.00  0.00    +0.000 C 
ATOM     12  C   UNL     1      -3.544  -1.013   1.319  0.00  0.00    +0.000 C 
ATOM     13  C   UNL     1       2.274  -2.450   2.005  0.00  0.00    +0.000 C 
ATOM     14  C   UNL     1       3.408  -1.024  -1.467  0.00  0.00    +0.003 C 
ATOM     15  C   UNL     1      -2.283  -2.529  -1.045  0.00  0.00    +0.002 C 
ATOM     16  C   UNL     1       3.604  -0.391   1.393  0.00  0.00    +0.032 C 
ATOM     17  C   UNL     1       2.377  -3.236  -1.011  0.00  0.00    +0.000 C 
ATOM     18  C   UNL     1       3.810   0.368  -0.998  0.00  0.00    +0.032 C 
ATOM     19  C   UNL     1       4.487   0.307   0.365  0.00  0.00    +0.147 C 
ENDROOT
BRANCH   7  20
ATOM     20  O   UNL     1      -0.962   1.010  -1.240  0.00  0.00    -0.384 OA
ATOM     21  H   UNL     1      -1.838   1.418  -1.156  0.00  0.00    +0.210 HD
ENDBRANCH   7  20
BRANCH   6  22
ATOM     22  C   UNL     1      -4.432  -0.431  -1.008  0.00  0.00    +0.001 C 
ATOM     23  C   UNL     1      -4.045   0.161  -2.368  0.00  0.00    +0.000 C 
BRANCH  22  24
ATOM     24  C   UNL     1      -5.643   0.293  -0.385  0.00  0.00    +0.012 C 
BRANCH  24  25
ATOM     25  C   UNL     1      -5.364   1.750  -0.010  0.00  0.00    +0.109 C 
BRANCH  25  27
ATOM     26  O   UNL     1      -7.617   1.844   0.909  0.00  0.00    -0.250 OA
ATOM     27  C   UNL     1      -6.553   2.395   0.665  0.00  0.00    +0.314 C 
BRANCH  27  28
ATOM     28  O   UNL     1      -6.303   3.695   0.973  0.00  0.00    -0.480 OA
ATOM     29  H   UNL     1      -5.472   4.074   0.767  0.00  0.00    +0.295 HD
ENDBRANCH  27  28
ENDBRANCH  25  27
ENDBRANCH  24  25
ENDBRANCH  22  24
ENDBRANCH   6  22
BRANCH  19  30
ATOM     30  O   UNL     1       4.760   1.628   0.823  0.00  0.00    -0.203 OA
BRANCH  30  31
ATOM     31  S   UNL     1       5.728   2.605  -0.058  0.00  0.00    +0.239 S 
ATOM     32  O   UNL     1       5.911   3.920   0.890  0.00  0.00    -0.022 OA
ATOM     33  O   UNL     1       7.023   1.958  -0.162  0.00  0.00    -0.116 OA
ATOM     34  O   UNL     1       5.020   3.015  -1.257  0.00  0.00    -0.116 OA
ENDBRANCH  30  31
ENDBRANCH  19  30
TORSDOF 8
