128752
  -OEChem-03292013323D

 72 75  0     1  0  0  0  0  0999 V2000
    5.7281    2.6053   -0.0584 S   0  0  0  0  0  0  0  0  0  0  0  0
   -0.9618    1.0104   -1.2405 O   0  0  0  0  0  0  0  0  0  0  0  0
    4.7604    1.6279    0.8226 O   0  0  0  0  0  0  0  0  0  0  0  0
    5.9109    3.9197    0.8903 O   0  0  0  0  0  0  0  0  0  0  0  0
    7.0226    1.9577   -0.1620 O   0  0  0  0  0  0  0  0  0  0  0  0
    5.0201    3.0150   -1.2569 O   0  0  0  0  0  0  0  0  0  0  0  0
   -6.3033    3.6948    0.9731 O   0  0  0  0  0  0  0  0  0  0  0  0
   -7.6174    1.8440    0.9086 O   0  0  0  0  0  0  0  0  0  0  0  0
   -1.9538   -1.1034   -0.5263 C   0  0  1  0  0  0  0  0  0  0  0  0
   -1.1787   -1.0946    0.8128 C   0  0  2  0  0  0  0  0  0  0  0  0
    0.1716   -1.8176    0.7273 C   0  0  1  0  0  0  0  0  0  0  0  0
    1.0519   -1.1220   -0.3613 C   0  0  1  0  0  0  0  0  0  0  0  0
    2.4779   -1.7833   -0.4763 C   0  0  2  0  0  0  0  0  0  0  0  0
   -3.2438   -0.3782   -0.0589 C   0  0  2  0  0  0  0  0  0  0  0  0
   -1.1087   -0.3673   -1.5861 C   0  0  2  0  0  0  0  0  0  0  0  0
    0.2967   -0.9940   -1.7156 C   0  0  0  0  0  0  0  0  0  0  0  0
    3.1609   -1.7964    0.9330 C   0  0  2  0  0  0  0  0  0  0  0  0
   -2.2084   -1.5803    1.8308 C   0  0  0  0  0  0  0  0  0  0  0  0
    0.8794   -1.8365    2.0886 C   0  0  0  0  0  0  0  0  0  0  0  0
   -3.5444   -1.0127    1.3188 C   0  0  0  0  0  0  0  0  0  0  0  0
    2.2736   -2.4501    2.0051 C   0  0  0  0  0  0  0  0  0  0  0  0
    3.4080   -1.0242   -1.4674 C   0  0  0  0  0  0  0  0  0  0  0  0
   -2.2828   -2.5293   -1.0450 C   0  0  0  0  0  0  0  0  0  0  0  0
   -4.4321   -0.4314   -1.0084 C   0  0  1  0  0  0  0  0  0  0  0  0
    3.6044   -0.3914    1.3934 C   0  0  0  0  0  0  0  0  0  0  0  0
    2.3771   -3.2358   -1.0108 C   0  0  0  0  0  0  0  0  0  0  0  0
    3.8096    0.3681   -0.9976 C   0  0  0  0  0  0  0  0  0  0  0  0
    4.4872    0.3075    0.3653 C   0  0  1  0  0  0  0  0  0  0  0  0
   -5.6431    0.2928   -0.3854 C   0  0  0  0  0  0  0  0  0  0  0  0
   -4.0451    0.1610   -2.3676 C   0  0  0  0  0  0  0  0  0  0  0  0
   -5.3640    1.7496   -0.0104 C   0  0  0  0  0  0  0  0  0  0  0  0
   -6.5530    2.3951    0.6650 C   0  0  0  0  0  0  0  0  0  0  0  0
   -0.9569   -0.0504    1.0881 H   0  0  0  0  0  0  0  0  0  0  0  0
   -0.0059   -2.8601    0.4447 H   0  0  0  0  0  0  0  0  0  0  0  0
    1.2013   -0.0897   -0.0167 H   0  0  0  0  0  0  0  0  0  0  0  0
   -2.9694    0.6681    0.1213 H   0  0  0  0  0  0  0  0  0  0  0  0
   -1.5584   -0.4043   -2.5783 H   0  0  0  0  0  0  0  0  0  0  0  0
    0.8834   -0.3623   -2.3916 H   0  0  0  0  0  0  0  0  0  0  0  0
    0.2097   -1.9743   -2.1935 H   0  0  0  0  0  0  0  0  0  0  0  0
    4.0764   -2.4018    0.8631 H   0  0  0  0  0  0  0  0  0  0  0  0
   -1.9855   -1.2197    2.8403 H   0  0  0  0  0  0  0  0  0  0  0  0
   -2.2483   -2.6745    1.8718 H   0  0  0  0  0  0  0  0  0  0  0  0
    0.2881   -2.4155    2.8081 H   0  0  0  0  0  0  0  0  0  0  0  0
    0.9440   -0.8197    2.4936 H   0  0  0  0  0  0  0  0  0  0  0  0
   -4.2818   -1.8209    1.2530 H   0  0  0  0  0  0  0  0  0  0  0  0
   -3.9378   -0.2644    2.0156 H   0  0  0  0  0  0  0  0  0  0  0  0
    2.7583   -2.3781    2.9866 H   0  0  0  0  0  0  0  0  0  0  0  0
    2.1791   -3.5229    1.7979 H   0  0  0  0  0  0  0  0  0  0  0  0
    2.9550   -0.9580   -2.4624 H   0  0  0  0  0  0  0  0  0  0  0  0
    4.3294   -1.6077   -1.6082 H   0  0  0  0  0  0  0  0  0  0  0  0
   -2.9431   -3.0805   -0.3681 H   0  0  0  0  0  0  0  0  0  0  0  0
   -2.7791   -2.4948   -2.0200 H   0  0  0  0  0  0  0  0  0  0  0  0
   -1.3902   -3.1458   -1.1790 H   0  0  0  0  0  0  0  0  0  0  0  0
   -4.7485   -1.4688   -1.1737 H   0  0  0  0  0  0  0  0  0  0  0  0
    2.7431    0.2483    1.6186 H   0  0  0  0  0  0  0  0  0  0  0  0
    4.1552   -0.4674    2.3402 H   0  0  0  0  0  0  0  0  0  0  0  0
    1.7054   -3.8634   -0.4204 H   0  0  0  0  0  0  0  0  0  0  0  0
    2.0241   -3.2590   -2.0470 H   0  0  0  0  0  0  0  0  0  0  0  0
    3.3595   -3.7231   -1.0002 H   0  0  0  0  0  0  0  0  0  0  0  0
    4.4943    0.7620   -1.7546 H   0  0  0  0  0  0  0  0  0  0  0  0
    2.9475    1.0447   -0.9778 H   0  0  0  0  0  0  0  0  0  0  0  0
    5.4368   -0.2368    0.2868 H   0  0  0  0  0  0  0  0  0  0  0  0
   -0.4382    1.4361   -1.9405 H   0  0  0  0  0  0  0  0  0  0  0  0
   -6.4832    0.2584   -1.0919 H   0  0  0  0  0  0  0  0  0  0  0  0
   -5.9894   -0.2549    0.5000 H   0  0  0  0  0  0  0  0  0  0  0  0
   -3.4544    1.0770   -2.2782 H   0  0  0  0  0  0  0  0  0  0  0  0
   -3.5243   -0.5662   -2.9929 H   0  0  0  0  0  0  0  0  0  0  0  0
   -4.9493    0.4223   -2.9310 H   0  0  0  0  0  0  0  0  0  0  0  0
   -4.5421    1.8318    0.7051 H   0  0  0  0  0  0  0  0  0  0  0  0
   -5.1257    2.3330   -0.9056 H   0  0  0  0  0  0  0  0  0  0  0  0
    5.0780    4.2808    1.2750 H   0  0  0  0  0  0  0  0  0  0  0  0
   -7.0719    4.1212    1.4087 H   0  0  0  0  0  0  0  0  0  0  0  0
  1  3  1  0  0  0  0
  1  4  1  0  0  0  0
  1  5  2  0  0  0  0
  1  6  2  0  0  0  0
  2 15  1  0  0  0  0
  2 63  1  0  0  0  0
  3 28  1  0  0  0  0
  4 71  1  0  0  0  0
  7 32  1  0  0  0  0
  7 72  1  0  0  0  0
  8 32  2  0  0  0  0
  9 10  1  0  0  0  0
  9 14  1  0  0  0  0
  9 15  1  0  0  0  0
  9 23  1  0  0  0  0
 10 11  1  0  0  0  0
 10 18  1  0  0  0  0
 10 33  1  0  0  0  0
 11 12  1  0  0  0  0
 11 19  1  0  0  0  0
 11 34  1  0  0  0  0
 12 13  1  0  0  0  0
 12 16  1  0  0  0  0
 12 35  1  0  0  0  0
 13 17  1  0  0  0  0
 13 22  1  0  0  0  0
 13 26  1  0  0  0  0
 14 20  1  0  0  0  0
 14 24  1  0  0  0  0
 14 36  1  0  0  0  0
 15 16  1  0  0  0  0
 15 37  1  0  0  0  0
 16 38  1  0  0  0  0
 16 39  1  0  0  0  0
 17 21  1  0  0  0  0
 17 25  1  0  0  0  0
 17 40  1  0  0  0  0
 18 20  1  0  0  0  0
 18 41  1  0  0  0  0
 18 42  1  0  0  0  0
 19 21  1  0  0  0  0
 19 43  1  0  0  0  0
 19 44  1  0  0  0  0
 20 45  1  0  0  0  0
 20 46  1  0  0  0  0
 21 47  1  0  0  0  0
 21 48  1  0  0  0  0
 22 27  1  0  0  0  0
 22 49  1  0  0  0  0
 22 50  1  0  0  0  0
 23 51  1  0  0  0  0
 23 52  1  0  0  0  0
 23 53  1  0  0  0  0
 24 29  1  0  0  0  0
 24 30  1  0  0  0  0
 24 54  1  0  0  0  0
 25 28  1  0  0  0  0
 25 55  1  0  0  0  0
 25 56  1  0  0  0  0
 26 57  1  0  0  0  0
 26 58  1  0  0  0  0
 26 59  1  0  0  0  0
 27 28  1  0  0  0  0
 27 60  1  0  0  0  0
 27 61  1  0  0  0  0
 28 62  1  0  0  0  0
 29 31  1  0  0  0  0
 29 64  1  0  0  0  0
 29 65  1  0  0  0  0
 30 66  1  0  0  0  0
 30 67  1  0  0  0  0
 30 68  1  0  0  0  0
 31 32  1  0  0  0  0
 31 69  1  0  0  0  0
 31 70  1  0  0  0  0
M  END
> <PUBCHEM_COMPOUND_CID>
128752

> <PUBCHEM_CONFORMER_RMSD>
1

> <PUBCHEM_CONFORMER_DIVERSEORDER>
2
13
14
4
10
8
7
9
1
11
12
3
6
5

> <PUBCHEM_MMFF94_PARTIAL_CHARGES>
15
1 1.67
15 0.28
2 -0.68
28 0.28
3 -0.46
31 0.06
32 0.66
4 -0.68
5 -0.65
6 -0.65
63 0.4
7 -0.65
71 0.5
72 0.5
8 -0.57

> <PUBCHEM_EFFECTIVE_ROTOR_COUNT>
8.2

> <PUBCHEM_PHARMACOPHORE_FEATURES>
14
1 2 acceptor
1 2 donor
1 30 hydrophobe
1 4 acceptor
1 5 acceptor
1 6 acceptor
1 7 acceptor
1 8 acceptor
3 7 8 32 anion
4 1 4 5 6 anion
5 9 10 14 18 20 rings
6 11 12 13 17 19 21 rings
6 13 17 22 25 27 28 rings
6 9 10 11 12 15 16 rings

> <PUBCHEM_HEAVY_ATOM_COUNT>
32

> <PUBCHEM_ATOM_DEF_STEREO_COUNT>
10

> <PUBCHEM_ATOM_UDEF_STEREO_COUNT>
0

> <PUBCHEM_BOND_DEF_STEREO_COUNT>
0

> <PUBCHEM_BOND_UDEF_STEREO_COUNT>
0

> <PUBCHEM_ISOTOPIC_ATOM_COUNT>
0

> <PUBCHEM_COMPONENT_COUNT>
1

> <PUBCHEM_CACTVS_TAUTO_COUNT>
1

> <PUBCHEM_CONFORMER_ID>
0001F6F000000002

> <PUBCHEM_MMFF94_ENERGY>
99.3336

> <PUBCHEM_FEATURE_SELFOVERLAP>
71.291

> <PUBCHEM_SHAPE_FINGERPRINT>
10 15 15864080862214893127
10693767 8 10735866254053491325
10906281 52 18115035202934802404
11112241 14 18261387901278089217
11135609 201 18335417989491187379
11578080 2 18334299781412258451
12035758 1 16805610261444874093
12422481 6 15864056663968538822
12596602 18 18334580101680816611
12633257 1 16371280155980605654
13782708 43 9727631700748436197
14251764 30 9079127652205390052
14251764 75 18410292523117957097
14347332 77 10015591601118319931
14739800 52 18334287643723760536
14790565 3 18268147566001718385
14951699 99 18335428962737528669
15082195 135 17417812798971233753
15183329 4 14620216492265207763
15238133 3 17988063513964738338
15475509 35 11386372555971996596
15840311 113 18264212418444788773
17492 89 8070028856707042358
1813 80 12324541792070920055
19438510 23 18408040736289283976
20567600 247 9943811092653507644
21033648 29 18113631100389242346
21307412 95 12607404425200995029
21344244 181 11527650987227550509
21641784 216 15841273636875135609
21756936 100 17826221076983256968
21792934 111 16660917765550786815
22122407 14 18412548725320853929
22149856 69 16879083949556245601
23559900 14 17676214528938066998
23569914 152 12101903782785488449
268830 7 18336536123954928927
27425 322 18411134698108147087
2838139 119 18200310052215305148
3411729 13 18409169900286940116
3472631 163 18341612598988811583
34797466 226 18059862761783436591
3680242 22 17312818256128435154
392239 28 17749378265489118704
393628 194 18192430994561637964
394071 54 18260266326287620421
474113 269 12107787454458064105
5104073 3 17603867805921981123
5718773 13 8790889574935145776
57724786 102 18339074895876260463
6201320 221 11531049672411800153
7970288 3 8213876876627210300

> <PUBCHEM_SHAPE_MULTIPOLES>
621.31
16.21
3.83
1.95
8.2
3.04
0.03
21.09
-2.38
-2.99
-0.91
0.39
-0.75
-1.17

> <PUBCHEM_SHAPE_SELFOVERLAP>
1288.543

> <PUBCHEM_SHAPE_VOLUME>
358.1

> <PUBCHEM_COORDINATE_TYPE>
2
5
10

$$$$
