REMARK  Name = 12877858
REMARK  9 active torsions:
REMARK  status: ('A' for Active; 'I' for Inactive)
REMARK    1  A    between atoms: C_1  and  O_19
REMARK    2  A    between atoms: C_2  and  N_7
REMARK    3  A    between atoms: C_3  and  O_17
REMARK    4  A    between atoms: C_4  and  N_11
REMARK    5  A    between atoms: C_5  and  O_15
REMARK    6  A    between atoms: O_19  and  C_21
REMARK    7  A    between atoms: C_22  and  N_26
REMARK    8  A    between atoms: C_23  and  C_30
REMARK    9  A    between atoms: C_30  and  N_32
REMARK                            x       y       z     vdW  Elec       q    Type
REMARK                         _______ _______ _______ _____ _____    ______ ____
ROOT
ATOM      1  C   UNL     1       0.458   0.452   0.802  0.00  0.00    +0.123 C 
ATOM      2  C   UNL     1       2.650  -0.590   0.006  0.00  0.00    -0.004 C 
ATOM      3  C   UNL     1       1.653  -0.442   1.171  0.00  0.00    +0.119 C 
ATOM      4  C   UNL     1       0.862   1.808   0.187  0.00  0.00    -0.033 C 
ATOM      5  C   UNL     1       3.105   0.777  -0.530  0.00  0.00    +0.096 C 
ATOM      6  C   UNL     1       1.900   1.636  -0.930  0.00  0.00    +0.008 C 
ENDROOT
BRANCH   2   7
ATOM      7  N   UNL     1       3.808  -1.379   0.441  0.00  0.00    +0.387 N 
ATOM      8  C   UNL     1       3.381  -2.668   0.957  0.00  0.00    -0.105 C 
ATOM      9  H   UNL     1       4.303  -0.871   1.174  0.00  0.00    -0.084 HD
ATOM     10  H   UNL     1       4.422  -1.531  -0.359  0.00  0.00    -0.084 HD
ENDBRANCH   2   7
BRANCH   4  11
ATOM     11  N   UNL     1       1.379   2.726   1.205  0.00  0.00    +0.383 N 
ATOM     12  H   UNL     1       0.687   2.838   1.946  0.00  0.00    -0.089 HD
ATOM     13  H   UNL     1       1.571   3.633   0.780  0.00  0.00    -0.089 HD
ATOM     14  H   UNL     1       2.240   2.347   1.599  0.00  0.00    -0.089 HD
ENDBRANCH   4  11
BRANCH   5  15
ATOM     15  O   UNL     1       3.904   0.607  -1.700  0.00  0.00    -0.356 OA
ATOM     16  C   UNL     1       4.349   1.855  -2.204  0.00  0.00    +0.174 C 
ENDBRANCH   5  15
BRANCH   3  17
ATOM     17  O   UNL     1       2.299   0.127   2.311  0.00  0.00    -0.384 OA
ATOM     18  H   UNL     1       1.660   0.214   3.035  0.00  0.00    +0.210 HD
ENDBRANCH   3  17
BRANCH   1  19
ATOM     19  O   UNL     1      -0.398  -0.244  -0.105  0.00  0.00    -0.334 OA
BRANCH  19  21
ATOM     20  O   UNL     1      -2.531  -0.276   0.920  0.00  0.00    -0.337 OA
ATOM     21  C   UNL     1      -1.359  -1.032   0.595  0.00  0.00    +0.214 C 
ATOM     22  C   UNL     1      -1.748  -2.272  -0.223  0.00  0.00    -0.008 C 
ATOM     23  C   UNL     1      -3.249   0.189  -0.230  0.00  0.00    +0.098 C 
ATOM     24  C   UNL     1      -2.522  -1.871  -1.481  0.00  0.00    -0.015 C 
ATOM     25  C   UNL     1      -3.706  -0.986  -1.097  0.00  0.00    +0.026 C 
BRANCH  22  26
ATOM     26  N   UNL     1      -0.574  -3.063  -0.582  0.00  0.00    +0.385 N 
ATOM     27  H   UNL     1      -0.068  -3.323   0.265  0.00  0.00    -0.089 HD
ATOM     28  H   UNL     1       0.036  -2.512  -1.186  0.00  0.00    -0.089 HD
ATOM     29  H   UNL     1      -0.869  -3.906  -1.074  0.00  0.00    -0.089 HD
ENDBRANCH  22  26
BRANCH  23  30
ATOM     30  C   UNL     1      -4.441   0.997   0.265  0.00  0.00    -0.038 C 
ATOM     31  C   UNL     1      -5.248   1.561  -0.902  0.00  0.00    -0.022 C 
BRANCH  30  32
ATOM     32  N   UNL     1      -3.971   2.085   1.125  0.00  0.00    +0.383 N 
ATOM     33  H   UNL     1      -3.434   1.697   1.900  0.00  0.00    -0.089 HD
ATOM     34  H   UNL     1      -4.772   2.599   1.490  0.00  0.00    -0.089 HD
ATOM     35  H   UNL     1      -3.380   2.715   0.583  0.00  0.00    -0.089 HD
ENDBRANCH  30  32
ENDBRANCH  23  30
ENDBRANCH  19  21
ENDBRANCH   1  19
TORSDOF 9
