REMARK  Name = 128725
REMARK  8 active torsions:
REMARK  status: ('A' for Active; 'I' for Inactive)
REMARK    1  A    between atoms: O_1  and  C_3
REMARK    2  A    between atoms: O_1  and  C_19
REMARK    3  A    between atoms: C_4  and  O_8
REMARK    4  A    between atoms: C_5  and  O_10
REMARK    5  A    between atoms: C_6  and  O_12
REMARK    6  A    between atoms: C_7  and  C_15
REMARK    7  A    between atoms: C_15  and  O_16
REMARK    8  A    between atoms: C_19  and  C_29
REMARK                            x       y       z     vdW  Elec       q    Type
REMARK                         _______ _______ _______ _____ _____    ______ ____
ROOT
ATOM      1  O   UNL     1      -0.974  -0.919   0.790  0.00  0.00    -0.419 OA
ENDROOT
BRANCH   1   3
ATOM      2  O   UNL     1      -3.049   0.139   1.218  0.00  0.00    -0.307 OA
ATOM      3  C   UNL     1      -2.350  -1.103   1.118  0.00  0.00    +0.321 C 
ATOM      4  C   UNL     1      -3.027  -1.997   0.079  0.00  0.00    +0.211 C 
ATOM      5  C   UNL     1      -3.088  -1.305  -1.282  0.00  0.00    +0.173 C 
ATOM      6  C   UNL     1      -3.706   0.088  -1.143  0.00  0.00    +0.178 C 
ATOM      7  C   UNL     1      -3.061   0.873  -0.005  0.00  0.00    +0.246 C 
BRANCH   4   8
ATOM      8  O   UNL     1      -2.308  -3.222  -0.017  0.00  0.00    -0.377 OA
ATOM      9  H   UNL     1      -2.278  -3.648   0.853  0.00  0.00    +0.211 HD
ENDBRANCH   4   8
BRANCH   5  10
ATOM     10  O   UNL     1      -3.911  -2.065  -2.169  0.00  0.00    -0.379 OA
ATOM     11  H   UNL     1      -3.538  -2.954  -2.273  0.00  0.00    +0.211 HD
ENDBRANCH   5  10
BRANCH   6  12
ATOM     12  O   UNL     1      -3.512   0.808  -2.360  0.00  0.00    -0.379 OA
ATOM     13  H   UNL     1      -3.919   0.320  -3.093  0.00  0.00    +0.211 HD
ENDBRANCH   6  12
BRANCH   7  15
ATOM     14  O   UNL     1      -4.420   2.277   1.411  0.00  0.00    -0.247 OA
ATOM     15  C   UNL     1      -3.874   2.079   0.335  0.00  0.00    +0.344 C 
BRANCH  15  16
ATOM     16  O   UNL     1      -3.929   2.932  -0.717  0.00  0.00    -0.478 OA
ATOM     17  H   UNL     1      -3.487   2.720  -1.515  0.00  0.00    +0.295 HD
ENDBRANCH  15  16
ENDBRANCH   7  15
ENDBRANCH   1   3
BRANCH   1  19
ATOM     18  O   UNL     1      -0.671   0.393   2.673  0.00  0.00    -0.245 OA
ATOM     19  C   UNL     1      -0.257  -0.151   1.654  0.00  0.00    +0.339 C 
BRANCH  19  29
ATOM     20  C   UNL     1       3.137  -0.357  -0.066  0.00  0.00    +0.008 C 
ATOM     21  C   UNL     1       3.376   0.592   1.137  0.00  0.00    +0.022 C 
ATOM     22  C   UNL     1       1.604  -0.668  -0.087  0.00  0.00    +0.029 C 
ATOM     23  C   UNL     1       3.593   0.438  -1.307  0.00  0.00    +0.001 C 
ATOM     24  C   UNL     1       3.782  -1.755   0.127  0.00  0.00    +0.001 C 
ATOM     25  C   UNL     1       3.494   1.932  -0.935  0.00  0.00    +0.000 C 
ATOM     26  C   UNL     1       3.835   1.939   0.565  0.00  0.00    +0.004 C 
ATOM     27  C   UNL     1       1.466  -2.193  -0.164  0.00  0.00    +0.005 C 
ATOM     28  C   UNL     1       2.831  -2.686  -0.618  0.00  0.00    +0.000 C 
ATOM     29  C   UNL     1       1.116  -0.060   1.184  0.00  0.00    +0.049 C 
ATOM     30  C   UNL     1       2.051   0.634   1.835  0.00  0.00    -0.024 C 
ATOM     31  C   UNL     1       5.228  -1.925  -0.314  0.00  0.00    +0.000 C 
ATOM     32  C   UNL     1       2.104   2.525  -1.210  0.00  0.00    +0.000 C 
ATOM     33  C   UNL     1       4.519   2.755  -1.731  0.00  0.00    +0.000 C 
ENDBRANCH  19  29
ENDBRANCH   1  19
TORSDOF 8
