12877858
  -OEChem-03292013303D

 55 56  0     1  0  0  0  0  0999 V2000
   -0.3981   -0.2441   -0.1052 O   0  0  0  0  0  0  0  0  0  0  0  0
   -2.5315   -0.2755    0.9196 O   0  0  0  0  0  0  0  0  0  0  0  0
    3.9041    0.6067   -1.7000 O   0  0  0  0  0  0  0  0  0  0  0  0
    2.2990    0.1270    2.3105 O   0  0  0  0  0  0  0  0  0  0  0  0
    3.8076   -1.3785    0.4410 N   0  0  0  0  0  0  0  0  0  0  0  0
    1.3791    2.7263    1.2053 N   0  0  0  0  0  0  0  0  0  0  0  0
   -0.5737   -3.0628   -0.5818 N   0  0  0  0  0  0  0  0  0  0  0  0
   -3.9712    2.0846    1.1245 N   0  0  0  0  0  0  0  0  0  0  0  0
    0.4582    0.4521    0.8022 C   0  0  1  0  0  0  0  0  0  0  0  0
    2.6497   -0.5900    0.0057 C   0  0  1  0  0  0  0  0  0  0  0  0
    1.6526   -0.4419    1.1715 C   0  0  1  0  0  0  0  0  0  0  0  0
    0.8618    1.8082    0.1870 C   0  0  2  0  0  0  0  0  0  0  0  0
    3.1047    0.7775   -0.5296 C   0  0  2  0  0  0  0  0  0  0  0  0
    1.8998    1.6362   -0.9305 C   0  0  0  0  0  0  0  0  0  0  0  0
   -1.3589   -1.0318    0.5948 C   0  0  1  0  0  0  0  0  0  0  0  0
   -1.7479   -2.2721   -0.2230 C   0  0  1  0  0  0  0  0  0  0  0  0
   -3.2486    0.1889   -0.2301 C   0  0  1  0  0  0  0  0  0  0  0  0
   -2.5224   -1.8705   -1.4809 C   0  0  0  0  0  0  0  0  0  0  0  0
   -3.7059   -0.9858   -1.0972 C   0  0  0  0  0  0  0  0  0  0  0  0
   -4.4405    0.9973    0.2654 C   0  0  2  0  0  0  0  0  0  0  0  0
    3.3811   -2.6676    0.9570 C   0  0  0  0  0  0  0  0  0  0  0  0
   -5.2478    1.5607   -0.9019 C   0  0  0  0  0  0  0  0  0  0  0  0
    4.3489    1.8551   -2.2044 C   0  0  0  0  0  0  0  0  0  0  0  0
   -0.1095    0.6851    1.7158 H   0  0  0  0  0  0  0  0  0  0  0  0
    2.1621   -1.1276   -0.8199 H   0  0  0  0  0  0  0  0  0  0  0  0
    1.2613   -1.4174    1.4735 H   0  0  0  0  0  0  0  0  0  0  0  0
   -0.0297    2.2716   -0.2550 H   0  0  0  0  0  0  0  0  0  0  0  0
    3.7008    1.2924    0.2361 H   0  0  0  0  0  0  0  0  0  0  0  0
    1.4103    1.1812   -1.8033 H   0  0  0  0  0  0  0  0  0  0  0  0
    2.2027    2.6363   -1.2623 H   0  0  0  0  0  0  0  0  0  0  0  0
   -0.9486   -1.3863    1.5488 H   0  0  0  0  0  0  0  0  0  0  0  0
   -2.4121   -2.8936    0.3921 H   0  0  0  0  0  0  0  0  0  0  0  0
   -2.5837    0.8384   -0.8162 H   0  0  0  0  0  0  0  0  0  0  0  0
   -2.8852   -2.7598   -2.0103 H   0  0  0  0  0  0  0  0  0  0  0  0
   -1.8716   -1.3262   -2.1775 H   0  0  0  0  0  0  0  0  0  0  0  0
   -4.1921   -0.6442   -2.0162 H   0  0  0  0  0  0  0  0  0  0  0  0
   -4.4304   -1.5969   -0.5440 H   0  0  0  0  0  0  0  0  0  0  0  0
    4.4279   -1.5193   -0.3563 H   0  0  0  0  0  0  0  0  0  0  0  0
    0.6639    2.8922    1.9120 H   0  0  0  0  0  0  0  0  0  0  0  0
    1.5800    3.6314    0.7821 H   0  0  0  0  0  0  0  0  0  0  0  0
   -5.0930    0.3657    0.8802 H   0  0  0  0  0  0  0  0  0  0  0  0
    3.0967   -0.3963    2.4942 H   0  0  0  0  0  0  0  0  0  0  0  0
   -0.8645   -3.9099   -1.0678 H   0  0  0  0  0  0  0  0  0  0  0  0
   -0.0914   -3.3650    0.2636 H   0  0  0  0  0  0  0  0  0  0  0  0
    2.6740   -3.1746    0.2917 H   0  0  0  0  0  0  0  0  0  0  0  0
    2.9670   -2.6082    1.9675 H   0  0  0  0  0  0  0  0  0  0  0  0
    4.2601   -3.3169    1.0381 H   0  0  0  0  0  0  0  0  0  0  0  0
   -6.0151    2.2555   -0.5399 H   0  0  0  0  0  0  0  0  0  0  0  0
   -4.6132    2.1065   -1.6088 H   0  0  0  0  0  0  0  0  0  0  0  0
   -5.7772    0.7728   -1.4461 H   0  0  0  0  0  0  0  0  0  0  0  0
    5.2265    1.6632   -2.8296 H   0  0  0  0  0  0  0  0  0  0  0  0
    4.6533    2.5440   -1.4095 H   0  0  0  0  0  0  0  0  0  0  0  0
    3.5942    2.3079   -2.8541 H   0  0  0  0  0  0  0  0  0  0  0  0
   -3.3684    2.7104    0.5910 H   0  0  0  0  0  0  0  0  0  0  0  0
   -3.3901    1.7035    1.8706 H   0  0  0  0  0  0  0  0  0  0  0  0
  1  9  1  0  0  0  0
  1 15  1  0  0  0  0
  2 15  1  0  0  0  0
  2 17  1  0  0  0  0
  3 13  1  0  0  0  0
  3 23  1  0  0  0  0
  4 11  1  0  0  0  0
  4 42  1  0  0  0  0
  5 10  1  0  0  0  0
  5 21  1  0  0  0  0
  5 38  1  0  0  0  0
  6 12  1  0  0  0  0
  6 39  1  0  0  0  0
  6 40  1  0  0  0  0
  7 16  1  0  0  0  0
  7 43  1  0  0  0  0
  7 44  1  0  0  0  0
  8 20  1  0  0  0  0
  8 54  1  0  0  0  0
  8 55  1  0  0  0  0
  9 11  1  0  0  0  0
  9 12  1  0  0  0  0
  9 24  1  0  0  0  0
 10 11  1  0  0  0  0
 10 13  1  0  0  0  0
 10 25  1  0  0  0  0
 11 26  1  0  0  0  0
 12 14  1  0  0  0  0
 12 27  1  0  0  0  0
 13 14  1  0  0  0  0
 13 28  1  0  0  0  0
 14 29  1  0  0  0  0
 14 30  1  0  0  0  0
 15 16  1  0  0  0  0
 15 31  1  0  0  0  0
 16 18  1  0  0  0  0
 16 32  1  0  0  0  0
 17 19  1  0  0  0  0
 17 20  1  0  0  0  0
 17 33  1  0  0  0  0
 18 19  1  0  0  0  0
 18 34  1  0  0  0  0
 18 35  1  0  0  0  0
 19 36  1  0  0  0  0
 19 37  1  0  0  0  0
 20 22  1  0  0  0  0
 20 41  1  0  0  0  0
 21 45  1  0  0  0  0
 21 46  1  0  0  0  0
 21 47  1  0  0  0  0
 22 48  1  0  0  0  0
 22 49  1  0  0  0  0
 22 50  1  0  0  0  0
 23 51  1  0  0  0  0
 23 52  1  0  0  0  0
 23 53  1  0  0  0  0
M  END
> <PUBCHEM_COMPOUND_CID>
12877858

> <PUBCHEM_CONFORMER_RMSD>
0.8

> <PUBCHEM_CONFORMER_DIVERSEORDER>
3
32
44
34
11
30
47
38
35
19
23
6
48
46
1
33
39
31
49
17
24
12
42
10
37
2
21
40
7
13
16
36
26
29
28
5
9
41
22
14
15
45
43
8
4
20
27
25
18

> <PUBCHEM_MMFF94_PARTIAL_CHARGES>
27
1 -0.56
10 0.27
11 0.28
12 0.27
13 0.28
15 0.56
16 0.27
17 0.28
2 -0.56
20 0.27
21 0.27
23 0.28
3 -0.56
38 0.36
39 0.36
4 -0.68
40 0.36
42 0.4
43 0.36
44 0.36
5 -0.9
54 0.36
55 0.36
6 -0.99
7 -0.99
8 -0.99
9 0.28

> <PUBCHEM_EFFECTIVE_ROTOR_COUNT>
7.4

> <PUBCHEM_PHARMACOPHORE_FEATURES>
15
1 1 acceptor
1 2 acceptor
1 3 acceptor
1 4 acceptor
1 4 donor
1 5 cation
1 5 donor
1 6 cation
1 6 donor
1 7 cation
1 7 donor
1 8 cation
1 8 donor
6 2 15 16 17 18 19 rings
6 9 10 11 12 13 14 rings

> <PUBCHEM_HEAVY_ATOM_COUNT>
23

> <PUBCHEM_ATOM_DEF_STEREO_COUNT>
9

> <PUBCHEM_ATOM_UDEF_STEREO_COUNT>
0

> <PUBCHEM_BOND_DEF_STEREO_COUNT>
0

> <PUBCHEM_BOND_UDEF_STEREO_COUNT>
0

> <PUBCHEM_ISOTOPIC_ATOM_COUNT>
0

> <PUBCHEM_COMPONENT_COUNT>
1

> <PUBCHEM_CACTVS_TAUTO_COUNT>
1

> <PUBCHEM_CONFORMER_ID>
00C4802200000003

> <PUBCHEM_MMFF94_ENERGY>
45.5834

> <PUBCHEM_FEATURE_SELFOVERLAP>
76.165

> <PUBCHEM_SHAPE_FINGERPRINT>
10062212 137 18271795801269814375
10165383 225 15502947311237488874
10369192 42 16155708832486307678
12553582 1 18059590095415033944
12788726 201 18129114337475156096
13004483 165 17973426729914904042
13224815 77 10231762218605392953
14178342 30 18123168358975183570
14341114 328 8070025592816396199
14713325 29 16809851258123816914
16752209 62 18129669586303945097
17349148 13 17489867116370893067
1813 80 17751341903695387106
19784866 34 17458913750835762580
20600515 1 17703780388714560040
20645476 183 18337678619378305551
21503847 285 17530965735292837685
21524375 3 18411133594474975459
22393880 68 18200317765707387996
22907989 373 18053669350260064439
23557571 272 17487887011735104417
23559900 14 17417813967560955992
23598291 2 18334005107995706887
25 1 17677059069836888892
34934 24 18409167744667005580
350125 39 18339647836635859619
46194498 28 17557999612352814244
5161694 15 17418098749520007853
543358 83 18334580131376211660
57724786 102 17822014160179381341
633830 44 17676481718726320291
74978 22 18270677696411615755
7832392 63 18337391650848175372
9981440 41 17690822876283611689

> <PUBCHEM_SHAPE_MULTIPOLES>
429.93
9.25
2.97
1.66
4.62
0.85
-0.13
-3.24
-2.67
-0.6
-0.2
-1.19
-0.45
-2.14

> <PUBCHEM_SHAPE_SELFOVERLAP>
862.821

> <PUBCHEM_SHAPE_VOLUME>
251

> <PUBCHEM_COORDINATE_TYPE>
2
5
10

$$$$
