128725
  -OEChem-03292013323D

 59 62  0     1  0  0  0  0  0999 V2000
   -0.9737   -0.9194    0.7902 O   0  0  0  0  0  0  0  0  0  0  0  0
   -0.6712    0.3930    2.6731 O   0  0  0  0  0  0  0  0  0  0  0  0
   -3.0486    0.1389    1.2176 O   0  0  0  0  0  0  0  0  0  0  0  0
   -2.3083   -3.2219   -0.0174 O   0  0  0  0  0  0  0  0  0  0  0  0
   -3.9106   -2.0650   -2.1689 O   0  0  0  0  0  0  0  0  0  0  0  0
   -3.5123    0.8084   -2.3599 O   0  0  0  0  0  0  0  0  0  0  0  0
   -3.9291    2.9318   -0.7167 O   0  0  0  0  0  0  0  0  0  0  0  0
   -4.4196    2.2771    1.4109 O   0  0  0  0  0  0  0  0  0  0  0  0
    3.1373   -0.3569   -0.0655 C   0  0  1  0  0  0  0  0  0  0  0  0
    3.3763    0.5922    1.1369 C   0  0  1  0  0  0  0  0  0  0  0  0
    1.6041   -0.6677   -0.0869 C   0  0  1  0  0  0  0  0  0  0  0  0
    3.5933    0.4381   -1.3069 C   0  0  0  0  0  0  0  0  0  0  0  0
    3.7822   -1.7550    0.1266 C   0  0  1  0  0  0  0  0  0  0  0  0
    3.4938    1.9319   -0.9354 C   0  0  0  0  0  0  0  0  0  0  0  0
    3.8346    1.9392    0.5651 C   0  0  0  0  0  0  0  0  0  0  0  0
    1.4657   -2.1931   -0.1640 C   0  0  0  0  0  0  0  0  0  0  0  0
    2.8307   -2.6860   -0.6178 C   0  0  0  0  0  0  0  0  0  0  0  0
    1.1158   -0.0599    1.1841 C   0  0  0  0  0  0  0  0  0  0  0  0
    2.0515    0.6344    1.8352 C   0  0  0  0  0  0  0  0  0  0  0  0
    5.2279   -1.9250   -0.3143 C   0  0  0  0  0  0  0  0  0  0  0  0
    2.1041    2.5253   -1.2096 C   0  0  0  0  0  0  0  0  0  0  0  0
    4.5190    2.7551   -1.7313 C   0  0  0  0  0  0  0  0  0  0  0  0
   -0.2567   -0.1506    1.6540 C   0  0  0  0  0  0  0  0  0  0  0  0
   -2.3500   -1.1030    1.1178 C   0  0  1  0  0  0  0  0  0  0  0  0
   -3.0270   -1.9969    0.0787 C   0  0  1  0  0  0  0  0  0  0  0  0
   -3.0882   -1.3050   -1.2824 C   0  0  2  0  0  0  0  0  0  0  0  0
   -3.7064    0.0881   -1.1434 C   0  0  1  0  0  0  0  0  0  0  0  0
   -3.0605    0.8725   -0.0051 C   0  0  1  0  0  0  0  0  0  0  0  0
   -3.8739    2.0792    0.3354 C   0  0  0  0  0  0  0  0  0  0  0  0
    4.1342    0.2075    1.8292 H   0  0  0  0  0  0  0  0  0  0  0  0
    1.1043   -0.2098   -0.9481 H   0  0  0  0  0  0  0  0  0  0  0  0
    4.6377    0.2140   -1.5447 H   0  0  0  0  0  0  0  0  0  0  0  0
    3.0100    0.1917   -2.2011 H   0  0  0  0  0  0  0  0  0  0  0  0
    3.7392   -2.0179    1.1939 H   0  0  0  0  0  0  0  0  0  0  0  0
    3.3984    2.7966    1.0904 H   0  0  0  0  0  0  0  0  0  0  0  0
    4.9225    2.0083    0.6981 H   0  0  0  0  0  0  0  0  0  0  0  0
    0.6903   -2.4925   -0.8760 H   0  0  0  0  0  0  0  0  0  0  0  0
    1.2140   -2.6337    0.8085 H   0  0  0  0  0  0  0  0  0  0  0  0
    2.9886   -3.7380   -0.3613 H   0  0  0  0  0  0  0  0  0  0  0  0
    2.9367   -2.5770   -1.7037 H   0  0  0  0  0  0  0  0  0  0  0  0
    1.8978    1.1714    2.7613 H   0  0  0  0  0  0  0  0  0  0  0  0
    5.3380   -1.8611   -1.4014 H   0  0  0  0  0  0  0  0  0  0  0  0
    5.8697   -1.1691    0.1491 H   0  0  0  0  0  0  0  0  0  0  0  0
    5.6005   -2.9102   -0.0128 H   0  0  0  0  0  0  0  0  0  0  0  0
    2.0870    3.5968   -0.9784 H   0  0  0  0  0  0  0  0  0  0  0  0
    1.3145    2.0652   -0.6143 H   0  0  0  0  0  0  0  0  0  0  0  0
    1.8319    2.4104   -2.2648 H   0  0  0  0  0  0  0  0  0  0  0  0
    5.5391    2.3858   -1.5770 H   0  0  0  0  0  0  0  0  0  0  0  0
    4.5012    3.8077   -1.4270 H   0  0  0  0  0  0  0  0  0  0  0  0
    4.3099    2.7091   -2.8060 H   0  0  0  0  0  0  0  0  0  0  0  0
   -2.3981   -1.6031    2.0930 H   0  0  0  0  0  0  0  0  0  0  0  0
   -4.0457   -2.2409    0.4032 H   0  0  0  0  0  0  0  0  0  0  0  0
   -2.0945   -1.2561   -1.7440 H   0  0  0  0  0  0  0  0  0  0  0  0
   -4.7893   -0.0102   -0.9913 H   0  0  0  0  0  0  0  0  0  0  0  0
   -2.0463    1.2118   -0.2485 H   0  0  0  0  0  0  0  0  0  0  0  0
   -1.3999   -3.0124   -0.2914 H   0  0  0  0  0  0  0  0  0  0  0  0
   -3.9459   -1.5867   -3.0150 H   0  0  0  0  0  0  0  0  0  0  0  0
   -4.0152    1.6378   -2.2985 H   0  0  0  0  0  0  0  0  0  0  0  0
   -4.4611    3.7306   -0.5138 H   0  0  0  0  0  0  0  0  0  0  0  0
  1 23  1  0  0  0  0
  1 24  1  0  0  0  0
  2 23  2  0  0  0  0
  3 24  1  0  0  0  0
  3 28  1  0  0  0  0
  4 25  1  0  0  0  0
  4 56  1  0  0  0  0
  5 26  1  0  0  0  0
  5 57  1  0  0  0  0
  6 27  1  0  0  0  0
  6 58  1  0  0  0  0
  7 29  1  0  0  0  0
  7 59  1  0  0  0  0
  8 29  2  0  0  0  0
  9 10  1  0  0  0  0
  9 11  1  0  0  0  0
  9 12  1  0  0  0  0
  9 13  1  0  0  0  0
 10 15  1  0  0  0  0
 10 19  1  0  0  0  0
 10 30  1  0  0  0  0
 11 16  1  0  0  0  0
 11 18  1  0  0  0  0
 11 31  1  0  0  0  0
 12 14  1  0  0  0  0
 12 32  1  0  0  0  0
 12 33  1  0  0  0  0
 13 17  1  0  0  0  0
 13 20  1  0  0  0  0
 13 34  1  0  0  0  0
 14 15  1  0  0  0  0
 14 21  1  0  0  0  0
 14 22  1  0  0  0  0
 15 35  1  0  0  0  0
 15 36  1  0  0  0  0
 16 17  1  0  0  0  0
 16 37  1  0  0  0  0
 16 38  1  0  0  0  0
 17 39  1  0  0  0  0
 17 40  1  0  0  0  0
 18 19  2  0  0  0  0
 18 23  1  0  0  0  0
 19 41  1  0  0  0  0
 20 42  1  0  0  0  0
 20 43  1  0  0  0  0
 20 44  1  0  0  0  0
 21 45  1  0  0  0  0
 21 46  1  0  0  0  0
 21 47  1  0  0  0  0
 22 48  1  0  0  0  0
 22 49  1  0  0  0  0
 22 50  1  0  0  0  0
 24 25  1  0  0  0  0
 24 51  1  0  0  0  0
 25 26  1  0  0  0  0
 25 52  1  0  0  0  0
 26 27  1  0  0  0  0
 26 53  1  0  0  0  0
 27 28  1  0  0  0  0
 27 54  1  0  0  0  0
 28 29  1  0  0  0  0
 28 55  1  0  0  0  0
M  END
> <PUBCHEM_COMPOUND_CID>
128725

> <PUBCHEM_CONFORMER_RMSD>
0.8

> <PUBCHEM_CONFORMER_DIVERSEORDER>
1
171
73
40
147
146
66
67
108
170
156
19
172
9
75
151
47
142
72
178
25
159
184
56
98
118
150
81
161
185
11
80
28
137
58
107
177
186
31
181
105
160
13
132
99
64
174
60
85
133
165
59
168
37
52
18
179
140
89
166
42
109
134
86
114
110
139
12
70
175
180
144
96
157
153
14
176
41
155
162
183
103
95
120
36
4
152
111
51
148
87
138
123
3
116
94
130
163
122
158
124
50
82
131
2
69
121
102
125
117
143
164
101
93
106
136
83
115
97
74
15
24
141
182
35
104
126
90
128
135
53
100
154
112
119
167
169
10
43
7
54
34
92
5
145
113
45
62
27
129
91
48
23
173
78
30
32
26
76
55
127
71
68
88
79
63
84
65
77
8
46
6
22
20
149
29
44
17
21
33
39
49
16
38
61
57

> <PUBCHEM_MMFF94_PARTIAL_CHARGES>
24
1 -0.43
10 0.14
11 0.14
18 -0.12
19 -0.29
2 -0.57
23 0.71
24 0.56
25 0.28
26 0.28
27 0.28
28 0.34
29 0.66
3 -0.56
4 -0.68
41 0.15
5 -0.68
56 0.4
57 0.4
58 0.4
59 0.5
6 -0.68
7 -0.65
8 -0.57

> <PUBCHEM_EFFECTIVE_ROTOR_COUNT>
6.4

> <PUBCHEM_PHARMACOPHORE_FEATURES>
16
1 2 acceptor
1 3 acceptor
1 4 acceptor
1 4 donor
1 5 acceptor
1 5 donor
1 6 acceptor
1 6 donor
1 7 acceptor
1 8 acceptor
3 14 21 22 hydrophobe
3 7 8 29 anion
5 9 10 11 18 19 rings
5 9 10 12 14 15 rings
5 9 11 13 16 17 rings
6 3 24 25 26 27 28 rings

> <PUBCHEM_HEAVY_ATOM_COUNT>
29

> <PUBCHEM_ATOM_DEF_STEREO_COUNT>
7

> <PUBCHEM_ATOM_UDEF_STEREO_COUNT>
2

> <PUBCHEM_BOND_DEF_STEREO_COUNT>
0

> <PUBCHEM_BOND_UDEF_STEREO_COUNT>
0

> <PUBCHEM_ISOTOPIC_ATOM_COUNT>
0

> <PUBCHEM_COMPONENT_COUNT>
1

> <PUBCHEM_CACTVS_TAUTO_COUNT>
1

> <PUBCHEM_CONFORMER_ID>
0001F6D500000001

> <PUBCHEM_MMFF94_ENERGY>
92.1078

> <PUBCHEM_FEATURE_SELFOVERLAP>
82.059

> <PUBCHEM_SHAPE_FINGERPRINT>
10928967 22 16916505985656340847
11405975 8 18333733494332480018
11595378 159 12180139703762047473
12363563 72 16200428057103921794
12422481 6 18115568423641981088
12553582 1 16343436045613347874
12596599 1 17895185636430805607
12633257 1 17895183386041950580
12644460 14 7853574608934125354
13224815 77 18270963552170708698
13544653 18 11167644491707873307
13944108 23 16676961602357911541
14251764 38 18259982712607080612
14363568 33 16317540695707172395
15163728 17 17897751944347548748
17349148 13 18130504150490552826
18186145 218 17240485805742821890
19930381 70 17472143246550489213
20567600 299 18409169947875140860
21033648 29 14779532526540713428
21709351 56 18410014321402269734
21860390 5 17749102348875374932
21864079 5 17385436639693621381
22393880 68 18202013148386995188
22907989 373 18339636867125887999
23559900 14 17988075583218537362
2838139 119 18044388338598928444
312425 83 18335704918638767372
340366 18 18338803294928941510
46194498 28 18334301971835101062
469060 322 17689168123979098563
5081480 168 18116450158372109222
5281201 14 18261116283235667562
57527585 103 16227754357349700353
5895379 119 18261943094600254032
633830 44 18040719151472254824
7399639 24 17755887529245069250

> <PUBCHEM_SHAPE_MULTIPOLES>
549.85
10.43
3.41
1.96
1.64
0.25
-0.13
2.61
3.23
-0.41
1.19
0.92
0.49
-1.27

> <PUBCHEM_SHAPE_SELFOVERLAP>
1185.716

> <PUBCHEM_SHAPE_VOLUME>
303.7

> <PUBCHEM_COORDINATE_TYPE>
2
5
10

$$$$
