128890
  -OEChem-03292013323D

 27 28  0     1  0  0  0  0  0999 V2000
   -1.8034    1.0710   -1.4712 O   0  0  0  0  0  0  0  0  0  0  0  0
    0.2720    0.4144    0.4012 N   0  0  0  0  0  0  0  0  0  0  0  0
    1.9684    1.8545    0.2644 N   0  0  0  0  0  0  0  0  0  0  0  0
    1.4803   -1.6779    0.1510 N   0  0  0  0  0  0  0  0  0  0  0  0
   -4.0127    0.2259    0.1702 N   0  0  0  0  0  0  0  0  0  0  0  0
    3.8745   -1.2917   -0.1219 N   0  0  0  0  0  0  0  0  0  0  0  0
    4.8293    0.9027   -0.1286 N   0  0  0  0  0  0  0  0  0  0  0  0
   -5.1946   -0.1014    0.3744 N   0  3  0  0  0  0  0  0  0  0  0  0
   -6.2800   -0.3938    0.5673 N   0  5  0  0  0  0  0  0  0  0  0  0
   -1.0808   -0.0666    0.5430 C   0  0  0  0  0  0  0  0  0  0  0  0
   -1.7966   -0.1921   -0.8067 C   0  0  1  0  0  0  0  0  0  0  0  0
    1.3963   -0.3412    0.2270 C   0  0  0  0  0  0  0  0  0  0  0  0
   -3.2351   -0.6895   -0.6708 C   0  0  0  0  0  0  0  0  0  0  0  0
    2.4370    0.5702    0.1449 C   0  0  0  0  0  0  0  0  0  0  0  0
    0.6668    1.7260    0.4164 C   0  0  0  0  0  0  0  0  0  0  0  0
    3.7150    0.0510   -0.0362 C   0  0  0  0  0  0  0  0  0  0  0  0
    2.7636   -2.0614   -0.0245 C   0  0  0  0  0  0  0  0  0  0  0  0
   -1.5947    0.6492    1.1957 H   0  0  0  0  0  0  0  0  0  0  0  0
   -1.0500   -1.0299    1.0641 H   0  0  0  0  0  0  0  0  0  0  0  0
   -1.2393   -0.8859   -1.4478 H   0  0  0  0  0  0  0  0  0  0  0  0
   -3.6993   -0.7450   -1.6632 H   0  0  0  0  0  0  0  0  0  0  0  0
   -3.2383   -1.6957   -0.2344 H   0  0  0  0  0  0  0  0  0  0  0  0
   -0.0333    2.5409    0.5417 H   0  0  0  0  0  0  0  0  0  0  0  0
   -2.2305    0.9461   -2.3358 H   0  0  0  0  0  0  0  0  0  0  0  0
    2.9284   -3.1311   -0.0975 H   0  0  0  0  0  0  0  0  0  0  0  0
    5.7478    0.5013   -0.2603 H   0  0  0  0  0  0  0  0  0  0  0  0
    4.7129    1.9050   -0.0652 H   0  0  0  0  0  0  0  0  0  0  0  0
  1 11  1  0  0  0  0
  1 24  1  0  0  0  0
  2 10  1  0  0  0  0
  2 12  1  0  0  0  0
  2 15  1  0  0  0  0
  3 14  1  0  0  0  0
  3 15  2  0  0  0  0
  4 12  2  0  0  0  0
  4 17  1  0  0  0  0
  5  8  2  0  0  0  0
  5 13  1  0  0  0  0
  6 16  1  0  0  0  0
  6 17  2  0  0  0  0
  7 16  1  0  0  0  0
  7 26  1  0  0  0  0
  7 27  1  0  0  0  0
  8  9  2  0  0  0  0
 10 11  1  0  0  0  0
 10 18  1  0  0  0  0
 10 19  1  0  0  0  0
 11 13  1  0  0  0  0
 11 20  1  0  0  0  0
 12 14  1  0  0  0  0
 13 21  1  0  0  0  0
 13 22  1  0  0  0  0
 14 16  2  0  0  0  0
 15 23  1  0  0  0  0
 17 25  1  0  0  0  0
M  CHG  2   8   1   9  -1
M  END
> <PUBCHEM_COMPOUND_CID>
128890

> <PUBCHEM_CONFORMER_RMSD>
0.6

> <PUBCHEM_CONFORMER_DIVERSEORDER>
2
19
61
123
95
15
77
99
104
57
115
35
103
124
96
80
108
51
14
98
75
118
125
78
92
120
90
86
74
43
114
82
20
31
66
45
113
89
126
76
87
36
109
117
83
33
106
13
11
91
68
79
47
59
38
7
25
28
102
116
121
55
21
111
85
50
17
110
48
119
42
127
12
112
52
16
37
97
71
23
10
93
58
70
64
56
18
1
22
69
88
54
81
44
3
73
65
67
24
101
5
53
46
9
26
107
29
60
105
84
40
122
8
32
4
72
94
27
6
41
30
63
39
62
49
100
34

> <PUBCHEM_MMFF94_PARTIAL_CHARGES>
22
1 -0.68
10 0.26
11 0.28
12 0.11
13 0.25
14 0.23
15 0.04
16 0.41
17 0.47
2 0.05
23 0.15
24 0.4
25 0.15
26 0.4
27 0.4
3 -0.57
4 -0.57
5 -0.56
6 -0.62
7 -0.9
8 0.69
9 -0.37

> <PUBCHEM_EFFECTIVE_ROTOR_COUNT>
4

> <PUBCHEM_PHARMACOPHORE_FEATURES>
9
1 1 acceptor
1 1 donor
1 7 cation
1 7 donor
3 2 3 15 cation
3 2 4 12 cation
3 4 6 17 cation
5 2 3 12 14 15 rings
6 4 6 12 14 16 17 rings

> <PUBCHEM_HEAVY_ATOM_COUNT>
17

> <PUBCHEM_ATOM_DEF_STEREO_COUNT>
0

> <PUBCHEM_ATOM_UDEF_STEREO_COUNT>
1

> <PUBCHEM_BOND_DEF_STEREO_COUNT>
0

> <PUBCHEM_BOND_UDEF_STEREO_COUNT>
0

> <PUBCHEM_ISOTOPIC_ATOM_COUNT>
0

> <PUBCHEM_COMPONENT_COUNT>
1

> <PUBCHEM_CACTVS_TAUTO_COUNT>
3

> <PUBCHEM_CONFORMER_ID>
0001F77A00000002

> <PUBCHEM_MMFF94_ENERGY>
26.0176

> <PUBCHEM_FEATURE_SELFOVERLAP>
46.276

> <PUBCHEM_SHAPE_FINGERPRINT>
10354089 29 18272936037676699171
11471102 20 18411417315033747226
12107183 9 17695356880495737987
12236239 1 17632581556513071771
124424 183 11815900080286821428
14341114 176 18412271627564085715
14386348 63 17676492752581673939
15242433 33 18272652354833896127
15375462 189 18342167843496753130
16945 1 18413389848132810552
17834072 33 18272367607598417095
192875 21 10809343330012877358
200 152 18273214196922865673
20645477 70 18340488876440906270
21267235 1 18341901740751476286
23402539 116 16805596001467772535
23402655 69 18412257316142484597
23557571 272 17167858642974930108
33824 294 18408322168501308050
351380 180 10159696885073541759
465052 167 18272939332128047191
5104073 3 18338791191721918064
522135 26 18412825789471145787
7495541 125 16950569929594580593
8272917 22 18201445752884154615
83771 10 18410290285576964013

> <PUBCHEM_SHAPE_MULTIPOLES>
304.13
10.25
1.65
0.82
13.22
0.14
-0.18
1.43
0.94
-1.77
0.04
0.51
-0.09
0.11

> <PUBCHEM_SHAPE_SELFOVERLAP>
645.599

> <PUBCHEM_SHAPE_VOLUME>
167.1

> <PUBCHEM_COORDINATE_TYPE>
2
5
10

$$$$
