REMARK  Name = 128803
REMARK  5 active torsions:
REMARK  status: ('A' for Active; 'I' for Inactive)
REMARK    1  A    between atoms: N_3  and  C_10
REMARK    2  A    between atoms: C_5  and  C_24
REMARK    3  A    between atoms: C_13  and  O_16
REMARK    4  A    between atoms: O_16  and  C_20
REMARK    5  A    between atoms: C_25  and  N_32
REMARK                            x       y       z     vdW  Elec       q    Type
REMARK                         _______ _______ _______ _____ _____    ______ ____
ROOT
ATOM      1  O   UNL     1      -3.950  -0.732  -2.116  0.00  0.00    -0.270 OA
ATOM      2  O   UNL     1      -1.260  -0.062  -1.894  0.00  0.00    -0.252 OA
ATOM      3  N   UNL     1      -0.606   0.286   0.335  0.00  0.00    -0.268 N 
ATOM      4  N   UNL     1      -2.781  -0.284  -0.151  0.00  0.00    -0.236 N 
ATOM      5  C   UNL     1      -3.936  -0.625  -0.879  0.00  0.00    +0.254 C 
ATOM      6  C   UNL     1      -1.506  -0.021  -0.691  0.00  0.00    +0.310 C 
ATOM      7  H   UNL     1      -0.971   0.275   1.249  0.00  0.00    +0.156 HD
ATOM      8  H   UNL     1      -2.873  -0.225   0.827  0.00  0.00    +0.159 HD
ENDROOT
BRANCH   3  10
ATOM      9 CL   UNL     1       3.758   1.546   2.670  0.00  0.00    -0.079 Cl
ATOM     10  C   UNL     1       0.766   0.609   0.217  0.00  0.00    +0.053 C 
ATOM     11  C   UNL     1       1.499   0.885   1.360  0.00  0.00    +0.029 C 
ATOM     12  C   UNL     1       1.349   0.642  -1.040  0.00  0.00    +0.018 C 
ATOM     13  C   UNL     1       3.453   1.241  -0.016  0.00  0.00    +0.170 C 
ATOM     14  C   UNL     1       2.852   1.204   1.243  0.00  0.00    +0.094 C 
ATOM     15  C   UNL     1       2.702   0.961  -1.157  0.00  0.00    +0.041 C 
BRANCH  13  16
ATOM     16  O   UNL     1       4.774   1.550  -0.160  0.00  0.00    -0.391 OA
BRANCH  16  20
ATOM     17 BR   UNL     1       8.676  -2.922  -0.008  0.00  0.00    -0.050 Br
ATOM     18  N   UNL     1       5.170  -0.722   0.049  0.00  0.00    -0.184 NA
ATOM     19  N   UNL     1       6.976   0.843  -0.269  0.00  0.00    -0.162 NA
ATOM     20  C   UNL     1       5.683   0.507  -0.126  0.00  0.00    +0.196 C 
ATOM     21  C   UNL     1       6.085  -1.714   0.079  0.00  0.00    +0.174 C 
ATOM     22  C   UNL     1       7.834  -0.197  -0.229  0.00  0.00    +0.117 C 
ATOM     23  C   UNL     1       7.442  -1.509  -0.055  0.00  0.00    +0.058 C 
ENDBRANCH  16  20
ENDBRANCH  13  16
ENDBRANCH   3  10
BRANCH   5  24
ATOM     24  C   UNL     1      -5.143  -0.886  -0.105  0.00  0.00    +0.076 C 
ATOM     25  C   UNL     1      -6.043   0.132   0.212  0.00  0.00    +0.147 C 
ATOM     26  C   UNL     1      -5.390  -2.192   0.320  0.00  0.00    +0.006 C 
ATOM     27  C   UNL     1      -7.188  -0.155   0.955  0.00  0.00    +0.024 C 
ATOM     28  C   UNL     1      -6.535  -2.479   1.063  0.00  0.00    +0.000 C 
ATOM     29  C   UNL     1      -7.434  -1.461   1.380  0.00  0.00    +0.002 C 
BRANCH  25  32
ATOM     30  O   UNL     1      -6.650   2.354   0.098  0.00  0.00    -0.126 OA
ATOM     31  O   UNL     1      -4.785   1.729  -0.876  0.00  0.00    -0.126 OA
ATOM     32  N   UNL     1      -5.814   1.472  -0.210  0.00  0.00    +0.058 N 
ENDBRANCH  25  32
ENDBRANCH   5  24
TORSDOF 5
