REMARK  Name = 128841
REMARK  9 active torsions:
REMARK  status: ('A' for Active; 'I' for Inactive)
REMARK    1  A    between atoms: CA_1  and  N_3
REMARK    2  A    between atoms: CA_1  and  C_13
REMARK    3  A    between atoms: CA_1  and  CB_16
REMARK    4  A    between atoms: C_4  and  CA_6
REMARK    5  A    between atoms: CA_6  and  N_8
REMARK    6  A    between atoms: C_13  and  O_14
REMARK    7  A    between atoms: CB_16  and  CG_17
REMARK    8  A    between atoms: CG_17  and  CD_19
REMARK    9  A    between atoms: CD_19  and  OE1_20
REMARK                            x       y       z     vdW  Elec       q    Type
REMARK                         _______ _______ _______ _____ _____    ______ ____
ROOT
ATOM      1  CA  GLU A   2       0.072   0.970   0.590  0.00  0.00    +0.172 C 
ENDROOT
BRANCH   1   3
ATOM      2  O   ALA A   1      -2.100  -0.610   1.627  0.00  0.00    -0.277 OA
ATOM      3  N   GLU A   2      -0.977   0.338  -0.169  0.00  0.00    -0.298 N 
ATOM      4  C   ALA A   1      -1.991  -0.410   0.419  0.00  0.00    +0.202 C 
ATOM      5  H   GLU A   2      -0.976   0.440  -1.148  0.00  0.00    +0.150 HD
BRANCH   4   6
ATOM      6  CA  ALA A   1      -2.959  -0.977  -0.612  0.00  0.00    +0.013 C 
ATOM      7  CB  ALA A   1      -4.117  -0.013  -0.835  0.00  0.00    -0.015 C 
BRANCH   6   8
ATOM      8  N   ALA A   1      -3.456  -2.259  -0.118  0.00  0.00    +0.387 N 
ATOM      9  H1  ALA A   1      -2.672  -2.895   0.027  0.00  0.00    -0.089 HD
ATOM     10  H2  ALA A   1      -4.098  -2.660  -0.802  0.00  0.00    -0.089 HD
ATOM     11  H3  ALA A   1      -3.946  -2.116   0.765  0.00  0.00    -0.089 HD
ENDBRANCH   6   8
ENDBRANCH   4   6
ENDBRANCH   1   3
BRANCH   1  13
ATOM     12  OXT GLU A   2      -0.028   2.639  -1.181  0.00  0.00    -0.248 OA
ATOM     13  C   GLU A   2       0.413   2.276  -0.098  0.00  0.00    +0.332 C 
BRANCH  13  14
ATOM     14  O   GLU A   2       1.252   3.039   0.650  0.00  0.00    -0.479 OA
ATOM     15  H   GLU A   2       1.565   2.722   1.474  0.00  0.00    +0.295 HD
ENDBRANCH  13  14
ENDBRANCH   1  13
BRANCH   1  16
ATOM     16  CB  GLU A   2       1.281   0.051   0.808  0.00  0.00    +0.043 C 
BRANCH  16  17
ATOM     17  CG  GLU A   2       2.016  -0.398  -0.461  0.00  0.00    +0.112 C 
BRANCH  17  19
ATOM     18  OE2 GLU A   2       3.559  -1.694   0.910  0.00  0.00    -0.250 OA
ATOM     19  CD  GLU A   2       3.193  -1.312  -0.193  0.00  0.00    +0.314 C 
BRANCH  19  20
ATOM     20  OE1 GLU A   2       3.842  -1.640  -1.340  0.00  0.00    -0.480 OA
ATOM     21  HE1 GLU A   2       3.527  -1.325  -2.164  0.00  0.00    +0.295 HD
ENDBRANCH  19  20
ENDBRANCH  17  19
ENDBRANCH  16  17
ENDBRANCH   1  16
TORSDOF 9
