REMARK  Name = 128887
REMARK  5 active torsions:
REMARK  status: ('A' for Active; 'I' for Inactive)
REMARK    1  A    between atoms: C_3  and  C_18
REMARK    2  A    between atoms: C_6  and  O_15
REMARK    3  A    between atoms: C_7  and  C_9
REMARK    4  A    between atoms: N_8  and  N_14
REMARK    5  A    between atoms: C_18  and  O_19
REMARK                            x       y       z     vdW  Elec       q    Type
REMARK                         _______ _______ _______ _____ _____    ______ ____
ROOT
ATOM      1  O   UNL     1      -0.723  -1.372  -0.897  0.00  0.00    -0.273 OA
ATOM      2  N   UNL     1       0.783   0.187  -0.088  0.00  0.00    -0.268 N 
ATOM      3  C   UNL     1       1.953  -0.342  -0.776  0.00  0.00    +0.177 C 
ATOM      4  C   UNL     1       2.978   0.781  -0.708  0.00  0.00    +0.062 C 
ATOM      5  C   UNL     1       1.111   1.398   0.661  0.00  0.00    +0.123 C 
ATOM      6  C   UNL     1       2.629   1.508   0.591  0.00  0.00    +0.132 C 
ATOM      7  C   UNL     1      -0.485  -0.346  -0.257  0.00  0.00    +0.242 C 
ENDROOT
BRANCH   7   9
ATOM      8  N   UNL     1      -2.824   0.123  -0.342  0.00  0.00    -0.169 NA
ATOM      9  C   UNL     1      -1.595   0.404   0.410  0.00  0.00    +0.153 C 
ATOM     10  C   UNL     1      -1.842  -0.124   1.823  0.00  0.00    +0.028 C 
ATOM     11  C   UNL     1      -3.177  -0.846   1.738  0.00  0.00    +0.021 C 
ATOM     12  C   UNL     1      -3.897  -0.110   0.624  0.00  0.00    +0.093 C 
BRANCH   8  14
ATOM     13  O   UNL     1      -2.494   0.656  -2.328  0.00  0.00    -0.082 OA
ATOM     14  N   UNL     1      -3.125   0.952  -1.308  0.00  0.00    +0.033 NA
ENDBRANCH   8  14
ENDBRANCH   7   9
BRANCH   6  15
ATOM     15  O   UNL     1       3.056   2.855   0.536  0.00  0.00    -0.383 OA
ATOM     16  H   UNL     1       4.025   2.885   0.492  0.00  0.00    +0.210 HD
ENDBRANCH   6  15
BRANCH   3  18
ATOM     17  O   UNL     1       2.253  -1.725   1.184  0.00  0.00    -0.248 OA
ATOM     18  C   UNL     1       2.400  -1.555  -0.017  0.00  0.00    +0.332 C 
BRANCH  18  19
ATOM     19  O   UNL     1       2.996  -2.446  -0.847  0.00  0.00    -0.479 OA
ATOM     20  H   UNL     1       3.077  -2.253  -1.760  0.00  0.00    +0.295 HD
ENDBRANCH  18  19
ENDBRANCH   3  18
TORSDOF 5
