REMARK  Name = 128886
REMARK  6 active torsions:
REMARK  status: ('A' for Active; 'I' for Inactive)
REMARK    1  A    between atoms: C_1  and  S_7
REMARK    2  A    between atoms: C_2  and  C_22
REMARK    3  A    between atoms: S_7  and  N_12
REMARK    4  A    between atoms: N_11  and  C_16
REMARK    5  A    between atoms: C_22  and  C_23
REMARK    6  A    between atoms: C_23  and  N_25
REMARK                            x       y       z     vdW  Elec       q    Type
REMARK                         _______ _______ _______ _____ _____    ______ ____
ROOT
ATOM      1  C   UNL     1      -0.569  -3.015   0.223  0.00  0.00    +0.125 C 
ATOM      2  C   UNL     1       2.061  -2.669  -0.641  0.00  0.00    -0.020 C 
ATOM      3  C   UNL     1      -0.169  -3.521  -1.014  0.00  0.00    +0.020 C 
ATOM      4  C   UNL     1       0.346  -2.337   1.028  0.00  0.00    +0.020 C 
ATOM      5  C   UNL     1       1.146  -3.347  -1.446  0.00  0.00    -0.003 C 
ATOM      6  C   UNL     1       1.661  -2.163   0.596  0.00  0.00    -0.003 C 
ENDROOT
BRANCH   1   7
ATOM      7  S   UNL     1      -2.234  -3.236   0.772  0.00  0.00    +0.077 S 
ATOM      8  O   UNL     1      -2.244  -3.178   2.220  0.00  0.00    -0.150 OA
ATOM      9  O   UNL     1      -2.753  -4.399   0.079  0.00  0.00    -0.150 OA
BRANCH   7  12
ATOM     10  O   UNL     1      -2.397  -0.321   1.831  0.00  0.00    -0.251 OA
ATOM     11  N   UNL     1      -3.642   0.410   0.026  0.00  0.00    -0.289 N 
ATOM     12  N   UNL     1      -2.974  -1.829   0.143  0.00  0.00    -0.169 N 
ATOM     13  C   UNL     1      -2.961  -0.539   0.763  0.00  0.00    +0.319 C 
ATOM     14  H   UNL     1      -4.063   0.135  -0.821  0.00  0.00    +0.151 HD
ATOM     15  H   UNL     1      -3.449  -1.913  -0.715  0.00  0.00    +0.178 HD
BRANCH  11  16
ATOM     16  C   UNL     1      -3.765   1.790   0.442  0.00  0.00    +0.073 C 
ATOM     17  C   UNL     1      -5.095   2.390  -0.025  0.00  0.00    +0.020 C 
ATOM     18  C   UNL     1      -2.576   2.622  -0.053  0.00  0.00    +0.020 C 
ATOM     19  C   UNL     1      -5.132   2.629  -1.535  0.00  0.00    +0.002 C 
ATOM     20  C   UNL     1      -2.617   2.860  -1.562  0.00  0.00    +0.002 C 
ATOM     21  C   UNL     1      -3.946   3.468  -2.001  0.00  0.00    +0.000 C 
ENDBRANCH  11  16
ENDBRANCH   7  12
ENDBRANCH   1   7
BRANCH   2  22
ATOM     22  C   UNL     1       3.467  -2.482  -1.103  0.00  0.00    +0.048 C 
BRANCH  22  23
ATOM     23  C   UNL     1       3.683  -1.193  -1.904  0.00  0.00    +0.096 C 
BRANCH  23  25
ATOM     24  O   UNL     1       5.505   0.380  -0.202  0.00  0.00    -0.250 OA
ATOM     25  N   UNL     1       3.380  -0.010  -1.132  0.00  0.00    -0.287 N 
ATOM     26  N   UNL     1       3.774   1.756   0.277  0.00  0.00    -0.142 N 
ATOM     27  N   UNL     1       2.467   2.087   0.122  0.00  0.00    -0.175 NA
ATOM     28  C   UNL     1       4.323   0.643  -0.369  0.00  0.00    +0.327 C 
ATOM     29  C   UNL     1       4.431   2.630   1.115  0.00  0.00    +0.095 C 
ATOM     30  C   UNL     1       2.319   3.178   0.876  0.00  0.00    +0.079 C 
ATOM     31  C   UNL     1       3.506   3.563   1.517  0.00  0.00    +0.034 C 
ATOM     32  C   UNL     1       1.003   3.834   0.958  0.00  0.00    +0.054 C 
ATOM     33  H   UNL     1       2.462   0.345  -1.153  0.00  0.00    +0.151 HD
ENDBRANCH  23  25
ENDBRANCH  22  23
ENDBRANCH   2  22
TORSDOF 6
