REMARK  Name = 128895
REMARK  8 active torsions:
REMARK  status: ('A' for Active; 'I' for Inactive)
REMARK    1  A    between atoms: C_1  and  C_5
REMARK    2  A    between atoms: C_1  and  N_15
REMARK    3  A    between atoms: C_1  and  C_27
REMARK    4  A    between atoms: C_6  and  C_10
REMARK    5  A    between atoms: N_15  and  C_18
REMARK    6  A    between atoms: C_18  and  C_20
REMARK    7  A    between atoms: C_20  and  C_21
REMARK    8  A    between atoms: C_27  and  C_30
REMARK                            x       y       z     vdW  Elec       q    Type
REMARK                         _______ _______ _______ _____ _____    ______ ____
ROOT
ATOM      1  C   UNL     1       1.445  -1.752  -0.035  0.00  0.00    +0.023 C 
ENDROOT
BRANCH   1   5
ATOM      2  O   UNL     1       1.394  -0.386  -2.037  0.00  0.00    -0.277 OA
ATOM      3  O   UNL     1       0.871   2.338  -1.575  0.00  0.00    -0.273 OA
ATOM      4  N   UNL     1       1.046   0.643   0.025  0.00  0.00    -0.256 N 
ATOM      5  C   UNL     1       1.306  -0.444  -0.812  0.00  0.00    +0.208 C 
ATOM      6  C   UNL     1       0.847   1.952  -0.410  0.00  0.00    +0.246 C 
ATOM      7  H   UNL     1       0.999   0.472   0.993  0.00  0.00    +0.157 HD
BRANCH   6  10
ATOM      8  O   UNL     1      -1.312   5.639  -0.388  0.00  0.00    -0.275 OA
ATOM      9  N   UNL     1       0.449   4.198   0.164  0.00  0.00    -0.298 N 
ATOM     10  C   UNL     1       0.606   2.888   0.731  0.00  0.00    +0.149 C 
ATOM     11  C   UNL     1      -0.717   2.635   1.429  0.00  0.00    +0.039 C 
ATOM     12  C   UNL     1      -1.723   3.482   0.650  0.00  0.00    +0.087 C 
ATOM     13  C   UNL     1      -0.880   4.599   0.084  0.00  0.00    +0.223 C 
ATOM     14  H   UNL     1       1.203   4.754  -0.136  0.00  0.00    +0.150 HD
ENDBRANCH   6  10
ENDBRANCH   1   5
BRANCH   1  15
ATOM     15  N   UNL     1       0.351  -2.630  -0.455  0.00  0.00    +0.393 N 
ATOM     16  H   UNL     1       0.588  -3.594  -0.222  0.00  0.00    -0.084 HD
ATOM     17  H   UNL     1       0.219  -2.531  -1.461  0.00  0.00    -0.084 HD
BRANCH  15  18
ATOM     18  C   UNL     1      -0.886  -2.266   0.218  0.00  0.00    -0.057 C 
ATOM     19  C   UNL     1      -0.860  -2.861   1.626  0.00  0.00    -0.023 C 
BRANCH  18  20
ATOM     20  C   UNL     1      -2.086  -2.761  -0.609  0.00  0.00    +0.005 C 
BRANCH  20  21
ATOM     21  C   UNL     1      -3.370  -2.025  -0.312  0.00  0.00    -0.024 C 
ATOM     22  C   UNL     1      -4.225  -2.490   0.688  0.00  0.00    -0.004 C 
ATOM     23  C   UNL     1      -3.701  -0.880  -1.036  0.00  0.00    -0.004 C 
ATOM     24  C   UNL     1      -5.411  -1.809   0.962  0.00  0.00    -0.000 C 
ATOM     25  C   UNL     1      -4.888  -0.199  -0.761  0.00  0.00    -0.000 C 
ATOM     26  C   UNL     1      -5.743  -0.664   0.238  0.00  0.00    -0.000 C 
ENDBRANCH  20  21
ENDBRANCH  18  20
ENDBRANCH  15  18
ENDBRANCH   1  15
BRANCH   1  27
ATOM     27  C   UNL     1       2.793  -2.428  -0.329  0.00  0.00    +0.030 C 
BRANCH  27  30
ATOM     28  N   UNL     1       5.164  -1.583  -0.559  0.00  0.00    -0.319 N 
ATOM     29  N   UNL     1       5.413  -0.176   1.142  0.00  0.00    -0.315 N 
ATOM     30  C   UNL     1       3.971  -1.587   0.108  0.00  0.00    +0.036 C 
ATOM     31  C   UNL     1       4.149  -0.712   1.154  0.00  0.00    +0.069 C 
ATOM     32  C   UNL     1       5.998  -0.721   0.099  0.00  0.00    +0.182 C 
ATOM     33  H   UNL     1       5.383  -2.104  -1.365  0.00  0.00    +0.148 HD
ATOM     34  H   UNL     1       5.796   0.473   1.775  0.00  0.00    +0.148 HD
ENDBRANCH  27  30
ENDBRANCH   1  27
TORSDOF 8
