REMARK  Name = 128896
REMARK  9 active torsions:
REMARK  status: ('A' for Active; 'I' for Inactive)
REMARK    1  A    between atoms: C_4  and  C_8
REMARK    2  A    between atoms: C_5  and  C_22
REMARK    3  A    between atoms: N_7  and  C_13
REMARK    4  A    between atoms: C_13  and  C_15
REMARK    5  A    between atoms: C_15  and  C_16
REMARK    6  A    between atoms: C_22  and  N_24
REMARK    7  A    between atoms: C_22  and  C_34
REMARK    8  A    between atoms: C_25  and  C_29
REMARK    9  A    between atoms: C_34  and  C_37
REMARK                            x       y       z     vdW  Elec       q    Type
REMARK                         _______ _______ _______ _____ _____    ______ ____
ROOT
ATOM      1  O   UNL     1       0.923  -2.352   1.005  0.00  0.00    -0.277 OA
ATOM      2  O   UNL     1      -1.074  -0.494   1.688  0.00  0.00    -0.273 OA
ATOM      3  N   UNL     1       0.013  -0.691  -0.364  0.00  0.00    -0.256 N 
ATOM      4  C   UNL     1       0.857  -1.759  -0.068  0.00  0.00    +0.209 C 
ATOM      5  C   UNL     1      -0.899  -0.124   0.529  0.00  0.00    +0.246 C 
ATOM      6  H   UNL     1       0.063  -0.307  -1.269  0.00  0.00    +0.157 HD
ENDROOT
BRANCH   4   8
ATOM      7  N   UNL     1       2.947  -2.722  -0.684  0.00  0.00    +0.395 N 
ATOM      8  C   UNL     1       1.723  -2.125  -1.230  0.00  0.00    +0.021 C 
ATOM      9  C   UNL     1       1.078  -3.216  -2.084  0.00  0.00    -0.014 C 
ATOM     10  C   UNL     1       3.342  -3.783  -1.612  0.00  0.00    -0.077 C 
ATOM     11  C   UNL     1       2.006  -4.414  -1.953  0.00  0.00    -0.024 C 
ATOM     12  H   UNL     1       2.766  -3.099   0.246  0.00  0.00    -0.079 HD
BRANCH   7  13
ATOM     13  C   UNL     1       4.012  -1.752  -0.472  0.00  0.00    -0.053 C 
ATOM     14  C   UNL     1       5.245  -2.495   0.041  0.00  0.00    -0.023 C 
BRANCH  13  15
ATOM     15  C   UNL     1       3.530  -0.664   0.505  0.00  0.00    +0.006 C 
BRANCH  15  16
ATOM     16  C   UNL     1       4.554   0.416   0.760  0.00  0.00    -0.024 C 
ATOM     17  C   UNL     1       5.468   0.278   1.804  0.00  0.00    -0.004 C 
ATOM     18  C   UNL     1       4.585   1.552  -0.049  0.00  0.00    -0.004 C 
ATOM     19  C   UNL     1       6.414   1.276   2.040  0.00  0.00    -0.000 C 
ATOM     20  C   UNL     1       5.531   2.550   0.187  0.00  0.00    -0.000 C 
ATOM     21  C   UNL     1       6.446   2.412   1.231  0.00  0.00    -0.000 C 
ENDBRANCH  15  16
ENDBRANCH  13  15
ENDBRANCH   7  13
ENDBRANCH   4   8
BRANCH   5  22
ATOM     22  C   UNL     1      -1.717   0.988  -0.120  0.00  0.00    +0.151 C 
BRANCH  22  24
ATOM     23  O   UNL     1      -3.909  -0.637  -1.111  0.00  0.00    -0.273 OA
ATOM     24  N   UNL     1      -3.054   0.907   0.408  0.00  0.00    -0.297 N 
ATOM     25  C   UNL     1      -4.041   0.098  -0.136  0.00  0.00    +0.241 C 
ATOM     26  H   UNL     1      -3.280   1.455   1.194  0.00  0.00    +0.150 HD
BRANCH  25  29
ATOM     27  O   UNL     1      -7.097  -2.859   0.284  0.00  0.00    -0.275 OA
ATOM     28  N   UNL     1      -6.252  -0.699  -0.037  0.00  0.00    -0.298 N 
ATOM     29  C   UNL     1      -5.329   0.184   0.619  0.00  0.00    +0.149 C 
ATOM     30  C   UNL     1      -5.226  -0.379   2.024  0.00  0.00    +0.039 C 
ATOM     31  C   UNL     1      -5.535  -1.867   1.858  0.00  0.00    +0.087 C 
ATOM     32  C   UNL     1      -6.411  -1.909   0.629  0.00  0.00    +0.223 C 
ATOM     33  H   UNL     1      -6.722  -0.471  -0.871  0.00  0.00    +0.150 HD
ENDBRANCH  25  29
ENDBRANCH  22  24
BRANCH  22  34
ATOM     34  C   UNL     1      -1.075   2.351   0.148  0.00  0.00    +0.059 C 
BRANCH  34  37
ATOM     35  N   UNL     1      -1.782   3.498  -1.914  0.00  0.00    -0.246 NA
ATOM     36  N   UNL     1      -0.898   5.468  -1.165  0.00  0.00    -0.225 NA
ATOM     37  C   UNL     1      -1.880   3.502  -0.441  0.00  0.00    +0.148 C 
ATOM     38  C   UNL     1      -1.272   4.827  -0.116  0.00  0.00    +0.098 C 
ATOM     39  C   UNL     1      -1.225   4.634  -2.202  0.00  0.00    +0.194 C 
ENDBRANCH  34  37
ENDBRANCH  22  34
ENDBRANCH   5  22
TORSDOF 9
