REMARK  Name = 128871
REMARK  8 active torsions:
REMARK  status: ('A' for Active; 'I' for Inactive)
REMARK    1  A    between atoms: C_2  and  C_3
REMARK    2  A    between atoms: C_2  and  C_14
REMARK    3  A    between atoms: C_4  and  N_9
REMARK    4  A    between atoms: C_6  and  O_12
REMARK    5  A    between atoms: C_14  and  CA_15
REMARK    6  A    between atoms: CA_15  and  N_17
REMARK    7  A    between atoms: CA_15  and  C_22
REMARK    8  A    between atoms: C_22  and  O_23
REMARK                            x       y       z     vdW  Elec       q    Type
REMARK                         _______ _______ _______ _____ _____    ______ ____
ROOT
ATOM      1  O   UNL     1       0.121  -0.629   1.673  0.00  0.00    -0.291 OA
ATOM      2  C   UNL     1       0.340   0.253   0.847  0.00  0.00    +0.177 C 
ENDROOT
BRANCH   2   3
ATOM      3  C   UNL     1       1.725   0.423   0.314  0.00  0.00    +0.051 C 
ATOM      4  C   UNL     1       2.566  -0.663   0.216  0.00  0.00    +0.078 C 
ATOM      5  C   UNL     1       2.105   1.692  -0.064  0.00  0.00    +0.004 C 
ATOM      6  C   UNL     1       3.853  -0.471  -0.286  0.00  0.00    +0.146 C 
ATOM      7  C   UNL     1       3.392   1.884  -0.566  0.00  0.00    +0.003 C 
ATOM      8  C   UNL     1       4.266   0.803  -0.677  0.00  0.00    +0.038 C 
BRANCH   4   9
ATOM      9  N   UNL     1       2.153  -1.957   0.611  0.00  0.00    -0.355 N 
ATOM     10  H   UNL     1       1.246  -2.097   0.966  0.00  0.00    +0.142 HD
ATOM     11  H   UNL     1       2.774  -2.717   0.531  0.00  0.00    +0.142 HD
ENDBRANCH   4   9
BRANCH   6  12
ATOM     12  O   UNL     1       4.724  -1.513  -0.403  0.00  0.00    -0.504 OA
ATOM     13  H   UNL     1       4.461  -2.374  -0.144  0.00  0.00    +0.292 HD
ENDBRANCH   6  12
ENDBRANCH   2   3
BRANCH   2  14
ATOM     14  C   UNL     1      -0.756   1.185   0.344  0.00  0.00    +0.100 C 
BRANCH  14  15
ATOM     15  CA  UNL     1      -2.138   0.531   0.333  0.00  0.00    +0.179 C 
BRANCH  15  17
ATOM     16  O   UNL     1      -3.886  -1.770   0.612  0.00  0.00    -0.275 OA
ATOM     17  N   UNL     1      -2.173  -0.649  -0.497  0.00  0.00    -0.296 N 
ATOM     18  C   UNL     1      -3.049  -1.702  -0.284  0.00  0.00    +0.223 C 
ATOM     19  C   UNL     1      -2.891  -2.793  -1.309  0.00  0.00    +0.095 C 
ATOM     20  H   UNL     1      -1.544  -0.709  -1.252  0.00  0.00    +0.150 HD
ENDBRANCH  15  17
BRANCH  15  22
ATOM     21  OXT UNL     1      -3.430   1.645  -1.407  0.00  0.00    -0.248 OA
ATOM     22  C   UNL     1      -3.169   1.496  -0.220  0.00  0.00    +0.332 C 
BRANCH  22  23
ATOM     23  O   UNL     1      -3.753   2.233   0.761  0.00  0.00    -0.479 OA
ATOM     24  H   UNL     1      -3.523   2.086   1.658  0.00  0.00    +0.295 HD
ENDBRANCH  22  23
ENDBRANCH  15  22
ENDBRANCH  14  15
ENDBRANCH   2  14
TORSDOF 8
