128878
  -OEChem-03292013323D

 33 34  0     1  0  0  0  0  0999 V2000
    2.4634   -1.8582    1.1712 S   0  0  0  0  0  0  0  0  0  0  0  0
   -6.0623    0.0667   -0.8204 O   0  0  0  0  0  0  0  0  0  0  0  0
   -5.1337    0.7963    1.1193 O   0  0  0  0  0  0  0  0  0  0  0  0
    3.8209    0.8393   -0.4200 N   0  0  0  0  0  0  0  0  0  0  0  0
    1.5956    1.0975   -0.0565 N   0  0  0  0  0  0  0  0  0  0  0  0
    3.1310    2.7980    0.6257 N   0  0  0  0  0  0  0  0  0  0  0  0
    1.7985   -0.2084   -0.7744 C   0  0  1  0  0  0  0  0  0  0  0  0
    3.3294   -0.4237   -0.9050 C   0  0  2  0  0  0  0  0  0  0  0  0
    1.1772   -1.3797   -0.0124 C   0  0  2  0  0  0  0  0  0  0  0  0
    3.7991   -1.5694   -0.0144 C   0  0  0  0  0  0  0  0  0  0  0  0
   -0.1482   -1.0871    0.6707 C   0  0  0  0  0  0  0  0  0  0  0  0
   -1.2489   -0.6388   -0.2941 C   0  0  0  0  0  0  0  0  0  0  0  0
    2.7995    1.6035    0.0595 C   0  0  0  0  0  0  0  0  0  0  0  0
   -2.6200   -0.3820    0.3377 C   0  0  0  0  0  0  0  0  0  0  0  0
   -3.6942    0.0050   -0.6782 C   0  0  0  0  0  0  0  0  0  0  0  0
   -5.0075    0.3409   -0.0088 C   0  0  0  0  0  0  0  0  0  0  0  0
    1.3401   -0.1118   -1.7665 H   0  0  0  0  0  0  0  0  0  0  0  0
    3.6381   -0.5756   -1.9443 H   0  0  0  0  0  0  0  0  0  0  0  0
    1.0515   -2.2255   -0.6993 H   0  0  0  0  0  0  0  0  0  0  0  0
    3.9200   -2.4823   -0.6065 H   0  0  0  0  0  0  0  0  0  0  0  0
    4.7426   -1.3636    0.4999 H   0  0  0  0  0  0  0  0  0  0  0  0
   -0.4942   -1.9928    1.1867 H   0  0  0  0  0  0  0  0  0  0  0  0
   -0.0301   -0.3220    1.4489 H   0  0  0  0  0  0  0  0  0  0  0  0
    4.8053    1.0696   -0.3603 H   0  0  0  0  0  0  0  0  0  0  0  0
   -0.9376    0.2775   -0.8091 H   0  0  0  0  0  0  0  0  0  0  0  0
   -1.3626   -1.4053   -1.0715 H   0  0  0  0  0  0  0  0  0  0  0  0
   -2.9445   -1.2778    0.8818 H   0  0  0  0  0  0  0  0  0  0  0  0
   -2.5169    0.4122    1.0878 H   0  0  0  0  0  0  0  0  0  0  0  0
   -3.8507   -0.8324   -1.3678 H   0  0  0  0  0  0  0  0  0  0  0  0
   -3.3819    0.8789   -1.2596 H   0  0  0  0  0  0  0  0  0  0  0  0
    2.4224    3.4134    1.0100 H   0  0  0  0  0  0  0  0  0  0  0  0
    4.0949    3.1093    0.6761 H   0  0  0  0  0  0  0  0  0  0  0  0
   -6.9185    0.2794   -0.3913 H   0  0  0  0  0  0  0  0  0  0  0  0
  1  9  1  0  0  0  0
  1 10  1  0  0  0  0
  2 16  1  0  0  0  0
  2 33  1  0  0  0  0
  3 16  2  0  0  0  0
  4  8  1  0  0  0  0
  4 13  1  0  0  0  0
  4 24  1  0  0  0  0
  5  7  1  0  0  0  0
  5 13  2  0  0  0  0
  6 13  1  0  0  0  0
  6 31  1  0  0  0  0
  6 32  1  0  0  0  0
  7  8  1  0  0  0  0
  7  9  1  0  0  0  0
  7 17  1  0  0  0  0
  8 10  1  0  0  0  0
  8 18  1  0  0  0  0
  9 11  1  0  0  0  0
  9 19  1  0  0  0  0
 10 20  1  0  0  0  0
 10 21  1  0  0  0  0
 11 12  1  0  0  0  0
 11 22  1  0  0  0  0
 11 23  1  0  0  0  0
 12 14  1  0  0  0  0
 12 25  1  0  0  0  0
 12 26  1  0  0  0  0
 14 15  1  0  0  0  0
 14 27  1  0  0  0  0
 14 28  1  0  0  0  0
 15 16  1  0  0  0  0
 15 29  1  0  0  0  0
 15 30  1  0  0  0  0
M  END
> <PUBCHEM_COMPOUND_CID>
128878

> <PUBCHEM_CONFORMER_RMSD>
0.6

> <PUBCHEM_CONFORMER_DIVERSEORDER>
43
83
48
62
40
95
89
8
15
96
36
13
78
50
61
84
52
68
71
51
97
66
25
86
16
22
94
1
55
38
60
90
70
56
74
3
91
47
42
44
27
17
80
63
7
75
85
81
18
46
93
45
30
2
35
54
23
12
73
5
59
19
58
29
67
88
57
14
79
39
49
92
21
64
24
65
26
82
6
10
53
69
37
87
9
31
34
76
4
72
20
28
33
11
41
77
32

> <PUBCHEM_MMFF94_PARTIAL_CHARGES>
17
1 -0.46
10 0.23
13 0.55
15 0.06
16 0.66
2 -0.65
24 0.4
3 -0.57
31 0.4
32 0.4
33 0.5
4 -0.82
5 -0.7
6 -0.85
7 0.25
8 0.37
9 0.23

> <PUBCHEM_EFFECTIVE_ROTOR_COUNT>
5.8

> <PUBCHEM_PHARMACOPHORE_FEATURES>
9
1 2 acceptor
1 3 acceptor
1 4 donor
1 6 donor
3 2 3 16 anion
4 11 12 14 15 hydrophobe
4 4 5 6 13 cation
5 1 7 8 9 10 rings
5 4 5 7 8 13 rings

> <PUBCHEM_HEAVY_ATOM_COUNT>
16

> <PUBCHEM_ATOM_DEF_STEREO_COUNT>
3

> <PUBCHEM_ATOM_UDEF_STEREO_COUNT>
0

> <PUBCHEM_BOND_DEF_STEREO_COUNT>
0

> <PUBCHEM_BOND_UDEF_STEREO_COUNT>
0

> <PUBCHEM_ISOTOPIC_ATOM_COUNT>
0

> <PUBCHEM_COMPONENT_COUNT>
1

> <PUBCHEM_CACTVS_TAUTO_COUNT>
3

> <PUBCHEM_CONFORMER_ID>
0001F76E0000002B

> <PUBCHEM_MMFF94_ENERGY>
36.0609

> <PUBCHEM_FEATURE_SELFOVERLAP>
46.326

> <PUBCHEM_SHAPE_FINGERPRINT>
10912923 1 18272931609982401699
11089746 13 18410571786291920847
11471102 20 18408887326004277974
12730499 353 18260839206405941971
13081056 2 18334011683912208781
13167372 99 18270403768341680569
13167823 11 18342172293684531687
14115302 16 16702019785817999390
14528608 73 18412259554400532255
15061688 2 17985540302847030760
17802600 8 18335417924497140813
17834072 33 18341889715096164351
18186145 218 18334010596963885271
20369508 70 18335978680017880762
20645477 70 18412266116377766254
21033648 29 17458051652389274349
212847 35 18187086143873079790
21452121 103 18341886420513298584
22289505 5 18188484675350444629
22892500 29 18408885157224985854
23402655 69 18272092729169110430
23557571 272 15913048660013050435
23559900 14 16732987475127545411
3060560 45 18272656727364071382
4047638 21 18410858763137613894
474 4 18263363753516824021
495365 180 18334287686747377394
5104073 3 18334015016801803163
522135 26 18333731290856033646
5895379 119 16987735492840634776
633830 44 18344146986392242711
9971528 1 18059294262753354494

> <PUBCHEM_SHAPE_MULTIPOLES>
306.44
11.19
1.99
0.99
19.84
0.88
-0.08
2.32
0.63
-3.16
-0.66
0.05
-0.08
-0.1

> <PUBCHEM_SHAPE_SELFOVERLAP>
610.399

> <PUBCHEM_SHAPE_VOLUME>
183.3

> <PUBCHEM_COORDINATE_TYPE>
2
5
10

$$$$
