128896
  -OEChem-03292013323D

 67 70  0     1  0  0  0  0  0999 V2000
    0.9230   -2.3517    1.0050 O   0  0  0  0  0  0  0  0  0  0  0  0
   -1.0742   -0.4938    1.6881 O   0  0  0  0  0  0  0  0  0  0  0  0
   -3.9089   -0.6372   -1.1110 O   0  0  0  0  0  0  0  0  0  0  0  0
   -7.0966   -2.8589    0.2836 O   0  0  0  0  0  0  0  0  0  0  0  0
    2.9468   -2.7224   -0.6844 N   0  0  1  0  0  0  0  0  0  0  0  0
    0.0129   -0.6907   -0.3642 N   0  0  0  0  0  0  0  0  0  0  0  0
   -3.0544    0.9075    0.4076 N   0  0  0  0  0  0  0  0  0  0  0  0
   -6.2515   -0.6990   -0.0367 N   0  0  0  0  0  0  0  0  0  0  0  0
   -1.7817    3.4976   -1.9144 N   0  0  0  0  0  0  0  0  0  0  0  0
   -0.8978    5.4683   -1.1647 N   0  0  0  0  0  0  0  0  0  0  0  0
    1.7232   -2.1253   -1.2300 C   0  0  1  0  0  0  0  0  0  0  0  0
    1.0777   -3.2164   -2.0844 C   0  0  0  0  0  0  0  0  0  0  0  0
    3.3418   -3.7829   -1.6116 C   0  0  0  0  0  0  0  0  0  0  0  0
    2.0065   -4.4144   -1.9528 C   0  0  0  0  0  0  0  0  0  0  0  0
    4.0122   -1.7517   -0.4723 C   0  0  1  0  0  0  0  0  0  0  0  0
    3.5302   -0.6640    0.5051 C   0  0  0  0  0  0  0  0  0  0  0  0
    0.8569   -1.7591   -0.0683 C   0  0  0  0  0  0  0  0  0  0  0  0
    5.2454   -2.4954    0.0407 C   0  0  0  0  0  0  0  0  0  0  0  0
    4.5538    0.4163    0.7601 C   0  0  0  0  0  0  0  0  0  0  0  0
   -1.7167    0.9879   -0.1205 C   0  0  2  0  0  0  0  0  0  0  0  0
   -0.8993   -0.1238    0.5291 C   0  0  0  0  0  0  0  0  0  0  0  0
   -5.3286    0.1840    0.6188 C   0  0  1  0  0  0  0  0  0  0  0  0
   -1.0754    2.3513    0.1476 C   0  0  0  0  0  0  0  0  0  0  0  0
   -5.2256   -0.3790    2.0236 C   0  0  0  0  0  0  0  0  0  0  0  0
   -4.0407    0.0977   -0.1357 C   0  0  0  0  0  0  0  0  0  0  0  0
    5.4684    0.2781    1.8042 C   0  0  0  0  0  0  0  0  0  0  0  0
    4.5852    1.5524   -0.0486 C   0  0  0  0  0  0  0  0  0  0  0  0
   -5.5352   -1.8666    1.8578 C   0  0  0  0  0  0  0  0  0  0  0  0
   -1.8804    3.5018   -0.4407 C   0  0  1  0  0  0  0  0  0  0  0  0
   -6.4108   -1.9093    0.6295 C   0  0  0  0  0  0  0  0  0  0  0  0
    6.4141    1.2759    2.0398 C   0  0  0  0  0  0  0  0  0  0  0  0
    5.5311    2.5502    0.1869 C   0  0  0  0  0  0  0  0  0  0  0  0
   -1.2718    4.8266   -0.1160 C   0  0  0  0  0  0  0  0  0  0  0  0
    6.4455    2.4119    1.2312 C   0  0  0  0  0  0  0  0  0  0  0  0
   -1.2251    4.6343   -2.2023 C   0  0  0  0  0  0  0  0  0  0  0  0
    1.9328   -1.2546   -1.8650 H   0  0  0  0  0  0  0  0  0  0  0  0
    0.0566   -3.4747   -1.7845 H   0  0  0  0  0  0  0  0  0  0  0  0
    1.0494   -2.8944   -3.1326 H   0  0  0  0  0  0  0  0  0  0  0  0
    3.9944   -4.5346   -1.1573 H   0  0  0  0  0  0  0  0  0  0  0  0
    3.8148   -3.3873   -2.5195 H   0  0  0  0  0  0  0  0  0  0  0  0
    2.0451   -5.0109   -2.8690 H   0  0  0  0  0  0  0  0  0  0  0  0
    1.6671   -5.0629   -1.1355 H   0  0  0  0  0  0  0  0  0  0  0  0
    4.2858   -1.2713   -1.4226 H   0  0  0  0  0  0  0  0  0  0  0  0
    2.6522   -0.1331    0.1279 H   0  0  0  0  0  0  0  0  0  0  0  0
    3.2410   -1.1063    1.4678 H   0  0  0  0  0  0  0  0  0  0  0  0
    5.0378   -3.0253    0.9775 H   0  0  0  0  0  0  0  0  0  0  0  0
    6.0787   -1.8103    0.2215 H   0  0  0  0  0  0  0  0  0  0  0  0
    5.6382   -3.2166   -0.6832 H   0  0  0  0  0  0  0  0  0  0  0  0
    0.0637   -0.2953   -1.2997 H   0  0  0  0  0  0  0  0  0  0  0  0
   -1.7724    0.8091   -1.2012 H   0  0  0  0  0  0  0  0  0  0  0  0
   -5.7132    1.2078    0.5940 H   0  0  0  0  0  0  0  0  0  0  0  0
   -0.9750    2.5027    1.2313 H   0  0  0  0  0  0  0  0  0  0  0  0
   -0.0510    2.3580   -0.2491 H   0  0  0  0  0  0  0  0  0  0  0  0
   -6.0016    0.0742    2.6539 H   0  0  0  0  0  0  0  0  0  0  0  0
   -4.2642   -0.2187    2.5200 H   0  0  0  0  0  0  0  0  0  0  0  0
   -3.2627    1.4355    1.2504 H   0  0  0  0  0  0  0  0  0  0  0  0
   -4.6263   -2.4443    1.6624 H   0  0  0  0  0  0  0  0  0  0  0  0
   -6.0588   -2.2719    2.7269 H   0  0  0  0  0  0  0  0  0  0  0  0
    5.4519   -0.5987    2.4460 H   0  0  0  0  0  0  0  0  0  0  0  0
    3.8801    1.6713   -0.8672 H   0  0  0  0  0  0  0  0  0  0  0  0
   -2.9252    3.5050   -0.1153 H   0  0  0  0  0  0  0  0  0  0  0  0
   -6.7114   -0.4840   -0.9160 H   0  0  0  0  0  0  0  0  0  0  0  0
    7.1252    1.1689    2.8536 H   0  0  0  0  0  0  0  0  0  0  0  0
    5.5561    3.4345   -0.4431 H   0  0  0  0  0  0  0  0  0  0  0  0
   -1.1797    5.1862    0.9175 H   0  0  0  0  0  0  0  0  0  0  0  0
    7.1818    3.1889    1.4146 H   0  0  0  0  0  0  0  0  0  0  0  0
   -1.0135    4.9352   -3.2392 H   0  0  0  0  0  0  0  0  0  0  0  0
  1 17  2  0  0  0  0
  2 21  2  0  0  0  0
  3 25  2  0  0  0  0
  4 30  2  0  0  0  0
  5 11  1  0  0  0  0
  5 13  1  0  0  0  0
  5 15  1  0  0  0  0
  6 17  1  0  0  0  0
  6 21  1  0  0  0  0
  6 49  1  0  0  0  0
  7 20  1  0  0  0  0
  7 25  1  0  0  0  0
  7 56  1  0  0  0  0
  8 22  1  0  0  0  0
  8 30  1  0  0  0  0
  8 62  1  0  0  0  0
  9 29  1  0  0  0  0
  9 35  2  0  0  0  0
 10 33  2  0  0  0  0
 10 35  1  0  0  0  0
 11 12  1  0  0  0  0
 11 17  1  0  0  0  0
 11 36  1  0  0  0  0
 12 14  1  0  0  0  0
 12 37  1  0  0  0  0
 12 38  1  0  0  0  0
 13 14  1  0  0  0  0
 13 39  1  0  0  0  0
 13 40  1  0  0  0  0
 14 41  1  0  0  0  0
 14 42  1  0  0  0  0
 15 16  1  0  0  0  0
 15 18  1  0  0  0  0
 15 43  1  0  0  0  0
 16 19  1  0  0  0  0
 16 44  1  0  0  0  0
 16 45  1  0  0  0  0
 18 46  1  0  0  0  0
 18 47  1  0  0  0  0
 18 48  1  0  0  0  0
 19 26  2  0  0  0  0
 19 27  1  0  0  0  0
 20 21  1  0  0  0  0
 20 23  1  0  0  0  0
 20 50  1  0  0  0  0
 22 24  1  0  0  0  0
 22 25  1  0  0  0  0
 22 51  1  0  0  0  0
 23 29  1  0  0  0  0
 23 52  1  0  0  0  0
 23 53  1  0  0  0  0
 24 28  1  0  0  0  0
 24 54  1  0  0  0  0
 24 55  1  0  0  0  0
 26 31  1  0  0  0  0
 26 59  1  0  0  0  0
 27 32  2  0  0  0  0
 27 60  1  0  0  0  0
 28 30  1  0  0  0  0
 28 57  1  0  0  0  0
 28 58  1  0  0  0  0
 29 33  1  0  0  0  0
 29 61  1  0  0  0  0
 31 34  2  0  0  0  0
 31 63  1  0  0  0  0
 32 34  1  0  0  0  0
 32 64  1  0  0  0  0
 33 65  1  0  0  0  0
 34 66  1  0  0  0  0
 35 67  1  0  0  0  0
M  END
> <PUBCHEM_COMPOUND_CID>
128896

> <PUBCHEM_CONFORMER_RMSD>
1.2

> <PUBCHEM_CONFORMER_DIVERSEORDER>
1
89
130
142
48
91
77
210
105
25
162
164
140
74
155
41
114
39
63
118
233
97
88
174
209
115
230
64
154
193
136
224
194
121
65
239
100
138
95
6
218
192
103
144
184
26
225
180
220
228
234
221
170
201
185
166
92
108
117
36
188
238
45
2
128
52
198
53
57
93
79
86
227
151
191
33
161
240
7
56
235
20
112
84
190
160
104
109
122
37
149
231
123
27
165
82
152
226
73
212
66
94
78
83
106
204
187
110
213
59
178
14
189
146
67
31
135
99
141
47
9
177
60
158
159
119
131
203
17
195
29
219
80
71
217
134
208
223
55
216
11
199
179
176
148
28
62
22
87
51
49
3
69
129
111
68
197
183
236
30
24
42
125
153
90
171
127
46
76
173
124
182
145
12
35
101
215
50
133
120
150
211
175
75
13
116
205
8
222
163
70
113
61
196
137
10
172
206
85
202
96
98
40
81
72
15
167
107
237
19
147
16
126
139
232
34
58
156
32
143
200
186
181
43
44
132
38
102
23
18
168
157
169
4
5
207
54
21
214
229

> <PUBCHEM_MMFF94_PARTIAL_CHARGES>
40
1 -0.57
10 -0.66
11 0.33
13 0.27
15 0.27
16 0.14
17 0.57
19 -0.14
2 -0.57
20 0.36
21 0.57
22 0.36
25 0.57
26 -0.15
27 -0.15
28 0.06
29 0.31
3 -0.57
30 0.57
31 -0.15
32 -0.15
33 0.33
34 -0.15
35 0.6
4 -0.57
49 0.37
5 -0.81
56 0.37
59 0.15
6 -0.49
60 0.15
62 0.37
63 0.15
64 0.15
65 0.06
66 0.15
67 0.06
7 -0.73
8 -0.73
9 -0.7

> <PUBCHEM_EFFECTIVE_ROTOR_COUNT>
14

> <PUBCHEM_PHARMACOPHORE_FEATURES>
14
1 1 acceptor
1 10 acceptor
1 2 acceptor
1 3 acceptor
1 4 acceptor
1 5 cation
1 6 donor
1 7 donor
1 8 donor
3 9 10 35 cation
5 5 11 12 13 14 rings
5 8 22 24 28 30 rings
5 9 10 29 33 35 rings
6 19 26 27 31 32 34 rings

> <PUBCHEM_HEAVY_ATOM_COUNT>
35

> <PUBCHEM_ATOM_DEF_STEREO_COUNT>
3

> <PUBCHEM_ATOM_UDEF_STEREO_COUNT>
2

> <PUBCHEM_BOND_DEF_STEREO_COUNT>
0

> <PUBCHEM_BOND_UDEF_STEREO_COUNT>
0

> <PUBCHEM_ISOTOPIC_ATOM_COUNT>
0

> <PUBCHEM_COMPONENT_COUNT>
1

> <PUBCHEM_CACTVS_TAUTO_COUNT>
18

> <PUBCHEM_CONFORMER_ID>
0001F78000000001

> <PUBCHEM_MMFF94_ENERGY>
79.2975

> <PUBCHEM_FEATURE_SELFOVERLAP>
71.052

> <PUBCHEM_SHAPE_FINGERPRINT>
10258939 38 18334571330655958697
10842077 115 17907547287202385724
11445158 3 17899977424422497917
14068700 686 18412545370945944980
14294032 229 18129369544789878664
14840074 17 18272088339744260469
14856354 85 15626215819507813247
15183329 4 8286213750834186275
15219462 58 17823987731552773834
15781502 461 18114730633750636780
15927050 60 17330561358597489997
15961568 22 18334861640575926316
16126227 98 17843960575731462856
18393751 57 18198898292096095120
21703447 108 18265613173855694202
22149856 69 18271825526928218963
2260408 40 18056510363941960435
24771293 8 18339929306943102489
24771750 20 17611478814725916357
25019877 29 17917151718564484460
46194498 28 18271810056524609358
6004065 56 18263647445345103299
6523845 18 18130795564564340020
7399639 24 18341330007273033974
9962374 69 18122062268470814459

> <PUBCHEM_SHAPE_MULTIPOLES>
666.92
16.33
6.71
1.95
5.8
5.52
0.17
-4.18
-9.67
-0.96
5.25
-0.27
-0.03
4.91

> <PUBCHEM_SHAPE_SELFOVERLAP>
1416.361

> <PUBCHEM_SHAPE_VOLUME>
373.3

> <PUBCHEM_COORDINATE_TYPE>
2
5
10

$$$$
