REMARK  Name = 128804
REMARK  8 active torsions:
REMARK  status: ('A' for Active; 'I' for Inactive)
REMARK    1  A    between atoms: C_2  and  O_7
REMARK    2  A    between atoms: C_3  and  O_9
REMARK    3  A    between atoms: C_4  and  O_11
REMARK    4  A    between atoms: C_5  and  C_22
REMARK    5  A    between atoms: C_6  and  O_13
REMARK    6  A    between atoms: O_13  and  C_14
REMARK    7  A    between atoms: C_19  and  N_20
REMARK    8  A    between atoms: C_22  and  O_23
REMARK                            x       y       z     vdW  Elec       q    Type
REMARK                         _______ _______ _______ _____ _____    ______ ____
ROOT
ATOM      1  O   UNL     1       1.038   0.643  -0.161  0.00  0.00    -0.316 OA
ATOM      2  C   UNL     1       3.541  -0.578   0.524  0.00  0.00    +0.173 C 
ATOM      3  C   UNL     1       3.433   0.900   0.145  0.00  0.00    +0.169 C 
ATOM      4  C   UNL     1       2.390  -1.384  -0.079  0.00  0.00    +0.210 C 
ATOM      5  C   UNL     1       2.038   1.426   0.502  0.00  0.00    +0.177 C 
ATOM      6  C   UNL     1       1.045  -0.727   0.238  0.00  0.00    +0.318 C 
ENDROOT
BRANCH   2   7
ATOM      7  O   UNL     1       4.779  -1.113   0.064  0.00  0.00    -0.379 OA
ATOM      8  H   UNL     1       5.512  -0.604   0.444  0.00  0.00    +0.211 HD
ENDBRANCH   2   7
BRANCH   3   9
ATOM      9  O   UNL     1       3.643   1.051  -1.260  0.00  0.00    -0.379 OA
ATOM     10  H   UNL     1       4.524   0.720  -1.493  0.00  0.00    +0.211 HD
ENDBRANCH   3   9
BRANCH   4  11
ATOM     11  O   UNL     1       2.395  -2.698   0.479  0.00  0.00    -0.377 OA
ATOM     12  H   UNL     1       3.243  -3.127   0.286  0.00  0.00    +0.211 HD
ENDBRANCH   4  11
BRANCH   6  13
ATOM     13  O   UNL     1       0.032  -1.440  -0.470  0.00  0.00    -0.451 OA
BRANCH  13  14
ATOM     14  C   UNL     1      -1.253  -0.997  -0.314  0.00  0.00    +0.141 C 
ATOM     15  C   UNL     1      -1.828  -0.977   0.953  0.00  0.00    +0.038 C 
ATOM     16  C   UNL     1      -1.975  -0.569  -1.423  0.00  0.00    +0.038 C 
ATOM     17  C   UNL     1      -3.138  -0.526   1.112  0.00  0.00    +0.021 C 
ATOM     18  C   UNL     1      -3.286  -0.118  -1.264  0.00  0.00    +0.021 C 
ATOM     19  C   UNL     1      -3.867  -0.097   0.004  0.00  0.00    +0.087 C 
BRANCH  19  20
ATOM     20  N   UNL     1      -5.163   0.349   0.161  0.00  0.00    -0.130 NA
ATOM     21  N   UNL     1      -6.190   0.702   0.285  0.00  0.00    +0.004 NA
ENDBRANCH  19  20
ENDBRANCH  13  14
ENDBRANCH   6  13
BRANCH   5  22
ATOM     22  C   UNL     1       1.839   2.876   0.074  0.00  0.00    +0.169 C 
BRANCH  22  23
ATOM     23  O   UNL     1       0.527   3.276   0.430  0.00  0.00    -0.379 OA
ATOM     24  H   UNL     1       0.387   4.197   0.164  0.00  0.00    +0.211 HD
ENDBRANCH  22  23
ENDBRANCH   5  22
TORSDOF 8
