REMARK  Name = 128890
REMARK  3 active torsions:
REMARK  status: ('A' for Active; 'I' for Inactive)
REMARK    1  A    between atoms: N_1  and  C_13
REMARK    2  A    between atoms: C_13  and  C_14
REMARK    3  A    between atoms: C_14  and  O_16
REMARK                            x       y       z     vdW  Elec       q    Type
REMARK                         _______ _______ _______ _____ _____    ______ ____
ROOT
ATOM      1  N   UNL     1       0.272   0.414   0.401  0.00  0.00    -0.269 N 
ATOM      2  N   UNL     1       1.968   1.855   0.264  0.00  0.00    -0.242 NA
ATOM      3  N   UNL     1       1.480  -1.678   0.151  0.00  0.00    -0.228 NA
ATOM      4  N   UNL     1       3.874  -1.292  -0.122  0.00  0.00    -0.229 NA
ATOM      5  C   UNL     1       1.396  -0.341   0.227  0.00  0.00    +0.151 C 
ATOM      6  C   UNL     1       2.437   0.570   0.145  0.00  0.00    +0.140 C 
ATOM      7  C   UNL     1       0.667   1.726   0.416  0.00  0.00    +0.221 C 
ATOM      8  C   UNL     1       3.715   0.051  -0.036  0.00  0.00    +0.143 C 
ATOM      9  C   UNL     1       2.764  -2.061  -0.025  0.00  0.00    +0.253 C 
ATOM     10  N   UNL     1       4.829   0.903  -0.129  0.00  0.00    -0.342 N 
ATOM     11  H   UNL     1       5.729   0.524  -0.257  0.00  0.00    +0.144 HD
ATOM     12  H   UNL     1       4.710   1.878  -0.065  0.00  0.00    +0.144 HD
ENDROOT
BRANCH   1  13
ATOM     13  C   UNL     1      -1.081  -0.067   0.543  0.00  0.00    +0.123 C 
BRANCH  13  14
ATOM     14  C   UNL     1      -1.797  -0.192  -0.807  0.00  0.00    +0.130 C 
ATOM     15  C   UNL     1      -3.235  -0.690  -0.671  0.00  0.00    +0.034 C 
BRANCH  14  16
ATOM     16  O   UNL     1      -1.803   1.071  -1.471  0.00  0.00    -0.383 OA
ATOM     17  H   UNL     1      -0.893   1.394  -1.561  0.00  0.00    +0.210 HD
ENDBRANCH  14  16
ENDBRANCH  13  14
ENDBRANCH   1  13
TORSDOF 3
REMARK  Name = 128890
REMARK  3 active torsions:
REMARK  status: ('A' for Active; 'I' for Inactive)
REMARK    1  A    between atoms: N_1  and  C_13
REMARK    2  A    between atoms: C_13  and  C_14
REMARK    3  A    between atoms: C_14  and  O_16
REMARK                            x       y       z     vdW  Elec       q    Type
REMARK                         _______ _______ _______ _____ _____    ______ ____
ROOT
ATOM      1  N   UNL     1      -5.195  -0.101   0.374  0.00  0.00    +0.000 NA
ATOM      2  N   UNL     1      -6.280  -0.394   0.567  0.00  0.00    +0.000 NA
ENDROOT
TORSDOF 0
