128862
  -OEChem-03292013323D

 43 46  0     1  0  0  0  0  0999 V2000
    2.4418    1.3259    0.8252 P   0  0  1  0  0  0  0  0  0  0  0  0
   -3.8679   -2.0323    0.2614 O   0  0  0  0  0  0  0  0  0  0  0  0
    1.8185    0.4839   -0.4098 O   0  0  0  0  0  0  0  0  0  0  0  0
   -5.3813   -2.1130    2.0105 O   0  0  0  0  0  0  0  0  0  0  0  0
    3.9396    1.6795    0.3342 O   0  0  0  0  0  0  0  0  0  0  0  0
    1.6970    2.7603    0.7156 O   0  0  0  0  0  0  0  0  0  0  0  0
    2.3471    0.6763    2.1762 O   0  0  0  0  0  0  0  0  0  0  0  0
    7.9766   -2.0053   -0.3774 O   0  0  0  0  0  0  0  0  0  0  0  0
   -3.5629   -1.1509   -0.8574 C   0  0  1  0  0  0  0  0  0  0  0  0
   -4.5508   -0.0602   -0.6765 C   0  0  0  0  0  0  0  0  0  0  0  0
   -2.1445   -0.7197   -0.7396 C   0  0  0  0  0  0  0  0  0  0  0  0
   -5.3406   -0.3259    0.4255 C   0  0  0  0  0  0  0  0  0  0  0  0
   -4.9113   -1.5792    1.0257 C   0  0  0  0  0  0  0  0  0  0  0  0
   -4.7671    1.0794   -1.4320 C   0  0  0  0  0  0  0  0  0  0  0  0
   -1.2285   -1.0383   -1.7448 C   0  0  0  0  0  0  0  0  0  0  0  0
   -1.7225    0.0053    0.3775 C   0  0  0  0  0  0  0  0  0  0  0  0
   -6.3592    0.5143    0.8355 C   0  0  0  0  0  0  0  0  0  0  0  0
   -5.7898    1.9498   -1.0428 C   0  0  0  0  0  0  0  0  0  0  0  0
   -6.5802    1.6692    0.0845 C   0  0  0  0  0  0  0  0  0  0  0  0
    0.1020   -0.6345   -1.6335 C   0  0  0  0  0  0  0  0  0  0  0  0
   -0.3920    0.4092    0.4885 C   0  0  0  0  0  0  0  0  0  0  0  0
    0.5202    0.0893   -0.5169 C   0  0  0  0  0  0  0  0  0  0  0  0
    4.9424    0.7644    0.1577 C   0  0  0  0  0  0  0  0  0  0  0  0
    4.6992   -0.5822    0.4078 C   0  0  0  0  0  0  0  0  0  0  0  0
    6.1959    1.1887   -0.2705 C   0  0  0  0  0  0  0  0  0  0  0  0
    5.7208   -1.5148    0.2277 C   0  0  0  0  0  0  0  0  0  0  0  0
    7.2175    0.2563   -0.4508 C   0  0  0  0  0  0  0  0  0  0  0  0
    6.9799   -1.0955   -0.2016 C   0  0  0  0  0  0  0  0  0  0  0  0
   -3.7647   -1.7096   -1.7781 H   0  0  0  0  0  0  0  0  0  0  0  0
   -4.1623    1.2981   -2.3055 H   0  0  0  0  0  0  0  0  0  0  0  0
   -1.5394   -1.6016   -2.6207 H   0  0  0  0  0  0  0  0  0  0  0  0
   -2.4102    0.2623    1.1787 H   0  0  0  0  0  0  0  0  0  0  0  0
   -6.9682    0.2925    1.7044 H   0  0  0  0  0  0  0  0  0  0  0  0
   -5.9774    2.8523   -1.6182 H   0  0  0  0  0  0  0  0  0  0  0  0
   -7.3707    2.3574    0.3709 H   0  0  0  0  0  0  0  0  0  0  0  0
    0.8083   -0.8864   -2.4198 H   0  0  0  0  0  0  0  0  0  0  0  0
   -0.1135    0.9687    1.3743 H   0  0  0  0  0  0  0  0  0  0  0  0
    3.7371   -0.9557    0.7382 H   0  0  0  0  0  0  0  0  0  0  0  0
    6.3852    2.2405   -0.4658 H   0  0  0  0  0  0  0  0  0  0  0  0
    5.5231   -2.5653    0.4240 H   0  0  0  0  0  0  0  0  0  0  0  0
    8.1963    0.5889   -0.7854 H   0  0  0  0  0  0  0  0  0  0  0  0
    1.8481    3.4268    1.4193 H   0  0  0  0  0  0  0  0  0  0  0  0
    7.6373   -2.8905   -0.1596 H   0  0  0  0  0  0  0  0  0  0  0  0
  1  3  1  0  0  0  0
  1  5  1  0  0  0  0
  1  6  1  0  0  0  0
  1  7  2  0  0  0  0
  2  9  1  0  0  0  0
  2 13  1  0  0  0  0
  3 22  1  0  0  0  0
  4 13  2  0  0  0  0
  5 23  1  0  0  0  0
  6 42  1  0  0  0  0
  8 28  1  0  0  0  0
  8 43  1  0  0  0  0
  9 10  1  0  0  0  0
  9 11  1  0  0  0  0
  9 29  1  0  0  0  0
 10 12  1  0  0  0  0
 10 14  2  0  0  0  0
 11 15  2  0  0  0  0
 11 16  1  0  0  0  0
 12 13  1  0  0  0  0
 12 17  2  0  0  0  0
 14 18  1  0  0  0  0
 14 30  1  0  0  0  0
 15 20  1  0  0  0  0
 15 31  1  0  0  0  0
 16 21  2  0  0  0  0
 16 32  1  0  0  0  0
 17 19  1  0  0  0  0
 17 33  1  0  0  0  0
 18 19  2  0  0  0  0
 18 34  1  0  0  0  0
 19 35  1  0  0  0  0
 20 22  2  0  0  0  0
 20 36  1  0  0  0  0
 21 22  1  0  0  0  0
 21 37  1  0  0  0  0
 23 24  2  0  0  0  0
 23 25  1  0  0  0  0
 24 26  1  0  0  0  0
 24 38  1  0  0  0  0
 25 27  2  0  0  0  0
 25 39  1  0  0  0  0
 26 28  2  0  0  0  0
 26 40  1  0  0  0  0
 27 28  1  0  0  0  0
 27 41  1  0  0  0  0
M  END
> <PUBCHEM_COMPOUND_CID>
128862

> <PUBCHEM_CONFORMER_RMSD>
0.8

> <PUBCHEM_CONFORMER_DIVERSEORDER>
3
23
45
111
120
83
127
34
110
18
79
56
46
20
7
131
50
59
48
94
118
80
26
32
129
108
130
125
17
19
102
114
119
121
84
65
91
126
53
107
134
104
109
43
16
103
12
87
77
135
15
38
68
86
99
14
28
62
97
36
63
4
115
124
41
13
128
85
30
133
64
27
21
123
100
136
54
95
117
92
122
31
67
66
98
113
49
33
1
61
39
106
69
11
73
52
101
44
24
35
71
47
10
40
105
112
116
9
55
5
81
74
58
42
96
2
37
60
75
25
6
76
82
51
93
29
132
8
70
78
89
22
90
88
57
72

> <PUBCHEM_MMFF94_PARTIAL_CHARGES>
42
1 1.51
10 -0.14
11 -0.14
12 0.09
13 0.63
14 -0.15
15 -0.15
16 -0.15
17 -0.15
18 -0.15
19 -0.15
2 -0.43
20 -0.15
21 -0.15
22 0.08
23 0.08
24 -0.15
25 -0.15
26 -0.15
27 -0.15
28 0.08
3 -0.35
30 0.15
31 0.15
32 0.15
33 0.15
34 0.15
35 0.15
36 0.15
37 0.15
38 0.15
39 0.15
4 -0.57
40 0.15
41 0.15
42 0.5
43 0.45
5 -0.35
6 -0.77
7 -0.7
8 -0.53
9 0.57

> <PUBCHEM_EFFECTIVE_ROTOR_COUNT>
5.4

> <PUBCHEM_PHARMACOPHORE_FEATURES>
8
1 4 acceptor
1 6 acceptor
1 7 acceptor
1 8 donor
5 2 9 10 12 13 rings
6 10 12 14 17 18 19 rings
6 11 15 16 20 21 22 rings
6 23 24 25 26 27 28 rings

> <PUBCHEM_HEAVY_ATOM_COUNT>
28

> <PUBCHEM_ATOM_DEF_STEREO_COUNT>
0

> <PUBCHEM_ATOM_UDEF_STEREO_COUNT>
1

> <PUBCHEM_BOND_DEF_STEREO_COUNT>
0

> <PUBCHEM_BOND_UDEF_STEREO_COUNT>
0

> <PUBCHEM_ISOTOPIC_ATOM_COUNT>
0

> <PUBCHEM_COMPONENT_COUNT>
1

> <PUBCHEM_CACTVS_TAUTO_COUNT>
2

> <PUBCHEM_CONFORMER_ID>
0001F75E00000003

> <PUBCHEM_MMFF94_ENERGY>
59.2925

> <PUBCHEM_FEATURE_SELFOVERLAP>
40.697

> <PUBCHEM_SHAPE_FINGERPRINT>
10066227 112 18342733057283451068
10299344 5 17240202119095486306
10319926 262 18335132129226292963
10554248 39 17131834291812094068
10674148 151 18186517688451937432
11089746 13 15195564619377084794
11211813 89 18272931601445091308
11273773 46 18337675196780253726
11315181 36 14045738240630057715
11545043 162 18261391191407589553
12236239 1 18059854004392241758
12592606 108 18131627898323244718
13914758 101 15698000708417079371
14251752 14 18412260614862068532
14251758 9 17988635311376403873
14347424 109 16988555811189699346
14849402 71 16588600823575389492
14856354 85 17530687628145655935
14933364 13 18259985976660750372
15142383 8 18342735205056781748
15183329 4 17561084709084202148
15230672 131 18187640267817271754
15352257 5 17675924292111761898
15537594 2 15719382949892421691
15799311 1 16805316682611994720
17093844 174 18341607144549072867
17844677 252 18262802989907432789
19377110 9 13984653724897068924
21033648 29 18200299026844430625
21150785 3 8502368919028411814
21315759 148 18041279992533436850
21365058 27 16008753484973309073
21521721 280 15864077598314359916
21814621 53 18409165549706681024
220451 1 16805599261495526658
23516275 137 17969518004300668634
23522609 53 17772495596554072632
23559900 14 18342169011870354256
23569917 315 17060336366256529815
23622692 88 17275102838690687828
24771293 8 16081373016265155340
3004659 81 18408037400038483426
34797466 226 15936416633201375390
4073 2 17894917360163071330
4098825 35 18114184159586953452
4144715 1 18042690674948470377
4325135 7 8070023376349442744
444769 64 17989203733313254911
46194498 28 17676765474953236004
4938544 92 15864341399695580301
5028188 123 17167869672772978638
5104073 3 16987714782809026194
5207 217 11241973672537187476
5265222 85 18188781681319644694
53794403 172 12830076429542816110
5470011 282 18260276223137404590
550186 72 12107775290198721574
57527293 21 18051714414839569563
6009941 240 18260268525553124443
6086070 43 17560504184319674105
6328613 192 18272368702514767408
6394761 36 17917991650979903676
6691757 9 15698000772763053006
7226269 152 17131836481917685091

> <PUBCHEM_SHAPE_MULTIPOLES>
538.99
21.87
2.09
1.42
19.4
0.2
0.13
-1.77
0.84
-0.44
0.32
-1.42
-0.23
1.7

> <PUBCHEM_SHAPE_SELFOVERLAP>
1181.524

> <PUBCHEM_SHAPE_VOLUME>
292.6

> <PUBCHEM_COORDINATE_TYPE>
2
5
10

$$$$
