REMARK  Name = 128822
REMARK  7 active torsions:
REMARK  status: ('A' for Active; 'I' for Inactive)
REMARK    1  A    between atoms: N_1  and  C1*_26
REMARK    2  A    between atoms: C_5  and  C_10
REMARK    3  A    between atoms: C_15  and  C_16
REMARK    4  A    between atoms: C_21  and  N_22
REMARK    5  A    between atoms: C3*_28  and  O3*_30
REMARK    6  A    between atoms: C4*_29  and  C5*_32
REMARK    7  A    between atoms: C5*_32  and  O5*_33
REMARK                            x       y       z     vdW  Elec       q    Type
REMARK                         _______ _______ _______ _____ _____    ______ ____
ROOT
ATOM      1  N   UNL     1       1.929   0.285  -0.020  0.00  0.00    -0.223 N 
ATOM      2  N   UNL     1       1.517   2.479   0.085  0.00  0.00    -0.381 NA
ATOM      3  N   UNL     1       4.359   0.325  -0.008  0.00  0.00    -0.227 NA
ATOM      4  N   UNL     1       5.213   2.608   0.106  0.00  0.00    -0.227 NA
ATOM      5  C   UNL     1       0.982   1.278   0.025  0.00  0.00    +0.190 C 
ATOM      6  C   UNL     1       3.150   0.905   0.015  0.00  0.00    +0.169 C 
ATOM      7  C   UNL     1       2.872   2.261   0.080  0.00  0.00    +0.195 C 
ATOM      8  C   UNL     1       3.961   3.125   0.126  0.00  0.00    +0.155 C 
ATOM      9  C   UNL     1       5.333   1.260   0.041  0.00  0.00    +0.253 C 
ATOM     10  N   UNL     1       3.772   4.516   0.192  0.00  0.00    -0.341 N 
ATOM     11  H   UNL     1       4.551   5.118   0.224  0.00  0.00    +0.144 HD
ATOM     12  H   UNL     1       2.861   4.889   0.206  0.00  0.00    +0.144 HD
ENDROOT
BRANCH   5  13
ATOM     13  C   UNL     1      -0.438   1.004   0.006  0.00  0.00    +0.044 C 
ATOM     14  C   UNL     1      -1.115   0.931  -1.210  0.00  0.00    +0.004 C 
ATOM     15  C   UNL     1      -1.125   0.814   1.203  0.00  0.00    +0.004 C 
ATOM     16  C   UNL     1      -2.484   0.666  -1.228  0.00  0.00    +0.000 C 
ATOM     17  C   UNL     1      -2.494   0.550   1.185  0.00  0.00    +0.000 C 
ATOM     18  C   UNL     1      -3.174   0.476  -0.031  0.00  0.00    +0.000 C 
BRANCH  18  19
ATOM     19  C   UNL     1      -4.594   0.201  -0.050  0.00  0.00    +0.000 C 
ATOM     20  C   UNL     1      -5.390   0.711  -1.076  0.00  0.00    +0.001 C 
ATOM     21  C   UNL     1      -5.168  -0.574   0.958  0.00  0.00    +0.001 C 
ATOM     22  C   UNL     1      -6.759   0.445  -1.094  0.00  0.00    +0.014 C 
ATOM     23  C   UNL     1      -6.537  -0.840   0.939  0.00  0.00    +0.014 C 
ATOM     24  C   UNL     1      -7.333  -0.330  -0.086  0.00  0.00    +0.042 C 
BRANCH  24  25
ATOM     25  N   UNL     1      -8.717  -0.600  -0.105  0.00  0.00    -0.357 N 
ATOM     26  H   UNL     1      -9.279  -0.241  -0.828  0.00  0.00    +0.142 HD
ATOM     27  H   UNL     1      -9.121  -1.148   0.606  0.00  0.00    +0.142 HD
ENDBRANCH  24  25
ENDBRANCH  18  19
ENDBRANCH   5  13
BRANCH   1  29
ATOM     28  O4* UNL     1       2.741  -1.771  -0.871  0.00  0.00    -0.335 OA
ATOM     29  C1* UNL     1       1.699  -1.153  -0.090  0.00  0.00    +0.201 C 
ATOM     30  C2* UNL     1       1.678  -1.849   1.263  0.00  0.00    +0.083 C 
ATOM     31  C3* UNL     1       2.178  -3.229   0.903  0.00  0.00    +0.144 C 
ATOM     32  C4* UNL     1       3.236  -2.908  -0.142  0.00  0.00    +0.173 C 
BRANCH  31  33
ATOM     33  O3* UNL     1       2.716  -3.891   2.028  0.00  0.00    -0.382 OA
ATOM     34  H3* UNL     1       2.008  -4.075   2.664  0.00  0.00    +0.210 HD
ENDBRANCH  31  33
BRANCH  32  35
ATOM     35  C5* UNL     1       3.501  -4.051  -1.104  0.00  0.00    +0.169 C 
BRANCH  35  36
ATOM     36  O5* UNL     1       4.489  -3.646  -2.037  0.00  0.00    -0.379 OA
ATOM     37  H5* UNL     1       4.666  -4.371  -2.657  0.00  0.00    +0.211 HD
ENDBRANCH  35  36
ENDBRANCH  32  35
ENDBRANCH   1  29
TORSDOF 7
