REMARK  Name = 128829
REMARK  8 active torsions:
REMARK  status: ('A' for Active; 'I' for Inactive)
REMARK    1  A    between atoms: C_1  and  C_9
REMARK    2  A    between atoms: C_1  and  C_14
REMARK    3  A    between atoms: C_5  and  C_11
REMARK    4  A    between atoms: C_11  and  O_12
REMARK    5  A    between atoms: C_14  and  C_16
REMARK    6  A    between atoms: C_14  and  S_23
REMARK    7  A    between atoms: C_16  and  C_17
REMARK    8  A    between atoms: S_23  and  C_25
REMARK                            x       y       z     vdW  Elec       q    Type
REMARK                         _______ _______ _______ _____ _____    ______ ____
ROOT
ATOM      1  C   UNL     1       0.240   0.276   1.614  0.00  0.00    +0.094 C 
ATOM      2  C   UNL     1       0.007   0.890   2.990  0.00  0.00    +0.011 C 
ENDROOT
BRANCH   1   9
ATOM      3  O   UNL     1       2.380   1.320   1.652  0.00  0.00    -0.275 OA
ATOM      4  N   UNL     1       2.212  -0.705   0.543  0.00  0.00    -0.271 N 
ATOM      5  C   UNL     1       3.635  -0.866   0.276  0.00  0.00    +0.174 C 
ATOM      6  C   UNL     1       3.790  -2.328  -0.128  0.00  0.00    +0.033 C 
ATOM      7  C   UNL     1       1.454  -1.866   0.084  0.00  0.00    +0.094 C 
ATOM      8  C   UNL     1       2.439  -2.668  -0.753  0.00  0.00    +0.024 C 
ATOM      9  C   UNL     1       1.709   0.355   1.282  0.00  0.00    +0.227 C 
BRANCH   5  11
ATOM     10  O   UNL     1       3.215   0.404  -1.738  0.00  0.00    -0.248 OA
ATOM     11  C   UNL     1       3.981   0.062  -0.850  0.00  0.00    +0.332 C 
BRANCH  11  12
ATOM     12  O   UNL     1       5.269   0.473  -0.752  0.00  0.00    -0.479 OA
ATOM     13  H   UNL     1       5.804   0.173  -0.044  0.00  0.00    +0.295 HD
ENDBRANCH  11  12
ENDBRANCH   5  11
ENDBRANCH   1   9
BRANCH   1  14
ATOM     14  C   UNL     1      -0.574   0.866   0.448  0.00  0.00    +0.125 C 
BRANCH  14  16
ATOM     15  O   UNL     1      -2.752   1.502   1.284  0.00  0.00    -0.290 OA
ATOM     16  C   UNL     1      -2.070   0.670   0.687  0.00  0.00    +0.183 C 
BRANCH  16  17
ATOM     17  C   UNL     1      -2.741  -0.556   0.168  0.00  0.00    +0.036 C 
ATOM     18  C   UNL     1      -2.247  -1.146  -0.973  0.00  0.00    +0.003 C 
ATOM     19  C   UNL     1      -3.828  -1.053   0.851  0.00  0.00    +0.003 C 
ATOM     20  C   UNL     1      -2.874  -2.294  -1.458  0.00  0.00    +0.000 C 
ATOM     21  C   UNL     1      -4.455  -2.201   0.366  0.00  0.00    +0.000 C 
ATOM     22  C   UNL     1      -3.978  -2.821  -0.789  0.00  0.00    +0.000 C 
ENDBRANCH  16  17
ENDBRANCH  14  16
BRANCH  14  23
ATOM     23  S   UNL     1      -0.260   2.639   0.110  0.00  0.00    -0.070 S 
BRANCH  23  25
ATOM     24  O   UNL     1      -1.490   1.958  -2.133  0.00  0.00    -0.284 OA
ATOM     25  C   UNL     1      -1.259   2.847  -1.323  0.00  0.00    +0.200 C 
ATOM     26  C   UNL     1      -1.805   4.240  -1.457  0.00  0.00    +0.085 C 
ENDBRANCH  23  25
ENDBRANCH  14  23
ENDBRANCH   1  14
TORSDOF 8
