REMARK  Name = 128875
REMARK  7 active torsions:
REMARK  status: ('A' for Active; 'I' for Inactive)
REMARK    1  A    between atoms: C_1  and  S_2
REMARK    2  A    between atoms: C_1  and  C_11
REMARK    3  A    between atoms: S_2  and  C_3
REMARK    4  A    between atoms: C_4  and  O_9
REMARK    5  A    between atoms: C_11  and  N_13
REMARK    6  A    between atoms: C_11  and  C_18
REMARK    7  A    between atoms: C_18  and  O_19
REMARK                            x       y       z     vdW  Elec       q    Type
REMARK                         _______ _______ _______ _____ _____    ______ ____
ROOT
ATOM      1  C   UNK A   1      -0.625   0.293   0.685  0.00  0.00    +0.089 C 
ENDROOT
BRANCH   1   2
ATOM      2  S   UNK A   1       0.378  -0.002  -0.786  0.00  0.00    -0.136 S 
BRANCH   2   3
ATOM      3  C   UNK A   1       1.970  -0.332   0.057  0.00  0.00    +0.074 C 
ATOM      4  C   UNK A   1       3.052  -0.707  -0.966  0.00  0.00    +0.120 C 
ATOM      5  C   UNK A   1       2.366   0.901   0.876  0.00  0.00    +0.013 C 
ATOM      6  C   UNK A   1       4.419  -0.864  -0.294  0.00  0.00    +0.030 C 
ATOM      7  C   UNK A   1       3.730   0.717   1.539  0.00  0.00    +0.001 C 
ATOM      8  C   UNK A   1       4.805   0.366   0.517  0.00  0.00    +0.003 C 
BRANCH   4   9
ATOM      9  O   UNK A   1       2.714  -1.947  -1.585  0.00  0.00    -0.384 OA
ATOM     10  H   UNK A   1       1.850  -1.868  -2.017  0.00  0.00    +0.210 HD
ENDBRANCH   4   9
ENDBRANCH   2   3
ENDBRANCH   1   2
BRANCH   1  11
ATOM     11  C   UNK A   1      -2.080   0.657   0.377  0.00  0.00    +0.182 C 
BRANCH  11  13
ATOM     12  O   UNK A   0      -3.518  -1.444   1.771  0.00  0.00    -0.275 OA
ATOM     13  N   UNK A   1      -2.800  -0.447  -0.206  0.00  0.00    -0.296 N 
ATOM     14  C   UNK A   0      -3.460  -1.407   0.545  0.00  0.00    +0.223 C 
ATOM     15  C   UNK A   0      -4.152  -2.431  -0.314  0.00  0.00    +0.095 C 
ATOM     16  H   UNK A   1      -2.825  -0.523  -1.188  0.00  0.00    +0.150 HD
ENDBRANCH  11  13
BRANCH  11  18
ATOM     17  O   UNK A   1      -1.753   3.007  -0.121  0.00  0.00    -0.248 OA
ATOM     18  C   UNK A   1      -2.195   1.917  -0.464  0.00  0.00    +0.333 C 
BRANCH  18  19
ATOM     19  O   UNK A   1      -2.851   1.723  -1.633  0.00  0.00    -0.479 OA
ATOM     20  H   UNK A   1      -3.171   0.871  -1.854  0.00  0.00    +0.295 HD
ENDBRANCH  18  19
ENDBRANCH  11  18
ENDBRANCH   1  11
TORSDOF 7
