REMARK  Name = 128879
REMARK  6 active torsions:
REMARK  status: ('A' for Active; 'I' for Inactive)
REMARK    1  A    between atoms: CA_1  and  C_2
REMARK    2  A    between atoms: CA_1  and  N_11
REMARK    3  A    between atoms: CA_1  and  C_20
REMARK    4  A    between atoms: C_7  and  O_8
REMARK    5  A    between atoms: CA_13  and  N_15
REMARK    6  A    between atoms: C_20  and  O_21
REMARK                            x       y       z     vdW  Elec       q    Type
REMARK                         _______ _______ _______ _____ _____    ______ ____
ROOT
ATOM      1  CA  UNL     1      -0.504  -0.756   0.545  0.00  0.00    +0.197 C 
ENDROOT
BRANCH   1   2
ATOM      2  C   UNL     1       0.888  -0.265   0.335  0.00  0.00    +0.007 C 
ATOM      3  C   UNL     1       1.471   0.596   1.264  0.00  0.00    +0.001 C 
ATOM      4  C   UNL     1       1.606  -0.666  -0.792  0.00  0.00    +0.001 C 
ATOM      5  C   UNL     1       2.773   1.056   1.067  0.00  0.00    +0.036 C 
ATOM      6  C   UNL     1       2.908  -0.206  -0.989  0.00  0.00    +0.036 C 
ATOM      7  C   UNL     1       3.492   0.655  -0.059  0.00  0.00    +0.134 C 
BRANCH   7   8
ATOM      8  O   UNL     1       4.762   1.104  -0.251  0.00  0.00    -0.506 OA
ATOM      9  H   UNL     1       5.154   1.682   0.374  0.00  0.00    +0.292 HD
ENDBRANCH   7   8
ENDBRANCH   1   2
BRANCH   1  11
ATOM     10  O   UNL     1      -3.492   0.007   1.235  0.00  0.00    -0.277 OA
ATOM     11  N   UNL     1      -1.495   0.157   0.012  0.00  0.00    -0.271 N 
ATOM     12  C   UNL     1      -1.407   1.088  -1.083  0.00  0.00    +0.081 C 
ATOM     13  CA  UNL     1      -2.863   1.474  -0.759  0.00  0.00    +0.033 C 
ATOM     14  C   UNL     1      -2.763   0.430   0.367  0.00  0.00    +0.207 C 
BRANCH  13  15
ATOM     15  N   UNL     1      -2.888   2.841  -0.253  0.00  0.00    +0.389 N 
ATOM     16  H1  UNL     1      -2.955   3.492  -1.035  0.00  0.00    -0.088 HD
ATOM     17  H2  UNL     1      -2.033   3.025   0.272  0.00  0.00    -0.088 HD
ATOM     18  H3  UNL     1      -3.695   2.961   0.360  0.00  0.00    -0.088 HD
ENDBRANCH  13  15
ENDBRANCH   1  11
BRANCH   1  20
ATOM     19  OXT UNL     1      -0.122  -3.149   0.384  0.00  0.00    -0.248 OA
ATOM     20  C   UNL     1      -0.729  -2.160  -0.010  0.00  0.00    +0.336 C 
BRANCH  20  21
ATOM     21  O   UNL     1      -1.637  -2.207  -1.015  0.00  0.00    -0.479 OA
ATOM     22  H   UNL     1      -2.078  -1.425  -1.284  0.00  0.00    +0.295 HD
ENDBRANCH  20  21
ENDBRANCH   1  20
TORSDOF 6
