REMARK  Name = 128809
REMARK  8 active torsions:
REMARK  status: ('A' for Active; 'I' for Inactive)
REMARK    1  A    between atoms: C_6  and  O_19
REMARK    2  A    between atoms: C_9  and  C_26
REMARK    3  A    between atoms: C_15  and  O_21
REMARK    4  A    between atoms: O_21  and  C_22
REMARK    5  A    between atoms: C_22  and  C_23
REMARK    6  A    between atoms: C_23  and  O_24
REMARK    7  A    between atoms: C_26  and  O_27
REMARK    8  A    between atoms: O_27  and  C_30
REMARK                            x       y       z     vdW  Elec       q    Type
REMARK                         _______ _______ _______ _____ _____    ______ ____
ROOT
ATOM      1  O   UNL     1      -1.442  -3.282  -0.166  0.00  0.00    -0.285 OA
ATOM      2  O   UNL     1      -1.392   2.064   0.004  0.00  0.00    -0.284 OA
ATOM      3  N   UNL     1       4.018  -2.292   0.124  0.00  0.00    +0.388 N 
ATOM      4  N   UNL     1       1.048  -1.817   0.194  0.00  0.00    -0.290 N 
ATOM      5  C   UNL     1       3.243  -1.106  -0.248  0.00  0.00    -0.036 C 
ATOM      6  C   UNL     1       2.016  -0.744   0.533  0.00  0.00    +0.141 C 
ATOM      7  C   UNL     1       3.010  -2.422  -0.914  0.00  0.00    -0.057 C 
ATOM      8  C   UNL     1       1.636  -2.913  -0.569  0.00  0.00    +0.070 C 
ATOM      9  C   UNL     1       1.232   0.565   0.178  0.00  0.00    +0.111 C 
ATOM     10  C   UNL     1      -0.211  -1.285   0.038  0.00  0.00    +0.088 C 
ATOM     11  C   UNL     1      -0.188   0.047   0.061  0.00  0.00    +0.043 C 
ATOM     12  C   UNL     1      -1.444  -2.056  -0.150  0.00  0.00    +0.208 C 
ATOM     13  C   UNL     1      -1.410   0.840  -0.057  0.00  0.00    +0.227 C 
ATOM     14  C   UNL     1      -2.710  -1.263  -0.311  0.00  0.00    +0.055 C 
ATOM     15  C   UNL     1      -2.684   0.086  -0.258  0.00  0.00    +0.176 C 
ATOM     16  C   UNL     1      -3.960  -2.069  -0.516  0.00  0.00    +0.038 C 
ATOM     17  H   UNL     1       3.867  -2.730   1.033  0.00  0.00    -0.084 HD
ATOM     18  H   UNL     1       5.014  -2.503   0.181  0.00  0.00    -0.084 HD
ENDROOT
BRANCH   6  19
ATOM     19  O   UNL     1       2.312  -0.755   1.928  0.00  0.00    -0.341 OA
ATOM     20  C   UNL     1       3.107   0.362   2.296  0.00  0.00    +0.176 C 
ENDBRANCH   6  19
BRANCH  15  21
ATOM     21  O   UNL     1      -3.839   0.833  -0.393  0.00  0.00    -0.470 OA
BRANCH  21  22
ATOM     22  C   UNL     1      -4.442   1.055   0.866  0.00  0.00    +0.237 C 
BRANCH  22  23
ATOM     23  C   UNL     1      -5.689   1.896   0.675  0.00  0.00    +0.185 C 
BRANCH  23  24
ATOM     24  O   UNL     1      -6.583   1.210  -0.194  0.00  0.00    -0.378 OA
ATOM     25  H   UNL     1      -7.384   1.743  -0.320  0.00  0.00    +0.211 HD
ENDBRANCH  23  24
ENDBRANCH  22  23
ENDBRANCH  21  22
ENDBRANCH  15  21
BRANCH   9  26
ATOM     26  C   UNL     1       1.658   1.245  -1.121  0.00  0.00    +0.218 C 
BRANCH  26  27
ATOM     27  O   UNL     1       2.981   1.722  -0.966  0.00  0.00    -0.434 OA
BRANCH  27  30
ATOM     28  O   UNL     1       2.179   3.732  -0.181  0.00  0.00    -0.227 OA
ATOM     29  N   UNL     1       4.438   3.348  -0.373  0.00  0.00    -0.295 N 
ATOM     30  C   UNL     1       3.115   2.998  -0.481  0.00  0.00    +0.398 C 
ATOM     31  H   UNL     1       5.139   2.707  -0.632  0.00  0.00    +0.148 HD
ATOM     32  H   UNL     1       4.686   4.240  -0.038  0.00  0.00    +0.148 HD
ENDBRANCH  27  30
ENDBRANCH  26  27
ENDBRANCH   9  26
TORSDOF 8
