128829
  -OEChem-03292013323D

 46 47  0     1  0  0  0  0  0999 V2000
   -0.2600    2.6395    0.1101 S   0  0  0  0  0  0  0  0  0  0  0  0
    2.3798    1.3202    1.6517 O   0  0  0  0  0  0  0  0  0  0  0  0
    5.2690    0.4735   -0.7520 O   0  0  0  0  0  0  0  0  0  0  0  0
    3.2152    0.4036   -1.7383 O   0  0  0  0  0  0  0  0  0  0  0  0
   -2.7518    1.5025    1.2840 O   0  0  0  0  0  0  0  0  0  0  0  0
   -1.4896    1.9583   -2.1332 O   0  0  0  0  0  0  0  0  0  0  0  0
    2.2121   -0.7047    0.5435 N   0  0  0  0  0  0  0  0  0  0  0  0
    3.6352   -0.8662    0.2756 C   0  0  1  0  0  0  0  0  0  0  0  0
    3.7899   -2.3279   -0.1282 C   0  0  0  0  0  0  0  0  0  0  0  0
    1.4545   -1.8662    0.0844 C   0  0  0  0  0  0  0  0  0  0  0  0
    2.4391   -2.6682   -0.7530 C   0  0  0  0  0  0  0  0  0  0  0  0
    0.2404    0.2759    1.6143 C   0  0  2  0  0  0  0  0  0  0  0  0
    1.7089    0.3554    1.2815 C   0  0  0  0  0  0  0  0  0  0  0  0
   -0.5735    0.8658    0.4476 C   0  0  1  0  0  0  0  0  0  0  0  0
    3.9812    0.0618   -0.8497 C   0  0  0  0  0  0  0  0  0  0  0  0
    0.0072    0.8897    2.9899 C   0  0  0  0  0  0  0  0  0  0  0  0
   -2.0700    0.6705    0.6867 C   0  0  0  0  0  0  0  0  0  0  0  0
   -2.7408   -0.5563    0.1683 C   0  0  0  0  0  0  0  0  0  0  0  0
   -1.2587    2.8472   -1.3227 C   0  0  0  0  0  0  0  0  0  0  0  0
   -2.2469   -1.1464   -0.9734 C   0  0  0  0  0  0  0  0  0  0  0  0
   -3.8284   -1.0529    0.8508 C   0  0  0  0  0  0  0  0  0  0  0  0
   -1.8049    4.2403   -1.4566 C   0  0  0  0  0  0  0  0  0  0  0  0
   -2.8741   -2.2940   -1.4584 C   0  0  0  0  0  0  0  0  0  0  0  0
   -4.4554   -2.2006    0.3658 C   0  0  0  0  0  0  0  0  0  0  0  0
   -3.9782   -2.8211   -0.7888 C   0  0  0  0  0  0  0  0  0  0  0  0
    4.2098   -0.6007    1.1694 H   0  0  0  0  0  0  0  0  0  0  0  0
    4.6213   -2.5092   -0.8160 H   0  0  0  0  0  0  0  0  0  0  0  0
    3.9408   -2.9455    0.7655 H   0  0  0  0  0  0  0  0  0  0  0  0
    1.1437   -2.4412    0.9634 H   0  0  0  0  0  0  0  0  0  0  0  0
    0.5766   -1.5804   -0.4912 H   0  0  0  0  0  0  0  0  0  0  0  0
    2.2236   -3.7404   -0.7429 H   0  0  0  0  0  0  0  0  0  0  0  0
    2.4132   -2.3274   -1.7949 H   0  0  0  0  0  0  0  0  0  0  0  0
   -0.0498   -0.7738    1.7331 H   0  0  0  0  0  0  0  0  0  0  0  0
   -0.2505    0.3904   -0.4744 H   0  0  0  0  0  0  0  0  0  0  0  0
    0.2188    1.9638    3.0102 H   0  0  0  0  0  0  0  0  0  0  0  0
    0.6539    0.4185    3.7393 H   0  0  0  0  0  0  0  0  0  0  0  0
   -1.0279    0.7462    3.3156 H   0  0  0  0  0  0  0  0  0  0  0  0
    5.5156    1.0813   -1.4814 H   0  0  0  0  0  0  0  0  0  0  0  0
   -1.4242   -0.7545   -1.5563 H   0  0  0  0  0  0  0  0  0  0  0  0
   -4.2068   -0.5836    1.7538 H   0  0  0  0  0  0  0  0  0  0  0  0
   -0.9884    4.9625   -1.5435 H   0  0  0  0  0  0  0  0  0  0  0  0
   -2.4380    4.4841   -0.5988 H   0  0  0  0  0  0  0  0  0  0  0  0
   -2.4160    4.3019   -2.3623 H   0  0  0  0  0  0  0  0  0  0  0  0
   -2.5094   -2.7719   -2.3630 H   0  0  0  0  0  0  0  0  0  0  0  0
   -5.3146   -2.6119    0.8876 H   0  0  0  0  0  0  0  0  0  0  0  0
   -4.4678   -3.7135   -1.1674 H   0  0  0  0  0  0  0  0  0  0  0  0
  1 14  1  0  0  0  0
  1 19  1  0  0  0  0
  2 13  2  0  0  0  0
  3 15  1  0  0  0  0
  3 38  1  0  0  0  0
  4 15  2  0  0  0  0
  5 17  2  0  0  0  0
  6 19  2  0  0  0  0
  7  8  1  0  0  0  0
  7 10  1  0  0  0  0
  7 13  1  0  0  0  0
  8  9  1  0  0  0  0
  8 15  1  0  0  0  0
  8 26  1  0  0  0  0
  9 11  1  0  0  0  0
  9 27  1  0  0  0  0
  9 28  1  0  0  0  0
 10 11  1  0  0  0  0
 10 29  1  0  0  0  0
 10 30  1  0  0  0  0
 11 31  1  0  0  0  0
 11 32  1  0  0  0  0
 12 13  1  0  0  0  0
 12 14  1  0  0  0  0
 12 16  1  0  0  0  0
 12 33  1  0  0  0  0
 14 17  1  0  0  0  0
 14 34  1  0  0  0  0
 16 35  1  0  0  0  0
 16 36  1  0  0  0  0
 16 37  1  0  0  0  0
 17 18  1  0  0  0  0
 18 20  2  0  0  0  0
 18 21  1  0  0  0  0
 19 22  1  0  0  0  0
 20 23  1  0  0  0  0
 20 39  1  0  0  0  0
 21 24  2  0  0  0  0
 21 40  1  0  0  0  0
 22 41  1  0  0  0  0
 22 42  1  0  0  0  0
 22 43  1  0  0  0  0
 23 25  2  0  0  0  0
 23 44  1  0  0  0  0
 24 25  1  0  0  0  0
 24 45  1  0  0  0  0
 25 46  1  0  0  0  0
M  END
> <PUBCHEM_COMPOUND_CID>
128829

> <PUBCHEM_CONFORMER_RMSD>
1

> <PUBCHEM_CONFORMER_DIVERSEORDER>
1
45
63
66
19
49
14
51
38
61
18
57
26
25
59
64
41
46
36
42
65
47
32
53
37
50
29
44
43
20
34
55
54
62
40
4
13
30
16
27
23
10
5
22
48
11
24
28
56
35
8
33
2
39
58
15
60
6
31
12
17
3
7
9
67
21
52

> <PUBCHEM_MMFF94_PARTIAL_CHARGES>
28
1 -0.37
10 0.3
12 0.06
13 0.57
14 0.29
15 0.66
17 0.42
18 0.09
19 0.65
2 -0.57
20 -0.15
21 -0.15
22 0.06
23 -0.15
24 -0.15
25 -0.15
3 -0.65
38 0.5
39 0.15
4 -0.57
40 0.15
44 0.15
45 0.15
46 0.15
5 -0.57
6 -0.57
7 -0.66
8 0.36

> <PUBCHEM_EFFECTIVE_ROTOR_COUNT>
9

> <PUBCHEM_PHARMACOPHORE_FEATURES>
8
1 16 hydrophobe
1 2 acceptor
1 3 acceptor
1 4 acceptor
1 5 acceptor
3 3 4 15 anion
5 7 8 9 10 11 rings
6 18 20 21 23 24 25 rings

> <PUBCHEM_HEAVY_ATOM_COUNT>
25

> <PUBCHEM_ATOM_DEF_STEREO_COUNT>
3

> <PUBCHEM_ATOM_UDEF_STEREO_COUNT>
0

> <PUBCHEM_BOND_DEF_STEREO_COUNT>
0

> <PUBCHEM_BOND_UDEF_STEREO_COUNT>
0

> <PUBCHEM_ISOTOPIC_ATOM_COUNT>
0

> <PUBCHEM_COMPONENT_COUNT>
1

> <PUBCHEM_CACTVS_TAUTO_COUNT>
2

> <PUBCHEM_CONFORMER_ID>
0001F73D00000001

> <PUBCHEM_MMFF94_ENERGY>
65.7311

> <PUBCHEM_FEATURE_SELFOVERLAP>
40.653

> <PUBCHEM_SHAPE_FINGERPRINT>
107951 10 15979236945202746840
11578080 2 18201143404060904969
11759241 127 18188223043465441796
12173636 292 17625546683292258896
12403814 3 18263656073496694025
12553582 1 18060414750616646027
12596599 1 16988294177912967131
12633257 1 17131844183053016219
12714826 92 18272649013280514707
12788726 201 17969204682431009541
13257819 37 17756707434544895253
13533116 47 17128728300682001367
1361 2 17832712640251656876
13911987 19 17314815076935449366
14863182 85 17263266832214714699
15664445 248 18117826914349808645
17357779 13 18198598069539736223
17492 54 17826246365012393612
17980427 26 15765813302761635344
1813 80 18263074582480510235
20691752 17 18266164200979570506
21475661 188 8430059554271849827
22393880 68 18265061228510084830
22907989 373 18265324028452105805
23402539 116 17894633643302745288
23557571 272 18116689920347255129
23559900 14 18130778014695226065
23598288 3 18043250132729229809
25222932 49 14684379944681705271
26353 1 18114172090586297341
340366 18 17685501944574561822
46194498 28 17684059746581865959
57527585 21 17388574641821542108
6287921 2 17765706211041363417
6786 2 17689152310584409741
7399639 24 18268695268652798080

> <PUBCHEM_SHAPE_MULTIPOLES>
484.01
8.12
4.01
2
3.75
2.26
0.65
-6
-1.77
-3.07
-2.25
-0.15
1.15
0.42

> <PUBCHEM_SHAPE_SELFOVERLAP>
1000.696

> <PUBCHEM_SHAPE_VOLUME>
277.5

> <PUBCHEM_COORDINATE_TYPE>
2
5
10

$$$$
