REMARK  Name = 128815
REMARK  7 active torsions:
REMARK  status: ('A' for Active; 'I' for Inactive)
REMARK    1  A    between atoms: C_3  and  O_21
REMARK    2  A    between atoms: C_3  and  C_30
REMARK    3  A    between atoms: C_6  and  O_23
REMARK    4  A    between atoms: C_9  and  O_25
REMARK    5  A    between atoms: C_10  and  O_27
REMARK    6  A    between atoms: C_30  and  C_31
REMARK    7  A    between atoms: C_31  and  O_32
REMARK                            x       y       z     vdW  Elec       q    Type
REMARK                         _______ _______ _______ _____ _____    ______ ____
ROOT
ATOM      1  O   UNL     1       2.388   2.694   0.274  0.00  0.00    -0.286 OA
ATOM      2  O   UNL     1       2.458  -2.620  -0.268  0.00  0.00    -0.286 OA
ATOM      3  C   UNL     1      -3.813   0.597   0.588  0.00  0.00    +0.148 C 
ATOM      4  C   UNL     1      -3.692  -0.811   1.156  0.00  0.00    +0.068 C 
ATOM      5  C   UNL     1      -2.535   1.399   0.846  0.00  0.00    +0.063 C 
ATOM      6  C   UNL     1      -2.516  -1.580   0.550  0.00  0.00    +0.138 C 
ATOM      7  C   UNL     1      -1.261   0.634   0.582  0.00  0.00    +0.016 A 
ATOM      8  C   UNL     1      -1.242  -0.769   0.474  0.00  0.00    +0.037 A 
ATOM      9  C   UNL     1      -0.058   1.353   0.486  0.00  0.00    +0.133 A 
ATOM     10  C   UNL     1      -0.020  -1.417   0.220  0.00  0.00    +0.135 A 
ATOM     11  C   UNL     1       1.154   0.694   0.253  0.00  0.00    +0.078 A 
ATOM     12  C   UNL     1       1.173  -0.691   0.115  0.00  0.00    +0.078 A 
ATOM     13  C   UNL     1       2.404   1.476   0.150  0.00  0.00    +0.199 C 
ATOM     14  C   UNL     1       2.442  -1.402  -0.143  0.00  0.00    +0.199 C 
ATOM     15  C   UNL     1       3.674   0.766  -0.106  0.00  0.00    +0.042 C 
ATOM     16  C   UNL     1       3.692  -0.623  -0.248  0.00  0.00    +0.042 C 
ATOM     17  C   UNL     1       4.865   1.494  -0.207  0.00  0.00    +0.003 C 
ATOM     18  C   UNL     1       4.902  -1.284  -0.491  0.00  0.00    +0.003 C 
ATOM     19  C   UNL     1       6.069   0.831  -0.449  0.00  0.00    +0.000 C 
ATOM     20  C   UNL     1       6.087  -0.555  -0.591  0.00  0.00    +0.000 C 
ENDROOT
BRANCH   3  21
ATOM     21  O   UNL     1      -4.916   1.243   1.219  0.00  0.00    -0.379 OA
ATOM     22  H   UNL     1      -4.755   1.301   2.173  0.00  0.00    +0.211 HD
ENDBRANCH   3  21
BRANCH   6  23
ATOM     23  O   UNL     1      -2.304  -2.753   1.335  0.00  0.00    -0.380 OA
ATOM     24  H   UNL     1      -3.127  -3.266   1.378  0.00  0.00    +0.211 HD
ENDBRANCH   6  23
BRANCH   9  25
ATOM     25  O   UNL     1      -0.105   2.712   0.633  0.00  0.00    -0.506 OA
ATOM     26  H   UNL     1      -0.925   3.138   0.789  0.00  0.00    +0.292 HD
ENDBRANCH   9  25
BRANCH  10  27
ATOM     27  O   UNL     1      -0.025  -2.773   0.036  0.00  0.00    -0.506 OA
ATOM     28  H   UNL     1      -0.826  -3.252   0.108  0.00  0.00    +0.292 HD
ENDBRANCH  10  27
BRANCH   3  30
ATOM     29  O   UNL     1      -3.509   1.155  -1.712  0.00  0.00    -0.291 OA
ATOM     30  C   UNL     1      -4.189   0.575  -0.867  0.00  0.00    +0.204 C 
BRANCH  30  31
ATOM     31  C   UNL     1      -5.443  -0.196  -1.223  0.00  0.00    +0.204 C 
BRANCH  31  32
ATOM     32  O   UNL     1      -5.678  -0.150  -2.614  0.00  0.00    -0.375 OA
ATOM     33  H   UNL     1      -6.483  -0.649  -2.823  0.00  0.00    +0.211 HD
ENDBRANCH  31  32
ENDBRANCH  30  31
ENDBRANCH   3  30
TORSDOF 7
