REMARK  Name = 128837
REMARK  15 active torsions:
REMARK  status: ('A' for Active; 'I' for Inactive)
REMARK    1  A    between atoms: N_2  and  CA_5
REMARK    2  A    between atoms: C_3  and  CA_18
REMARK    3  A    between atoms: CA_5  and  C_7
REMARK    4  A    between atoms: CA_5  and  CB_10
REMARK    5  A    between atoms: C_7  and  O_8
REMARK    6  A    between atoms: CB_10  and  CG_11
REMARK    7  A    between atoms: CG_11  and  CD_12
REMARK    8  A    between atoms: CD_12  and  CE_13
REMARK    9  A    between atoms: CE_13  and  NZ_14
REMARK   10  A    between atoms: CA_18  and  N_19
REMARK   11  A    between atoms: CA_18  and  CB_23
REMARK   12  A    between atoms: CB_23  and  CG_24
REMARK   13  A    between atoms: CG_24  and  CD_25
REMARK   14  A    between atoms: CD_25  and  CE_26
REMARK   15  A    between atoms: CE_26  and  NZ_27
REMARK                            x       y       z     vdW  Elec       q    Type
REMARK                         _______ _______ _______ _____ _____    ______ ____
ROOT
ATOM      1  O   LYS A   1      -0.732  -0.807   2.080  0.00  0.00    -0.277 OA
ATOM      2  N   LYS A   2       0.396  -0.223   0.137  0.00  0.00    -0.298 N 
ATOM      3  C   LYS A   1      -0.483  -0.989   0.890  0.00  0.00    +0.202 C 
ATOM      4  H   LYS A   2       0.524  -0.454  -0.811  0.00  0.00    +0.150 HD
ENDROOT
BRANCH   2   5
ATOM      5  CA  LYS A   2       1.133   0.897   0.677  0.00  0.00    +0.171 C 
BRANCH   5   7
ATOM      6  OXT LYS A   2      -0.558   2.317  -0.354  0.00  0.00    -0.248 OA
ATOM      7  C   LYS A   2       0.224   2.106   0.564  0.00  0.00    +0.332 C 
BRANCH   7   8
ATOM      8  O   LYS A   2       0.408   2.977   1.590  0.00  0.00    -0.479 OA
ATOM      9  H   LYS A   2       1.018   2.775   2.272  0.00  0.00    +0.295 HD
ENDBRANCH   7   8
ENDBRANCH   5   7
BRANCH   5  10
ATOM     10  CB  LYS A   2       2.443   1.151  -0.072  0.00  0.00    +0.031 C 
BRANCH  10  11
ATOM     11  CG  LYS A   2       3.458   0.004   0.007  0.00  0.00    +0.000 C 
BRANCH  11  12
ATOM     12  CD  LYS A   2       4.778   0.313  -0.707  0.00  0.00    -0.024 C 
BRANCH  12  13
ATOM     13  CE  LYS A   2       5.763  -0.858  -0.675  0.00  0.00    -0.086 C 
BRANCH  13  14
ATOM     14  NZ  LYS A   2       6.995  -0.553  -1.393  0.00  0.00    +0.380 N 
ATOM     15  HZ1 LYS A   2       7.622  -1.356  -1.348  0.00  0.00    -0.089 HD
ATOM     16  HZ2 LYS A   2       7.446   0.256  -0.966  0.00  0.00    -0.089 HD
ATOM     17  HZ3 LYS A   2       6.777  -0.346  -2.368  0.00  0.00    -0.089 HD
ENDBRANCH  13  14
ENDBRANCH  12  13
ENDBRANCH  11  12
ENDBRANCH  10  11
ENDBRANCH   5  10
ENDBRANCH   2   5
BRANCH   3  18
ATOM     18  CA  LYS A   1      -1.141  -2.088   0.061  0.00  0.00    +0.013 C 
BRANCH  18  19
ATOM     19  N   LYS A   1      -0.759  -3.372   0.646  0.00  0.00    +0.387 N 
ATOM     20  H1  LYS A   1      -1.185  -4.129   0.112  0.00  0.00    -0.089 HD
ATOM     21  H2  LYS A   1      -1.081  -3.415   1.613  0.00  0.00    -0.089 HD
ATOM     22  H3  LYS A   1       0.256  -3.468   0.622  0.00  0.00    -0.089 HD
ENDBRANCH  18  19
BRANCH  18  23
ATOM     23  CB  LYS A   1      -2.663  -1.882   0.055  0.00  0.00    -0.013 C 
BRANCH  23  24
ATOM     24  CG  LYS A   1      -3.094  -0.552  -0.572  0.00  0.00    -0.004 C 
BRANCH  24  25
ATOM     25  CD  LYS A   1      -4.619  -0.415  -0.588  0.00  0.00    -0.024 C 
BRANCH  25  26
ATOM     26  CE  LYS A   1      -5.046   0.927  -1.179  0.00  0.00    -0.086 C 
BRANCH  26  27
ATOM     27  NZ  LYS A   1      -6.500   1.046  -1.167  0.00  0.00    +0.380 N 
ATOM     28  HZ1 LYS A   1      -6.771   1.945  -1.564  0.00  0.00    -0.089 HD
ATOM     29  HZ2 LYS A   1      -6.838   0.982  -0.207  0.00  0.00    -0.089 HD
ATOM     30  HZ3 LYS A   1      -6.907   0.293  -1.721  0.00  0.00    -0.089 HD
ENDBRANCH  26  27
ENDBRANCH  25  26
ENDBRANCH  24  25
ENDBRANCH  23  24
ENDBRANCH  18  23
ENDBRANCH   3  18
TORSDOF 15
