REMARK  Name = 128848
REMARK  10 active torsions:
REMARK  status: ('A' for Active; 'I' for Inactive)
REMARK    1  A    between atoms: C_2  and  C_3
REMARK    2  A    between atoms: C_2  and  O_21
REMARK    3  A    between atoms: C_3  and  C_7
REMARK    4  A    between atoms: C_13  and  C_15
REMARK    5  A    between atoms: O_21  and  C_26
REMARK    6  A    between atoms: C_23  and  O_28
REMARK    7  A    between atoms: C_24  and  O_30
REMARK    8  A    between atoms: C_25  and  O_32
REMARK    9  A    between atoms: C_27  and  C_35
REMARK   10  A    between atoms: C_35  and  O_36
REMARK                            x       y       z     vdW  Elec       q    Type
REMARK                         _______ _______ _______ _____ _____    ______ ____
ROOT
ATOM      1  O   UNL     1       1.507  -0.293   0.729  0.00  0.00    -0.250 OA
ATOM      2  C   UNL     1       1.915  -1.227   0.051  0.00  0.00    +0.322 C 
ENDROOT
BRANCH   2   3
ATOM      3  C   UNL     1       1.037  -2.288  -0.600  0.00  0.00    +0.118 C 
ATOM      4  C   UNL     1       1.277  -2.337  -2.112  0.00  0.00    +0.016 C 
BRANCH   3   7
ATOM      5  O   UNL     1      -4.341  -1.406   0.566  0.00  0.00    -0.425 OA
ATOM      6  N   UNL     1      -3.309   0.227  -0.620  0.00  0.00    -0.368 NA
ATOM      7  C   UNL     1      -0.430  -2.094  -0.257  0.00  0.00    -0.027 C 
ATOM      8  C   UNL     1      -1.061  -0.932  -0.685  0.00  0.00    +0.085 C 
ATOM      9  C   UNL     1      -1.077  -3.084   0.469  0.00  0.00    -0.004 C 
ATOM     10  C   UNL     1      -2.415  -0.781  -0.353  0.00  0.00    +0.151 C 
ATOM     11  C   UNL     1      -3.043  -1.782   0.373  0.00  0.00    +0.174 C 
ATOM     12  C   UNL     1      -2.428  -2.949   0.809  0.00  0.00    +0.039 C 
ATOM     13  C   UNL     1      -4.419  -0.196  -0.056  0.00  0.00    +0.282 C 
BRANCH  13  15
ATOM     14 CL   UNL     1      -9.758   2.426   0.180  0.00  0.00    -0.082 Cl
ATOM     15  C   UNL     1      -5.708   0.437   0.001  0.00  0.00    +0.066 C 
ATOM     16  C   UNL     1      -6.770  -0.189   0.659  0.00  0.00    +0.007 C 
ATOM     17  C   UNL     1      -5.907   1.682  -0.603  0.00  0.00    +0.007 C 
ATOM     18  C   UNL     1      -8.021   0.425   0.715  0.00  0.00    +0.012 C 
ATOM     19  C   UNL     1      -7.158   2.296  -0.547  0.00  0.00    +0.012 C 
ATOM     20  C   UNL     1      -8.215   1.668   0.111  0.00  0.00    +0.058 C 
ENDBRANCH  13  15
ENDBRANCH   3   7
ENDBRANCH   2   3
BRANCH   2  21
ATOM     21  O   UNL     1       3.232  -1.491  -0.215  0.00  0.00    -0.421 OA
BRANCH  21  26
ATOM     22  O   UNL     1       3.921   0.735  -0.110  0.00  0.00    -0.307 OA
ATOM     23  C   UNL     1       6.638  -0.042   0.408  0.00  0.00    +0.173 C 
ATOM     24  C   UNL     1       5.575  -1.038  -0.055  0.00  0.00    +0.211 C 
ATOM     25  C   UNL     1       6.256   1.392   0.040  0.00  0.00    +0.178 C 
ATOM     26  C   UNL     1       4.175  -0.587   0.359  0.00  0.00    +0.321 C 
ATOM     27  C   UNL     1       4.818   1.689   0.447  0.00  0.00    +0.246 C 
BRANCH  23  28
ATOM     28  O   UNL     1       7.883  -0.344  -0.225  0.00  0.00    -0.379 OA
ATOM     29  H   UNL     1       8.146  -1.251  -0.005  0.00  0.00    +0.211 HD
ENDBRANCH  23  28
BRANCH  24  30
ATOM     30  O   UNL     1       5.829  -2.311   0.539  0.00  0.00    -0.377 OA
ATOM     31  H   UNL     1       6.715  -2.615   0.287  0.00  0.00    +0.211 HD
ENDBRANCH  24  30
BRANCH  25  32
ATOM     32  O   UNL     1       7.122   2.296   0.725  0.00  0.00    -0.379 OA
ATOM     33  H   UNL     1       8.041   2.116   0.473  0.00  0.00    +0.211 HD
ENDBRANCH  25  32
BRANCH  27  35
ATOM     34  O   UNL     1       3.442   3.099  -0.947  0.00  0.00    -0.247 OA
ATOM     35  C   UNL     1       4.352   2.982  -0.140  0.00  0.00    +0.344 C 
BRANCH  35  36
ATOM     36  O   UNL     1       5.081   4.018   0.345  0.00  0.00    -0.478 OA
ATOM     37  H   UNL     1       5.766   3.859   0.963  0.00  0.00    +0.295 HD
ENDBRANCH  35  36
ENDBRANCH  27  35
ENDBRANCH  21  26
ENDBRANCH   2  21
TORSDOF 10
