128895
  -OEChem-03292013323D

 53 55  0     1  0  0  0  0  0999 V2000
    1.3940   -0.3859   -2.0374 O   0  0  0  0  0  0  0  0  0  0  0  0
    0.8707    2.3381   -1.5750 O   0  0  0  0  0  0  0  0  0  0  0  0
   -1.3116    5.6394   -0.3876 O   0  0  0  0  0  0  0  0  0  0  0  0
    0.3512   -2.6296   -0.4545 N   0  0  0  0  0  0  0  0  0  0  0  0
    0.4488    4.1978    0.1644 N   0  0  0  0  0  0  0  0  0  0  0  0
    1.0455    0.6432    0.0246 N   0  0  0  0  0  0  0  0  0  0  0  0
    5.1638   -1.5825   -0.5587 N   0  0  0  0  0  0  0  0  0  0  0  0
    5.4127   -0.1763    1.1421 N   0  0  0  0  0  0  0  0  0  0  0  0
    1.4450   -1.7516   -0.0352 C   0  0  1  0  0  0  0  0  0  0  0  0
    0.6058    2.8880    0.7308 C   0  0  1  0  0  0  0  0  0  0  0  0
   -0.8856   -2.2663    0.2182 C   0  0  1  0  0  0  0  0  0  0  0  0
   -0.7168    2.6354    1.4291 C   0  0  0  0  0  0  0  0  0  0  0  0
   -1.7230    3.4817    0.6497 C   0  0  0  0  0  0  0  0  0  0  0  0
    2.7928   -2.4284   -0.3285 C   0  0  0  0  0  0  0  0  0  0  0  0
   -2.0859   -2.7613   -0.6093 C   0  0  0  0  0  0  0  0  0  0  0  0
    1.3064   -0.4436   -0.8122 C   0  0  0  0  0  0  0  0  0  0  0  0
    0.8466    1.9519   -0.4100 C   0  0  0  0  0  0  0  0  0  0  0  0
   -0.8805    4.5986    0.0839 C   0  0  0  0  0  0  0  0  0  0  0  0
   -0.8598   -2.8611    1.6263 C   0  0  0  0  0  0  0  0  0  0  0  0
    3.9711   -1.5872    0.1082 C   0  0  0  0  0  0  0  0  0  0  0  0
   -3.3701   -2.0249   -0.3119 C   0  0  0  0  0  0  0  0  0  0  0  0
    4.1492   -0.7122    1.1541 C   0  0  0  0  0  0  0  0  0  0  0  0
   -4.2252   -2.4895    0.6875 C   0  0  0  0  0  0  0  0  0  0  0  0
   -3.7013   -0.8797   -1.0363 C   0  0  0  0  0  0  0  0  0  0  0  0
    5.9977   -0.7213    0.0987 C   0  0  0  0  0  0  0  0  0  0  0  0
   -5.4114   -1.8091    0.9623 C   0  0  0  0  0  0  0  0  0  0  0  0
   -4.8876   -0.1993   -0.7613 C   0  0  0  0  0  0  0  0  0  0  0  0
   -5.7426   -0.6641    0.2381 C   0  0  0  0  0  0  0  0  0  0  0  0
    1.4105   -1.5572    1.0414 H   0  0  0  0  0  0  0  0  0  0  0  0
    1.4600    2.8806    1.4143 H   0  0  0  0  0  0  0  0  0  0  0  0
   -0.9764   -1.1770    0.3070 H   0  0  0  0  0  0  0  0  0  0  0  0
   -1.0219    1.5859    1.4777 H   0  0  0  0  0  0  0  0  0  0  0  0
   -0.6620    3.0117    2.4588 H   0  0  0  0  0  0  0  0  0  0  0  0
    0.5797   -3.6040   -0.2607 H   0  0  0  0  0  0  0  0  0  0  0  0
   -2.1626    2.9173   -0.1788 H   0  0  0  0  0  0  0  0  0  0  0  0
   -2.5113    3.8741    1.2967 H   0  0  0  0  0  0  0  0  0  0  0  0
    2.8538   -3.3897    0.1980 H   0  0  0  0  0  0  0  0  0  0  0  0
    2.8863   -2.6409   -1.4019 H   0  0  0  0  0  0  0  0  0  0  0  0
   -1.8760   -2.6342   -1.6811 H   0  0  0  0  0  0  0  0  0  0  0  0
   -2.2344   -3.8411   -0.4738 H   0  0  0  0  0  0  0  0  0  0  0  0
    1.2206    4.7604   -0.1803 H   0  0  0  0  0  0  0  0  0  0  0  0
   -0.0176   -2.5076    2.2279 H   0  0  0  0  0  0  0  0  0  0  0  0
   -1.7638   -2.5855    2.1788 H   0  0  0  0  0  0  0  0  0  0  0  0
   -0.8140   -3.9561    1.5989 H   0  0  0  0  0  0  0  0  0  0  0  0
    1.0047    0.4728    1.0262 H   0  0  0  0  0  0  0  0  0  0  0  0
    5.3910   -2.1171   -1.3866 H   0  0  0  0  0  0  0  0  0  0  0  0
    3.4384   -0.4385    1.9203 H   0  0  0  0  0  0  0  0  0  0  0  0
   -3.9820   -3.3831    1.2559 H   0  0  0  0  0  0  0  0  0  0  0  0
   -3.0417   -0.5052   -1.8147 H   0  0  0  0  0  0  0  0  0  0  0  0
    7.0100   -0.5375   -0.2321 H   0  0  0  0  0  0  0  0  0  0  0  0
   -6.0778   -2.1714    1.7397 H   0  0  0  0  0  0  0  0  0  0  0  0
   -5.1448    0.6931   -1.3242 H   0  0  0  0  0  0  0  0  0  0  0  0
   -6.6661   -0.1342    0.4522 H   0  0  0  0  0  0  0  0  0  0  0  0
  1 16  2  0  0  0  0
  2 17  2  0  0  0  0
  3 18  2  0  0  0  0
  4  9  1  0  0  0  0
  4 11  1  0  0  0  0
  4 34  1  0  0  0  0
  5 10  1  0  0  0  0
  5 18  1  0  0  0  0
  5 41  1  0  0  0  0
  6 16  1  0  0  0  0
  6 17  1  0  0  0  0
  6 45  1  0  0  0  0
  7 20  1  0  0  0  0
  7 25  1  0  0  0  0
  7 46  1  0  0  0  0
  8 22  1  0  0  0  0
  8 25  2  0  0  0  0
  9 14  1  0  0  0  0
  9 16  1  0  0  0  0
  9 29  1  0  0  0  0
 10 12  1  0  0  0  0
 10 17  1  0  0  0  0
 10 30  1  0  0  0  0
 11 15  1  0  0  0  0
 11 19  1  0  0  0  0
 11 31  1  0  0  0  0
 12 13  1  0  0  0  0
 12 32  1  0  0  0  0
 12 33  1  0  0  0  0
 13 18  1  0  0  0  0
 13 35  1  0  0  0  0
 13 36  1  0  0  0  0
 14 20  1  0  0  0  0
 14 37  1  0  0  0  0
 14 38  1  0  0  0  0
 15 21  1  0  0  0  0
 15 39  1  0  0  0  0
 15 40  1  0  0  0  0
 19 42  1  0  0  0  0
 19 43  1  0  0  0  0
 19 44  1  0  0  0  0
 20 22  2  0  0  0  0
 21 23  2  0  0  0  0
 21 24  1  0  0  0  0
 22 47  1  0  0  0  0
 23 26  1  0  0  0  0
 23 48  1  0  0  0  0
 24 27  2  0  0  0  0
 24 49  1  0  0  0  0
 25 50  1  0  0  0  0
 26 28  2  0  0  0  0
 26 51  1  0  0  0  0
 27 28  1  0  0  0  0
 27 52  1  0  0  0  0
 28 53  1  0  0  0  0
M  END
> <PUBCHEM_COMPOUND_CID>
128895

> <PUBCHEM_CONFORMER_RMSD>
1.4

> <PUBCHEM_CONFORMER_DIVERSEORDER>
1
109
65
124
7
73
58
113
119
118
105
31
64
2
81
133
34
87
82
36
98
128
132
8
108
141
51
47
60
117
142
6
41
46
91
125
126
137
140
78
93
114
21
83
50
29
18
135
104
74
107
130
4
48
121
131
9
95
72
102
116
49
61
12
122
92
45
53
101
138
84
57
24
42
13
80
123
30
110
25
16
52
97
43
86
33
71
127
88
35
115
32
68
15
27
62
76
89
10
5
56
112
54
44
19
99
17
26
100
79
63
22
96
67
59
111
103
69
106
120
23
55
85
40
66
70
136
28
37
11
134
14
129
75
20
39
139
94
3
77
90
38

> <PUBCHEM_MMFF94_PARTIAL_CHARGES>
37
1 -0.57
10 0.36
11 0.27
13 0.06
14 0.18
15 0.14
16 0.57
17 0.57
18 0.57
2 -0.57
20 -0.33
21 -0.14
22 0.08
23 -0.15
24 -0.15
25 0.04
26 -0.15
27 -0.15
28 -0.15
3 -0.57
34 0.36
4 -0.9
41 0.37
45 0.37
46 0.27
47 0.15
48 0.15
49 0.15
5 -0.73
50 0.15
51 0.15
52 0.15
53 0.15
6 -0.49
7 0.03
8 -0.57
9 0.33

> <PUBCHEM_EFFECTIVE_ROTOR_COUNT>
10.8

> <PUBCHEM_PHARMACOPHORE_FEATURES>
12
1 1 acceptor
1 2 acceptor
1 3 acceptor
1 4 cation
1 4 donor
1 5 donor
1 6 donor
1 7 donor
3 7 8 25 cation
5 5 10 12 13 18 rings
5 7 8 20 22 25 rings
6 21 23 24 26 27 28 rings

> <PUBCHEM_HEAVY_ATOM_COUNT>
28

> <PUBCHEM_ATOM_DEF_STEREO_COUNT>
2

> <PUBCHEM_ATOM_UDEF_STEREO_COUNT>
1

> <PUBCHEM_BOND_DEF_STEREO_COUNT>
0

> <PUBCHEM_BOND_UDEF_STEREO_COUNT>
0

> <PUBCHEM_ISOTOPIC_ATOM_COUNT>
0

> <PUBCHEM_COMPONENT_COUNT>
1

> <PUBCHEM_CACTVS_TAUTO_COUNT>
18

> <PUBCHEM_CONFORMER_ID>
0001F77F00000001

> <PUBCHEM_MMFF94_ENERGY>
52.0794

> <PUBCHEM_FEATURE_SELFOVERLAP>
60.9

> <PUBCHEM_SHAPE_FINGERPRINT>
10006869 2 18194947565865107266
11456790 92 18187090555601299323
11578080 2 12758310188753229782
11646440 116 18409455790669743227
12788726 201 18335414635048331018
13004483 165 18339070511079128978
13590594 115 18411419522863325771
138480 1 14880037321257428265
14028597 1 17822558427156940818
140371 6 18336840731483531950
14466204 15 17763455519287575264
14849402 71 18121224448271351563
14955137 171 18338523035502699106
15131766 46 15695719368952801458
15238133 3 18334586749636589031
15295992 7 18044102469496101571
16090146 7 17169013118286526338
17980427 23 17417827169979376411
18336668 15 18187366540717988893
18785283 64 18050007993476878443
19427546 62 17330554246305493516
21033648 29 17774428507867920698
23845131 108 17617369589810220740
345986 75 18042103428386161602
3552219 110 18041003951645157132
469060 322 17458914703970050918
653340 110 18196371420537564912
7226269 152 18335135388816891530
9777508 108 18051971412074551496

> <PUBCHEM_SHAPE_MULTIPOLES>
533.71
10.89
6.3
1.28
1.4
11.47
-0.03
-9.73
1.4
-2.28
0.53
0.02
-0.09
0.32

> <PUBCHEM_SHAPE_SELFOVERLAP>
1126.49

> <PUBCHEM_SHAPE_VOLUME>
300.2

> <PUBCHEM_COORDINATE_TYPE>
2
5
10

$$$$
