REMARK  Name = 128878
REMARK  6 active torsions:
REMARK  status: ('A' for Active; 'I' for Inactive)
REMARK    1  A    between atoms: C_7  and  C_13
REMARK    2  A    between atoms: C_13  and  C_14
REMARK    3  A    between atoms: C_14  and  C_15
REMARK    4  A    between atoms: C_15  and  C_16
REMARK    5  A    between atoms: C_16  and  C_18
REMARK    6  A    between atoms: C_18  and  O_19
REMARK                            x       y       z     vdW  Elec       q    Type
REMARK                         _______ _______ _______ _____ _____    ______ ____
ROOT
ATOM      1  S   UNL     1       2.463  -1.858   1.171  0.00  0.00    -0.137 S 
ATOM      2  N   UNL     1       3.821   0.839  -0.420  0.00  0.00    -0.306 N 
ATOM      3  N   UNL     1       1.596   1.097  -0.057  0.00  0.00    -0.243 NA
ATOM      4  N   UNL     1       3.131   2.798   0.626  0.00  0.00    -0.331 N 
ATOM      5  C   UNL     1       1.798  -0.208  -0.774  0.00  0.00    +0.134 C 
ATOM      6  C   UNL     1       3.329  -0.424  -0.905  0.00  0.00    +0.105 C 
ATOM      7  C   UNL     1       1.177  -1.380  -0.012  0.00  0.00    +0.072 C 
ATOM      8  C   UNL     1       3.799  -1.569  -0.014  0.00  0.00    +0.079 C 
ATOM      9  C   UNL     1       2.800   1.603   0.059  0.00  0.00    +0.174 C 
ATOM     10  H   UNL     1       4.766   1.114  -0.433  0.00  0.00    +0.149 HD
ATOM     11  H   UNL     1       4.073   3.082   0.660  0.00  0.00    +0.145 HD
ATOM     12  H   UNL     1       2.428   3.377   1.001  0.00  0.00    +0.145 HD
ENDROOT
BRANCH   7  13
ATOM     13  C   UNL     1      -0.148  -1.087   0.671  0.00  0.00    +0.013 C 
BRANCH  13  14
ATOM     14  C   UNL     1      -1.249  -0.639  -0.294  0.00  0.00    +0.002 C 
BRANCH  14  15
ATOM     15  C   UNL     1      -2.620  -0.382   0.338  0.00  0.00    +0.012 C 
BRANCH  15  16
ATOM     16  C   UNL     1      -3.694   0.005  -0.678  0.00  0.00    +0.109 C 
BRANCH  16  18
ATOM     17  O   UNL     1      -5.134   0.796   1.119  0.00  0.00    -0.250 OA
ATOM     18  C   UNL     1      -5.008   0.341  -0.009  0.00  0.00    +0.314 C 
BRANCH  18  19
ATOM     19  O   UNL     1      -6.062   0.067  -0.820  0.00  0.00    -0.480 OA
ATOM     20  H   UNL     1      -5.916  -0.282  -1.678  0.00  0.00    +0.295 HD
ENDBRANCH  18  19
ENDBRANCH  16  18
ENDBRANCH  15  16
ENDBRANCH  14  15
ENDBRANCH  13  14
ENDBRANCH   7  13
TORSDOF 6
