128875
  -OEChem-03292013323D

 36 36  0     1  0  0  0  0  0999 V2000
    0.3779   -0.0024   -0.7865 S   0  0  0  0  0  0  0  0  0  0  0  0
    2.7144   -1.9472   -1.5845 O   0  0  0  0  0  0  0  0  0  0  0  0
   -2.8508    1.7234   -1.6327 O   0  0  0  0  0  0  0  0  0  0  0  0
   -1.7531    3.0075   -0.1206 O   0  0  0  0  0  0  0  0  0  0  0  0
   -3.5183   -1.4442    1.7714 O   0  0  0  0  0  0  0  0  0  0  0  0
   -2.8002   -0.4470   -0.2063 N   0  0  0  0  0  0  0  0  0  0  0  0
    1.9697   -0.3319    0.0570 C   0  0  1  0  0  0  0  0  0  0  0  0
    3.0521   -0.7066   -0.9659 C   0  0  1  0  0  0  0  0  0  0  0  0
    2.3661    0.9007    0.8759 C   0  0  0  0  0  0  0  0  0  0  0  0
    4.4191   -0.8644   -0.2937 C   0  0  0  0  0  0  0  0  0  0  0  0
    3.7296    0.7168    1.5394 C   0  0  0  0  0  0  0  0  0  0  0  0
    4.8050    0.3662    0.5169 C   0  0  0  0  0  0  0  0  0  0  0  0
   -0.6251    0.2926    0.6852 C   0  0  0  0  0  0  0  0  0  0  0  0
   -2.0797    0.6569    0.3773 C   0  0  1  0  0  0  0  0  0  0  0  0
   -2.1946    1.9174   -0.4638 C   0  0  0  0  0  0  0  0  0  0  0  0
   -3.4604   -1.4068    0.5451 C   0  0  0  0  0  0  0  0  0  0  0  0
   -4.1517   -2.4312   -0.3142 C   0  0  0  0  0  0  0  0  0  0  0  0
    1.8037   -1.1876    0.7235 H   0  0  0  0  0  0  0  0  0  0  0  0
    3.1307    0.0547   -1.7524 H   0  0  0  0  0  0  0  0  0  0  0  0
    1.6717    1.0981    1.6947 H   0  0  0  0  0  0  0  0  0  0  0  0
    2.3974    1.7961    0.2415 H   0  0  0  0  0  0  0  0  0  0  0  0
    5.1819   -1.0672   -1.0551 H   0  0  0  0  0  0  0  0  0  0  0  0
    4.4094   -1.7493    0.3563 H   0  0  0  0  0  0  0  0  0  0  0  0
    3.6668   -0.0787    2.2923 H   0  0  0  0  0  0  0  0  0  0  0  0
    4.0099    1.6353    2.0674 H   0  0  0  0  0  0  0  0  0  0  0  0
    4.9598    1.2162   -0.1589 H   0  0  0  0  0  0  0  0  0  0  0  0
    5.7569    0.1872    1.0293 H   0  0  0  0  0  0  0  0  0  0  0  0
   -0.5876   -0.5946    1.3264 H   0  0  0  0  0  0  0  0  0  0  0  0
   -0.2238    1.1398    1.2430 H   0  0  0  0  0  0  0  0  0  0  0  0
    1.8390   -1.8378   -1.9937 H   0  0  0  0  0  0  0  0  0  0  0  0
   -2.5823    0.8914    1.3249 H   0  0  0  0  0  0  0  0  0  0  0  0
   -2.8097   -0.5253   -1.2195 H   0  0  0  0  0  0  0  0  0  0  0  0
   -4.4974   -3.2614    0.3079 H   0  0  0  0  0  0  0  0  0  0  0  0
   -5.0105   -1.9715   -0.8107 H   0  0  0  0  0  0  0  0  0  0  0  0
   -3.4608   -2.8216   -1.0669 H   0  0  0  0  0  0  0  0  0  0  0  0
   -2.9195    2.5500   -2.1564 H   0  0  0  0  0  0  0  0  0  0  0  0
  1  7  1  0  0  0  0
  1 13  1  0  0  0  0
  2  8  1  0  0  0  0
  2 30  1  0  0  0  0
  3 15  1  0  0  0  0
  3 36  1  0  0  0  0
  4 15  2  0  0  0  0
  5 16  2  0  0  0  0
  6 14  1  0  0  0  0
  6 16  1  0  0  0  0
  6 32  1  0  0  0  0
  7  8  1  0  0  0  0
  7  9  1  0  0  0  0
  7 18  1  0  0  0  0
  8 10  1  0  0  0  0
  8 19  1  0  0  0  0
  9 11  1  0  0  0  0
  9 20  1  0  0  0  0
  9 21  1  0  0  0  0
 10 12  1  0  0  0  0
 10 22  1  0  0  0  0
 10 23  1  0  0  0  0
 11 12  1  0  0  0  0
 11 24  1  0  0  0  0
 11 25  1  0  0  0  0
 12 26  1  0  0  0  0
 12 27  1  0  0  0  0
 13 14  1  0  0  0  0
 13 28  1  0  0  0  0
 13 29  1  0  0  0  0
 14 15  1  0  0  0  0
 14 31  1  0  0  0  0
 16 17  1  0  0  0  0
 17 33  1  0  0  0  0
 17 34  1  0  0  0  0
 17 35  1  0  0  0  0
M  END
> <PUBCHEM_COMPOUND_CID>
128875

> <PUBCHEM_CONFORMER_RMSD>
0.8

> <PUBCHEM_CONFORMER_DIVERSEORDER>
2
87
5
70
98
82
7
27
73
55
79
66
50
28
36
76
72
74
34
96
21
42
58
33
23
22
51
89
13
40
3
64
57
20
17
68
88
29
11
46
77
19
75
41
80
81
78
65
45
16
18
91
15
84
94
44
48
86
61
47
93
49
10
92
12
31
69
54
85
71
37
35
67
52
9
60
56
90
6
62
4
8
38
25
24
97
30
95
39
59
32
43
53
26
1
63
14
83

> <PUBCHEM_MMFF94_PARTIAL_CHARGES>
16
1 -0.46
13 0.23
14 0.36
15 0.66
16 0.57
17 0.06
2 -0.68
3 -0.65
30 0.4
32 0.37
36 0.5
4 -0.57
5 -0.57
6 -0.73
7 0.23
8 0.28

> <PUBCHEM_EFFECTIVE_ROTOR_COUNT>
7.2

> <PUBCHEM_PHARMACOPHORE_FEATURES>
8
1 2 acceptor
1 2 donor
1 3 acceptor
1 4 acceptor
1 5 acceptor
1 6 donor
3 3 4 15 anion
6 7 8 9 10 11 12 rings

> <PUBCHEM_HEAVY_ATOM_COUNT>
17

> <PUBCHEM_ATOM_DEF_STEREO_COUNT>
1

> <PUBCHEM_ATOM_UDEF_STEREO_COUNT>
2

> <PUBCHEM_BOND_DEF_STEREO_COUNT>
0

> <PUBCHEM_BOND_UDEF_STEREO_COUNT>
0

> <PUBCHEM_ISOTOPIC_ATOM_COUNT>
0

> <PUBCHEM_COMPONENT_COUNT>
1

> <PUBCHEM_CACTVS_TAUTO_COUNT>
2

> <PUBCHEM_CONFORMER_ID>
0001F76B00000002

> <PUBCHEM_MMFF94_ENERGY>
28.1159

> <PUBCHEM_FEATURE_SELFOVERLAP>
40.656

> <PUBCHEM_SHAPE_FINGERPRINT>
11370993 144 17774176603798213883
11405975 8 18268994185406704034
12346177 29 18040711429210759629
12363563 72 18116158938125471051
12500047 106 18191302667633327484
13296908 3 18343021064741226072
13583140 156 18270668784660548558
14178342 30 18042123172060157112
14289901 80 18334019376135215240
15099037 37 18408600379038583687
15653759 3 18412548691018708560
16752209 62 17676759946570566443
18186145 218 18059017181533131050
19049666 15 18198909102206966926
19141452 34 18272939362387990419
1986462 14 18334576811155579520
20645477 56 18265054630807483973
20645477 70 17345748569514554796
20671657 53 16805887415367922255
20681677 76 18341320154650095088
20693207 138 18058752220468719622
21065201 7 18260545576797968290
21728266 224 17968358109436727898
221490 88 18059299751921993102
22943178 12 18271807861395050198
23402539 116 18187357761704758083
23557571 272 18409164402871381809
23559900 14 18338514115408636414
314173 85 18336836385250493427
3268164 11 18040148517933091063
4921388 177 18261676978352331461
5104073 3 18202279161592230218
6049 1 18201163165447396172
633830 44 15554167068976222912
6913067 236 18057585732825341619
7615 1 16732990812169090588
81228 2 18261121746829765593
9709674 26 18199746947104705548

> <PUBCHEM_SHAPE_MULTIPOLES>
325.24
9.58
2.35
1.37
3.09
0.59
0.06
-3.63
1.32
-2.79
-0.59
0.01
-0.09
1.98

> <PUBCHEM_SHAPE_SELFOVERLAP>
626.95

> <PUBCHEM_SHAPE_VOLUME>
197.8

> <PUBCHEM_COORDINATE_TYPE>
2
5
10

$$$$
