REMARK  Name = 128862
REMARK  7 active torsions:
REMARK  status: ('A' for Active; 'I' for Inactive)
REMARK    1  A    between atoms: C_1  and  C_9
REMARK    2  A    between atoms: C_6  and  O_17
REMARK    3  A    between atoms: O_17  and  P_18
REMARK    4  A    between atoms: P_18  and  O_20
REMARK    5  A    between atoms: P_18  and  O_22
REMARK    6  A    between atoms: O_22  and  C_23
REMARK    7  A    between atoms: C_28  and  O_29
REMARK                            x       y       z     vdW  Elec       q    Type
REMARK                         _______ _______ _______ _____ _____    ______ ____
ROOT
ATOM      1  C   UNL     1      -2.144  -0.720  -0.740  0.00  0.00    +0.022 C 
ATOM      2  C   UNL     1      -1.228  -1.038  -1.745  0.00  0.00    +0.003 C 
ATOM      3  C   UNL     1      -1.722   0.005   0.378  0.00  0.00    +0.003 C 
ATOM      4  C   UNL     1       0.102  -0.634  -1.633  0.00  0.00    +0.037 C 
ATOM      5  C   UNL     1      -0.392   0.409   0.488  0.00  0.00    +0.037 C 
ATOM      6  C   UNL     1       0.520   0.089  -0.517  0.00  0.00    +0.150 C 
ENDROOT
BRANCH   1   9
ATOM      7  O   UNL     1      -3.868  -2.032   0.261  0.00  0.00    -0.440 OA
ATOM      8  O   UNL     1      -5.381  -2.113   2.010  0.00  0.00    -0.245 OA
ATOM      9  C   UNL     1      -3.563  -1.151  -0.857  0.00  0.00    +0.214 C 
ATOM     10  C   UNL     1      -4.551  -0.060  -0.676  0.00  0.00    +0.028 C 
ATOM     11  C   UNL     1      -5.341  -0.326   0.425  0.00  0.00    +0.075 C 
ATOM     12  C   UNL     1      -4.911  -1.579   1.026  0.00  0.00    +0.342 C 
ATOM     13  C   UNL     1      -4.767   1.079  -1.432  0.00  0.00    -0.000 C 
ATOM     14  C   UNL     1      -6.359   0.514   0.836  0.00  0.00    +0.006 C 
ATOM     15  C   UNL     1      -5.790   1.950  -1.043  0.00  0.00    -0.000 C 
ATOM     16  C   UNL     1      -6.580   1.669   0.085  0.00  0.00    +0.000 C 
ENDBRANCH   1   9
BRANCH   6  17
ATOM     17  O   UNL     1       1.819   0.484  -0.410  0.00  0.00    -0.394 OA
BRANCH  17  18
ATOM     18  P   UNL     1       2.442   1.326   0.825  0.00  0.00    +0.588 P 
ATOM     19  O   UNL     1       2.347   0.676   2.176  0.00  0.00    -0.205 OA
BRANCH  18  20
ATOM     20  O   UNL     1       1.697   2.760   0.716  0.00  0.00    -0.283 OA
ATOM     21  H   UNL     1       1.803   3.112  -0.182  0.00  0.00    +0.224 HD
ENDBRANCH  18  20
BRANCH  18  22
ATOM     22  O   UNL     1       3.940   1.679   0.334  0.00  0.00    -0.394 OA
BRANCH  22  23
ATOM     23  C   UNL     1       4.942   0.764   0.158  0.00  0.00    +0.150 C 
ATOM     24  C   UNL     1       4.699  -0.582   0.408  0.00  0.00    +0.041 C 
ATOM     25  C   UNL     1       6.196   1.189  -0.271  0.00  0.00    +0.041 C 
ATOM     26  C   UNL     1       5.721  -1.515   0.228  0.00  0.00    +0.040 C 
ATOM     27  C   UNL     1       7.218   0.256  -0.451  0.00  0.00    +0.040 C 
ATOM     28  C   UNL     1       6.980  -1.095  -0.202  0.00  0.00    +0.134 C 
BRANCH  28  29
ATOM     29  O   UNL     1       7.977  -2.005  -0.377  0.00  0.00    -0.506 OA
ATOM     30  H   UNL     1       7.817  -2.913  -0.210  0.00  0.00    +0.292 HD
ENDBRANCH  28  29
ENDBRANCH  22  23
ENDBRANCH  18  22
ENDBRANCH  17  18
ENDBRANCH   6  17
TORSDOF 7
