REMARK  Name = 128860
REMARK  11 active torsions:
REMARK  status: ('A' for Active; 'I' for Inactive)
REMARK    1  A    between atoms: CA_1  and  C_8
REMARK    2  A    between atoms: CA_1  and  N_14
REMARK    3  A    between atoms: CA_1  and  C_31
REMARK    4  A    between atoms: CA_4  and  C_10
REMARK    5  A    between atoms: C_10  and  O_11
REMARK    6  A    between atoms: C_15  and  C_17
REMARK    7  A    between atoms: C_17  and  N_19
REMARK    8  A    between atoms: C_20  and  C_22
REMARK    9  A    between atoms: C_23  and  N_28
REMARK   10  A    between atoms: C_31  and  C_32
REMARK   11  A    between atoms: C_37  and  N_40
REMARK                            x       y       z     vdW  Elec       q    Type
REMARK                         _______ _______ _______ _____ _____    ______ ____
ROOT
ATOM      1  CA  UNL     1      -2.182  -0.187   0.002  0.00  0.00    +0.153 C 
ENDROOT
BRANCH   1   8
ATOM      2  O   UNL     1      -3.585  -1.761  -1.103  0.00  0.00    -0.273 OA
ATOM      3  N   UNL     1      -4.575  -0.388   0.476  0.00  0.00    -0.270 N 
ATOM      4  CA  UNL     1      -5.883  -1.032   0.460  0.00  0.00    +0.175 C 
ATOM      5  CB  UNL     1      -6.586  -0.511   1.708  0.00  0.00    +0.033 C 
ATOM      6  CG  UNL     1      -5.968   0.870   1.914  0.00  0.00    +0.024 C 
ATOM      7  CD  UNL     1      -4.524   0.674   1.477  0.00  0.00    +0.094 C 
ATOM      8  C   UNL     1      -3.504  -0.861  -0.265  0.00  0.00    +0.244 C 
BRANCH   4  10
ATOM      9  OXT UNL     1      -6.405   0.482  -1.351  0.00  0.00    -0.248 OA
ATOM     10  C   UNL     1      -6.576  -0.592  -0.794  0.00  0.00    +0.332 C 
BRANCH  10  11
ATOM     11  O   UNL     1      -7.428  -1.551  -1.232  0.00  0.00    -0.479 OA
ATOM     12  H   UNL     1      -7.513  -2.354  -0.757  0.00  0.00    +0.295 HD
ENDBRANCH  10  11
ENDBRANCH   4  10
ENDBRANCH   1   8
BRANCH   1  14
ATOM     13  O   UNL     1       0.262  -0.578   1.508  0.00  0.00    -0.273 OA
ATOM     14  N   UNL     1      -1.228  -1.248  -0.148  0.00  0.00    -0.297 N 
ATOM     15  C   UNL     1      -0.072  -1.361   0.622  0.00  0.00    +0.243 C 
ATOM     16  H   UNL     1      -1.399  -1.934  -0.833  0.00  0.00    +0.150 HD
BRANCH  15  17
ATOM     17  C   UNL     1       0.714  -2.609   0.279  0.00  0.00    +0.176 C 
BRANCH  17  19
ATOM     18  O   UNL     1       2.588  -1.596  -1.646  0.00  0.00    -0.270 OA
ATOM     19  N   UNL     1       2.111  -2.369   0.489  0.00  0.00    -0.293 N 
ATOM     20  C   UNL     1       2.950  -1.874  -0.506  0.00  0.00    +0.247 C 
ATOM     21  H   UNL     1       2.494  -2.562   1.375  0.00  0.00    +0.150 HD
BRANCH  20  22
ATOM     22  C   UNL     1       4.379  -1.705  -0.137  0.00  0.00    +0.066 C 
ATOM     23  C   UNL     1       4.765  -0.862   0.905  0.00  0.00    +0.046 C 
ATOM     24  C   UNL     1       5.344  -2.410  -0.857  0.00  0.00    +0.006 C 
ATOM     25  C   UNL     1       6.115  -0.725   1.228  0.00  0.00    +0.014 C 
ATOM     26  C   UNL     1       6.694  -2.272  -0.535  0.00  0.00    +0.000 C 
ATOM     27  C   UNL     1       7.080  -1.429   0.507  0.00  0.00    +0.001 C 
BRANCH  23  28
ATOM     28  N   UNL     1       3.804  -0.139   1.647  0.00  0.00    -0.357 N 
ATOM     29  H   UNL     1       2.848  -0.226   1.431  0.00  0.00    +0.142 HD
ATOM     30  H   UNL     1       4.091   0.452   2.380  0.00  0.00    +0.142 HD
ENDBRANCH  23  28
ENDBRANCH  20  22
ENDBRANCH  17  19
ENDBRANCH  15  17
ENDBRANCH   1  14
BRANCH   1  31
ATOM     31  C   UNL     1      -1.967   0.959  -0.977  0.00  0.00    +0.055 C 
BRANCH  31  32
ATOM     32  C   UNL     1      -0.644   1.652  -0.761  0.00  0.00    -0.020 C 
ATOM     33  C   UNL     1      -0.559   2.734   0.115  0.00  0.00    -0.002 C 
ATOM     34  C   UNL     1       0.493   1.210  -1.438  0.00  0.00    -0.002 C 
ATOM     35  C   UNL     1       0.664   3.375   0.315  0.00  0.00    +0.024 C 
ATOM     36  C   UNL     1       1.716   1.851  -1.238  0.00  0.00    +0.024 C 
ATOM     37  C   UNL     1       1.801   2.933  -0.362  0.00  0.00    +0.143 C 
BRANCH  37  40
ATOM     38  O   UNL     1       3.101   4.558   0.632  0.00  0.00    -0.126 OA
ATOM     39  O   UNL     1       4.057   3.173  -0.777  0.00  0.00    -0.126 OA
ATOM     40  N   UNL     1       3.046   3.586  -0.159  0.00  0.00    +0.058 N 
ENDBRANCH  37  40
ENDBRANCH  31  32
ENDBRANCH   1  31
TORSDOF 11
