REMARK  Name = 128976
REMARK  13 active torsions:
REMARK  status: ('A' for Active; 'I' for Inactive)
REMARK    1  A    between atoms: C_1  and  N_22
REMARK    2  A    between atoms: C_2  and  C_9
REMARK    3  A    between atoms: N_8  and  CA_11
REMARK    4  A    between atoms: CA_11  and  C_13
REMARK    5  A    between atoms: CA_11  and  CB_16
REMARK    6  A    between atoms: C_13  and  O_14
REMARK    7  A    between atoms: CB_16  and  CG_17
REMARK    8  A    between atoms: CG_17  and  CD_19
REMARK    9  A    between atoms: CD_19  and  OE1_20
REMARK   10  A    between atoms: N_22  and  C_23
REMARK   11  A    between atoms: N_22  and  C_37
REMARK   12  A    between atoms: C_23  and  C_27
REMARK   13  A    between atoms: C_37  and  C_38
REMARK                            x       y       z     vdW  Elec       q    Type
REMARK                         _______ _______ _______ _____ _____    ______ ____
ROOT
ATOM      1  C   UNL     1      -0.126  -1.930  -0.247  0.00  0.00    +0.049 C 
ATOM      2  C   UNL     1       2.384  -0.965  -0.990  0.00  0.00    +0.053 C 
ATOM      3  C   UNL     1       0.677  -1.280   0.690  0.00  0.00    +0.015 C 
ATOM      4  C   UNL     1       0.327  -2.098  -1.556  0.00  0.00    +0.015 C 
ATOM      5  C   UNL     1       1.932  -0.798   0.319  0.00  0.00    +0.006 C 
ATOM      6  C   UNL     1       1.582  -1.616  -1.927  0.00  0.00    +0.006 C 
ENDROOT
BRANCH   2   9
ATOM      7  O   UNL     1       3.916  -0.123  -2.553  0.00  0.00    -0.270 OA
ATOM      8  N   UNL     1       4.659  -0.363  -0.369  0.00  0.00    -0.293 N 
ATOM      9  C   ACE A   0       3.693  -0.463  -1.377  0.00  0.00    +0.246 C 
ATOM     10  H   UNL     1       4.414  -0.650   0.540  0.00  0.00    +0.150 HD
BRANCH   8  11
ATOM     11  CA  UNL     1       5.996   0.139  -0.591  0.00  0.00    +0.172 C 
BRANCH  11  13
ATOM     12  OXT UNL     1       6.584  -1.440   1.167  0.00  0.00    -0.248 OA
ATOM     13  C   UNL     1       6.933  -0.640   0.309  0.00  0.00    +0.332 C 
BRANCH  13  14
ATOM     14  O   UNL     1       8.237  -0.379   0.031  0.00  0.00    -0.479 OA
ATOM     15  H   UNL     1       8.459   0.242  -0.635  0.00  0.00    +0.295 HD
ENDBRANCH  13  14
ENDBRANCH  11  13
BRANCH  11  16
ATOM     16  CB  UNL     1       6.094   1.660  -0.418  0.00  0.00    +0.043 C 
BRANCH  16  17
ATOM     17  CG  UNL     1       5.767   2.196   0.982  0.00  0.00    +0.112 C 
BRANCH  17  19
ATOM     18  OE2 UNL     1       6.164   4.465   0.190  0.00  0.00    -0.250 OA
ATOM     19  CD  UNL     1       5.866   3.701   1.097  0.00  0.00    +0.314 C 
BRANCH  19  20
ATOM     20  OE1 UNL     1       5.620   4.123   2.366  0.00  0.00    -0.480 OA
ATOM     21  HE1 UNL     1       5.395   3.503   3.030  0.00  0.00    +0.295 HD
ENDBRANCH  19  20
ENDBRANCH  17  19
ENDBRANCH  16  17
ENDBRANCH  11  16
ENDBRANCH   8  11
ENDBRANCH   2   9
BRANCH   1  22
ATOM     22  N   UNL     1      -1.385  -2.416   0.126  0.00  0.00    -0.292 N 
BRANCH  22  23
ATOM     23  C   UNL     1      -2.475  -2.486  -0.822  0.00  0.00    +0.118 C 
BRANCH  23  27
ATOM     24  O   UNL     1      -6.520  -0.484   1.639  0.00  0.00    -0.269 OA
ATOM     25  N   UNL     1      -6.818   1.654   0.733  0.00  0.00    -0.232 N 
ATOM     26  N   UNL     1      -5.359   2.425  -0.978  0.00  0.00    -0.395 NA
ATOM     27  C   UNL     1      -3.238  -1.204  -0.855  0.00  0.00    -0.006 C 
ATOM     28  C   UNL     1      -5.034   0.188  -0.036  0.00  0.00    +0.079 C 
ATOM     29  C   UNL     1      -4.324  -1.017  -0.001  0.00  0.00    +0.004 C 
ATOM     30  C   UNL     1      -4.669   1.207  -0.919  0.00  0.00    +0.119 C 
ATOM     31  C   UNL     1      -2.864  -0.195  -1.739  0.00  0.00    -0.021 C 
ATOM     32  C   UNL     1      -3.577   1.005  -1.770  0.00  0.00    +0.085 C 
ATOM     33  C   UNL     1      -6.188   0.406   0.862  0.00  0.00    +0.256 C 
ATOM     34  C   UNL     1      -6.368   2.601  -0.184  0.00  0.00    +0.166 C 
ATOM     35  C   UNL     1      -7.967   1.929   1.595  0.00  0.00    +0.122 C 
ATOM     36  C   UNL     1      -7.100   3.920  -0.262  0.00  0.00    +0.084 C 
ENDBRANCH  23  27
ENDBRANCH  22  23
BRANCH  22  37
ATOM     37  C   UNL     1      -1.627  -2.852   1.501  0.00  0.00    +0.170 C 
BRANCH  37  38
ATOM     38  C   UNL     1      -0.754  -3.975   1.848  0.00  0.00    -0.056 C 
ATOM     39  C   UNL     1      -0.039  -4.896   2.137  0.00  0.00    -0.012 C 
ENDBRANCH  37  38
ENDBRANCH  22  37
ENDBRANCH   1  22
TORSDOF 13
