REMARK  Name = 128902
REMARK  5 active torsions:
REMARK  status: ('A' for Active; 'I' for Inactive)
REMARK    1  A    between atoms: N_1  and  C_10
REMARK    2  A    between atoms: C_11  and  C_19
REMARK    3  A    between atoms: C_13  and  O_15
REMARK    4  A    between atoms: C_14  and  O_17
REMARK    5  A    between atoms: C_19  and  O_20
REMARK                            x       y       z     vdW  Elec       q    Type
REMARK                         _______ _______ _______ _____ _____    ______ ____
ROOT
ATOM      1  N   UNL     1      -0.257   0.222   0.090  0.00  0.00    -0.274 N 
ATOM      2  N   UNL     1      -1.780  -1.413  -0.817  0.00  0.00    -0.233 NA
ATOM      3  N   UNL     1      -4.117  -0.774  -0.575  0.00  0.00    -0.234 NA
ATOM      4  C   UNL     1      -1.511  -0.249  -0.202  0.00  0.00    +0.120 C 
ATOM      5  C   UNL     1      -0.361   1.437   0.718  0.00  0.00    +0.062 C 
ATOM      6  C   UNL     1      -2.436   0.686   0.248  0.00  0.00    +0.131 C 
ATOM      7  C   UNL     1      -1.700   1.750   0.828  0.00  0.00    +0.004 C 
ATOM      8  C   UNL     1      -3.781   0.384   0.039  0.00  0.00    +0.110 C 
ATOM      9  C   UNL     1      -3.109  -1.590  -0.960  0.00  0.00    +0.252 C 
ATOM     10  N   UNL     1      -4.789   1.269   0.460  0.00  0.00    -0.346 N 
ATOM     11  H   UNL     1      -5.736   1.046   0.307  0.00  0.00    +0.143 HD
ATOM     12  H   UNL     1      -4.548   2.113   0.906  0.00  0.00    +0.143 HD
ENDROOT
BRANCH   1  13
ATOM     13  C   UNL     1       1.002  -0.456  -0.212  0.00  0.00    +0.108 C 
ATOM     14  C   UNL     1       3.361   0.211  -0.558  0.00  0.00    +0.060 C 
ATOM     15  C   UNL     1       1.940   0.335  -1.150  0.00  0.00    +0.028 C 
ATOM     16  C   UNL     1       1.850  -0.781   1.025  0.00  0.00    +0.156 C 
ATOM     17  C   UNL     1       3.257  -0.936   0.452  0.00  0.00    +0.141 C 
BRANCH  16  18
ATOM     18  O   UNL     1       1.425  -1.972   1.664  0.00  0.00    -0.380 OA
ATOM     19  H   UNL     1       0.531  -1.847   2.018  0.00  0.00    +0.211 HD
ENDBRANCH  16  18
BRANCH  17  20
ATOM     20  O   UNL     1       3.373  -2.169  -0.259  0.00  0.00    -0.382 OA
ATOM     21  H   UNL     1       4.270  -2.253  -0.617  0.00  0.00    +0.210 HD
ENDBRANCH  17  20
BRANCH  14  22
ATOM     22  C   UNL     1       3.811   1.515   0.097  0.00  0.00    +0.140 C 
BRANCH  22  23
ATOM     23  O   UNL     1       3.820   2.532  -0.887  0.00  0.00    -0.382 OA
ATOM     24  H   UNL     1       4.104   3.368  -0.486  0.00  0.00    +0.210 HD
ENDBRANCH  22  23
ENDBRANCH  14  22
ENDBRANCH   1  13
TORSDOF 5
