REMARK  Name = 128980
REMARK  8 active torsions:
REMARK  status: ('A' for Active; 'I' for Inactive)
REMARK    1  A    between atoms: N_1  and  C_2
REMARK    2  A    between atoms: N_1  and  C_18
REMARK    3  A    between atoms: N_1  and  O_31
REMARK    4  A    between atoms: C_16  and  O_21
REMARK    5  A    between atoms: C_17  and  O_23
REMARK    6  A    between atoms: C_19  and  O_25
REMARK    7  A    between atoms: C_20  and  C_28
REMARK    8  A    between atoms: C_28  and  O_29
REMARK                            x       y       z     vdW  Elec       q    Type
REMARK                         _______ _______ _______ _____ _____    ______ ____
ROOT
ATOM      1  N   UNL     1       1.002  -1.518  -0.439  0.00  0.00    -0.214 N 
ENDROOT
BRANCH   1   2
ATOM      2  C   UNL     1      -0.377  -1.216  -0.386  0.00  0.00    +0.085 C 
ATOM      3  C   UNL     1      -2.172   0.159   0.363  0.00  0.00    -0.002 C 
ATOM      4  C   UNL     1      -3.098  -0.667  -0.313  0.00  0.00    -0.014 C 
ATOM      5  C   UNL     1      -2.889   1.294   1.065  0.00  0.00    -0.004 C 
ATOM      6  C   UNL     1      -0.814  -0.103   0.335  0.00  0.00    +0.019 C 
ATOM      7  C   UNL     1      -4.429  -0.141  -0.100  0.00  0.00    +0.066 C 
ATOM      8  C   UNL     1      -4.333   1.014   0.708  0.00  0.00    -0.014 C 
ATOM      9  C   UNL     1      -1.292  -2.042  -1.060  0.00  0.00    +0.019 C 
ATOM     10  C   UNL     1      -2.664  -1.772  -1.027  0.00  0.00    -0.002 C 
ATOM     11  C   UNL     1      -5.661  -0.587  -0.548  0.00  0.00    -0.018 C 
ATOM     12  C   UNL     1      -5.457   1.733   1.077  0.00  0.00    -0.004 C 
ATOM     13  C   UNL     1      -6.800   0.135  -0.179  0.00  0.00    -0.004 C 
ATOM     14  C   UNL     1      -6.699   1.284   0.626  0.00  0.00    -0.001 C 
ENDBRANCH   1   2
BRANCH   1  18
ATOM     15  O   UNL     1       2.277   0.443  -0.553  0.00  0.00    -0.321 OA
ATOM     16  C   UNL     1       3.289  -1.558   0.377  0.00  0.00    +0.191 C 
ATOM     17  C   UNL     1       4.428  -0.717   0.953  0.00  0.00    +0.171 C 
ATOM     18  C   UNL     1       2.015  -0.724   0.224  0.00  0.00    +0.255 C 
ATOM     19  C   UNL     1       4.585   0.607   0.205  0.00  0.00    +0.178 C 
ATOM     20  C   UNL     1       3.236   1.302   0.055  0.00  0.00    +0.244 C 
BRANCH  16  21
ATOM     21  O   UNL     1       3.052  -2.645   1.271  0.00  0.00    -0.378 OA
ATOM     22  H   UNL     1       3.863  -3.170   1.364  0.00  0.00    +0.211 HD
ENDBRANCH  16  21
BRANCH  17  23
ATOM     23  O   UNL     1       5.653  -1.444   0.841  0.00  0.00    -0.379 OA
ATOM     24  H   UNL     1       5.571  -2.289   1.311  0.00  0.00    +0.211 HD
ENDBRANCH  17  23
BRANCH  19  25
ATOM     25  O   UNL     1       5.473   1.435   0.955  0.00  0.00    -0.379 OA
ATOM     26  H   UNL     1       6.329   0.989   1.048  0.00  0.00    +0.211 HD
ENDBRANCH  19  25
BRANCH  20  28
ATOM     27  O   UNL     1       2.720   2.506  -1.972  0.00  0.00    -0.247 OA
ATOM     28  C   UNL     1       3.320   2.441  -0.909  0.00  0.00    +0.344 C 
BRANCH  28  29
ATOM     29  O   UNL     1       4.158   3.400  -0.446  0.00  0.00    -0.478 OA
ATOM     30  H   UNL     1       4.588   3.288   0.379  0.00  0.00    +0.295 HD
ENDBRANCH  28  29
ENDBRANCH  20  28
ENDBRANCH   1  18
BRANCH   1  31
ATOM     31  O   UNL     1       1.476  -2.618  -1.121  0.00  0.00    -0.284 OA
ATOM     32  H   UNL     1       2.442  -2.655  -1.043  0.00  0.00    +0.245 HD
ENDBRANCH   1  31
TORSDOF 8
