12896796
  -OEChem-03292013303D

 36 37  0     1  0  0  0  0  0999 V2000
    1.0504   -0.5394    0.4619 O   0  0  0  0  0  0  0  0  0  0  0  0
    3.6048    0.9426   -1.5494 O   0  0  0  0  0  0  0  0  0  0  0  0
    4.5443   -1.3673   -0.3206 O   0  0  0  0  0  0  0  0  0  0  0  0
   -0.0872    1.4873    0.6659 O   0  0  0  0  0  0  0  0  0  0  0  0
    2.2484    2.8806   -0.1068 O   0  0  0  0  0  0  0  0  0  0  0  0
    0.7527   -3.2332    0.0076 O   0  0  0  0  0  0  0  0  0  0  0  0
   -5.7159   -0.7308   -1.3064 O   0  0  0  0  0  0  0  0  0  0  0  0
    3.5276    0.8233   -0.1265 C   0  0  2  0  0  0  0  0  0  0  0  0
    3.4717   -0.6521    0.2791 C   0  0  1  0  0  0  0  0  0  0  0  0
    2.2893    1.5514    0.4022 C   0  0  2  0  0  0  0  0  0  0  0  0
    2.1288   -1.2836   -0.1132 C   0  0  1  0  0  0  0  0  0  0  0  0
    0.9986    0.8185    0.0235 C   0  0  1  0  0  0  0  0  0  0  0  0
    2.0140   -2.7184    0.3937 C   0  0  0  0  0  0  0  0  0  0  0  0
   -1.3357    0.9683    0.4574 C   0  0  0  0  0  0  0  0  0  0  0  0
   -2.0871    0.5217    1.5399 C   0  0  0  0  0  0  0  0  0  0  0  0
   -1.8450    0.8926   -0.8352 C   0  0  0  0  0  0  0  0  0  0  0  0
   -3.3606   -0.0064    1.3276 C   0  0  0  0  0  0  0  0  0  0  0  0
   -3.1185    0.3646   -1.0474 C   0  0  0  0  0  0  0  0  0  0  0  0
   -3.8763   -0.0848    0.0341 C   0  0  0  0  0  0  0  0  0  0  0  0
   -5.2043   -0.6351   -0.1874 C   0  0  0  0  0  0  0  0  0  0  0  0
    4.4407    1.2926    0.2554 H   0  0  0  0  0  0  0  0  0  0  0  0
    3.5951   -0.7024    1.3690 H   0  0  0  0  0  0  0  0  0  0  0  0
    2.3551    1.6235    1.4947 H   0  0  0  0  0  0  0  0  0  0  0  0
    1.9962   -1.3035   -1.2024 H   0  0  0  0  0  0  0  0  0  0  0  0
    0.8501    0.8556   -1.0625 H   0  0  0  0  0  0  0  0  0  0  0  0
    2.0743   -2.7646    1.4860 H   0  0  0  0  0  0  0  0  0  0  0  0
    2.7852   -3.3661   -0.0312 H   0  0  0  0  0  0  0  0  0  0  0  0
    2.8093    0.5517   -1.9444 H   0  0  0  0  0  0  0  0  0  0  0  0
    4.6338   -2.2161    0.1440 H   0  0  0  0  0  0  0  0  0  0  0  0
    2.2212    2.8254   -1.0774 H   0  0  0  0  0  0  0  0  0  0  0  0
    0.0698   -2.6512    0.3828 H   0  0  0  0  0  0  0  0  0  0  0  0
   -1.6890    0.5806    2.5490 H   0  0  0  0  0  0  0  0  0  0  0  0
   -1.2774    1.2546   -1.6875 H   0  0  0  0  0  0  0  0  0  0  0  0
   -3.9387   -0.3527    2.1805 H   0  0  0  0  0  0  0  0  0  0  0  0
   -3.5018    0.3169   -2.0634 H   0  0  0  0  0  0  0  0  0  0  0  0
   -5.7551   -0.9741    0.7064 H   0  0  0  0  0  0  0  0  0  0  0  0
  1 11  1  0  0  0  0
  1 12  1  0  0  0  0
  2  8  1  0  0  0  0
  2 28  1  0  0  0  0
  3  9  1  0  0  0  0
  3 29  1  0  0  0  0
  4 12  1  0  0  0  0
  4 14  1  0  0  0  0
  5 10  1  0  0  0  0
  5 30  1  0  0  0  0
  6 13  1  0  0  0  0
  6 31  1  0  0  0  0
  7 20  2  0  0  0  0
  8  9  1  0  0  0  0
  8 10  1  0  0  0  0
  8 21  1  0  0  0  0
  9 11  1  0  0  0  0
  9 22  1  0  0  0  0
 10 12  1  0  0  0  0
 10 23  1  0  0  0  0
 11 13  1  0  0  0  0
 11 24  1  0  0  0  0
 12 25  1  0  0  0  0
 13 26  1  0  0  0  0
 13 27  1  0  0  0  0
 14 15  2  0  0  0  0
 14 16  1  0  0  0  0
 15 17  1  0  0  0  0
 15 32  1  0  0  0  0
 16 18  2  0  0  0  0
 16 33  1  0  0  0  0
 17 19  2  0  0  0  0
 17 34  1  0  0  0  0
 18 19  1  0  0  0  0
 18 35  1  0  0  0  0
 19 20  1  0  0  0  0
 20 36  1  0  0  0  0
M  END
> <PUBCHEM_COMPOUND_CID>
12896796

> <PUBCHEM_CONFORMER_RMSD>
0.8

> <PUBCHEM_CONFORMER_DIVERSEORDER>
1
28
14
27
13
11
9
3
25
19
23
26
18
24
22
20
6
34
30
16
36
32
35
2
29
7
21
33
12
17
5
4
15
31
8
10

> <PUBCHEM_MMFF94_PARTIAL_CHARGES>
29
1 -0.56
10 0.28
11 0.28
12 0.56
13 0.28
14 0.08
15 -0.15
16 -0.15
17 -0.15
18 -0.15
19 0.09
2 -0.68
20 0.42
28 0.4
29 0.4
3 -0.68
30 0.4
31 0.4
32 0.15
33 0.15
34 0.15
35 0.15
36 0.06
4 -0.36
5 -0.68
6 -0.68
7 -0.57
8 0.28
9 0.28

> <PUBCHEM_EFFECTIVE_ROTOR_COUNT>
5.2

> <PUBCHEM_PHARMACOPHORE_FEATURES>
13
1 1 acceptor
1 2 acceptor
1 2 donor
1 3 acceptor
1 3 donor
1 4 acceptor
1 5 acceptor
1 5 donor
1 6 acceptor
1 6 donor
1 7 acceptor
6 1 8 9 10 11 12 rings
6 14 15 16 17 18 19 rings

> <PUBCHEM_HEAVY_ATOM_COUNT>
20

> <PUBCHEM_ATOM_DEF_STEREO_COUNT>
5

> <PUBCHEM_ATOM_UDEF_STEREO_COUNT>
0

> <PUBCHEM_BOND_DEF_STEREO_COUNT>
0

> <PUBCHEM_BOND_UDEF_STEREO_COUNT>
0

> <PUBCHEM_ISOTOPIC_ATOM_COUNT>
0

> <PUBCHEM_COMPONENT_COUNT>
1

> <PUBCHEM_CACTVS_TAUTO_COUNT>
1

> <PUBCHEM_CONFORMER_ID>
00C4CA1C00000001

> <PUBCHEM_MMFF94_ENERGY>
65.3335

> <PUBCHEM_FEATURE_SELFOVERLAP>
66.046

> <PUBCHEM_SHAPE_FINGERPRINT>
10366900 7 18041003916346460515
11471102 20 18408887347447440016
11615757 297 18343024376002853265
11796584 16 17775563174530007655
12236239 1 17703793630204084905
12596599 1 17774455961171489671
12596602 18 17131827690299186283
12616999 72 18333448754916587557
13167823 11 18201718470833582941
13836976 161 18334295400761543246
13862211 1 18338234839782859026
14251717 144 18410575076184115642
14576447 43 18341049627676799702
14844126 61 16099381504104001378
14866123 147 10296018695845674141
15375358 24 17458063772538894409
15375462 189 18060411413600474307
15635459 17 18260546701821086403
17138139 8 17628050598176804039
19433438 38 18041836212357468511
200 152 18343017787881775849
20028762 73 18130782344028269166
20645477 70 18334289877190994209
21054139 6 18199176463779004279
21285901 2 17749659723961129133
21860390 5 15647629972194292510
2255824 54 18341899627490481568
22646028 28 18060137630936557993
23557571 272 17167857531053147717
23559900 14 16877943841032463552
23596394 208 18187354420499614421
23598288 3 17559955416354052249
23598291 2 18058464105198008929
238 59 18335422378372971674
2871803 45 18408602548007728111
3060560 45 18335140938130656164
33382 64 18339644564134680307
33824 294 18409445903517468330
465052 167 17774441706865877639
474 4 17628908221288508376
59682541 52 18194654061765565757
8272917 22 18339930324923846909
9709674 26 18261396594402926259

> <PUBCHEM_SHAPE_MULTIPOLES>
370.51
9.69
2.43
1.14
7.95
1.2
0.01
2.07
-2.51
-2.79
0.07
0.84
-0.17
-0.49

> <PUBCHEM_SHAPE_SELFOVERLAP>
777.796

> <PUBCHEM_SHAPE_VOLUME>
206.6

> <PUBCHEM_COORDINATE_TYPE>
2
5
10

$$$$
