128976
  -OEChem-03292013323D

 62 64  0     1  0  0  0  0  0999 V2000
   -6.5197   -0.4844    1.6392 O   0  0  0  0  0  0  0  0  0  0  0  0
    3.9163   -0.1228   -2.5525 O   0  0  0  0  0  0  0  0  0  0  0  0
    8.2372   -0.3791    0.0306 O   0  0  0  0  0  0  0  0  0  0  0  0
    6.5844   -1.4402    1.1674 O   0  0  0  0  0  0  0  0  0  0  0  0
    5.6202    4.1233    2.3656 O   0  0  0  0  0  0  0  0  0  0  0  0
    6.1639    4.4652    0.1896 O   0  0  0  0  0  0  0  0  0  0  0  0
   -1.3848   -2.4155    0.1263 N   0  0  3  0  0  0  0  0  0  0  0  0
   -6.8184    1.6536    0.7332 N   0  0  0  0  0  0  0  0  0  0  0  0
    4.6590   -0.3628   -0.3690 N   0  0  0  0  0  0  0  0  0  0  0  0
   -5.3590    2.4251   -0.9783 N   0  0  0  0  0  0  0  0  0  0  0  0
   -2.4751   -2.4860   -0.8221 C   0  0  0  0  0  0  0  0  0  0  0  0
   -3.2377   -1.2044   -0.8548 C   0  0  0  0  0  0  0  0  0  0  0  0
   -5.0342    0.1878   -0.0362 C   0  0  0  0  0  0  0  0  0  0  0  0
   -0.1256   -1.9303   -0.2471 C   0  0  0  0  0  0  0  0  0  0  0  0
    5.9959    0.1393   -0.5905 C   0  0  1  0  0  0  0  0  0  0  0  0
   -4.3235   -1.0171   -0.0006 C   0  0  0  0  0  0  0  0  0  0  0  0
    6.0937    1.6599   -0.4177 C   0  0  0  0  0  0  0  0  0  0  0  0
   -4.6688    1.2074   -0.9186 C   0  0  0  0  0  0  0  0  0  0  0  0
   -2.8644   -0.1947   -1.7390 C   0  0  0  0  0  0  0  0  0  0  0  0
   -1.6273   -2.8522    1.5007 C   0  0  0  0  0  0  0  0  0  0  0  0
   -3.5767    1.0051   -1.7703 C   0  0  0  0  0  0  0  0  0  0  0  0
   -6.1884    0.4062    0.8615 C   0  0  0  0  0  0  0  0  0  0  0  0
    2.3843   -0.9654   -0.9899 C   0  0  0  0  0  0  0  0  0  0  0  0
    0.6771   -1.2801    0.6903 C   0  0  0  0  0  0  0  0  0  0  0  0
    0.3268   -2.0981   -1.5560 C   0  0  0  0  0  0  0  0  0  0  0  0
    5.7671    2.1958    0.9822 C   0  0  0  0  0  0  0  0  0  0  0  0
   -6.3684    2.6012   -0.1840 C   0  0  0  0  0  0  0  0  0  0  0  0
    3.6930   -0.4628   -1.3771 C   0  0  0  0  0  0  0  0  0  0  0  0
    1.9321   -0.7978    0.3188 C   0  0  0  0  0  0  0  0  0  0  0  0
    1.5816   -1.6157   -1.9273 C   0  0  0  0  0  0  0  0  0  0  0  0
    6.9331   -0.6398    0.3092 C   0  0  0  0  0  0  0  0  0  0  0  0
   -7.9669    1.9295    1.5950 C   0  0  0  0  0  0  0  0  0  0  0  0
   -7.1003    3.9201   -0.2615 C   0  0  0  0  0  0  0  0  0  0  0  0
    5.8661    3.7015    1.0974 C   0  0  0  0  0  0  0  0  0  0  0  0
   -0.7536   -3.9755    1.8482 C   0  0  0  0  0  0  0  0  0  0  0  0
   -0.0391   -4.8961    2.1372 C   0  0  0  0  0  0  0  0  0  0  0  0
   -3.1594   -3.2989   -0.5401 H   0  0  0  0  0  0  0  0  0  0  0  0
   -2.1768   -2.7710   -1.8357 H   0  0  0  0  0  0  0  0  0  0  0  0
    6.2696   -0.1146   -1.6225 H   0  0  0  0  0  0  0  0  0  0  0  0
   -4.6118   -1.8083    0.6866 H   0  0  0  0  0  0  0  0  0  0  0  0
    7.1077    1.9855   -0.6848 H   0  0  0  0  0  0  0  0  0  0  0  0
    5.4226    2.1426   -1.1405 H   0  0  0  0  0  0  0  0  0  0  0  0
   -2.0241   -0.3267   -2.4149 H   0  0  0  0  0  0  0  0  0  0  0  0
   -1.5147   -2.0222    2.2066 H   0  0  0  0  0  0  0  0  0  0  0  0
   -2.6668   -3.1826    1.6191 H   0  0  0  0  0  0  0  0  0  0  0  0
   -3.2741    1.7838   -2.4664 H   0  0  0  0  0  0  0  0  0  0  0  0
    4.4418   -0.6816    0.5695 H   0  0  0  0  0  0  0  0  0  0  0  0
    0.3555   -1.1037    1.7117 H   0  0  0  0  0  0  0  0  0  0  0  0
   -0.2404   -2.6252   -2.3149 H   0  0  0  0  0  0  0  0  0  0  0  0
    4.7454    1.9111    1.2566 H   0  0  0  0  0  0  0  0  0  0  0  0
    6.4609    1.7621    1.7109 H   0  0  0  0  0  0  0  0  0  0  0  0
    2.5089   -0.2661    1.0699 H   0  0  0  0  0  0  0  0  0  0  0  0
    1.9217   -1.7661   -2.9487 H   0  0  0  0  0  0  0  0  0  0  0  0
   -8.8416    2.1325    0.9703 H   0  0  0  0  0  0  0  0  0  0  0  0
   -8.1942    1.0912    2.2582 H   0  0  0  0  0  0  0  0  0  0  0  0
   -7.7529    2.8129    2.2036 H   0  0  0  0  0  0  0  0  0  0  0  0
   -7.0536    4.4326    0.7030 H   0  0  0  0  0  0  0  0  0  0  0  0
   -6.6449    4.5649   -1.0192 H   0  0  0  0  0  0  0  0  0  0  0  0
   -8.1465    3.7539   -0.5315 H   0  0  0  0  0  0  0  0  0  0  0  0
    8.8435   -0.8962    0.6027 H   0  0  0  0  0  0  0  0  0  0  0  0
    5.7009    5.0974    2.4488 H   0  0  0  0  0  0  0  0  0  0  0  0
    0.5953   -5.7123    2.3929 H   0  0  0  0  0  0  0  0  0  0  0  0
  1 22  2  0  0  0  0
  2 28  2  0  0  0  0
  3 31  1  0  0  0  0
  3 60  1  0  0  0  0
  4 31  2  0  0  0  0
  5 34  1  0  0  0  0
  5 61  1  0  0  0  0
  6 34  2  0  0  0  0
  7 11  1  0  0  0  0
  7 14  1  0  0  0  0
  7 20  1  0  0  0  0
  8 22  1  0  0  0  0
  8 27  1  0  0  0  0
  8 32  1  0  0  0  0
  9 15  1  0  0  0  0
  9 28  1  0  0  0  0
  9 47  1  0  0  0  0
 10 18  1  0  0  0  0
 10 27  2  0  0  0  0
 11 12  1  0  0  0  0
 11 37  1  0  0  0  0
 11 38  1  0  0  0  0
 12 16  2  0  0  0  0
 12 19  1  0  0  0  0
 13 16  1  0  0  0  0
 13 18  2  0  0  0  0
 13 22  1  0  0  0  0
 14 24  2  0  0  0  0
 14 25  1  0  0  0  0
 15 17  1  0  0  0  0
 15 31  1  0  0  0  0
 15 39  1  0  0  0  0
 16 40  1  0  0  0  0
 17 26  1  0  0  0  0
 17 41  1  0  0  0  0
 17 42  1  0  0  0  0
 18 21  1  0  0  0  0
 19 21  2  0  0  0  0
 19 43  1  0  0  0  0
 20 35  1  0  0  0  0
 20 44  1  0  0  0  0
 20 45  1  0  0  0  0
 21 46  1  0  0  0  0
 23 28  1  0  0  0  0
 23 29  2  0  0  0  0
 23 30  1  0  0  0  0
 24 29  1  0  0  0  0
 24 48  1  0  0  0  0
 25 30  2  0  0  0  0
 25 49  1  0  0  0  0
 26 34  1  0  0  0  0
 26 50  1  0  0  0  0
 26 51  1  0  0  0  0
 27 33  1  0  0  0  0
 29 52  1  0  0  0  0
 30 53  1  0  0  0  0
 32 54  1  0  0  0  0
 32 55  1  0  0  0  0
 32 56  1  0  0  0  0
 33 57  1  0  0  0  0
 33 58  1  0  0  0  0
 33 59  1  0  0  0  0
 35 36  3  0  0  0  0
 36 62  1  0  0  0  0
M  END
> <PUBCHEM_COMPOUND_CID>
128976

> <PUBCHEM_CONFORMER_RMSD>
1.2

> <PUBCHEM_CONFORMER_DIVERSEORDER>
8
92
107
111
130
16
33
120
25
123
128
96
95
12
72
43
83
108
99
124
40
94
112
110
113
82
117
63
19
31
100
129
118
3
37
71
91
84
14
70
93
69
78
18
45
97
132
52
133
24
56
60
46
119
109
23
89
59
131
26
86
61
127
122
66
114
106
39
74
79
17
80
20
67
38
30
73
102
105
88
58
115
121
48
57
53
101
81
34
87
65
51
90
116
15
76
32
54
5
126
10
64
9
49
35
77
7
13
47
50
85
104
44
41
1
98
55
28
125
6
29
21
42
36
103
27
4
2
62
75
68
11
22

> <PUBCHEM_MMFF94_PARTIAL_CHARGES>
46
1 -0.57
10 -0.63
11 0.51
12 -0.14
13 0.09
14 0.1
15 0.36
16 -0.15
18 0.18
19 -0.15
2 -0.57
20 0.57
21 -0.15
22 0.54
23 0.09
24 -0.15
25 -0.15
26 0.06
27 0.45
28 0.54
29 -0.15
3 -0.65
30 -0.15
31 0.66
32 0.3
33 0.06
34 0.66
35 -0.2
36 -0.18
4 -0.57
40 0.15
43 0.15
46 0.15
47 0.37
48 0.15
49 0.15
5 -0.65
52 0.15
53 0.15
6 -0.57
60 0.5
61 0.5
62 0.18
7 -0.84
8 -0.42
9 -0.73

> <PUBCHEM_EFFECTIVE_ROTOR_COUNT>
11

> <PUBCHEM_PHARMACOPHORE_FEATURES>
14
1 1 acceptor
1 2 acceptor
1 3 acceptor
1 36 hydrophobe
1 4 acceptor
1 5 acceptor
1 6 acceptor
1 7 cation
1 9 donor
3 3 4 31 anion
3 5 6 34 anion
6 12 13 16 18 19 21 rings
6 14 23 24 25 29 30 rings
6 8 10 13 18 22 27 rings

> <PUBCHEM_HEAVY_ATOM_COUNT>
36

> <PUBCHEM_ATOM_DEF_STEREO_COUNT>
1

> <PUBCHEM_ATOM_UDEF_STEREO_COUNT>
0

> <PUBCHEM_BOND_DEF_STEREO_COUNT>
0

> <PUBCHEM_BOND_UDEF_STEREO_COUNT>
0

> <PUBCHEM_ISOTOPIC_ATOM_COUNT>
0

> <PUBCHEM_COMPONENT_COUNT>
1

> <PUBCHEM_CACTVS_TAUTO_COUNT>
2

> <PUBCHEM_CONFORMER_ID>
0001F7D000000008

> <PUBCHEM_MMFF94_ENERGY>
105.4107

> <PUBCHEM_FEATURE_SELFOVERLAP>
71.194

> <PUBCHEM_SHAPE_FINGERPRINT>
11007060 377 18411133684563923651
11456790 92 18335977576791281688
12013929 29 18271807977729510452
13782708 43 7925644292930347620
14556957 393 15697734665447755216
15082195 135 17275112713015738848
15183329 4 14117513191423345015
15352257 5 7853585612402980356
15357212 105 17897457301228390828
15510800 12 8574421033448024053
15950262 2 18131634486855700981
19302320 297 18411423903683105564
2026 5 10954045697245836617
20691028 202 18335700571942336244
21033648 29 18260553345903209143
21424621 283 18335423477826758995
21756936 100 18407759231855028567
21814621 53 18334577984288690370
22122407 14 18131075986973512794
23191077 185 18199732786508593982
23559900 14 11023235708743647759
255183 451 11023520499360998027
2838139 119 18343013402535440310
4144715 1 18117844528506484002
4339292 15 9367346999345173204
437815 12 11599714057290303275
563151 248 16588029025857436498
5718773 13 7925625592795981621
6691757 9 17749382711007935526
9555976 147 17826499257408945912

> <PUBCHEM_SHAPE_MULTIPOLES>
685.72
23.38
5.39
2.01
5.96
1.34
0.05
27.68
6.46
1.58
3.83
0.31
-0.59
2.51

> <PUBCHEM_SHAPE_SELFOVERLAP>
1459.082

> <PUBCHEM_SHAPE_VOLUME>
378.7

> <PUBCHEM_COORDINATE_TYPE>
2
5
10

$$$$
