128981
  -OEChem-03292013323D

 39 43  0     1  0  0  0  0  0999 V2000
   -4.6469   -0.1901   -0.5059 O   0  0  0  0  0  0  0  0  0  0  0  0
   -3.3668    1.4801    0.6207 O   0  0  0  0  0  0  0  0  0  0  0  0
    0.0653   -1.7376    0.5672 O   0  0  0  0  0  0  0  0  0  0  0  0
   -3.0718   -0.7754   -2.1607 O   0  0  0  0  0  0  0  0  0  0  0  0
    1.0873    2.9702   -0.2427 O   0  0  0  0  0  0  0  0  0  0  0  0
    3.0470    1.5628   -1.6801 O   0  0  0  0  0  0  0  0  0  0  0  0
    4.4316   -2.2436   -0.0156 O   0  0  0  0  0  0  0  0  0  0  0  0
    1.7130   -3.3356    0.5845 O   0  0  0  0  0  0  0  0  0  0  0  0
   -2.8169   -0.8837    0.8900 C   0  0  2  0  0  0  0  0  0  0  0  0
   -3.9326    0.1513    0.6963 C   0  0  2  0  0  0  0  0  0  0  0  0
   -1.6379   -0.0468    0.5571 C   0  0  0  0  0  0  0  0  0  0  0  0
   -3.1802   -1.9836   -0.0843 C   0  0  0  0  0  0  0  0  0  0  0  0
   -3.9648   -1.2615   -1.1656 C   0  0  1  0  0  0  0  0  0  0  0  0
   -2.0242    1.2769    0.4410 C   0  0  0  0  0  0  0  0  0  0  0  0
   -0.3040   -0.3841    0.4098 C   0  0  0  0  0  0  0  0  0  0  0  0
    0.6492    0.6034    0.1258 C   0  0  0  0  0  0  0  0  0  0  0  0
    2.0351    0.1799   -0.0263 C   0  0  0  0  0  0  0  0  0  0  0  0
    3.1883    1.0751   -0.3521 C   0  0  1  0  0  0  0  0  0  0  0  0
   -1.1173    2.2858    0.1726 C   0  0  0  0  0  0  0  0  0  0  0  0
    0.2291    1.9412    0.0102 C   0  0  0  0  0  0  0  0  0  0  0  0
    2.3474   -1.1072    0.1361 C   0  0  0  0  0  0  0  0  0  0  0  0
    4.4132    0.1631   -0.2562 C   0  0  0  0  0  0  0  0  0  0  0  0
    3.8029   -1.1968   -0.0514 C   0  0  0  0  0  0  0  0  0  0  0  0
    1.3862   -2.1643    0.4442 C   0  0  0  0  0  0  0  0  0  0  0  0
    1.6678    3.6205    0.8854 C   0  0  0  0  0  0  0  0  0  0  0  0
   -2.7431   -1.2293    1.9263 H   0  0  0  0  0  0  0  0  0  0  0  0
   -4.6518    0.1290    1.5225 H   0  0  0  0  0  0  0  0  0  0  0  0
   -2.3210   -2.5375   -0.4730 H   0  0  0  0  0  0  0  0  0  0  0  0
   -3.8486   -2.6875    0.4264 H   0  0  0  0  0  0  0  0  0  0  0  0
   -4.6927   -1.9245   -1.6441 H   0  0  0  0  0  0  0  0  0  0  0  0
    3.3455    1.9027    0.3362 H   0  0  0  0  0  0  0  0  0  0  0  0
   -1.4452    3.3172    0.0887 H   0  0  0  0  0  0  0  0  0  0  0  0
    5.0204    0.4018    0.6229 H   0  0  0  0  0  0  0  0  0  0  0  0
    5.0231    0.1741   -1.1636 H   0  0  0  0  0  0  0  0  0  0  0  0
   -3.5943   -0.6328   -2.9681 H   0  0  0  0  0  0  0  0  0  0  0  0
    2.3858    2.2744   -1.6696 H   0  0  0  0  0  0  0  0  0  0  0  0
    0.9781    4.3881    1.2507 H   0  0  0  0  0  0  0  0  0  0  0  0
    2.5910    4.1135    0.5686 H   0  0  0  0  0  0  0  0  0  0  0  0
    1.8883    2.9226    1.7003 H   0  0  0  0  0  0  0  0  0  0  0  0
  1 10  1  0  0  0  0
  1 13  1  0  0  0  0
  2 10  1  0  0  0  0
  2 14  1  0  0  0  0
  3 15  1  0  0  0  0
  3 24  1  0  0  0  0
  4 13  1  0  0  0  0
  4 35  1  0  0  0  0
  5 20  1  0  0  0  0
  5 25  1  0  0  0  0
  6 18  1  0  0  0  0
  6 36  1  0  0  0  0
  7 23  2  0  0  0  0
  8 24  2  0  0  0  0
  9 10  1  0  0  0  0
  9 11  1  0  0  0  0
  9 12  1  0  0  0  0
  9 26  1  0  0  0  0
 10 27  1  0  0  0  0
 11 14  1  0  0  0  0
 11 15  2  0  0  0  0
 12 13  1  0  0  0  0
 12 28  1  0  0  0  0
 12 29  1  0  0  0  0
 13 30  1  0  0  0  0
 14 19  2  0  0  0  0
 15 16  1  0  0  0  0
 16 17  1  0  0  0  0
 16 20  2  0  0  0  0
 17 18  1  0  0  0  0
 17 21  2  0  0  0  0
 18 22  1  0  0  0  0
 18 31  1  0  0  0  0
 19 20  1  0  0  0  0
 19 32  1  0  0  0  0
 21 23  1  0  0  0  0
 21 24  1  0  0  0  0
 22 23  1  0  0  0  0
 22 33  1  0  0  0  0
 22 34  1  0  0  0  0
 25 37  1  0  0  0  0
 25 38  1  0  0  0  0
 25 39  1  0  0  0  0
M  END
> <PUBCHEM_COMPOUND_CID>
128981

> <PUBCHEM_CONFORMER_RMSD>
0.6

> <PUBCHEM_CONFORMER_DIVERSEORDER>
5
1
7
4
8
6
2
3

> <PUBCHEM_MMFF94_PARTIAL_CHARGES>
27
1 -0.56
10 0.56
11 -0.14
13 0.56
14 0.08
15 0.08
16 0.03
17 -0.17
18 0.42
19 -0.15
2 -0.36
20 0.08
21 0.03
22 0.06
23 0.49
24 0.71
25 0.28
3 -0.23
32 0.15
35 0.4
36 0.4
4 -0.68
5 -0.36
6 -0.68
7 -0.57
8 -0.57
9 0.14

> <PUBCHEM_EFFECTIVE_ROTOR_COUNT>
2.2

> <PUBCHEM_PHARMACOPHORE_FEATURES>
15
1 1 acceptor
1 2 acceptor
1 21 anion
1 4 acceptor
1 4 donor
1 5 acceptor
1 6 acceptor
1 6 donor
1 7 acceptor
1 8 acceptor
5 1 9 10 12 13 rings
5 17 18 21 22 23 rings
5 2 9 10 11 14 rings
6 11 14 15 16 19 20 rings
6 3 15 16 17 21 24 rings

> <PUBCHEM_HEAVY_ATOM_COUNT>
25

> <PUBCHEM_ATOM_DEF_STEREO_COUNT>
0

> <PUBCHEM_ATOM_UDEF_STEREO_COUNT>
4

> <PUBCHEM_BOND_DEF_STEREO_COUNT>
0

> <PUBCHEM_BOND_UDEF_STEREO_COUNT>
0

> <PUBCHEM_ISOTOPIC_ATOM_COUNT>
0

> <PUBCHEM_COMPONENT_COUNT>
1

> <PUBCHEM_CACTVS_TAUTO_COUNT>
2

> <PUBCHEM_CONFORMER_ID>
0001F7D500000005

> <PUBCHEM_MMFF94_ENERGY>
84.0513

> <PUBCHEM_FEATURE_SELFOVERLAP>
76.966

> <PUBCHEM_SHAPE_FINGERPRINT>
10062212 137 18411420587904321963
10616163 171 18340492157906573219
10967382 1 18408892823572804146
11578080 2 17773570802982935457
12236239 1 18130790045157026067
12553582 1 18409726223258752763
12596599 1 17774181048820164192
13140716 1 18194693780826624625
13224815 77 18412541002932283690
138480 1 18410858771865075472
13944108 23 16458230274456889805
14787075 74 18272086158428686976
14790565 3 18264786517738184444
15196674 1 18409454648139344272
16945 1 18338519754131029473
17349148 13 18187639172557743906
17357779 13 18187915179793180085
18186145 218 17385445427170017106
19591789 44 18193003844112917554
200 152 18412541007422501119
20905425 154 18123474878064088510
21267235 1 18337966601246280955
21634736 98 18127688442454673991
221490 88 18192437578597925963
2334 1 18337397032526301176
23402539 116 18413387618775862358
23419403 2 17030442783821661720
23557571 272 17987801787484602202
23559900 14 18341044228612953528
2871803 45 18335700511907414714
335352 9 18265901263450818581
34934 24 18266741286018178297
392239 28 18272645732622158416
46194498 28 17531523312732484087
463206 1 18410579474215114282
5104073 3 18410862035723099563
7364860 26 18341613784146974272
7471813 234 18270948111768379052
90525 40 18129380410962614399
9709674 26 18265062344442205618
9981440 41 17475787027747543928

> <PUBCHEM_SHAPE_MULTIPOLES>
467.53
8.08
3.35
1.06
1.37
1.06
0.45
-2.77
1.6
-2.15
-0.6
0.58
-0.02
-0.82

> <PUBCHEM_SHAPE_SELFOVERLAP>
1067.205

> <PUBCHEM_SHAPE_VOLUME>
242.8

> <PUBCHEM_COORDINATE_TYPE>
2
5
10

$$$$
