REMARK  Name = 128937
REMARK  5 active torsions:
REMARK  status: ('A' for Active; 'I' for Inactive)
REMARK    1  A    between atoms: C_1  and  N_8
REMARK    2  A    between atoms: C_2  and  O_15
REMARK    3  A    between atoms: C_3  and  O_17
REMARK    4  A    between atoms: C_4  and  C_19
REMARK    5  A    between atoms: C_19  and  O_20
REMARK                            x       y       z     vdW  Elec       q    Type
REMARK                         _______ _______ _______ _____ _____    ______ ____
ROOT
ATOM      1  C   UNL     1      -0.426   0.699   0.391  0.00  0.00    +0.111 C 
ATOM      2  C   UNL     1      -1.158   0.869  -0.947  0.00  0.00    +0.156 C 
ATOM      3  C   UNL     1      -2.597   0.390  -0.695  0.00  0.00    +0.141 C 
ATOM      4  C   UNL     1      -2.433  -0.517   0.487  0.00  0.00    +0.060 C 
ATOM      5  C   UNL     1      -1.244  -0.345   1.080  0.00  0.00    +0.028 C 
ENDROOT
BRANCH   1   8
ATOM      6  O   UNL     1       1.906   1.976   1.353  0.00  0.00    -0.252 OA
ATOM      7  O   UNL     1       4.653  -1.237  -0.484  0.00  0.00    -0.270 OA
ATOM      8  N   UNL     1       0.916   0.216   0.178  0.00  0.00    -0.241 N 
ATOM      9  N   UNL     1       3.273   0.375   0.437  0.00  0.00    -0.236 N 
ATOM     10  C   UNL     1       2.015   0.934   0.703  0.00  0.00    +0.314 C 
ATOM     11  C   UNL     1       1.125  -0.954  -0.542  0.00  0.00    +0.074 C 
ATOM     12  C   UNL     1       2.330  -1.474  -0.788  0.00  0.00    +0.074 C 
ATOM     13  C   UNL     1       3.531  -0.786  -0.275  0.00  0.00    +0.254 C 
ATOM     14  H   UNL     1       4.054   0.858   0.792  0.00  0.00    +0.159 HD
ENDBRANCH   1   8
BRANCH   2  15
ATOM     15  O   UNL     1      -1.111   2.222  -1.369  0.00  0.00    -0.380 OA
ATOM     16  H   UNL     1      -0.189   2.483  -1.516  0.00  0.00    +0.211 HD
ENDBRANCH   2  15
BRANCH   3  17
ATOM     17  O   UNL     1      -3.468   1.450  -0.334  0.00  0.00    -0.382 OA
ATOM     18  H   UNL     1      -3.584   2.045  -1.091  0.00  0.00    +0.210 HD
ENDBRANCH   3  17
BRANCH   4  19
ATOM     19  C   UNL     1      -3.517  -1.439   0.916  0.00  0.00    +0.140 C 
BRANCH  19  20
ATOM     20  O   UNL     1      -3.796  -2.380  -0.110  0.00  0.00    -0.382 OA
ATOM     21  H   UNL     1      -4.504  -2.975   0.182  0.00  0.00    +0.210 HD
ENDBRANCH  19  20
ENDBRANCH   4  19
TORSDOF 5
