REMARK  Name = 12896796
REMARK  8 active torsions:
REMARK  status: ('A' for Active; 'I' for Inactive)
REMARK    1  A    between atoms: C_2  and  O_7
REMARK    2  A    between atoms: C_3  and  O_9
REMARK    3  A    between atoms: C_4  and  O_11
REMARK    4  A    between atoms: C_5  and  C_22
REMARK    5  A    between atoms: C_6  and  O_13
REMARK    6  A    between atoms: O_13  and  C_14
REMARK    7  A    between atoms: C_19  and  C_21
REMARK    8  A    between atoms: C_22  and  O_23
REMARK                            x       y       z     vdW  Elec       q    Type
REMARK                         _______ _______ _______ _____ _____    ______ ____
ROOT
ATOM      1  O   UNL     1       1.050  -0.539   0.462  0.00  0.00    -0.316 OA
ATOM      2  C   UNL     1       3.528   0.823  -0.127  0.00  0.00    +0.173 C 
ATOM      3  C   UNL     1       3.472  -0.652   0.279  0.00  0.00    +0.169 C 
ATOM      4  C   UNL     1       2.289   1.551   0.402  0.00  0.00    +0.210 C 
ATOM      5  C   UNL     1       2.129  -1.284  -0.113  0.00  0.00    +0.177 C 
ATOM      6  C   UNL     1       0.999   0.819   0.024  0.00  0.00    +0.318 C 
ENDROOT
BRANCH   2   7
ATOM      7  O   UNL     1       3.605   0.943  -1.549  0.00  0.00    -0.379 OA
ATOM      8  H   UNL     1       4.393   0.477  -1.871  0.00  0.00    +0.211 HD
ENDBRANCH   2   7
BRANCH   3   9
ATOM      9  O   UNL     1       4.544  -1.367  -0.321  0.00  0.00    -0.379 OA
ATOM     10  H   UNL     1       5.387  -0.960  -0.066  0.00  0.00    +0.211 HD
ENDBRANCH   3   9
BRANCH   4  11
ATOM     11  O   UNL     1       2.248   2.881  -0.107  0.00  0.00    -0.377 OA
ATOM     12  H   UNL     1       3.066   3.344   0.133  0.00  0.00    +0.211 HD
ENDBRANCH   4  11
BRANCH   6  13
ATOM     13  O   UNL     1      -0.087   1.487   0.666  0.00  0.00    -0.451 OA
BRANCH  13  14
ATOM     14  C   UNL     1      -1.336   0.968   0.457  0.00  0.00    +0.141 C 
ATOM     15  C   UNL     1      -2.087   0.522   1.540  0.00  0.00    +0.037 C 
ATOM     16  C   UNL     1      -1.845   0.893  -0.835  0.00  0.00    +0.037 C 
ATOM     17  C   UNL     1      -3.361  -0.006   1.328  0.00  0.00    +0.006 C 
ATOM     18  C   UNL     1      -3.119   0.365  -1.047  0.00  0.00    +0.006 C 
ATOM     19  C   UNL     1      -3.876  -0.085   0.034  0.00  0.00    +0.042 C 
BRANCH  19  21
ATOM     20  O   UNL     1      -5.716  -0.731  -1.306  0.00  0.00    -0.283 OA
ATOM     21  C   UNL     1      -5.204  -0.635  -0.187  0.00  0.00    +0.234 C 
ENDBRANCH  19  21
ENDBRANCH  13  14
ENDBRANCH   6  13
BRANCH   5  22
ATOM     22  C   UNL     1       2.014  -2.718   0.394  0.00  0.00    +0.169 C 
BRANCH  22  23
ATOM     23  O   UNL     1       0.753  -3.233   0.008  0.00  0.00    -0.379 OA
ATOM     24  H   UNL     1       0.666  -4.146   0.324  0.00  0.00    +0.211 HD
ENDBRANCH  22  23
ENDBRANCH   5  22
TORSDOF 8
