REMARK  Name = 128924
REMARK  5 active torsions:
REMARK  status: ('A' for Active; 'I' for Inactive)
REMARK    1  A    between atoms: N_1  and  C_12
REMARK    2  A    between atoms: C_11  and  O_15
REMARK    3  A    between atoms: C_13  and  O_17
REMARK    4  A    between atoms: C_14  and  C_19
REMARK    5  A    between atoms: C_19  and  S_20
REMARK                            x       y       z     vdW  Elec       q    Type
REMARK                         _______ _______ _______ _____ _____    ______ ____
ROOT
ATOM      1  N   UNL     1      -0.213  -0.247  -0.124  0.00  0.00    -0.247 N 
ATOM      2  N   UNL     1      -1.619  -1.887   0.433  0.00  0.00    -0.242 NA
ATOM      3  N   UNL     1      -1.807   1.528  -0.584  0.00  0.00    -0.228 NA
ATOM      4  N   UNL     1      -4.102   0.769  -0.250  0.00  0.00    -0.229 NA
ATOM      5  C   UNL     1      -1.470   0.280  -0.224  0.00  0.00    +0.152 C 
ATOM      6  C   UNL     1      -0.356  -1.551   0.274  0.00  0.00    +0.223 C 
ATOM      7  C   UNL     1      -2.326  -0.752   0.125  0.00  0.00    +0.140 C 
ATOM      8  C   UNL     1      -3.689  -0.472   0.104  0.00  0.00    +0.143 C 
ATOM      9  C   UNL     1      -3.149   1.678  -0.567  0.00  0.00    +0.253 C 
ATOM     10  N   UNL     1      -4.630  -1.460   0.445  0.00  0.00    -0.342 N 
ATOM     11  H   UNL     1      -5.592  -1.251   0.426  0.00  0.00    +0.144 HD
ATOM     12  H   UNL     1      -4.327  -2.360   0.703  0.00  0.00    +0.144 HD
ENDROOT
BRANCH   1  15
ATOM     13  O   UNL     1       2.009  -0.495  -0.921  0.00  0.00    -0.335 OA
ATOM     14  C   UNL     1       1.695   1.047   0.849  0.00  0.00    +0.187 C 
ATOM     15  C   UNL     1       1.050   0.439  -0.387  0.00  0.00    +0.225 C 
ATOM     16  C   UNL     1       3.154   1.088   0.440  0.00  0.00    +0.169 C 
ATOM     17  C   UNL     1       3.306  -0.208  -0.350  0.00  0.00    +0.157 C 
BRANCH  14  18
ATOM     18  O   UNL     1       1.167   2.324   1.145  0.00  0.00    -0.378 OA
ATOM     19  H   UNL     1       0.235   2.238   1.400  0.00  0.00    +0.211 HD
ENDBRANCH  14  18
BRANCH  16  20
ATOM     20  O   UNL     1       3.370   2.191  -0.441  0.00  0.00    -0.379 OA
ATOM     21  H   UNL     1       3.276   3.021   0.052  0.00  0.00    +0.211 HD
ENDBRANCH  16  20
BRANCH  17  22
ATOM     22  C   UNL     1       3.719  -1.388   0.520  0.00  0.00    +0.086 C 
BRANCH  22  23
ATOM     23  S   UNL     1       3.890  -2.885  -0.486  0.00  0.00    -0.165 S 
ATOM     24  H   UNL     1       4.258  -3.925   0.309  0.00  0.00    +0.102 HD
ENDBRANCH  22  23
ENDBRANCH  17  22
ENDBRANCH   1  15
TORSDOF 5
