128902
  -OEChem-03292013323D

 35 37  0     1  0  0  0  0  0999 V2000
    1.4253   -1.9718    1.6637 O   0  0  0  0  0  0  0  0  0  0  0  0
    3.3725   -2.1687   -0.2590 O   0  0  0  0  0  0  0  0  0  0  0  0
    3.8199    2.5317   -0.8869 O   0  0  0  0  0  0  0  0  0  0  0  0
   -0.2571    0.2215    0.0904 N   0  0  0  0  0  0  0  0  0  0  0  0
   -1.7798   -1.4132   -0.8173 N   0  0  0  0  0  0  0  0  0  0  0  0
   -4.1167   -0.7745   -0.5753 N   0  0  0  0  0  0  0  0  0  0  0  0
   -4.7891    1.2693    0.4595 N   0  0  0  0  0  0  0  0  0  0  0  0
    1.0016   -0.4557   -0.2124 C   0  0  1  0  0  0  0  0  0  0  0  0
    3.3614    0.2109   -0.5581 C   0  0  2  0  0  0  0  0  0  0  0  0
    1.9405    0.3351   -1.1498 C   0  0  0  0  0  0  0  0  0  0  0  0
    1.8504   -0.7808    1.0252 C   0  0  2  0  0  0  0  0  0  0  0  0
    3.2573   -0.9365    0.4517 C   0  0  1  0  0  0  0  0  0  0  0  0
    3.8113    1.5149    0.0973 C   0  0  0  0  0  0  0  0  0  0  0  0
   -1.5107   -0.2486   -0.2020 C   0  0  0  0  0  0  0  0  0  0  0  0
   -0.3615    1.4373    0.7180 C   0  0  0  0  0  0  0  0  0  0  0  0
   -2.4358    0.6856    0.2476 C   0  0  0  0  0  0  0  0  0  0  0  0
   -1.6997    1.7498    0.8284 C   0  0  0  0  0  0  0  0  0  0  0  0
   -3.7807    0.3835    0.0391 C   0  0  0  0  0  0  0  0  0  0  0  0
   -3.1092   -1.5898   -0.9601 C   0  0  0  0  0  0  0  0  0  0  0  0
    0.7326   -1.3966   -0.7105 H   0  0  0  0  0  0  0  0  0  0  0  0
    4.0548   -0.0299   -1.3740 H   0  0  0  0  0  0  0  0  0  0  0  0
    1.6269    1.3747   -1.2902 H   0  0  0  0  0  0  0  0  0  0  0  0
    1.9160   -0.1300   -2.1436 H   0  0  0  0  0  0  0  0  0  0  0  0
    1.8317    0.0285    1.7634 H   0  0  0  0  0  0  0  0  0  0  0  0
    4.0268   -0.9222    1.2296 H   0  0  0  0  0  0  0  0  0  0  0  0
    4.8188    1.4205    0.5153 H   0  0  0  0  0  0  0  0  0  0  0  0
    3.1378    1.8276    0.9005 H   0  0  0  0  0  0  0  0  0  0  0  0
    0.5024   -1.8412    1.9404 H   0  0  0  0  0  0  0  0  0  0  0  0
    4.2718   -2.2090   -0.6269 H   0  0  0  0  0  0  0  0  0  0  0  0
    0.5159    1.9856    1.0330 H   0  0  0  0  0  0  0  0  0  0  0  0
   -2.0951    2.6496    1.2794 H   0  0  0  0  0  0  0  0  0  0  0  0
    4.4545    2.2717   -1.5763 H   0  0  0  0  0  0  0  0  0  0  0  0
   -3.4116   -2.5093   -1.4494 H   0  0  0  0  0  0  0  0  0  0  0  0
   -4.5535    2.1382    0.9191 H   0  0  0  0  0  0  0  0  0  0  0  0
   -5.7565    1.0257    0.2951 H   0  0  0  0  0  0  0  0  0  0  0  0
  1 11  1  0  0  0  0
  1 28  1  0  0  0  0
  2 12  1  0  0  0  0
  2 29  1  0  0  0  0
  3 13  1  0  0  0  0
  3 32  1  0  0  0  0
  4  8  1  0  0  0  0
  4 14  1  0  0  0  0
  4 15  1  0  0  0  0
  5 14  2  0  0  0  0
  5 19  1  0  0  0  0
  6 18  1  0  0  0  0
  6 19  2  0  0  0  0
  7 18  1  0  0  0  0
  7 34  1  0  0  0  0
  7 35  1  0  0  0  0
  8 10  1  0  0  0  0
  8 11  1  0  0  0  0
  8 20  1  0  0  0  0
  9 10  1  0  0  0  0
  9 12  1  0  0  0  0
  9 13  1  0  0  0  0
  9 21  1  0  0  0  0
 10 22  1  0  0  0  0
 10 23  1  0  0  0  0
 11 12  1  0  0  0  0
 11 24  1  0  0  0  0
 12 25  1  0  0  0  0
 13 26  1  0  0  0  0
 13 27  1  0  0  0  0
 14 16  1  0  0  0  0
 15 17  2  0  0  0  0
 15 30  1  0  0  0  0
 16 17  1  0  0  0  0
 16 18  2  0  0  0  0
 17 31  1  0  0  0  0
 19 33  1  0  0  0  0
M  END
> <PUBCHEM_COMPOUND_CID>
128902

> <PUBCHEM_CONFORMER_RMSD>
0.6

> <PUBCHEM_CONFORMER_DIVERSEORDER>
3
8
14
5
13
10
9
2
6
4
11
7
1
15
12

> <PUBCHEM_MMFF94_PARTIAL_CHARGES>
24
1 -0.68
11 0.28
12 0.28
13 0.28
14 0.11
15 -0.3
17 -0.15
18 0.41
19 0.47
2 -0.68
28 0.4
29 0.4
3 -0.68
30 0.15
31 0.15
32 0.4
33 0.15
34 0.4
35 0.4
4 0.05
5 -0.57
6 -0.62
7 -0.9
8 0.26

> <PUBCHEM_EFFECTIVE_ROTOR_COUNT>
3

> <PUBCHEM_PHARMACOPHORE_FEATURES>
13
1 1 acceptor
1 1 donor
1 2 acceptor
1 2 donor
1 3 acceptor
1 3 donor
1 7 cation
1 7 donor
3 4 5 14 cation
3 5 6 19 cation
5 4 14 15 16 17 rings
5 8 9 10 11 12 rings
6 5 6 14 16 18 19 rings

> <PUBCHEM_HEAVY_ATOM_COUNT>
19

> <PUBCHEM_ATOM_DEF_STEREO_COUNT>
4

> <PUBCHEM_ATOM_UDEF_STEREO_COUNT>
0

> <PUBCHEM_BOND_DEF_STEREO_COUNT>
0

> <PUBCHEM_BOND_UDEF_STEREO_COUNT>
0

> <PUBCHEM_ISOTOPIC_ATOM_COUNT>
0

> <PUBCHEM_COMPONENT_COUNT>
1

> <PUBCHEM_CACTVS_TAUTO_COUNT>
4

> <PUBCHEM_CONFORMER_ID>
0001F78600000003

> <PUBCHEM_MMFF94_ENERGY>
48.6212

> <PUBCHEM_FEATURE_SELFOVERLAP>
66.26

> <PUBCHEM_SHAPE_FINGERPRINT>
10498660 4 18131635594767404149
10616163 171 18201720669166515471
10759866 29 18342461460715086742
11578080 2 18046029779776709628
12236239 1 18335984190196950030
12403814 3 18259702281692479925
12553582 1 17842264054722576223
12670545 47 15769766974997399487
12788726 201 17631743668724229161
13538477 17 18413105039565178287
13583140 156 17462585909309256529
13760787 19 18413390946958610135
13760787 5 18411417289749285685
14289901 80 18341895190535635208
14787075 74 17829894582852693474
14790565 3 17986687986860336185
15196674 1 18343582941142766487
15342168 16 17604726593275543684
15375462 189 18409444778578863371
15415430 112 18201721807638160647
15669948 3 18131345336745908895
15852999 172 16660364805111106010
16752209 62 18128523874271888081
16945 1 18060133194478083809
17349148 13 7925913660478887577
17492 89 18412546491864370342
1813 80 17899979335946934546
18186145 218 17603303739076472003
19050596 39 18411978061732223370
19422 9 18342176648153297218
200 152 18186517670359600699
20281475 54 18272927228667262903
204376 136 17531812492864822060
20645477 70 18408602530822818231
21267235 1 18341621394776151575
21618674 53 18270696328111588985
2255824 54 18260548892687144858
22854114 111 18259985963807438392
23402539 116 18273209811782394460
23557571 272 17346318133949882792
23559900 14 17774730753389863854
23598291 2 18265062336015450412
296302 2 18040432239093463740
312423 11 18270414814453765992
34934 24 18343300400650533277
4340502 62 17603595131855109417
4409770 3 16748460649262820478
474 4 18042409195771750956
5104073 3 18342176669907683419
57096353 35 18340767155987920124
633830 44 18260832600434705302
67856867 119 18340198679044753656
7364860 26 18412546475358857158
77492 1 18335138661381114707
9709674 26 18342745095834143502
9981440 41 18048878795578400352

> <PUBCHEM_SHAPE_MULTIPOLES>
353.48
8.3
2.12
1.09
2.3
0.15
-0.13
1.2
1.06
-1.01
-0.06
-0.4
-0.2
-1.47

> <PUBCHEM_SHAPE_SELFOVERLAP>
767.591

> <PUBCHEM_SHAPE_VOLUME>
192.6

> <PUBCHEM_COORDINATE_TYPE>
2
5
10

$$$$
