128939
  -OEChem-03292013323D

 72 75  0     1  0  0  0  0  0999 V2000
   -9.3040    0.6895   -1.2698 Cl  0  0  0  0  0  0  0  0  0  0  0  0
   -1.6396    1.1733    0.0222 O   0  0  0  0  0  0  0  0  0  0  0  0
    9.0052   -0.1211   -0.3722 O   0  0  0  0  0  0  0  0  0  0  0  0
   -3.2064    1.6468   -1.5920 O   0  0  0  0  0  0  0  0  0  0  0  0
   -3.8754   -1.0873    0.7845 O   0  0  0  0  0  0  0  0  0  0  0  0
   -7.3464   -3.1404    0.4131 O   0  0  0  0  0  0  0  0  0  0  0  0
   -5.0321    0.8920    0.6073 N   0  0  0  0  0  0  0  0  0  0  0  0
   -6.1753   -1.1796    0.5141 N   0  0  0  0  0  0  0  0  0  0  0  0
   -6.2103   -2.6702    0.5371 N   0  0  0  0  0  0  0  0  0  0  0  0
    2.6897    0.3399    0.7475 C   0  0  2  0  0  0  0  0  0  0  0  0
    3.4729   -0.1897   -0.4858 C   0  0  1  0  0  0  0  0  0  0  0  0
    1.3061    0.9247    0.3831 C   0  0  2  0  0  0  0  0  0  0  0  0
    0.4449   -0.0038   -0.5007 C   0  0  2  0  0  0  0  0  0  0  0  0
    4.8869   -0.7713   -0.0928 C   0  0  2  0  0  0  0  0  0  0  0  0
    5.6557    0.3350    0.6997 C   0  0  1  0  0  0  0  0  0  0  0  0
    2.5949   -1.1690   -1.2906 C   0  0  0  0  0  0  0  0  0  0  0  0
    1.2613   -0.5418   -1.6987 C   0  0  0  0  0  0  0  0  0  0  0  0
    3.5181    1.3470    1.5601 C   0  0  0  0  0  0  0  0  0  0  0  0
   -0.6581    0.9628   -0.9908 C   0  0  2  0  0  0  0  0  0  0  0  0
    1.3280    2.2590   -0.3842 C   0  0  0  0  0  0  0  0  0  0  0  0
    4.8894    0.8005    1.9420 C   0  0  0  0  0  0  0  0  0  0  0  0
    0.0625    2.2872   -1.2488 C   0  0  0  0  0  0  0  0  0  0  0  0
    5.7173   -1.0757   -1.3741 C   0  0  0  0  0  0  0  0  0  0  0  0
   -0.1385   -1.1748    0.3089 C   0  0  0  0  0  0  0  0  0  0  0  0
    4.7424   -2.0788    0.7258 C   0  0  0  0  0  0  0  0  0  0  0  0
    7.0884   -0.0655    1.0622 C   0  0  0  0  0  0  0  0  0  0  0  0
    7.1659   -1.4709   -1.0959 C   0  0  0  0  0  0  0  0  0  0  0  0
    7.8451   -0.4836   -0.1772 C   0  0  0  0  0  0  0  0  0  0  0  0
   -2.8872    1.5142   -0.4147 C   0  0  0  0  0  0  0  0  0  0  0  0
   -3.8662    1.7292    0.7299 C   0  0  2  0  0  0  0  0  0  0  0  0
   -3.1825    1.4791    2.0650 C   0  0  0  0  0  0  0  0  0  0  0  0
   -4.9535   -0.5009    0.6443 C   0  0  0  0  0  0  0  0  0  0  0  0
   -7.4307   -0.4577    0.3501 C   0  0  0  0  0  0  0  0  0  0  0  0
   -7.7686   -0.1983   -1.1084 C   0  0  0  0  0  0  0  0  0  0  0  0
    2.4910   -0.5134    1.4087 H   0  0  0  0  0  0  0  0  0  0  0  0
    3.6660    0.6691   -1.1447 H   0  0  0  0  0  0  0  0  0  0  0  0
    0.7702    1.1101    1.3264 H   0  0  0  0  0  0  0  0  0  0  0  0
    5.7403    1.2082    0.0334 H   0  0  0  0  0  0  0  0  0  0  0  0
    2.4042   -2.0813   -0.7170 H   0  0  0  0  0  0  0  0  0  0  0  0
    3.1109   -1.4780   -2.2055 H   0  0  0  0  0  0  0  0  0  0  0  0
    0.6681   -1.2843   -2.2478 H   0  0  0  0  0  0  0  0  0  0  0  0
    1.4725    0.2587   -2.4184 H   0  0  0  0  0  0  0  0  0  0  0  0
    3.6617    2.2708    0.9868 H   0  0  0  0  0  0  0  0  0  0  0  0
    2.9755    1.6243    2.4720 H   0  0  0  0  0  0  0  0  0  0  0  0
   -1.1237    0.5726   -1.9042 H   0  0  0  0  0  0  0  0  0  0  0  0
    1.3427    3.1054    0.3115 H   0  0  0  0  0  0  0  0  0  0  0  0
    2.2085    2.3587   -1.0270 H   0  0  0  0  0  0  0  0  0  0  0  0
    4.7804   -0.0175    2.6633 H   0  0  0  0  0  0  0  0  0  0  0  0
    5.4527    1.5912    2.4527 H   0  0  0  0  0  0  0  0  0  0  0  0
    0.3494    2.3677   -2.3036 H   0  0  0  0  0  0  0  0  0  0  0  0
   -0.5547    3.1586   -1.0059 H   0  0  0  0  0  0  0  0  0  0  0  0
    5.7191   -0.1867   -2.0192 H   0  0  0  0  0  0  0  0  0  0  0  0
    5.2540   -1.8809   -1.9552 H   0  0  0  0  0  0  0  0  0  0  0  0
    0.6376   -1.8623    0.6578 H   0  0  0  0  0  0  0  0  0  0  0  0
   -0.8452   -1.7508   -0.2987 H   0  0  0  0  0  0  0  0  0  0  0  0
   -0.6730   -0.8279    1.1997 H   0  0  0  0  0  0  0  0  0  0  0  0
    4.1008   -1.9567    1.6020 H   0  0  0  0  0  0  0  0  0  0  0  0
    4.3154   -2.8824    0.1164 H   0  0  0  0  0  0  0  0  0  0  0  0
    5.7032   -2.4507    1.0920 H   0  0  0  0  0  0  0  0  0  0  0  0
    7.6097    0.7906    1.5068 H   0  0  0  0  0  0  0  0  0  0  0  0
    7.1225   -0.8835    1.7881 H   0  0  0  0  0  0  0  0  0  0  0  0
    7.2283   -2.4634   -0.6387 H   0  0  0  0  0  0  0  0  0  0  0  0
    7.7183   -1.5080   -2.0415 H   0  0  0  0  0  0  0  0  0  0  0  0
   -4.1982    2.7727    0.6907 H   0  0  0  0  0  0  0  0  0  0  0  0
   -3.8997    1.5847    2.8877 H   0  0  0  0  0  0  0  0  0  0  0  0
   -2.3890    2.2165    2.2365 H   0  0  0  0  0  0  0  0  0  0  0  0
   -2.7263    0.4896    2.1626 H   0  0  0  0  0  0  0  0  0  0  0  0
   -5.8901    1.3652    0.3578 H   0  0  0  0  0  0  0  0  0  0  0  0
   -7.4238    0.4723    0.9274 H   0  0  0  0  0  0  0  0  0  0  0  0
   -8.2376   -1.0372    0.8171 H   0  0  0  0  0  0  0  0  0  0  0  0
   -7.8699   -1.1359   -1.6637 H   0  0  0  0  0  0  0  0  0  0  0  0
   -6.9913    0.3971   -1.5971 H   0  0  0  0  0  0  0  0  0  0  0  0
  1 34  1  0  0  0  0
  2 19  1  0  0  0  0
  2 29  1  0  0  0  0
  3 28  2  0  0  0  0
  4 29  2  0  0  0  0
  5 32  2  0  0  0  0
  6  9  2  0  0  0  0
  7 30  1  0  0  0  0
  7 32  1  0  0  0  0
  7 68  1  0  0  0  0
  8  9  1  0  0  0  0
  8 32  1  0  0  0  0
  8 33  1  0  0  0  0
 10 11  1  0  0  0  0
 10 12  1  0  0  0  0
 10 18  1  0  0  0  0
 10 35  1  0  0  0  0
 11 14  1  0  0  0  0
 11 16  1  0  0  0  0
 11 36  1  0  0  0  0
 12 13  1  0  0  0  0
 12 20  1  0  0  0  0
 12 37  1  0  0  0  0
 13 17  1  0  0  0  0
 13 19  1  0  0  0  0
 13 24  1  0  0  0  0
 14 15  1  0  0  0  0
 14 23  1  0  0  0  0
 14 25  1  0  0  0  0
 15 21  1  0  0  0  0
 15 26  1  0  0  0  0
 15 38  1  0  0  0  0
 16 17  1  0  0  0  0
 16 39  1  0  0  0  0
 16 40  1  0  0  0  0
 17 41  1  0  0  0  0
 17 42  1  0  0  0  0
 18 21  1  0  0  0  0
 18 43  1  0  0  0  0
 18 44  1  0  0  0  0
 19 22  1  0  0  0  0
 19 45  1  0  0  0  0
 20 22  1  0  0  0  0
 20 46  1  0  0  0  0
 20 47  1  0  0  0  0
 21 48  1  0  0  0  0
 21 49  1  0  0  0  0
 22 50  1  0  0  0  0
 22 51  1  0  0  0  0
 23 27  1  0  0  0  0
 23 52  1  0  0  0  0
 23 53  1  0  0  0  0
 24 54  1  0  0  0  0
 24 55  1  0  0  0  0
 24 56  1  0  0  0  0
 25 57  1  0  0  0  0
 25 58  1  0  0  0  0
 25 59  1  0  0  0  0
 26 28  1  0  0  0  0
 26 60  1  0  0  0  0
 26 61  1  0  0  0  0
 27 28  1  0  0  0  0
 27 62  1  0  0  0  0
 27 63  1  0  0  0  0
 29 30  1  0  0  0  0
 30 31  1  0  0  0  0
 30 64  1  0  0  0  0
 31 65  1  0  0  0  0
 31 66  1  0  0  0  0
 31 67  1  0  0  0  0
 33 34  1  0  0  0  0
 33 69  1  0  0  0  0
 33 70  1  0  0  0  0
 34 71  1  0  0  0  0
 34 72  1  0  0  0  0
M  END
> <PUBCHEM_COMPOUND_CID>
128939

> <PUBCHEM_CONFORMER_RMSD>
1.2

> <PUBCHEM_CONFORMER_DIVERSEORDER>
1
149
84
162
54
81
52
132
151
60
140
107
155
188
138
134
164
131
22
163
25
133
62
78
40
21
126
70
110
122
23
82
66
170
67
180
13
89
161
65
41
90
64
42
168
75
63
121
115
85
143
32
97
150
34
7
137
152
116
72
91
53
6
4
181
87
142
165
9
46
38
86
56
31
3
128
94
178
17
127
44
145
11
187
99
80
26
58
10
57
125
48
109
24
5
176
104
96
61
28
120
68
12
157
59
160
123
117
108
158
55
182
77
16
47
171
129
167
43
36
169
148
174
146
93
179
101
100
8
105
177
14
50
2
124
144
103
112
153
139
45
39
95
51
88
189
119
27
35
71
156
136
73
114
141
166
102
183
29
92
173
18
106
76
186
79
172
19
98
30
147
74
113
135
159
37
185
33
20
49
15
83
154
111
130
118
184
69
175

> <PUBCHEM_MMFF94_PARTIAL_CHARGES>
19
1 -0.29
19 0.28
2 -0.43
26 0.06
27 0.06
28 0.45
29 0.66
3 -0.57
30 0.36
32 0.69
33 0.3
34 0.29
4 -0.57
5 -0.57
6 -0.16
68 0.37
7 -0.73
8 -0.18
9 -0.02

> <PUBCHEM_EFFECTIVE_ROTOR_COUNT>
11

> <PUBCHEM_PHARMACOPHORE_FEATURES>
8
1 3 acceptor
1 4 acceptor
1 5 acceptor
1 7 donor
5 12 13 19 20 22 rings
6 10 11 12 13 16 17 rings
6 10 11 14 15 18 21 rings
6 14 15 23 26 27 28 rings

> <PUBCHEM_HEAVY_ATOM_COUNT>
34

> <PUBCHEM_ATOM_DEF_STEREO_COUNT>
5

> <PUBCHEM_ATOM_UDEF_STEREO_COUNT>
3

> <PUBCHEM_BOND_DEF_STEREO_COUNT>
0

> <PUBCHEM_BOND_UDEF_STEREO_COUNT>
0

> <PUBCHEM_ISOTOPIC_ATOM_COUNT>
0

> <PUBCHEM_COMPONENT_COUNT>
1

> <PUBCHEM_CACTVS_TAUTO_COUNT>
6

> <PUBCHEM_CONFORMER_ID>
0001F7AB00000001

> <PUBCHEM_MMFF94_ENERGY>
100.7291

> <PUBCHEM_FEATURE_SELFOVERLAP>
40.797

> <PUBCHEM_SHAPE_FINGERPRINT>
10 15 17489587861417507732
10076449 9 18272095989930255892
10883706 142 10303810986443784341
11135609 12 18410007775739858791
11135609 99 18340490083785555215
11456790 92 17131548333485456562
11963148 33 18334289847380476730
12236239 1 16370726977410267008
12522641 126 17969232311934948732
12717326 120 18191597543124948523
13782708 43 18342176643911207466
13811026 1 18410289216135817189
14068700 675 17967535696863107357
14117953 113 18261106375479118437
14294032 229 17241599512945186277
14849402 71 16916777535617563312
15183329 4 13767923520742832997
15301273 46 18413668006587900349
15510794 2 18342737373935969838
15510800 12 18188502392681917315
15840311 113 14979666724329788568
16992779 147 16557329660935991864
18222031 100 17967534575190918157
18335252 98 18411422792008840206
18608769 82 18411699881607598606
19611394 137 18059858423792368075
20028762 73 18410014355503876331
20105231 36 16917074331137666420
21150785 3 16443064997740547286
21756936 100 10519985951149865313
21781051 124 18130520703621195630
23559900 14 14707503532764090317
249057 3 13262403262815923009
2747138 104 18343018891551578400
3009799 131 11818995184429387020
3178227 256 17489590052621182918
3383291 50 18335426819929215427
3633792 109 14201397158109771272
397830 11 18272083937534878184
4093350 32 8646500608801850024
4625314 4 18408322207124267645
504579 68 16370727019489378756
59682541 35 17918272069310354370
6086070 43 16878214316445326012
9689198 14 8646498436011829587

> <PUBCHEM_SHAPE_MULTIPOLES>
657.28
25.75
2.25
1.58
19.51
0.56
0.02
11.02
-0.7
2.38
0.24
-0.03
-0.33
1.99

> <PUBCHEM_SHAPE_SELFOVERLAP>
1360.995

> <PUBCHEM_SHAPE_VOLUME>
373.1

> <PUBCHEM_COORDINATE_TYPE>
2
5
10

$$$$
