128937
  -OEChem-03292013323D

 29 30  0     1  0  0  0  0  0999 V2000
   -1.1115    2.2217   -1.3691 O   0  0  0  0  0  0  0  0  0  0  0  0
   -3.4683    1.4499   -0.3337 O   0  0  0  0  0  0  0  0  0  0  0  0
   -3.7961   -2.3797   -0.1100 O   0  0  0  0  0  0  0  0  0  0  0  0
    1.9063    1.9760    1.3527 O   0  0  0  0  0  0  0  0  0  0  0  0
    4.6534   -1.2373   -0.4840 O   0  0  0  0  0  0  0  0  0  0  0  0
    0.9163    0.2158    0.1781 N   0  0  0  0  0  0  0  0  0  0  0  0
    3.2727    0.3752    0.4367 N   0  0  0  0  0  0  0  0  0  0  0  0
   -0.4263    0.6994    0.3907 C   0  0  1  0  0  0  0  0  0  0  0  0
   -1.1582    0.8692   -0.9468 C   0  0  1  0  0  0  0  0  0  0  0  0
   -2.5969    0.3895   -0.6950 C   0  0  1  0  0  0  0  0  0  0  0  0
   -2.4329   -0.5166    0.4871 C   0  0  0  0  0  0  0  0  0  0  0  0
   -1.2441   -0.3450    1.0796 C   0  0  0  0  0  0  0  0  0  0  0  0
   -3.5166   -1.4387    0.9161 C   0  0  0  0  0  0  0  0  0  0  0  0
    2.0155    0.9337    0.7034 C   0  0  0  0  0  0  0  0  0  0  0  0
    1.1254   -0.9538   -0.5422 C   0  0  0  0  0  0  0  0  0  0  0  0
    2.3298   -1.4738   -0.7882 C   0  0  0  0  0  0  0  0  0  0  0  0
    3.5315   -0.7857   -0.2753 C   0  0  0  0  0  0  0  0  0  0  0  0
   -0.4245    1.6259    0.9753 H   0  0  0  0  0  0  0  0  0  0  0  0
   -0.7261    0.2747   -1.7590 H   0  0  0  0  0  0  0  0  0  0  0  0
   -2.9918   -0.1217   -1.5788 H   0  0  0  0  0  0  0  0  0  0  0  0
   -0.9272   -0.8678    1.9719 H   0  0  0  0  0  0  0  0  0  0  0  0
   -4.4304   -0.8775    1.1359 H   0  0  0  0  0  0  0  0  0  0  0  0
   -3.2320   -1.9919    1.8174 H   0  0  0  0  0  0  0  0  0  0  0  0
   -1.6815    2.3021   -2.1528 H   0  0  0  0  0  0  0  0  0  0  0  0
    0.2498   -1.4791   -0.9088 H   0  0  0  0  0  0  0  0  0  0  0  0
   -4.3665    1.0839   -0.2643 H   0  0  0  0  0  0  0  0  0  0  0  0
    4.0779    0.8743    0.8046 H   0  0  0  0  0  0  0  0  0  0  0  0
    2.4547   -2.3924   -1.3481 H   0  0  0  0  0  0  0  0  0  0  0  0
   -4.5135   -2.9509    0.2135 H   0  0  0  0  0  0  0  0  0  0  0  0
  1  9  1  0  0  0  0
  1 24  1  0  0  0  0
  2 10  1  0  0  0  0
  2 26  1  0  0  0  0
  3 13  1  0  0  0  0
  3 29  1  0  0  0  0
  4 14  2  0  0  0  0
  5 17  2  0  0  0  0
  6  8  1  0  0  0  0
  6 14  1  0  0  0  0
  6 15  1  0  0  0  0
  7 14  1  0  0  0  0
  7 17  1  0  0  0  0
  7 27  1  0  0  0  0
  8  9  1  0  0  0  0
  8 12  1  0  0  0  0
  8 18  1  0  0  0  0
  9 10  1  0  0  0  0
  9 19  1  0  0  0  0
 10 11  1  0  0  0  0
 10 20  1  0  0  0  0
 11 12  2  0  0  0  0
 11 13  1  0  0  0  0
 12 21  1  0  0  0  0
 13 22  1  0  0  0  0
 13 23  1  0  0  0  0
 15 16  2  0  0  0  0
 15 25  1  0  0  0  0
 16 17  1  0  0  0  0
 16 28  1  0  0  0  0
M  END
> <PUBCHEM_COMPOUND_CID>
128937

> <PUBCHEM_CONFORMER_RMSD>
0.6

> <PUBCHEM_CONFORMER_DIVERSEORDER>
1
12
10
8
5
14
15
2
3
13
7
11
4
9
6

> <PUBCHEM_MMFF94_PARTIAL_CHARGES>
24
1 -0.68
10 0.42
11 -0.28
12 -0.29
13 0.42
14 0.69
15 -0.04
16 -0.14
17 0.62
2 -0.68
21 0.15
24 0.4
25 0.15
26 0.4
27 0.37
28 0.15
29 0.4
3 -0.68
4 -0.57
5 -0.57
6 -0.47
7 -0.49
8 0.44
9 0.28

> <PUBCHEM_EFFECTIVE_ROTOR_COUNT>
2.6

> <PUBCHEM_PHARMACOPHORE_FEATURES>
11
1 1 acceptor
1 1 donor
1 2 acceptor
1 2 donor
1 3 acceptor
1 3 donor
1 4 acceptor
1 5 acceptor
1 7 donor
5 8 9 10 11 12 rings
6 6 7 14 15 16 17 rings

> <PUBCHEM_HEAVY_ATOM_COUNT>
17

> <PUBCHEM_ATOM_DEF_STEREO_COUNT>
3

> <PUBCHEM_ATOM_UDEF_STEREO_COUNT>
0

> <PUBCHEM_BOND_DEF_STEREO_COUNT>
0

> <PUBCHEM_BOND_UDEF_STEREO_COUNT>
0

> <PUBCHEM_ISOTOPIC_ATOM_COUNT>
0

> <PUBCHEM_COMPONENT_COUNT>
1

> <PUBCHEM_CACTVS_TAUTO_COUNT>
3

> <PUBCHEM_CONFORMER_ID>
0001F7A900000001

> <PUBCHEM_MMFF94_ENERGY>
39.5321

> <PUBCHEM_FEATURE_SELFOVERLAP>
55.838

> <PUBCHEM_SHAPE_FINGERPRINT>
11543360 7 17604164674514972318
12236239 1 15841263779297540124
12500047 106 18263078821433922349
13296908 3 18410009957287897627
15219456 202 18412822508000236616
15309172 13 17418094299723126742
15501101 241 18270125737137132161
15653759 3 18334012778812266994
16945 1 17847066592288382356
17844478 74 18410857667746672220
18175812 5 18411980264929217917
19141452 34 18341338877003512003
200 152 17489296456534424629
20201158 50 18341332176184227358
20281475 54 18339371785669950914
20645477 70 17774995761314294420
20871999 31 17749106690966037031
21061003 4 18060140912112315184
22094290 60 18041003912341539678
221490 88 18342740753816995950
23402539 116 17385726876609162502
23419403 2 16884941304994106045
23557571 272 18187637059312579673
23559900 14 18261670355982337394
2748010 2 18334850654096679053
2871803 45 18335976566915414371
31174 14 18200591535333525368
3286 77 18201442518546635034
474 4 15911044401203739208
6049 1 18411976979210995929
76465 3 18334568049433410682
77492 1 15985099734380319320
81228 2 18040152903554025717
83771 10 18410865390462107747
8809292 202 18336549326241310850

> <PUBCHEM_SHAPE_MULTIPOLES>
310.54
7.07
2
1.13
2.07
0.07
0.03
-3.29
-0.11
-0.87
-0.2
-0.14
0.32
1.37

> <PUBCHEM_SHAPE_SELFOVERLAP>
659.455

> <PUBCHEM_SHAPE_VOLUME>
173.3

> <PUBCHEM_COORDINATE_TYPE>
2
5
10

$$$$
