REMARK  Name = 128981
REMARK  3 active torsions:
REMARK  status: ('A' for Active; 'I' for Inactive)
REMARK    1  A    between atoms: C_10  and  O_22
REMARK    2  A    between atoms: C_15  and  O_26
REMARK    3  A    between atoms: C_17  and  O_24
REMARK                            x       y       z     vdW  Elec       q    Type
REMARK                         _______ _______ _______ _____ _____    ______ ____
ROOT
ATOM      1  O   UNL     1      -4.647  -0.190  -0.506  0.00  0.00    -0.296 OA
ATOM      2  O   UNL     1      -3.367   1.480   0.621  0.00  0.00    -0.452 OA
ATOM      3  O   UNL     1       0.065  -1.738   0.567  0.00  0.00    -0.421 OA
ATOM      4  O   UNL     1       4.432  -2.244  -0.016  0.00  0.00    -0.291 OA
ATOM      5  O   UNL     1       1.713  -3.336   0.585  0.00  0.00    -0.244 OA
ATOM      6  C   UNL     1      -2.817  -0.884   0.890  0.00  0.00    +0.104 C 
ATOM      7  C   UNL     1      -3.933   0.151   0.696  0.00  0.00    +0.294 C 
ATOM      8  C   UNL     1      -1.638  -0.047   0.557  0.00  0.00    +0.053 C 
ATOM      9  C   UNL     1      -3.180  -1.984  -0.084  0.00  0.00    +0.072 C 
ATOM     10  C   UNL     1      -3.965  -1.262  -1.166  0.00  0.00    +0.235 C 
ATOM     11  C   UNL     1      -2.024   1.277   0.441  0.00  0.00    +0.143 C 
ATOM     12  C   UNL     1      -0.304  -0.384   0.410  0.00  0.00    +0.150 A 
ATOM     13  C   UNL     1       0.649   0.603   0.126  0.00  0.00    +0.067 A 
ATOM     14  C   UNL     1       2.035   0.180  -0.026  0.00  0.00    +0.020 A 
ATOM     15  C   UNL     1       3.188   1.075  -0.352  0.00  0.00    +0.141 C 
ATOM     16  C   UNL     1      -1.117   2.286   0.173  0.00  0.00    +0.074 C 
ATOM     17  C   UNL     1       0.229   1.941   0.010  0.00  0.00    +0.144 C 
ATOM     18  C   UNL     1       2.347  -1.107   0.136  0.00  0.00    +0.109 A 
ATOM     19  C   UNL     1       4.413   0.163  -0.256  0.00  0.00    +0.103 C 
ATOM     20  C   UNL     1       3.803  -1.197  -0.051  0.00  0.00    +0.182 C 
ATOM     21  C   UNL     1       1.386  -2.164   0.444  0.00  0.00    +0.348 A 
ENDROOT
BRANCH  10  22
ATOM     22  O   UNL     1      -3.072  -0.775  -2.161  0.00  0.00    -0.360 OA
ATOM     23  H   UNL     1      -3.575  -0.315  -2.850  0.00  0.00    +0.213 HD
ENDBRANCH  10  22
BRANCH  17  24
ATOM     24  O   UNL     1       1.087   2.970  -0.243  0.00  0.00    -0.471 OA
ATOM     25  C   UNL     1       1.668   3.620   0.885  0.00  0.00    +0.252 C 
ENDBRANCH  17  24
BRANCH  15  26
ATOM     26  O   UNL     1       3.047   1.563  -1.680  0.00  0.00    -0.380 OA
ATOM     27  H   UNL     1       2.269   2.140  -1.732  0.00  0.00    +0.211 HD
ENDBRANCH  15  26
TORSDOF 3
