REMARK  Name = 128927
REMARK  7 active torsions:
REMARK  status: ('A' for Active; 'I' for Inactive)
REMARK    1  A    between atoms: C_3  and  O_8
REMARK    2  A    between atoms: C_4  and  O_12
REMARK    3  A    between atoms: C_5  and  C_16
REMARK    4  A    between atoms: O_8  and  C_10
REMARK    5  A    between atoms: O_12  and  C_14
REMARK    6  A    between atoms: C_16  and  O_17
REMARK    7  A    between atoms: O_17  and  C_19
REMARK                            x       y       z     vdW  Elec       q    Type
REMARK                         _______ _______ _______ _____ _____    ______ ____
ROOT
ATOM      1 CL   UNL     1       1.808   3.736  -0.024  0.00  0.00    -0.082 Cl
ATOM      2  O   UNL     1       0.329   1.944  -1.216  0.00  0.00    -0.335 OA
ATOM      3  C   UNL     1       0.060  -0.429  -0.650  0.00  0.00    +0.239 C 
ATOM      4  C   UNL     1       0.722  -0.176   0.711  0.00  0.00    +0.215 C 
ATOM      5  C   UNL     1      -0.565   0.827  -1.277  0.00  0.00    +0.204 C 
ATOM      6  C   UNL     1       1.560   1.107   0.723  0.00  0.00    +0.094 C 
ATOM      7  C   UNL     1       0.792   2.270   0.091  0.00  0.00    +0.198 C 
ENDROOT
BRANCH   3   8
ATOM      8  O   UNL     1       1.052  -0.908  -1.563  0.00  0.00    -0.446 OA
BRANCH   8  10
ATOM      9  O   UNL     1       1.479  -2.708  -0.179  0.00  0.00    -0.250 OA
ATOM     10  C   UNL     1       1.684  -2.062  -1.198  0.00  0.00    +0.318 C 
ATOM     11  C   UNL     1       2.689  -2.441  -2.243  0.00  0.00    +0.121 C 
ENDBRANCH   8  10
ENDBRANCH   3   8
BRANCH   4  12
ATOM     12  O   UNL     1      -0.277  -0.064   1.723  0.00  0.00    -0.448 OA
BRANCH  12  14
ATOM     13  O   UNL     1      -1.033  -2.190   1.229  0.00  0.00    -0.250 OA
ATOM     14  C   UNL     1      -1.088  -1.151   1.873  0.00  0.00    +0.318 C 
ATOM     15  C   UNL     1      -2.082  -0.891   2.964  0.00  0.00    +0.121 C 
ENDBRANCH  12  14
ENDBRANCH   4  12
BRANCH   5  16
ATOM     16  C   UNL     1      -1.935   1.185  -0.705  0.00  0.00    +0.242 C 
BRANCH  16  17
ATOM     17  O   UNL     1      -2.819   0.106  -0.947  0.00  0.00    -0.446 OA
BRANCH  17  19
ATOM     18  O   UNL     1      -4.537   1.248   0.093  0.00  0.00    -0.250 OA
ATOM     19  C   UNL     1      -4.102   0.266  -0.494  0.00  0.00    +0.318 C 
ATOM     20  C   UNL     1      -4.920  -0.947  -0.819  0.00  0.00    +0.121 C 
ENDBRANCH  17  19
ENDBRANCH  16  17
ENDBRANCH   5  16
TORSDOF 7
REMARK  Name = 128927
REMARK  7 active torsions:
REMARK  status: ('A' for Active; 'I' for Inactive)
REMARK    1  A    between atoms: C_3  and  O_8
REMARK    2  A    between atoms: C_4  and  O_12
REMARK    3  A    between atoms: C_5  and  C_16
REMARK    4  A    between atoms: O_8  and  C_10
REMARK    5  A    between atoms: O_12  and  C_14
REMARK    6  A    between atoms: C_16  and  O_17
REMARK    7  A    between atoms: O_17  and  C_19
REMARK                            x       y       z     vdW  Elec       q    Type
REMARK                         _______ _______ _______ _____ _____    ______ ____
ROOT
ATOM      1  N   UNL     1       3.752   0.414   0.658  0.00  0.00    +0.000 NA
ATOM      2  N   UNL     1       4.626   0.008   1.268  0.00  0.00    +0.000 NA
ENDROOT
TORSDOF 0
