REMARK  Name = 128920
REMARK  8 active torsions:
REMARK  status: ('A' for Active; 'I' for Inactive)
REMARK    1  A    between atoms: C_1  and  N_20
REMARK    2  A    between atoms: C_6  and  C_24
REMARK    3  A    between atoms: C_19  and  O_28
REMARK    4  A    between atoms: C_24  and  O_26
REMARK    5  A    between atoms: O_28  and  C_30
REMARK    6  A    between atoms: C_31  and  O_36
REMARK    7  A    between atoms: C_32  and  O_38
REMARK    8  A    between atoms: C_34  and  O_40
REMARK                            x       y       z     vdW  Elec       q    Type
REMARK                         _______ _______ _______ _____ _____    ______ ____
ROOT
ATOM      1  C   UNL     1       3.474  -1.050   0.096  0.00  0.00    -0.049 C 
ATOM      2  C   UNL     1       4.521   0.079  -0.196  0.00  0.00    -0.014 C 
ATOM      3  C   UNL     1       2.260  -0.473   0.866  0.00  0.00    -0.018 C 
ATOM      4  C   UNL     1       1.584   0.687   0.050  0.00  0.00    -0.002 C 
ATOM      5  C   UNL     1       0.373   1.326   0.836  0.00  0.00    +0.000 C 
ATOM      6  C   UNL     1       5.678  -0.755  -0.811  0.00  0.00    +0.025 C 
ATOM      7  C   UNL     1       3.881   1.128  -1.120  0.00  0.00    -0.002 C 
ATOM      8  C   UNL     1      -0.620   0.172   1.186  0.00  0.00    +0.002 C 
ATOM      9  C   UNL     1       2.606   1.727  -0.493  0.00  0.00    -0.000 C 
ATOM     10  C   UNL     1       4.348  -2.089   0.813  0.00  0.00    -0.020 C 
ATOM     11  C   UNL     1       1.228  -1.538   1.280  0.00  0.00    -0.002 C 
ATOM     12  C   UNL     1       5.707  -2.031   0.073  0.00  0.00    +0.000 C 
ATOM     13  C   UNL     1       0.038  -0.932   2.022  0.00  0.00    +0.000 C 
ATOM     14  C   UNL     1      -0.384   2.344  -0.064  0.00  0.00    +0.002 C 
ATOM     15  C   UNL     1       5.040   0.815   1.078  0.00  0.00    -0.002 C 
ATOM     16  C   UNL     1      -1.917   0.675   1.843  0.00  0.00    +0.030 C 
ATOM     17  C   UNL     1       0.866   2.071   2.105  0.00  0.00    +0.000 C 
ATOM     18  C   UNL     1      -1.696   2.849   0.551  0.00  0.00    +0.030 C 
ATOM     19  C   UNL     1      -2.626   1.714   0.973  0.00  0.00    +0.118 C 
ENDROOT
BRANCH   1  20
ATOM     20  N   UNL     1       3.023  -1.720  -1.150  0.00  0.00    +0.383 N 
ATOM     21  H   UNL     1       2.431  -1.083  -1.683  0.00  0.00    -0.089 HD
ATOM     22  H   UNL     1       2.493  -2.558  -0.912  0.00  0.00    -0.089 HD
ATOM     23  H   UNL     1       3.835  -1.978  -1.710  0.00  0.00    -0.089 HD
ENDBRANCH   1  20
BRANCH   6  24
ATOM     24  C   UNL     1       7.039  -0.080  -0.915  0.00  0.00    +0.110 C 
ATOM     25  C   UNL     1       8.073  -0.990  -1.558  0.00  0.00    +0.032 C 
BRANCH  24  26
ATOM     26  O   UNL     1       6.913   1.108  -1.689  0.00  0.00    -0.384 OA
ATOM     27  H   UNL     1       6.254   1.691  -1.280  0.00  0.00    +0.210 HD
ENDBRANCH  24  26
ENDBRANCH   6  24
BRANCH  19  28
ATOM     28  O   UNL     1      -3.136   1.060  -0.189  0.00  0.00    -0.331 OA
BRANCH  28  30
ATOM     29  O   UNL     1      -4.360  -0.780   0.562  0.00  0.00    -0.329 OA
ATOM     30  C   UNL     1      -4.447   0.545   0.041  0.00  0.00    +0.266 C 
ATOM     31  C   UNL     1      -5.197   0.560  -1.293  0.00  0.00    +0.196 C 
ATOM     32  C   UNL     1      -6.558  -0.122  -1.157  0.00  0.00    +0.171 C 
ATOM     33  C   UNL     1      -5.641  -1.373   0.810  0.00  0.00    +0.147 C 
ATOM     34  C   UNL     1      -6.420  -1.498  -0.504  0.00  0.00    +0.167 C 
ATOM     35  C   UNL     1      -5.397  -2.724   1.471  0.00  0.00    +0.035 C 
BRANCH  31  36
ATOM     36  O   UNL     1      -5.390   1.918  -1.689  0.00  0.00    -0.378 OA
ATOM     37  H   UNL     1      -4.529   2.355  -1.777  0.00  0.00    +0.211 HD
ENDBRANCH  31  36
BRANCH  32  38
ATOM     38  O   UNL     1      -7.151  -0.248  -2.446  0.00  0.00    -0.379 OA
ATOM     39  H   UNL     1      -7.234   0.630  -2.851  0.00  0.00    +0.211 HD
ENDBRANCH  32  38
BRANCH  34  40
ATOM     40  O   UNL     1      -5.713  -2.376  -1.383  0.00  0.00    -0.379 OA
ATOM     41  H   UNL     1      -6.200  -2.460  -2.217  0.00  0.00    +0.211 HD
ENDBRANCH  34  40
ENDBRANCH  28  30
ENDBRANCH  19  28
TORSDOF 8
