REMARK  Name = 128954
REMARK  5 active torsions:
REMARK  status: ('A' for Active; 'I' for Inactive)
REMARK    1  A    between atoms: C_7  and  O_19
REMARK    2  A    between atoms: C_9  and  C_14
REMARK    3  A    between atoms: C_11  and  C_21
REMARK    4  A    between atoms: C_21  and  S_22
REMARK    5  A    between atoms: S_22  and  C_28
REMARK                            x       y       z     vdW  Elec       q    Type
REMARK                         _______ _______ _______ _____ _____    ______ ____
ROOT
ATOM      1  S   UNL     1       2.652  -2.139   1.243  0.00  0.00    +0.013 S 
ATOM      2  O   UNL     1       3.030  -3.525   1.460  0.00  0.00    -0.171 OA
ATOM      3  O   UNL     1       2.933  -1.148   2.266  0.00  0.00    -0.171 OA
ATOM      4  O   UNL     1       4.091   1.578  -0.977  0.00  0.00    -0.272 OA
ATOM      5  N   UNL     1       2.664  -0.212  -0.402  0.00  0.00    -0.232 N 
ATOM      6  C   UNL     1       3.236  -1.545  -0.312  0.00  0.00    +0.246 C 
ATOM      7  C   UNL     1       4.614  -0.865  -0.410  0.00  0.00    +0.233 C 
ATOM      8  C   UNL     1       3.816   0.436  -0.691  0.00  0.00    +0.261 C 
ATOM      9  C   UNL     1       1.344   0.079  -0.265  0.00  0.00    +0.104 C 
ATOM     10  C   UNL     1       0.895  -2.099   0.944  0.00  0.00    +0.177 C 
ATOM     11  C   UNL     1       0.475  -0.786   0.307  0.00  0.00    +0.009 C 
ENDROOT
BRANCH   9  14
ATOM     12  O   UNL     1       0.484   1.552  -1.858  0.00  0.00    -0.269 OA
ATOM     13  N   UNL     1       0.996   2.437   0.217  0.00  0.00    -0.275 N 
ATOM     14  C   UNL     1       0.905   1.417  -0.710  0.00  0.00    +0.262 C 
ATOM     15  C   UNL     1       0.588   3.798  -0.104  0.00  0.00    +0.094 C 
ATOM     16  C   UNL     1       1.481   2.353   1.594  0.00  0.00    +0.094 C 
ATOM     17  C   UNL     1       0.510   4.501   1.241  0.00  0.00    +0.023 C 
ATOM     18  C   UNL     1       1.594   3.801   2.050  0.00  0.00    +0.023 C 
ENDBRANCH   9  14
BRANCH   7  19
ATOM     19  O   UNL     1       5.497  -1.247  -1.475  0.00  0.00    -0.341 OA
ATOM     20  C   UNL     1       6.193  -2.438  -1.155  0.00  0.00    +0.175 C 
ENDBRANCH   7  19
BRANCH  11  21
ATOM     21  C   UNL     1      -1.014  -0.561   0.416  0.00  0.00    +0.091 C 
BRANCH  21  22
ATOM     22  S   UNL     1      -1.828  -1.248  -1.036  0.00  0.00    -0.060 S 
BRANCH  22  28
ATOM     23  O   UNL     1      -6.172  -2.330   0.902  0.00  0.00    -0.205 OA
ATOM     24  O   UNL     1      -7.203   0.039   0.476  0.00  0.00    -0.254 OA
ATOM     25  N   UNL     1      -4.019   0.365  -1.069  0.00  0.00    -0.204 N 
ATOM     26  N   UNL     1      -4.131  -1.767   0.031  0.00  0.00    -0.306 NA
ATOM     27  N   UNL     1      -5.292   0.703  -0.640  0.00  0.00    -0.217 N 
ATOM     28  C   UNL     1      -3.512  -0.849  -0.643  0.00  0.00    +0.239 C 
ATOM     29  C   UNL     1      -3.320   1.389  -1.824  0.00  0.00    +0.139 C 
ATOM     30  C   UNL     1      -5.439  -1.512   0.357  0.00  0.00    +0.263 C 
ATOM     31  C   UNL     1      -6.070  -0.176   0.068  0.00  0.00    +0.356 C 
ATOM     32  H   UNL     1      -5.646   1.598  -0.849  0.00  0.00    +0.174 HD
ENDBRANCH  22  28
ENDBRANCH  21  22
ENDBRANCH  11  21
TORSDOF 5
