128927
  -OEChem-03292013323D

 39 39  0     1  0  0  0  0  0999 V2000
    1.8076    3.7359   -0.0236 Cl  0  0  0  0  0  0  0  0  0  0  0  0
    0.3289    1.9443   -1.2164 O   0  0  0  0  0  0  0  0  0  0  0  0
    1.0518   -0.9078   -1.5635 O   0  0  0  0  0  0  0  0  0  0  0  0
   -0.2774   -0.0635    1.7228 O   0  0  0  0  0  0  0  0  0  0  0  0
   -2.8193    0.1059   -0.9473 O   0  0  0  0  0  0  0  0  0  0  0  0
    1.4786   -2.7075   -0.1793 O   0  0  0  0  0  0  0  0  0  0  0  0
   -1.0327   -2.1901    1.2288 O   0  0  0  0  0  0  0  0  0  0  0  0
   -4.5371    1.2479    0.0930 O   0  0  0  0  0  0  0  0  0  0  0  0
    2.8068    0.8565   -0.0159 N   0  0  0  0  0  0  0  0  0  0  0  0
    3.7519    0.4144    0.6583 N   0  3  0  0  0  0  0  0  0  0  0  0
    4.6261    0.0081    1.2681 N   0  5  0  0  0  0  0  0  0  0  0  0
    0.0596   -0.4294   -0.6501 C   0  0  1  0  0  0  0  0  0  0  0  0
    0.7218   -0.1759    0.7111 C   0  0  1  0  0  0  0  0  0  0  0  0
   -0.5651    0.8268   -1.2766 C   0  0  1  0  0  0  0  0  0  0  0  0
    1.5601    1.1069    0.7233 C   0  0  2  0  0  0  0  0  0  0  0  0
    0.7920    2.2696    0.0908 C   0  0  1  0  0  0  0  0  0  0  0  0
   -1.9353    1.1846   -0.7049 C   0  0  0  0  0  0  0  0  0  0  0  0
    1.6840   -2.0622   -1.1984 C   0  0  0  0  0  0  0  0  0  0  0  0
   -1.0879   -1.1510    1.8725 C   0  0  0  0  0  0  0  0  0  0  0  0
    2.6893   -2.4408   -2.2433 C   0  0  0  0  0  0  0  0  0  0  0  0
   -4.1023    0.2661   -0.4937 C   0  0  0  0  0  0  0  0  0  0  0  0
   -2.0818   -0.8915    2.9637 C   0  0  0  0  0  0  0  0  0  0  0  0
   -4.9195   -0.9472   -0.8193 C   0  0  0  0  0  0  0  0  0  0  0  0
   -0.7165   -1.1939   -0.6545 H   0  0  0  0  0  0  0  0  0  0  0  0
    1.3863   -0.9670    1.0587 H   0  0  0  0  0  0  0  0  0  0  0  0
   -0.7027    0.6256   -2.3473 H   0  0  0  0  0  0  0  0  0  0  0  0
    1.7888    1.3861    1.7624 H   0  0  0  0  0  0  0  0  0  0  0  0
   -0.0571    2.5556    0.7184 H   0  0  0  0  0  0  0  0  0  0  0  0
   -1.8919    1.3966    0.3675 H   0  0  0  0  0  0  0  0  0  0  0  0
   -2.3082    2.0896   -1.2008 H   0  0  0  0  0  0  0  0  0  0  0  0
    3.1927   -3.3646   -1.9442 H   0  0  0  0  0  0  0  0  0  0  0  0
    2.1854   -2.6116   -3.1978 H   0  0  0  0  0  0  0  0  0  0  0  0
    3.4389   -1.6513   -2.3386 H   0  0  0  0  0  0  0  0  0  0  0  0
   -2.6947   -0.0237    2.7072 H   0  0  0  0  0  0  0  0  0  0  0  0
   -1.5596   -0.7291    3.9098 H   0  0  0  0  0  0  0  0  0  0  0  0
   -2.7375   -1.7603    3.0708 H   0  0  0  0  0  0  0  0  0  0  0  0
   -5.9395   -0.8080   -0.4499 H   0  0  0  0  0  0  0  0  0  0  0  0
   -4.9567   -1.0886   -1.9023 H   0  0  0  0  0  0  0  0  0  0  0  0
   -4.4884   -1.8246   -0.3306 H   0  0  0  0  0  0  0  0  0  0  0  0
  1 16  1  0  0  0  0
  2 14  1  0  0  0  0
  2 16  1  0  0  0  0
  3 12  1  0  0  0  0
  3 18  1  0  0  0  0
  4 13  1  0  0  0  0
  4 19  1  0  0  0  0
  5 17  1  0  0  0  0
  5 21  1  0  0  0  0
  6 18  2  0  0  0  0
  7 19  2  0  0  0  0
  8 21  2  0  0  0  0
  9 10  2  0  0  0  0
  9 15  1  0  0  0  0
 10 11  2  0  0  0  0
 12 13  1  0  0  0  0
 12 14  1  0  0  0  0
 12 24  1  0  0  0  0
 13 15  1  0  0  0  0
 13 25  1  0  0  0  0
 14 17  1  0  0  0  0
 14 26  1  0  0  0  0
 15 16  1  0  0  0  0
 15 27  1  0  0  0  0
 16 28  1  0  0  0  0
 17 29  1  0  0  0  0
 17 30  1  0  0  0  0
 18 20  1  0  0  0  0
 19 22  1  0  0  0  0
 20 31  1  0  0  0  0
 20 32  1  0  0  0  0
 20 33  1  0  0  0  0
 21 23  1  0  0  0  0
 22 34  1  0  0  0  0
 22 35  1  0  0  0  0
 22 36  1  0  0  0  0
 23 37  1  0  0  0  0
 23 38  1  0  0  0  0
 23 39  1  0  0  0  0
M  CHG  2  10   1  11  -1
M  END
> <PUBCHEM_COMPOUND_CID>
128927

> <PUBCHEM_CONFORMER_RMSD>
1

> <PUBCHEM_CONFORMER_DIVERSEORDER>
1
44
59
33
47
64
7
2
94
13
18
97
66
70
58
85
9
84
96
24
31
62
40
91
76
21
67
80
46
12
98
69
30
78
42
77
23
43
20
82
92
72
19
17
93
49
90
87
53
16
10
55
83
41
39
56
6
32
4
5
86
3
48
14
89
88
36
68
28
61
63
37
26
34
22
50
73
52
8
75
57
60
35
54
95
27
65
15
45
11
81
79
51
71
74
38
25
29

> <PUBCHEM_MMFF94_PARTIAL_CHARGES>
23
1 -0.29
10 0.69
11 -0.37
12 0.28
13 0.28
14 0.28
15 0.25
16 0.57
17 0.28
18 0.66
19 0.66
2 -0.56
20 0.06
21 0.66
22 0.06
23 0.06
3 -0.43
4 -0.43
5 -0.43
6 -0.57
7 -0.57
8 -0.57
9 -0.56

> <PUBCHEM_EFFECTIVE_ROTOR_COUNT>
9.2

> <PUBCHEM_PHARMACOPHORE_FEATURES>
5
1 2 acceptor
1 6 acceptor
1 7 acceptor
1 8 acceptor
6 2 12 13 14 15 16 rings

> <PUBCHEM_HEAVY_ATOM_COUNT>
23

> <PUBCHEM_ATOM_DEF_STEREO_COUNT>
5

> <PUBCHEM_ATOM_UDEF_STEREO_COUNT>
0

> <PUBCHEM_BOND_DEF_STEREO_COUNT>
0

> <PUBCHEM_BOND_UDEF_STEREO_COUNT>
0

> <PUBCHEM_ISOTOPIC_ATOM_COUNT>
0

> <PUBCHEM_COMPONENT_COUNT>
1

> <PUBCHEM_CACTVS_TAUTO_COUNT>
1

> <PUBCHEM_CONFORMER_ID>
0001F79F00000001

> <PUBCHEM_MMFF94_ENERGY>
49.1325

> <PUBCHEM_FEATURE_SELFOVERLAP>
25.375

> <PUBCHEM_SHAPE_FINGERPRINT>
10906281 52 18335713727712162772
11578080 2 17610670523001912037
12011746 2 17531513343791778761
12035758 1 18260545649475036632
12293681 25 18262254247505795619
12293681 4 18407762530088984945
12592029 89 18272923930206252038
12788726 201 17615991914319324054
13140716 1 18197202861792324940
14115302 16 16443066101293876099
14787075 74 17895182286340412360
16945 1 18270420367767585808
20511035 2 17899414469883958124
20600515 1 17749115460930819212
20691752 17 17750804229149664149
21452121 99 16806180967887692547
23402539 116 18187911872673552061
23419403 2 17973763334416007829
23526113 38 18262531311529227535
23558518 356 17904204724730326920
70251023 43 17841166449880834070
9999458 23 16515671277940102916

> <PUBCHEM_SHAPE_MULTIPOLES>
419.17
6.68
3.08
2.12
5.09
0.95
-1.14
-0.15
0.46
-2.66
0.97
0.42
-1.2
1.38

> <PUBCHEM_SHAPE_SELFOVERLAP>
839.831

> <PUBCHEM_SHAPE_VOLUME>
242.9

> <PUBCHEM_COORDINATE_TYPE>
2
5
10

$$$$
