REMARK  Name = 128909
REMARK  4 active torsions:
REMARK  status: ('A' for Active; 'I' for Inactive)
REMARK    1  A    between atoms: N_3  and  C1*_15
REMARK    2  A    between atoms: C3*_16  and  O3*_19
REMARK    3  A    between atoms: C4*_18  and  C5*_21
REMARK    4  A    between atoms: C5*_21  and  O5*_22
REMARK                            x       y       z     vdW  Elec       q    Type
REMARK                         _______ _______ _______ _____ _____    ______ ____
ROOT
ATOM      1  O   UNL     1      -3.845   0.506  -0.001  0.00  0.00    -0.380 OA
ATOM      2  O   UNL     1      -4.181  -1.724   0.378  0.00  0.00    -0.243 OA
ATOM      3  N   UNL     1       0.072  -0.248   0.162  0.00  0.00    -0.239 N 
ATOM      4  N   UNL     1      -1.234  -2.044   0.458  0.00  0.00    -0.238 NA
ATOM      5  N   UNL     1      -1.631   1.445  -0.142  0.00  0.00    -0.338 NA
ATOM      6  N   UNL     1      -3.592   2.729  -0.379  0.00  0.00    -0.302 N 
ATOM      7  C   UNL     1      -1.219   0.187   0.077  0.00  0.00    +0.215 C 
ATOM      8  C   UNL     1       0.008  -1.603   0.394  0.00  0.00    +0.224 C 
ATOM      9  C   UNL     1      -1.987  -0.925   0.260  0.00  0.00    +0.198 C 
ATOM     10  C   UNL     1      -3.409  -0.786   0.224  0.00  0.00    +0.370 C 
ATOM     11  C   UNL     1      -2.937   1.546  -0.171  0.00  0.00    +0.345 C 
ATOM     12  H   UNL     1      -4.576   2.751  -0.391  0.00  0.00    +0.148 HD
ATOM     13  H   UNL     1      -3.079   3.558  -0.517  0.00  0.00    +0.148 HD
ENDROOT
BRANCH   3  15
ATOM     14  O4* UNL     1       2.321   0.018   0.885  0.00  0.00    -0.335 OA
ATOM     15  C1* UNL     1       1.292   0.553   0.036  0.00  0.00    +0.198 C 
ATOM     16  C3* UNL     1       3.046  -0.298  -1.345  0.00  0.00    +0.144 C 
ATOM     17  C2* UNL     1       1.842   0.617  -1.387  0.00  0.00    +0.083 C 
ATOM     18  C4* UNL     1       3.506  -0.215   0.102  0.00  0.00    +0.173 C 
BRANCH  16  19
ATOM     19  O3* UNL     1       2.641  -1.635  -1.625  0.00  0.00    -0.382 OA
ATOM     20  H3* UNL     1       2.346  -1.697  -2.547  0.00  0.00    +0.210 HD
ENDBRANCH  16  19
BRANCH  18  21
ATOM     21  C5* UNL     1       4.472   0.937   0.351  0.00  0.00    +0.169 C 
BRANCH  21  22
ATOM     22  O5* UNL     1       4.836   0.942   1.722  0.00  0.00    -0.379 OA
ATOM     23  H5* UNL     1       5.451   1.672   1.891  0.00  0.00    +0.211 HD
ENDBRANCH  21  22
ENDBRANCH  18  21
ENDBRANCH   3  15
TORSDOF 4
