REMARK  Name = 128922
REMARK  3 active torsions:
REMARK  status: ('A' for Active; 'I' for Inactive)
REMARK    1  A    between atoms: N_3  and  C_16
REMARK    2  A    between atoms: C_9  and  C_13
REMARK    3  A    between atoms: C_16  and  C_18
REMARK                            x       y       z     vdW  Elec       q    Type
REMARK                         _______ _______ _______ _____ _____    ______ ____
ROOT
ATOM      1  O   UNL     1       1.685   2.144   0.189  0.00  0.00    -0.248 OA
ATOM      2  N   UNL     1      -0.222   0.958   0.072  0.00  0.00    -0.125 N 
ATOM      3  N   UNL     1       1.695  -0.214   0.380  0.00  0.00    -0.154 N 
ATOM      4  N   UNL     1      -0.991   2.051  -0.101  0.00  0.00    -0.171 NA
ATOM      5  N   UNL     1      -0.272  -1.378   0.253  0.00  0.00    -0.130 NA
ATOM      6  N   UNL     1       0.974  -1.392   0.392  0.00  0.00    -0.040 NA
ATOM      7  C   UNL     1      -0.923  -0.210   0.087  0.00  0.00    +0.171 C 
ATOM      8  C   UNL     1       1.146   1.049   0.217  0.00  0.00    +0.350 C 
ATOM      9  C   UNL     1      -2.242   0.141  -0.086  0.00  0.00    +0.177 C 
ATOM     10  C   UNL     1      -2.223   1.544  -0.197  0.00  0.00    +0.108 C 
ENDROOT
BRANCH   9  13
ATOM     11  O   UNL     1      -3.224  -1.998  -0.008  0.00  0.00    -0.274 OA
ATOM     12  N   UNL     1      -4.639  -0.222  -0.324  0.00  0.00    -0.328 N 
ATOM     13  C   UNL     1      -3.356  -0.757  -0.139  0.00  0.00    +0.232 C 
ATOM     14  H   UNL     1      -5.420  -0.820  -0.363  0.00  0.00    +0.145 HD
ATOM     15  H   UNL     1      -4.759   0.751  -0.415  0.00  0.00    +0.145 HD
ENDBRANCH   9  13
BRANCH   3  16
ATOM     16  C   UNL     1       3.127  -0.382   0.552  0.00  0.00    +0.138 C 
BRANCH  16  18
ATOM     17 CL   UNL     1       5.607  -0.771  -0.520  0.00  0.00    -0.112 Cl
ATOM     18  C   UNL     1       3.856  -0.563  -0.769  0.00  0.00    +0.118 C 
ENDBRANCH  16  18
ENDBRANCH   3  16
TORSDOF 3
