REMARK  Name = 128939
REMARK  7 active torsions:
REMARK  status: ('A' for Active; 'I' for Inactive)
REMARK    1  A    between atoms: C_11  and  O_21
REMARK    2  A    between atoms: O_21  and  C_23
REMARK    3  A    between atoms: C_23  and  C_24
REMARK    4  A    between atoms: C_24  and  N_27
REMARK    5  A    between atoms: N_28  and  N_32
REMARK    6  A    between atoms: N_28  and  C_33
REMARK    7  A    between atoms: C_33  and  C_35
REMARK                            x       y       z     vdW  Elec       q    Type
REMARK                         _______ _______ _______ _____ _____    ______ ____
ROOT
ATOM      1  O   UNL     1       9.005  -0.121  -0.372  0.00  0.00    -0.296 OA
ATOM      2  C   UNL     1       2.690   0.340   0.748  0.00  0.00    +0.000 C 
ATOM      3  C   UNL     1       3.473  -0.190  -0.486  0.00  0.00    +0.000 C 
ATOM      4  C   UNL     1       1.306   0.925   0.383  0.00  0.00    +0.003 C 
ATOM      5  C   UNL     1       0.445  -0.004  -0.501  0.00  0.00    +0.037 C 
ATOM      6  C   UNL     1       4.887  -0.771  -0.093  0.00  0.00    +0.001 C 
ATOM      7  C   UNL     1       5.656   0.335   0.700  0.00  0.00    +0.007 C 
ATOM      8  C   UNL     1       2.595  -1.169  -1.291  0.00  0.00    +0.000 C 
ATOM      9  C   UNL     1       1.261  -0.542  -1.699  0.00  0.00    +0.003 C 
ATOM     10  C   UNL     1       3.518   1.347   1.560  0.00  0.00    +0.000 C 
ATOM     11  C   UNL     1      -0.658   0.963  -0.991  0.00  0.00    +0.169 C 
ATOM     12  C   UNL     1       1.328   2.259  -0.384  0.00  0.00    +0.004 C 
ATOM     13  C   UNL     1       4.889   0.800   1.942  0.00  0.00    +0.000 C 
ATOM     14  C   UNL     1       0.063   2.287  -1.249  0.00  0.00    +0.044 C 
ATOM     15  C   UNL     1       5.717  -1.076  -1.374  0.00  0.00    +0.008 C 
ATOM     16  C   UNL     1      -0.139  -1.175   0.309  0.00  0.00    +0.004 C 
ATOM     17  C   UNL     1       4.742  -2.079   0.726  0.00  0.00    +0.000 C 
ATOM     18  C   UNL     1       7.088  -0.066   1.062  0.00  0.00    +0.064 C 
ATOM     19  C   UNL     1       7.166  -1.471  -1.096  0.00  0.00    +0.065 C 
ATOM     20  C   UNL     1       7.845  -0.484  -0.177  0.00  0.00    +0.151 C 
ENDROOT
BRANCH  11  21
ATOM     21  O   UNL     1      -1.640   1.173   0.022  0.00  0.00    -0.451 OA
BRANCH  21  23
ATOM     22  O   UNL     1      -3.206   1.647  -1.592  0.00  0.00    -0.248 OA
ATOM     23  C   UNL     1      -2.887   1.514  -0.415  0.00  0.00    +0.335 C 
BRANCH  23  24
ATOM     24  C   UNL     1      -3.866   1.729   0.730  0.00  0.00    +0.173 C 
ATOM     25  C   UNL     1      -3.183   1.479   2.065  0.00  0.00    +0.033 C 
BRANCH  24  27
ATOM     26  O   UNL     1      -3.875  -1.087   0.784  0.00  0.00    -0.251 OA
ATOM     27  N   UNL     1      -5.032   0.892   0.607  0.00  0.00    -0.280 N 
ATOM     28  N   UNL     1      -6.175  -1.180   0.514  0.00  0.00    -0.163 N 
ATOM     29  C   UNL     1      -4.954  -0.501   0.644  0.00  0.00    +0.321 C 
ATOM     30  H   UNL     1      -5.913   1.316   0.494  0.00  0.00    +0.151 HD
BRANCH  28  32
ATOM     31  O   UNL     1      -7.346  -3.140   0.413  0.00  0.00    -0.078 OA
ATOM     32  N   UNL     1      -6.210  -2.670   0.537  0.00  0.00    +0.054 NA
ENDBRANCH  28  32
BRANCH  28  33
ATOM     33  C   UNL     1      -7.431  -0.458   0.350  0.00  0.00    +0.134 C 
BRANCH  33  35
ATOM     34 CL   UNL     1      -9.304   0.690  -1.270  0.00  0.00    -0.112 Cl
ATOM     35  C   UNL     1      -7.769  -0.198  -1.108  0.00  0.00    +0.118 C 
ENDBRANCH  33  35
ENDBRANCH  28  33
ENDBRANCH  24  27
ENDBRANCH  23  24
ENDBRANCH  21  23
ENDBRANCH  11  21
TORSDOF 7
