REMARK  Name = 129051
REMARK  4 active torsions:
REMARK  status: ('A' for Active; 'I' for Inactive)
REMARK    1  A    between atoms: C_14  and  O_22
REMARK    2  A    between atoms: C_16  and  O_24
REMARK    3  A    between atoms: C_17  and  O_26
REMARK    4  A    between atoms: C_20  and  O_28
REMARK                            x       y       z     vdW  Elec       q    Type
REMARK                         _______ _______ _______ _____ _____    ______ ____
ROOT
ATOM      1  O   UNL     1      -0.672   2.533   0.012  0.00  0.00    -0.418 OA
ATOM      2  O   UNL     1       0.385  -2.399   0.162  0.00  0.00    -0.418 OA
ATOM      3  O   UNL     1      -3.573   2.600   0.041  0.00  0.00    -0.431 OA
ATOM      4  O   UNL     1      -4.939   0.616   0.121  0.00  0.00    -0.431 OA
ATOM      5  O   UNL     1      -1.651  -3.425   0.216  0.00  0.00    -0.244 OA
ATOM      6  O   UNL     1       1.369   3.547  -0.041  0.00  0.00    -0.244 OA
ATOM      7  C   UNL     1      -0.861   0.112   0.094  0.00  0.00    +0.050 A 
ATOM      8  C   UNL     1       0.570   0.020   0.082  0.00  0.00    +0.050 A 
ATOM      9  C   UNL     1      -1.658  -1.044   0.140  0.00  0.00    +0.116 A 
ATOM     10  C   UNL     1      -1.458   1.368   0.059  0.00  0.00    +0.186 A 
ATOM     11  C   UNL     1       1.364   1.166   0.035  0.00  0.00    +0.116 A 
ATOM     12  C   UNL     1       1.178  -1.230   0.116  0.00  0.00    +0.186 A 
ATOM     13  C   UNL     1      -2.831   1.462   0.071  0.00  0.00    +0.214 A 
ATOM     14  C   UNL     1      -3.056  -0.941   0.152  0.00  0.00    +0.182 A 
ATOM     15  C   UNL     1      -3.608   0.328   0.116  0.00  0.00    +0.213 A 
ATOM     16  C   UNL     1       2.758   1.048   0.024  0.00  0.00    +0.182 A 
ATOM     17  C   UNL     1       2.562  -1.368   0.105  0.00  0.00    +0.210 A 
ATOM     18  C   UNL     1      -1.013  -2.381   0.176  0.00  0.00    +0.349 A 
ATOM     19  C   UNL     1       0.726   2.506  -0.001  0.00  0.00    +0.349 A 
ATOM     20  C   UNL     1       3.352  -0.219   0.059  0.00  0.00    +0.209 A 
ATOM     21  C   UNL     1      -4.909   2.057   0.073  0.00  0.00    +0.430 C 
ENDROOT
BRANCH  14  22
ATOM     22  O   UNL     1      -3.881  -2.019   0.198  0.00  0.00    -0.468 OA
ATOM     23  C   UNL     1      -4.290  -2.581  -1.050  0.00  0.00    +0.253 C 
ENDBRANCH  14  22
BRANCH  16  24
ATOM     24  O   UNL     1       3.575   2.140  -0.021  0.00  0.00    -0.468 OA
ATOM     25  C   UNL     1       3.948   2.615  -1.312  0.00  0.00    +0.253 C 
ENDBRANCH  16  24
BRANCH  17  26
ATOM     26  O   UNL     1       3.136  -2.601   0.137  0.00  0.00    -0.465 OA
ATOM     27  C   UNL     1       3.396  -3.230  -1.118  0.00  0.00    +0.253 C 
ENDBRANCH  17  26
BRANCH  20  28
ATOM     28  O   UNL     1       4.712  -0.334   0.046  0.00  0.00    -0.465 OA
ATOM     29  C   UNL     1       5.371  -0.346   1.309  0.00  0.00    +0.253 C 
ENDBRANCH  20  28
TORSDOF 4
