REMARK  Name = 129010935
REMARK  15 active torsions:
REMARK  status: ('A' for Active; 'I' for Inactive)
REMARK    1  A    between atoms: C_3  and  C_19
REMARK    2  A    between atoms: C_4  and  C_10
REMARK    3  A    between atoms: C_5  and  O_8
REMARK    4  A    between atoms: C_10  and  C_11
REMARK    5  A    between atoms: C_11  and  C_13
REMARK    6  A    between atoms: C_13  and  C_14
REMARK    7  A    between atoms: C_14  and  C_15
REMARK    8  A    between atoms: C_15  and  C_16
REMARK    9  A    between atoms: C_16  and  C_17
REMARK   10  A    between atoms: C_19  and  C_20
REMARK   11  A    between atoms: C_21  and  C_22
REMARK   12  A    between atoms: C_22  and  C_23
REMARK   13  A    between atoms: C_23  and  C_24
REMARK   14  A    between atoms: C_24  and  C_26
REMARK   15  A    between atoms: C_26  and  O_27
REMARK                            x       y       z     vdW  Elec       q    Type
REMARK                         _______ _______ _______ _____ _____    ______ ____
ROOT
ATOM      1  O   UNL     1      -0.603   2.405  -0.838  0.00  0.00    -0.452 OA
ATOM      2  O   UNL     1      -1.229   3.960  -2.336  0.00  0.00    -0.250 OA
ATOM      3  C   UNL     1      -2.264   1.087   0.443  0.00  0.00    +0.072 C 
ATOM      4  C   UNL     1      -0.853   1.684   0.396  0.00  0.00    +0.172 C 
ATOM      5  C   UNL     1      -3.272   2.197   0.137  0.00  0.00    +0.125 C 
ATOM      6  C   UNL     1      -2.987   2.786  -1.231  0.00  0.00    +0.139 C 
ATOM      7  C   UNL     1      -1.542   3.128  -1.486  0.00  0.00    +0.319 C 
ENDROOT
BRANCH   5   8
ATOM      8  O   UNL     1      -3.211   3.247   1.100  0.00  0.00    -0.384 OA
ATOM      9  H   UNL     1      -3.391   2.887   1.982  0.00  0.00    +0.210 HD
ENDBRANCH   5   8
BRANCH   4  10
ATOM     10  C   UNL     1       0.243   0.627   0.500  0.00  0.00    +0.051 C 
BRANCH  10  11
ATOM     11  C   UNL     1       1.644   1.220   0.367  0.00  0.00    +0.068 C 
BRANCH  11  13
ATOM     12  O   UNL     1       2.532  -1.022   0.488  0.00  0.00    -0.296 OA
ATOM     13  C   UNL     1       2.758   0.183   0.399  0.00  0.00    +0.151 C 
BRANCH  13  14
ATOM     14  C   UNL     1       4.169   0.737   0.281  0.00  0.00    +0.065 C 
BRANCH  14  15
ATOM     15  C   UNL     1       5.236  -0.352   0.355  0.00  0.00    +0.008 C 
BRANCH  15  16
ATOM     16  C   UNL     1       6.641   0.231   0.195  0.00  0.00    +0.000 C 
BRANCH  16  17
ATOM     17  C   UNL     1       7.706  -0.864   0.236  0.00  0.00    +0.000 C 
ATOM     18  C   UNL     1       9.101  -0.291   0.043  0.00  0.00    +0.000 C 
ENDBRANCH  16  17
ENDBRANCH  15  16
ENDBRANCH  14  15
ENDBRANCH  13  14
ENDBRANCH  11  13
ENDBRANCH  10  11
ENDBRANCH   4  10
BRANCH   3  19
ATOM     19  C   UNL     1      -2.563   0.411   1.783  0.00  0.00    +0.032 C 
BRANCH  19  20
ATOM     20  C   UNL     1      -3.923  -0.204   1.936  0.00  0.00    -0.031 C 
ATOM     21  C   UNL     1      -4.298  -1.447   1.597  0.00  0.00    -0.031 C 
BRANCH  21  22
ATOM     22  C   UNL     1      -3.372  -2.458   0.986  0.00  0.00    +0.026 C 
BRANCH  22  23
ATOM     23  C   UNL     1      -3.817  -2.941  -0.402  0.00  0.00    +0.016 C 
BRANCH  23  24
ATOM     24  C   UNL     1      -2.887  -3.988  -1.023  0.00  0.00    +0.110 C 
BRANCH  24  26
ATOM     25  O   UNL     1      -1.159  -2.335  -1.481  0.00  0.00    -0.250 OA
ATOM     26  C   UNL     1      -1.475  -3.493  -1.246  0.00  0.00    +0.314 C 
BRANCH  26  27
ATOM     27  O   UNL     1      -0.574  -4.509  -1.199  0.00  0.00    -0.480 OA
ATOM     28  H   UNL     1      -0.861  -5.382  -1.015  0.00  0.00    +0.295 HD
ENDBRANCH  26  27
ENDBRANCH  24  26
ENDBRANCH  23  24
ENDBRANCH  22  23
ENDBRANCH  21  22
ENDBRANCH  19  20
ENDBRANCH   3  19
TORSDOF 15
