REMARK  Name = 129025
REMARK  6 active torsions:
REMARK  status: ('A' for Active; 'I' for Inactive)
REMARK    1  A    between atoms: C_1  and  O_16
REMARK    2  A    between atoms: C_2  and  N_15
REMARK    3  A    between atoms: C_3  and  C_9
REMARK    4  A    between atoms: O_16  and  C_18
REMARK    5  A    between atoms: C_18  and  C_19
REMARK    6  A    between atoms: C_22  and  O_25
REMARK                            x       y       z     vdW  Elec       q    Type
REMARK                         _______ _______ _______ _____ _____    ______ ____
ROOT
ATOM      1  C   UNL     1      -1.228  -0.370   0.362  0.00  0.00    +0.171 C 
ATOM      2  C   UNL     1      -1.956   0.798   0.309  0.00  0.00    +0.177 C 
ATOM      3  C   UNL     1      -3.966  -0.525   0.096  0.00  0.00    +0.032 C 
ATOM      4  C   UNL     1      -3.342   0.720   0.174  0.00  0.00    +0.030 C 
ATOM      5  C   UNL     1      -1.818  -1.613   0.287  0.00  0.00    +0.039 C 
ATOM      6  C   UNL     1      -3.204  -1.692   0.152  0.00  0.00    +0.006 C 
ENDROOT
BRANCH   3   9
ATOM      7  N   UNL     1      -6.062  -1.838  -0.125  0.00  0.00    -0.343 N 
ATOM      8  N   UNL     1      -6.132   0.498  -0.102  0.00  0.00    -0.285 NA
ATOM      9  C   UNL     1      -5.412  -0.608  -0.044  0.00  0.00    +0.117 C 
ATOM     10  H   UNL     1      -7.042  -1.871  -0.220  0.00  0.00    +0.144 HD
ATOM     11  H   UNL     1      -5.543  -2.673  -0.087  0.00  0.00    +0.144 HD
ATOM     12  H   UNL     1      -7.110   0.444  -0.197  0.00  0.00    +0.188 HD
ENDBRANCH   3   9
BRANCH   2  15
ATOM     13  O   UNL     1      -2.054   3.102   0.338  0.00  0.00    -0.126 OA
ATOM     14  O   UNL     1      -0.090   2.138   0.511  0.00  0.00    -0.126 OA
ATOM     15  N   UNL     1      -1.336   2.076   0.390  0.00  0.00    +0.061 N 
ENDBRANCH   2  15
BRANCH   1  16
ATOM     16  O   UNL     1       0.162  -0.318   0.496  0.00  0.00    -0.419 OA
BRANCH  16  18
ATOM     17  O   UNL     1       0.312  -0.278  -1.830  0.00  0.00    -0.244 OA
ATOM     18  C   UNL     1       0.851  -0.277  -0.715  0.00  0.00    +0.346 C 
BRANCH  18  19
ATOM     19  C   UNL     1       2.288  -0.224  -0.497  0.00  0.00    +0.076 C 
ATOM     20  C   UNL     1       3.108   0.430  -1.415  0.00  0.00    +0.010 C 
ATOM     21  C   UNL     1       2.845  -0.827   0.631  0.00  0.00    +0.010 C 
ATOM     22  C   UNL     1       5.044  -0.121  -0.078  0.00  0.00    +0.139 C 
ATOM     23  C   UNL     1       4.487   0.482  -1.206  0.00  0.00    +0.037 C 
ATOM     24  C   UNL     1       4.223  -0.775   0.840  0.00  0.00    +0.037 C 
BRANCH  22  25
ATOM     25  O   UNL     1       6.389  -0.071   0.126  0.00  0.00    -0.471 OA
ATOM     26  C   UNL     1       6.892  -0.709   1.299  0.00  0.00    +0.252 C 
ENDBRANCH  22  25
ENDBRANCH  18  19
ENDBRANCH  16  18
ENDBRANCH   1  16
TORSDOF 6
