129010935
  -OEChem-03292013293D

 58 58  0     1  0  0  0  0  0999 V2000
   -0.6034    2.4046   -0.8376 O   0  0  0  0  0  0  0  0  0  0  0  0
   -3.2114    3.2468    1.0998 O   0  0  0  0  0  0  0  0  0  0  0  0
   -1.2291    3.9602   -2.3362 O   0  0  0  0  0  0  0  0  0  0  0  0
    2.5322   -1.0223    0.4881 O   0  0  0  0  0  0  0  0  0  0  0  0
   -0.5735   -4.5090   -1.1989 O   0  0  0  0  0  0  0  0  0  0  0  0
   -1.1587   -2.3352   -1.4811 O   0  0  0  0  0  0  0  0  0  0  0  0
   -2.2644    1.0872    0.4434 C   0  0  2  0  0  0  0  0  0  0  0  0
   -0.8533    1.6842    0.3955 C   0  0  1  0  0  0  0  0  0  0  0  0
   -3.2715    2.1971    0.1371 C   0  0  2  0  0  0  0  0  0  0  0  0
    0.2428    0.6275    0.5004 C   0  0  0  0  0  0  0  0  0  0  0  0
   -2.5632    0.4110    1.7830 C   0  0  0  0  0  0  0  0  0  0  0  0
   -2.9873    2.7864   -1.2314 C   0  0  0  0  0  0  0  0  0  0  0  0
    1.6436    1.2199    0.3670 C   0  0  0  0  0  0  0  0  0  0  0  0
   -1.5422    3.1285   -1.4865 C   0  0  0  0  0  0  0  0  0  0  0  0
   -3.9231   -0.2045    1.9359 C   0  0  0  0  0  0  0  0  0  0  0  0
    2.7578    0.1834    0.3989 C   0  0  0  0  0  0  0  0  0  0  0  0
    4.1694    0.7373    0.2805 C   0  0  0  0  0  0  0  0  0  0  0  0
   -4.2983   -1.4473    1.5972 C   0  0  0  0  0  0  0  0  0  0  0  0
    5.2364   -0.3525    0.3555 C   0  0  0  0  0  0  0  0  0  0  0  0
   -3.3723   -2.4579    0.9855 C   0  0  0  0  0  0  0  0  0  0  0  0
    6.6405    0.2314    0.1949 C   0  0  0  0  0  0  0  0  0  0  0  0
   -3.8167   -2.9413   -0.4018 C   0  0  0  0  0  0  0  0  0  0  0  0
    7.7061   -0.8635    0.2363 C   0  0  0  0  0  0  0  0  0  0  0  0
   -2.8870   -3.9882   -1.0226 C   0  0  0  0  0  0  0  0  0  0  0  0
    9.1012   -0.2907    0.0433 C   0  0  0  0  0  0  0  0  0  0  0  0
   -1.4746   -3.4934   -1.2462 C   0  0  0  0  0  0  0  0  0  0  0  0
   -2.3519    0.3351   -0.3538 H   0  0  0  0  0  0  0  0  0  0  0  0
   -0.7158    2.4071    1.2098 H   0  0  0  0  0  0  0  0  0  0  0  0
   -4.2955    1.8076    0.1453 H   0  0  0  0  0  0  0  0  0  0  0  0
    0.1840    0.0904    1.4524 H   0  0  0  0  0  0  0  0  0  0  0  0
    0.1069   -0.1162   -0.2949 H   0  0  0  0  0  0  0  0  0  0  0  0
   -2.4461    1.1429    2.5942 H   0  0  0  0  0  0  0  0  0  0  0  0
   -1.8114   -0.3519    2.0061 H   0  0  0  0  0  0  0  0  0  0  0  0
   -3.5696    3.7055   -1.3671 H   0  0  0  0  0  0  0  0  0  0  0  0
   -3.2823    2.0727   -2.0096 H   0  0  0  0  0  0  0  0  0  0  0  0
    1.8216    1.9274    1.1848 H   0  0  0  0  0  0  0  0  0  0  0  0
    1.7465    1.7572   -0.5822 H   0  0  0  0  0  0  0  0  0  0  0  0
   -4.6857    0.4441    2.3636 H   0  0  0  0  0  0  0  0  0  0  0  0
   -3.9009    3.8944    0.8747 H   0  0  0  0  0  0  0  0  0  0  0  0
    4.2418    1.2662   -0.6764 H   0  0  0  0  0  0  0  0  0  0  0  0
    4.3184    1.4593    1.0910 H   0  0  0  0  0  0  0  0  0  0  0  0
   -5.3272   -1.7509    1.7713 H   0  0  0  0  0  0  0  0  0  0  0  0
    5.1606   -0.8791    1.3149 H   0  0  0  0  0  0  0  0  0  0  0  0
    5.0568   -1.0983   -0.4290 H   0  0  0  0  0  0  0  0  0  0  0  0
   -3.3344   -3.3218    1.6614 H   0  0  0  0  0  0  0  0  0  0  0  0
   -2.3471   -2.0852    0.9232 H   0  0  0  0  0  0  0  0  0  0  0  0
    6.7064    0.7703   -0.7583 H   0  0  0  0  0  0  0  0  0  0  0  0
    6.8298    0.9606    0.9920 H   0  0  0  0  0  0  0  0  0  0  0  0
   -4.8254   -3.3677   -0.3330 H   0  0  0  0  0  0  0  0  0  0  0  0
   -3.8858   -2.0775   -1.0757 H   0  0  0  0  0  0  0  0  0  0  0  0
    7.6616   -1.3900    1.1967 H   0  0  0  0  0  0  0  0  0  0  0  0
    7.5113   -1.6035   -0.5488 H   0  0  0  0  0  0  0  0  0  0  0  0
   -3.2832   -4.3114   -1.9912 H   0  0  0  0  0  0  0  0  0  0  0  0
   -2.8510   -4.8620   -0.3614 H   0  0  0  0  0  0  0  0  0  0  0  0
    9.1881    0.2134   -0.9245 H   0  0  0  0  0  0  0  0  0  0  0  0
    9.8475   -1.0906    0.0778 H   0  0  0  0  0  0  0  0  0  0  0  0
    9.3408    0.4317    0.8301 H   0  0  0  0  0  0  0  0  0  0  0  0
    0.3410   -4.1937   -1.3616 H   0  0  0  0  0  0  0  0  0  0  0  0
  1  8  1  0  0  0  0
  1 14  1  0  0  0  0
  2  9  1  0  0  0  0
  2 39  1  0  0  0  0
  3 14  2  0  0  0  0
  4 16  2  0  0  0  0
  5 26  1  0  0  0  0
  5 58  1  0  0  0  0
  6 26  2  0  0  0  0
  7  8  1  0  0  0  0
  7  9  1  0  0  0  0
  7 11  1  0  0  0  0
  7 27  1  0  0  0  0
  8 10  1  0  0  0  0
  8 28  1  0  0  0  0
  9 12  1  0  0  0  0
  9 29  1  0  0  0  0
 10 13  1  0  0  0  0
 10 30  1  0  0  0  0
 10 31  1  0  0  0  0
 11 15  1  0  0  0  0
 11 32  1  0  0  0  0
 11 33  1  0  0  0  0
 12 14  1  0  0  0  0
 12 34  1  0  0  0  0
 12 35  1  0  0  0  0
 13 16  1  0  0  0  0
 13 36  1  0  0  0  0
 13 37  1  0  0  0  0
 15 18  2  0  0  0  0
 15 38  1  0  0  0  0
 16 17  1  0  0  0  0
 17 19  1  0  0  0  0
 17 40  1  0  0  0  0
 17 41  1  0  0  0  0
 18 20  1  0  0  0  0
 18 42  1  0  0  0  0
 19 21  1  0  0  0  0
 19 43  1  0  0  0  0
 19 44  1  0  0  0  0
 20 22  1  0  0  0  0
 20 45  1  0  0  0  0
 20 46  1  0  0  0  0
 21 23  1  0  0  0  0
 21 47  1  0  0  0  0
 21 48  1  0  0  0  0
 22 24  1  0  0  0  0
 22 49  1  0  0  0  0
 22 50  1  0  0  0  0
 23 25  1  0  0  0  0
 23 51  1  0  0  0  0
 23 52  1  0  0  0  0
 24 26  1  0  0  0  0
 24 53  1  0  0  0  0
 24 54  1  0  0  0  0
 25 55  1  0  0  0  0
 25 56  1  0  0  0  0
 25 57  1  0  0  0  0
M  END
> <PUBCHEM_COMPOUND_CID>
129010935

> <PUBCHEM_CONFORMER_RMSD>
1.2

> <PUBCHEM_CONFORMER_DIVERSEORDER>
1
17
76
28
40
120
29
77
155
191
80
100
121
131
185
84
137
57
189
21
82
74
11
19
181
9
158
23
169
3
144
192
65
174
163
122
30
194
128
168
138
90
143
44
31
45
117
161
115
188
106
101
13
113
114
180
51
167
10
89
18
159
88
86
83
99
103
68
102
193
25
151
14
34
85
127
37
55
165
119
178
149
64
7
67
108
41
6
38
92
47
147
184
141
94
177
75
33
150
87
132
145
110
50
96
152
116
26
70
97
148
15
107
61
49
156
91
98
182
111
129
5
20
112
43
175
60
56
172
136
24
126
183
160
170
48
52
157
153
63
95
179
58
140
139
164
59
93
190
73
32
186
125
146
8
35
105
79
62
39
54
46
71
118
12
53
166
81
72
142
16
2
36
124
154
162
134
135
78
130
42
27
187
66
123
4
176
104
69
171
22
173
109
133

> <PUBCHEM_MMFF94_PARTIAL_CHARGES>
23
1 -0.43
11 0.14
12 0.06
13 0.06
14 0.66
15 -0.29
16 0.45
17 0.06
18 -0.29
2 -0.68
20 0.14
24 0.06
26 0.66
3 -0.57
38 0.15
39 0.4
4 -0.57
42 0.15
5 -0.65
58 0.5
6 -0.57
8 0.28
9 0.28

> <PUBCHEM_EFFECTIVE_ROTOR_COUNT>
14

> <PUBCHEM_PHARMACOPHORE_FEATURES>
11
1 2 acceptor
1 2 donor
1 25 hydrophobe
1 3 acceptor
1 4 acceptor
1 5 acceptor
1 6 acceptor
3 5 6 26 anion
4 17 19 21 23 hydrophobe
4 18 20 22 24 hydrophobe
6 1 7 8 9 12 14 rings

> <PUBCHEM_HEAVY_ATOM_COUNT>
26

> <PUBCHEM_ATOM_DEF_STEREO_COUNT>
3

> <PUBCHEM_ATOM_UDEF_STEREO_COUNT>
0

> <PUBCHEM_BOND_DEF_STEREO_COUNT>
1

> <PUBCHEM_BOND_UDEF_STEREO_COUNT>
0

> <PUBCHEM_ISOTOPIC_ATOM_COUNT>
0

> <PUBCHEM_COMPONENT_COUNT>
1

> <PUBCHEM_CACTVS_TAUTO_COUNT>
3

> <PUBCHEM_CONFORMER_ID>
07B08CF700000001

> <PUBCHEM_MMFF94_ENERGY>
30.8204

> <PUBCHEM_FEATURE_SELFOVERLAP>
55.881

> <PUBCHEM_SHAPE_FINGERPRINT>
10291535 26 8358262552831128122
11014199 57 17836644501995107342
11069576 57 16758859323079173143
11524674 6 17846216631177242991
12522641 33 18195237829373430797
12717326 25 14620533224517831788
14674994 50 17773015653011454839
14856354 85 17531547429042604538
15276724 80 18268145547614782132
16989713 51 18411135866481247886
20578428 11 17396399634977138277
20771845 165 17901667064066230909
397830 11 17987787640653679272
4409770 3 18411128143871424263
4616759 239 10735580360108880150
484985 159 18339066181604356335
5080951 261 18190436355945546016
513202 73 18335139799774743386
513532 50 9256763084183574743

> <PUBCHEM_SHAPE_MULTIPOLES>
499.85
15.45
5.41
1.67
54.18
2.33
0.21
5.57
-3.8
-9.35
3.97
-2.43
-0.35
0.02

> <PUBCHEM_SHAPE_SELFOVERLAP>
977.963

> <PUBCHEM_SHAPE_VOLUME>
297.4

> <PUBCHEM_COORDINATE_TYPE>
2
5
10

$$$$
