REMARK  Name = 129089
REMARK  10 active torsions:
REMARK  status: ('A' for Active; 'I' for Inactive)
REMARK    1  A    between atoms: C_1  and  C_4
REMARK    2  A    between atoms: C_1  and  N_16
REMARK    3  A    between atoms: C_1  and  C_32
REMARK    4  A    between atoms: C_10  and  O_13
REMARK    5  A    between atoms: C_17  and  C_19
REMARK    6  A    between atoms: C_19  and  O_20
REMARK    7  A    between atoms: C_19  and  C_22
REMARK    8  A    between atoms: C_22  and  C_24
REMARK    9  A    between atoms: C_22  and  O_30
REMARK   10  A    between atoms: C_32  and  C_33
REMARK                            x       y       z     vdW  Elec       q    Type
REMARK                         _______ _______ _______ _____ _____    ______ ____
ROOT
ATOM      1  C   UNL     1       0.467   1.849  -0.041  0.00  0.00    +0.112 C 
ENDROOT
BRANCH   1   4
ATOM      2  O   UNL     1       2.797   1.312   0.113  0.00  0.00    -0.447 OA
ATOM      3  O   UNL     1       5.030   0.965   0.243  0.00  0.00    -0.245 OA
ATOM      4  C   UNL     1       1.474   0.750   0.269  0.00  0.00    +0.191 C 
ATOM      5  C   UNL     1       1.304  -0.438  -0.667  0.00  0.00    +0.072 C 
ATOM      6  C   UNL     1       2.396  -1.418  -0.363  0.00  0.00    -0.009 C 
ATOM      7  C   UNL     1       3.649  -0.945   0.043  0.00  0.00    +0.105 C 
ATOM      8  C   UNL     1       3.897   0.513   0.151  0.00  0.00    +0.344 C 
ATOM      9  C   UNL     1       2.195  -2.795  -0.516  0.00  0.00    -0.004 C 
ATOM     10  C   UNL     1       4.689  -1.842   0.309  0.00  0.00    +0.140 C 
ATOM     11  C   UNL     1       3.231  -3.689  -0.246  0.00  0.00    +0.003 C 
ATOM     12  C   UNL     1       4.475  -3.213   0.168  0.00  0.00    +0.037 C 
BRANCH  10  13
ATOM     13  O   UNL     1       5.923  -1.435   0.719  0.00  0.00    -0.505 OA
ATOM     14  H   UNL     1       6.104  -0.522   0.825  0.00  0.00    +0.292 HD
ENDBRANCH  10  13
ENDBRANCH   1   4
BRANCH   1  16
ATOM     15  O   UNL     1      -1.435   1.681  -2.203  0.00  0.00    -0.272 OA
ATOM     16  N   UNL     1      -0.874   1.315   0.019  0.00  0.00    -0.300 N 
ATOM     17  C   UNL     1      -1.720   1.276  -1.077  0.00  0.00    +0.252 C 
ATOM     18  H   UNL     1      -1.202   0.963   0.878  0.00  0.00    +0.150 HD
BRANCH  17  19
ATOM     19  C   UNL     1      -3.071   0.639  -0.756  0.00  0.00    +0.212 C 
BRANCH  19  20
ATOM     20  O   UNL     1      -3.892   0.721  -1.913  0.00  0.00    -0.374 OA
ATOM     21  H   UNL     1      -4.755   0.321  -1.725  0.00  0.00    +0.211 HD
ENDBRANCH  19  20
BRANCH  19  22
ATOM     22  C   UNL     1      -2.987  -0.818  -0.280  0.00  0.00    +0.127 C 
BRANCH  22  24
ATOM     23  N   UNL     1      -5.006  -0.819   1.159  0.00  0.00    +0.387 N 
ATOM     24  C   UNL     1      -4.330  -1.461   0.023  0.00  0.00    -0.032 C 
ATOM     25  C   UNL     1      -4.208  -2.911   0.468  0.00  0.00    -0.021 C 
ATOM     26  C   UNL     1      -5.479  -3.159   1.267  0.00  0.00    -0.025 C 
ATOM     27  C   UNL     1      -6.041  -1.776   1.565  0.00  0.00    -0.082 C 
ATOM     28  H   UNL     1      -5.427   0.066   0.875  0.00  0.00    -0.084 HD
ATOM     29  H   UNL     1      -4.362  -0.601   1.919  0.00  0.00    -0.084 HD
ENDBRANCH  22  24
BRANCH  22  30
ATOM     30  O   UNL     1      -2.307  -1.590  -1.266  0.00  0.00    -0.384 OA
ATOM     31  H   UNL     1      -2.250  -2.513  -0.972  0.00  0.00    +0.210 HD
ENDBRANCH  22  30
ENDBRANCH  19  22
ENDBRANCH  17  19
ENDBRANCH   1  16
BRANCH   1  32
ATOM     32  C   UNL     1       0.639   3.035   0.925  0.00  0.00    +0.023 C 
BRANCH  32  33
ATOM     33  C   UNL     1      -0.376   4.183   0.742  0.00  0.00    +0.002 C 
ATOM     34  C   UNL     1      -0.311   4.803  -0.654  0.00  0.00    +0.000 C 
ATOM     35  C   UNL     1      -0.127   5.264   1.798  0.00  0.00    +0.000 C 
ENDBRANCH  32  33
ENDBRANCH   1  32
TORSDOF 10
