129025
  -OEChem-03292013323D

 36 37  0     0  0  0  0  0  0999 V2000
    0.1623   -0.3175    0.4961 O   0  0  0  0  0  0  0  0  0  0  0  0
    6.3886   -0.0711    0.1256 O   0  0  0  0  0  0  0  0  0  0  0  0
    0.3116   -0.2775   -1.8302 O   0  0  0  0  0  0  0  0  0  0  0  0
   -2.0539    3.1022    0.3377 O   0  5  0  0  0  0  0  0  0  0  0  0
   -0.0896    2.1375    0.5114 O   0  0  0  0  0  0  0  0  0  0  0  0
   -1.3358    2.0758    0.3899 N   0  3  0  0  0  0  0  0  0  0  0  0
   -6.0624   -1.8378   -0.1249 N   0  0  0  0  0  0  0  0  0  0  0  0
   -6.1319    0.4980   -0.1018 N   0  0  0  0  0  0  0  0  0  0  0  0
   -1.2277   -0.3696    0.3623 C   0  0  0  0  0  0  0  0  0  0  0  0
   -1.9561    0.7985    0.3091 C   0  0  0  0  0  0  0  0  0  0  0  0
   -3.9663   -0.5247    0.0959 C   0  0  0  0  0  0  0  0  0  0  0  0
   -3.3423    0.7202    0.1743 C   0  0  0  0  0  0  0  0  0  0  0  0
   -1.8179   -1.6134    0.2869 C   0  0  0  0  0  0  0  0  0  0  0  0
   -3.2040   -1.6916    0.1522 C   0  0  0  0  0  0  0  0  0  0  0  0
    2.2876   -0.2241   -0.4966 C   0  0  0  0  0  0  0  0  0  0  0  0
    0.8506   -0.2771   -0.7145 C   0  0  0  0  0  0  0  0  0  0  0  0
    3.1085    0.4305   -1.4150 C   0  0  0  0  0  0  0  0  0  0  0  0
    2.8449   -0.8270    0.6309 C   0  0  0  0  0  0  0  0  0  0  0  0
    5.0439   -0.1211   -0.0782 C   0  0  0  0  0  0  0  0  0  0  0  0
    4.4866    0.4820   -1.2057 C   0  0  0  0  0  0  0  0  0  0  0  0
    4.2231   -0.7755    0.8401 C   0  0  0  0  0  0  0  0  0  0  0  0
   -5.4115   -0.6081   -0.0444 C   0  0  0  0  0  0  0  0  0  0  0  0
    6.8917   -0.7085    1.2988 C   0  0  0  0  0  0  0  0  0  0  0  0
   -3.9411    1.6265    0.1303 H   0  0  0  0  0  0  0  0  0  0  0  0
   -1.2248   -2.5216    0.3314 H   0  0  0  0  0  0  0  0  0  0  0  0
   -3.6371   -2.6842    0.0958 H   0  0  0  0  0  0  0  0  0  0  0  0
    2.6901    0.9084   -2.2970 H   0  0  0  0  0  0  0  0  0  0  0  0
    2.2314   -1.3550    1.3564 H   0  0  0  0  0  0  0  0  0  0  0  0
    5.1209    0.9940   -1.9241 H   0  0  0  0  0  0  0  0  0  0  0  0
    4.5900   -1.2671    1.7348 H   0  0  0  0  0  0  0  0  0  0  0  0
   -7.0716   -1.8752   -0.2240 H   0  0  0  0  0  0  0  0  0  0  0  0
   -5.5882   -2.7315   -0.0893 H   0  0  0  0  0  0  0  0  0  0  0  0
   -7.1186    0.2348   -0.2016 H   0  0  0  0  0  0  0  0  0  0  0  0
    6.7071   -1.7880    1.2809 H   0  0  0  0  0  0  0  0  0  0  0  0
    6.5073   -0.2366    2.2095 H   0  0  0  0  0  0  0  0  0  0  0  0
    7.9778   -0.5702    1.3012 H   0  0  0  0  0  0  0  0  0  0  0  0
  1  9  1  0  0  0  0
  1 16  1  0  0  0  0
  2 19  1  0  0  0  0
  2 23  1  0  0  0  0
  3 16  2  0  0  0  0
  4  6  1  0  0  0  0
  5  6  2  0  0  0  0
  6 10  1  0  0  0  0
  7 22  1  0  0  0  0
  7 31  1  0  0  0  0
  7 32  1  0  0  0  0
  8 22  2  0  0  0  0
  8 33  1  0  0  0  0
  9 10  2  0  0  0  0
  9 13  1  0  0  0  0
 10 12  1  0  0  0  0
 11 12  2  0  0  0  0
 11 14  1  0  0  0  0
 11 22  1  0  0  0  0
 12 24  1  0  0  0  0
 13 14  2  0  0  0  0
 13 25  1  0  0  0  0
 14 26  1  0  0  0  0
 15 16  1  0  0  0  0
 15 17  2  0  0  0  0
 15 18  1  0  0  0  0
 17 20  1  0  0  0  0
 17 27  1  0  0  0  0
 18 21  2  0  0  0  0
 18 28  1  0  0  0  0
 19 20  2  0  0  0  0
 19 21  1  0  0  0  0
 20 29  1  0  0  0  0
 21 30  1  0  0  0  0
 23 34  1  0  0  0  0
 23 35  1  0  0  0  0
 23 36  1  0  0  0  0
M  CHG  2   4  -1   6   1
M  END
> <PUBCHEM_COMPOUND_CID>
129025

> <PUBCHEM_CONFORMER_RMSD>
0.8

> <PUBCHEM_CONFORMER_DIVERSEORDER>
1
23
22
18
15
6
8
24
12
11
20
2
14
17
5
7
21
19
13
10
16
4
3
9

> <PUBCHEM_MMFF94_PARTIAL_CHARGES>
33
1 -0.23
10 0.13
11 0.09
12 -0.15
13 -0.15
14 -0.15
15 0.09
16 0.63
17 -0.15
18 -0.15
19 0.08
2 -0.36
20 -0.15
21 -0.15
22 0.41
23 0.28
24 0.15
25 0.15
26 0.15
27 0.15
28 0.15
29 0.15
3 -0.57
30 0.15
31 0.4
32 0.4
33 0.4
4 -0.52
5 -0.52
6 0.91
7 -0.85
8 -0.85
9 0.08

> <PUBCHEM_EFFECTIVE_ROTOR_COUNT>
6

> <PUBCHEM_PHARMACOPHORE_FEATURES>
10
1 2 acceptor
1 3 acceptor
1 4 acceptor
1 4 anion
1 5 acceptor
1 7 donor
1 8 donor
3 7 8 22 cation
6 15 17 18 19 20 21 rings
6 9 10 11 12 13 14 rings

> <PUBCHEM_HEAVY_ATOM_COUNT>
23

> <PUBCHEM_ATOM_DEF_STEREO_COUNT>
0

> <PUBCHEM_ATOM_UDEF_STEREO_COUNT>
0

> <PUBCHEM_BOND_DEF_STEREO_COUNT>
0

> <PUBCHEM_BOND_UDEF_STEREO_COUNT>
0

> <PUBCHEM_ISOTOPIC_ATOM_COUNT>
0

> <PUBCHEM_COMPONENT_COUNT>
1

> <PUBCHEM_CACTVS_TAUTO_COUNT>
1

> <PUBCHEM_CONFORMER_ID>
0001F80100000001

> <PUBCHEM_MMFF94_ENERGY>
95.093

> <PUBCHEM_FEATURE_SELFOVERLAP>
50.87

> <PUBCHEM_SHAPE_FINGERPRINT>
10 15 17917981803474443114
10906281 52 18198084576160971685
11315181 36 18040439901821333584
11963148 33 18271802449505448519
12107183 9 17613712614457647562
12166972 35 17821730559024950124
12236239 1 17967533484232054858
12403259 415 17131838617001831764
12516196 113 18272370892573080915
12788726 201 18409445847893702217
13288520 33 18411136948591278003
13533116 47 18260545598431489346
13583140 156 17916852540128230706
13782708 43 17131006277788028646
13862211 1 18412262874299832719
13914758 101 17023177180683267405
14251752 14 17968089803278106957
14739800 52 18266181820064709380
15183329 4 16226035691921549055
17492 89 18267023847485179110
19489759 90 18410293596806754138
200 152 18186237342155099166
20511986 3 18040704896576077814
21033648 29 16987985112651046160
21065198 48 18260548871301550506
21267235 1 18410581707866893211
22079108 93 14908176460706014270
22224240 67 16559028307268432191
2297311 6 18272943708388076020
23402539 116 18342173375942027983
23536379 177 17022619780244115871
23557571 272 18060146400996331136
23559900 14 18262234546664381752
26918003 58 17894916247386648778
29717793 49 18260271841574189590
3004659 81 18113617902228768790
335352 9 18411696600647918293
3411729 13 17914607504746236280
34797466 226 17845945112831601276
3633792 109 17676758774076311591
5104073 3 18268722777769954187
59755656 215 18340211808591472958
67856867 119 18188213229476077156
7226269 152 18335419054653703961

> <PUBCHEM_SHAPE_MULTIPOLES>
429.04
14.95
1.83
1.08
6.39
1.14
-0.29
-4.43
1.79
-2.13
0.42
1.28
0.04
-1.02

> <PUBCHEM_SHAPE_SELFOVERLAP>
929.513

> <PUBCHEM_SHAPE_VOLUME>
232.8

> <PUBCHEM_COORDINATE_TYPE>
2
5
10

$$$$
