REMARK  Name = 129069
REMARK  8 active torsions:
REMARK  status: ('A' for Active; 'I' for Inactive)
REMARK    1  A    between atoms: C_5  and  C_13
REMARK    2  A    between atoms: C_7  and  N_23
REMARK    3  A    between atoms: N_12  and  C_15
REMARK    4  A    between atoms: C_15  and  C_16
REMARK    5  A    between atoms: C_16  and  C_17
REMARK    6  A    between atoms: C_17  and  N_18
REMARK    7  A    between atoms: C_24  and  C_26
REMARK    8  A    between atoms: C_26  and  C_27
REMARK                            x       y       z     vdW  Elec       q    Type
REMARK                         _______ _______ _______ _____ _____    ______ ____
ROOT
ATOM      1  S   UNL     1       0.858   0.261   0.930  0.00  0.00    -0.119 S 
ATOM      2  O   UNL     1       0.013  -3.285  -1.545  0.00  0.00    -0.273 OA
ATOM      3  N   UNL     1      -0.450  -1.889   0.302  0.00  0.00    -0.261 N 
ATOM      4  C   UNL     1       0.669  -1.542   1.182  0.00  0.00    +0.151 C 
ATOM      5  C   UNL     1      -1.340  -0.840  -0.152  0.00  0.00    +0.162 C 
ATOM      6  C   UNL     1      -0.969   0.447   0.617  0.00  0.00    +0.066 C 
ATOM      7  C   UNL     1       1.549  -2.456   0.318  0.00  0.00    +0.178 C 
ATOM      8  C   UNL     1       0.275  -2.712  -0.511  0.00  0.00    +0.247 C 
ATOM      9  C   UNL     1      -1.668   0.601   1.974  0.00  0.00    +0.013 C 
ATOM     10  C   UNL     1      -1.203   1.694  -0.238  0.00  0.00    +0.013 C 
ENDROOT
BRANCH   5  13
ATOM     11  O   UNL     1      -3.041  -2.048   1.001  0.00  0.00    -0.273 OA
ATOM     12  N   UNL     1      -3.597  -0.890  -0.940  0.00  0.00    -0.303 N 
ATOM     13  C   UNL     1      -2.739  -1.327   0.054  0.00  0.00    +0.241 C 
ATOM     14  H   UNL     1      -3.236  -0.313  -1.651  0.00  0.00    +0.149 HD
BRANCH  12  15
ATOM     15  C   UNL     1      -4.998  -1.241  -0.985  0.00  0.00    +0.087 C 
BRANCH  15  16
ATOM     16  C   UNL     1      -5.877  -0.242  -0.234  0.00  0.00    -0.002 C 
BRANCH  16  17
ATOM     17  C   UNL     1      -5.778   1.197  -0.747  0.00  0.00    -0.076 C 
BRANCH  17  18
ATOM     18  N   UNL     1      -6.626   2.106   0.014  0.00  0.00    +0.384 N 
ATOM     19  C   UNL     1      -6.877   3.334  -0.743  0.00  0.00    -0.101 C 
ATOM     20  C   UNL     1      -6.014   2.423   1.306  0.00  0.00    -0.101 C 
ATOM     21  H   UNL     1      -7.519   1.642   0.184  0.00  0.00    -0.080 HD
ENDBRANCH  17  18
ENDBRANCH  16  17
ENDBRANCH  15  16
ENDBRANCH  12  15
ENDBRANCH   5  13
BRANCH   7  23
ATOM     22  O   UNL     1       4.040  -1.454   1.383  0.00  0.00    -0.275 OA
ATOM     23  N   UNL     1       2.645  -1.847  -0.430  0.00  0.00    -0.296 N 
ATOM     24  C   UNL     1       3.817  -1.390   0.177  0.00  0.00    +0.227 C 
ATOM     25  H   UNL     1       2.554  -1.755  -1.406  0.00  0.00    +0.150 HD
BRANCH  24  26
ATOM     26  C   UNL     1       4.789  -0.801  -0.828  0.00  0.00    +0.111 C 
BRANCH  26  27
ATOM     27  C   UNL     1       5.117   0.644  -0.563  0.00  0.00    -0.013 C 
ATOM     28  C   UNL     1       4.342   1.652  -1.138  0.00  0.00    -0.004 C 
ATOM     29  C   UNL     1       6.195   0.976   0.257  0.00  0.00    -0.004 C 
ATOM     30  C   UNL     1       4.646   2.991  -0.892  0.00  0.00    -0.000 C 
ATOM     31  C   UNL     1       6.499   2.315   0.503  0.00  0.00    -0.000 C 
ATOM     32  C   UNL     1       5.724   3.323  -0.072  0.00  0.00    -0.000 C 
ENDBRANCH  26  27
ENDBRANCH  24  26
ENDBRANCH   7  23
TORSDOF 8
