REMARK  Name = 129042
REMARK  10 active torsions:
REMARK  status: ('A' for Active; 'I' for Inactive)
REMARK    1  A    between atoms: O_1  and  C_4
REMARK    2  A    between atoms: O_1  and  C_11
REMARK    3  A    between atoms: C_3  and  C_4
REMARK    4  A    between atoms: C_3  and  N_5
REMARK    5  A    between atoms: C_3  and  C_7
REMARK    6  A    between atoms: C_7  and  O_9
REMARK    7  A    between atoms: C_11  and  C_12
REMARK    8  A    between atoms: C_12  and  N_13
REMARK    9  A    between atoms: C_12  and  C_18
REMARK   10  A    between atoms: C_18  and  O_19
REMARK                            x       y       z     vdW  Elec       q    Type
REMARK                         _______ _______ _______ _____ _____    ______ ____
ROOT
ATOM      1  O   UNK     1      -0.408  -0.550   0.500  0.00  0.00    -0.449 OA
ENDROOT
BRANCH   1   3
ATOM      2  O   UNK     1       1.054  -2.348  -0.019  0.00  0.00    -0.248 OA
ATOM      3  C   UNK     1       0.855  -1.107   0.169  0.00  0.00    +0.337 C 
BRANCH   3   4
ATOM      4  C   UNK     1       1.810  -0.145   0.058  0.00  0.00    +0.218 C 
BRANCH   4   5
ATOM      5  N   UNK     1       1.426   1.256   0.307  0.00  0.00    -0.100 NA
ATOM      6  N   UNK     1       1.148   2.269   0.488  0.00  0.00    -0.020 NA
ENDBRANCH   4   5
BRANCH   4   7
ATOM      7  C   UNK     1       3.260  -0.373  -0.304  0.00  0.00    +0.139 C 
ATOM      8  C   UNK     1       3.657   0.425  -1.541  0.00  0.00    +0.034 C 
BRANCH   7   9
ATOM      9  O   UNK     1       4.069   0.037   0.798  0.00  0.00    -0.382 OA
ATOM     10  H   UNK     1       3.821  -0.468   1.587  0.00  0.00    +0.210 HD
ENDBRANCH   7   9
ENDBRANCH   4   7
ENDBRANCH   3   4
ENDBRANCH   1   3
BRANCH   1  11
ATOM     11  C   UNK     1      -1.533  -1.277   0.005  0.00  0.00    +0.198 C 
BRANCH  11  12
ATOM     12  C   UNK     1      -2.818  -0.565   0.417  0.00  0.00    +0.080 C 
BRANCH  12  13
ATOM     13  N   UNK     1      -3.976  -1.306  -0.081  0.00  0.00    +0.391 N 
ATOM     14  H   UNK     1      -3.968  -2.249   0.306  0.00  0.00    -0.088 HD
ATOM     15  H   UNK     1      -3.935  -1.355  -1.099  0.00  0.00    -0.088 HD
ATOM     16  H   UNK     1      -4.832  -0.829   0.202  0.00  0.00    -0.088 HD
ENDBRANCH  12  13
BRANCH  12  18
ATOM     17  O   UNK     1      -3.321   1.120  -1.285  0.00  0.00    -0.252 OA
ATOM     18  C   UNK     1      -2.876   0.826  -0.185  0.00  0.00    +0.297 C 
BRANCH  18  19
ATOM     19  O   UNK     1      -2.348   1.737   0.673  0.00  0.00    -0.482 OA
ATOM     20  H   UNK     1      -2.020   1.461   1.506  0.00  0.00    +0.295 HD
ENDBRANCH  18  19
ENDBRANCH  12  18
ENDBRANCH  11  12
ENDBRANCH   1  11
TORSDOF 10
