REMARK  Name = 129010919
REMARK  5 active torsions:
REMARK  status: ('A' for Active; 'I' for Inactive)
REMARK    1  A    between atoms: C_4  and  O_22
REMARK    2  A    between atoms: C_9  and  O_24
REMARK    3  A    between atoms: C_10  and  O_26
REMARK    4  A    between atoms: C_12  and  O_28
REMARK    5  A    between atoms: C_15  and  O_30
REMARK                            x       y       z     vdW  Elec       q    Type
REMARK                         _______ _______ _______ _____ _____    ______ ____
ROOT
ATOM      1  O   UNL     1      -3.779   1.493   0.880  0.00  0.00    -0.354 OA
ATOM      2  C   UNL     1      -1.688   0.887  -0.404  0.00  0.00    +0.081 C 
ATOM      3  C   UNL     1       1.395  -0.435   0.049  0.00  0.00    +0.032 C 
ATOM      4  C   UNL     1      -2.034  -0.511   0.190  0.00  0.00    +0.119 C 
ATOM      5  C   UNL     1      -2.977   1.676  -0.288  0.00  0.00    +0.147 C 
ATOM      6  C   UNL     1       0.855   0.907  -0.586  0.00  0.00    +0.027 C 
ATOM      7  C   UNL     1      -3.536  -0.725  -0.290  0.00  0.00    +0.052 C 
ATOM      8  C   UNL     1      -4.099   0.697  -0.271  0.00  0.00    +0.144 C 
ATOM      9  C   UNL     1      -0.399   1.619   0.048  0.00  0.00    +0.093 C 
ATOM     10  C   UNL     1      -0.986  -1.569  -0.217  0.00  0.00    +0.135 C 
ATOM     11  C   UNL     1       0.336  -1.439   0.557  0.00  0.00    +0.034 C 
ATOM     12  C   UNL     1       2.321  -1.056  -1.043  0.00  0.00    +0.113 C 
ATOM     13  C   UNL     1       3.567  -0.159  -0.934  0.00  0.00    +0.052 C 
ATOM     14  C   UNL     1       2.421  -0.165   1.216  0.00  0.00    +0.029 C 
ATOM     15  C   UNL     1       3.829  -0.150   0.587  0.00  0.00    +0.091 C 
ATOM     16  C   UNL     1       2.026   1.895  -0.859  0.00  0.00    +0.003 C 
ATOM     17  C   UNL     1       3.235   1.220  -1.517  0.00  0.00    +0.005 C 
ATOM     18  C   UNL     1      -3.629  -1.268  -1.730  0.00  0.00    +0.005 C 
ATOM     19  C   UNL     1      -4.390  -1.612   0.630  0.00  0.00    +0.005 C 
ATOM     20  C   UNL     1      -0.280   1.883   1.548  0.00  0.00    +0.029 C 
ATOM     21  C   UNL     1       4.723   0.968   1.113  0.00  0.00    +0.029 C 
ENDROOT
BRANCH   4  22
ATOM     22  O   UNL     1      -2.057  -0.427   1.623  0.00  0.00    -0.384 OA
ATOM     23  H   UNL     1      -2.711   0.234   1.898  0.00  0.00    +0.210 HD
ENDBRANCH   4  22
BRANCH   9  24
ATOM     24  O   UNL     1      -0.469   2.922  -0.579  0.00  0.00    -0.387 OA
ATOM     25  H   UNL     1      -0.546   2.815  -1.540  0.00  0.00    +0.210 HD
ENDBRANCH   9  24
BRANCH  10  26
ATOM     26  O   UNL     1      -1.524  -2.858   0.105  0.00  0.00    -0.382 OA
ATOM     27  H   UNL     1      -2.363  -2.985  -0.364  0.00  0.00    +0.210 HD
ENDBRANCH  10  26
BRANCH  12  28
ATOM     28  O   UNL     1       2.659  -2.412  -0.778  0.00  0.00    -0.384 OA
ATOM     29  H   UNL     1       1.865  -2.963  -0.850  0.00  0.00    +0.210 HD
ENDBRANCH  12  28
BRANCH  15  30
ATOM     30  O   UNL     1       4.476  -1.380   0.950  0.00  0.00    -0.387 OA
ATOM     31  H   UNL     1       3.946  -2.129   0.636  0.00  0.00    +0.210 HD
ENDBRANCH  15  30
TORSDOF 5
