REMARK  Name = 129161
REMARK  2 active torsions:
REMARK  status: ('A' for Active; 'I' for Inactive)
REMARK    1  A    between atoms: N_2  and  C_16
REMARK    2  A    between atoms: C_16  and  C_19
REMARK                            x       y       z     vdW  Elec       q    Type
REMARK                         _______ _______ _______ _____ _____    ______ ____
ROOT
ATOM      1  O   UNL     1       1.313   2.367   0.336  0.00  0.00    -0.272 OA
ATOM      2  N   UNL     1       0.617   0.170   0.800  0.00  0.00    -0.217 N 
ATOM      3  N   UNL     1       2.058  -1.725   0.335  0.00  0.00    -0.361 NA
ATOM      4  N   UNL     1       3.850   1.141  -0.646  0.00  0.00    -0.268 NA
ATOM      5  N   UNL     1      -0.026  -2.116   1.247  0.00  0.00    -0.320 N 
ATOM      6  N   UNL     1       4.228  -1.054  -0.637  0.00  0.00    -0.297 N 
ATOM      7  C   UNL     1       1.518   1.157   0.342  0.00  0.00    +0.255 C 
ATOM      8  C   UNL     1       0.920  -1.229   0.779  0.00  0.00    +0.242 C 
ATOM      9  C   UNL     1       2.728   0.562  -0.126  0.00  0.00    +0.201 C 
ATOM     10  C   UNL     1       2.984  -0.785  -0.130  0.00  0.00    +0.184 C 
ATOM     11  C   UNL     1       4.724   0.128  -0.939  0.00  0.00    +0.164 C 
ATOM     12  H   UNL     1       4.002   2.104  -0.784  0.00  0.00    +0.126 HD
ATOM     13  H   UNL     1      -0.888  -1.782   1.586  0.00  0.00    +0.146 HD
ATOM     14  H   UNL     1       0.160  -3.082   1.242  0.00  0.00    +0.146 HD
ATOM     15  H   UNL     1       4.656  -1.934  -0.750  0.00  0.00    +0.150 HD
ENDROOT
BRANCH   2  16
ATOM     16  C   UNL     1      -0.682   0.596   1.319  0.00  0.00    +0.142 C 
BRANCH  16  19
ATOM     17  O   UNL     1      -1.943  -0.676  -0.296  0.00  0.00    -0.451 OA
ATOM     18  O   UNL     1      -3.712  -1.825  -1.223  0.00  0.00    -0.245 OA
ATOM     19  C   UNL     1      -1.732   0.659   0.214  0.00  0.00    +0.159 C 
ATOM     20  C   UNL     1      -3.091   1.098   0.747  0.00  0.00    +0.075 C 
ATOM     21  C   UNL     1      -1.238   1.542  -0.938  0.00  0.00    +0.046 C 
ATOM     22  C   UNL     1      -3.998   0.301  -0.114  0.00  0.00    +0.057 C 
ATOM     23  C   UNL     1      -3.254  -0.864  -0.631  0.00  0.00    +0.337 C 
ATOM     24  C   UNL     1      -5.266   0.555  -0.440  0.00  0.00    +0.002 C 
ENDBRANCH  16  19
ENDBRANCH   2  16
TORSDOF 2
