REMARK  Name = 129126
REMARK  7 active torsions:
REMARK  status: ('A' for Active; 'I' for Inactive)
REMARK    1  A    between atoms: C3*_2  and  O3*_16
REMARK    2  A    between atoms: C2*_3  and  O2*_18
REMARK    3  A    between atoms: C4*_4  and  C5*_20
REMARK    4  A    between atoms: C1*_5  and  N_6
REMARK    5  A    between atoms: C_10  and  C_12
REMARK    6  A    between atoms: C_12  and  O_14
REMARK    7  A    between atoms: C5*_20  and  O5*_21
REMARK                            x       y       z     vdW  Elec       q    Type
REMARK                         _______ _______ _______ _____ _____    ______ ____
ROOT
ATOM      1  O4* UNL     1       1.581  -0.550  -1.034  0.00  0.00    -0.332 OA
ATOM      2  C3* UNL     1       3.282  -0.058   0.556  0.00  0.00    +0.171 C 
ATOM      3  C2* UNL     1       2.073   0.811   0.841  0.00  0.00    +0.188 C 
ATOM      4  C4* UNL     1       2.697  -1.148  -0.336  0.00  0.00    +0.175 C 
ATOM      5  C1* UNL     1       1.347   0.765  -0.495  0.00  0.00    +0.240 C 
ENDROOT
BRANCH   5   6
ATOM      6  N   UNL     1      -0.090   1.011  -0.401  0.00  0.00    -0.172 N 
ATOM      7  N   UNL     1      -0.945   0.010  -0.140  0.00  0.00    -0.120 NA
ATOM      8  N   UNL     1      -2.036   2.005  -0.391  0.00  0.00    -0.191 NA
ATOM      9  C   UNL     1      -0.747   2.193  -0.549  0.00  0.00    +0.250 C 
ATOM     10  C   UNL     1      -2.109   0.664  -0.145  0.00  0.00    +0.103 C 
BRANCH  10  12
ATOM     11  N   UNL     1      -4.485   0.635   0.088  0.00  0.00    -0.258 NA
ATOM     12  C   UNL     1      -3.349  -0.011   0.095  0.00  0.00    +0.284 C 
ATOM     13  H   UNL     1      -5.327   0.152   0.255  0.00  0.00    +0.191 HD
BRANCH  12  14
ATOM     14  O   UNL     1      -3.265  -1.365   0.327  0.00  0.00    -0.450 OA
ATOM     15  C   UNL     1      -4.444  -2.144   0.579  0.00  0.00    +0.255 C 
ENDBRANCH  12  14
ENDBRANCH  10  12
ENDBRANCH   5   6
BRANCH   2  16
ATOM     16  O3* UNL     1       4.238   0.689  -0.197  0.00  0.00    -0.379 OA
ATOM     17  H3* UNL     1       4.616   1.386   0.362  0.00  0.00    +0.211 HD
ENDBRANCH   2  16
BRANCH   3  18
ATOM     18  O2* UNL     1       2.414   2.131   1.210  0.00  0.00    -0.378 OA
ATOM     19  H2* UNL     1       2.874   2.120   2.064  0.00  0.00    +0.211 HD
ENDBRANCH   3  18
BRANCH   4  20
ATOM     20  C5* UNL     1       2.185  -2.346   0.451  0.00  0.00    +0.169 C 
BRANCH  20  21
ATOM     21  O5* UNL     1       1.654  -3.293  -0.460  0.00  0.00    -0.379 OA
ATOM     22  H5* UNL     1       1.324  -4.063   0.030  0.00  0.00    +0.211 HD
ENDBRANCH  20  21
ENDBRANCH   4  20
TORSDOF 7
