REMARK  Name = 129111
REMARK  6 active torsions:
REMARK  status: ('A' for Active; 'I' for Inactive)
REMARK    1  A    between atoms: N_1  and  C1*_13
REMARK    2  A    between atoms: C_5  and  N_23
REMARK    3  A    between atoms: C3*_10  and  O3*_14
REMARK    4  A    between atoms: C2*_11  and  O2*_16
REMARK    5  A    between atoms: C4*_12  and  C5*_18
REMARK    6  A    between atoms: C5*_18  and  O5*_19
REMARK                            x       y       z     vdW  Elec       q    Type
REMARK                         _______ _______ _______ _____ _____    ______ ____
ROOT
ATOM      1  N   UNL     1       0.020   0.110  -0.477  0.00  0.00    -0.297 N 
ATOM      2  N   UNL     1       1.458  -1.767  -0.402  0.00  0.00    -0.232 NA
ATOM      3  N   UNL     1       3.802  -1.493   0.086  0.00  0.00    -0.232 NA
ATOM      4  C   UNL     1       1.288  -0.419  -0.288  0.00  0.00    +0.139 C 
ATOM      5  C   UNL     1       2.354   0.428   0.013  0.00  0.00    +0.271 C 
ATOM      6  C   UNL     1       3.587  -0.165   0.189  0.00  0.00    +0.134 C 
ATOM      7  C   UNL     1       2.710  -2.224  -0.207  0.00  0.00    +0.253 C 
ATOM      8  H   UNL     1      -0.094   1.084  -0.392  0.00  0.00    +0.150 HD
ATOM      9  N   UNL     1       4.700   0.657   0.498  0.00  0.00    -0.344 N 
ATOM     10  H   UNL     1       5.589   0.254   0.627  0.00  0.00    +0.143 HD
ATOM     11  H   UNL     1       4.585   1.631   0.582  0.00  0.00    +0.143 HD
ENDROOT
BRANCH   1  16
ATOM     12  O4* UNL     1      -2.154   0.134  -1.414  0.00  0.00    -0.333 OA
ATOM     13  C3* UNL     1      -2.812  -0.223   0.822  0.00  0.00    +0.171 C 
ATOM     14  C2* UNL     1      -1.764  -1.263   0.477  0.00  0.00    +0.186 C 
ATOM     15  C4* UNL     1      -3.303   0.201  -0.552  0.00  0.00    +0.175 C 
ATOM     16  C1* UNL     1      -1.144  -0.686  -0.791  0.00  0.00    +0.220 C 
BRANCH  13  17
ATOM     17  O3* UNL     1      -3.856  -0.725   1.627  0.00  0.00    -0.379 OA
ATOM     18  H3* UNL     1      -3.502  -0.984   2.492  0.00  0.00    +0.211 HD
ENDBRANCH  13  17
BRANCH  14  19
ATOM     19  O2* UNL     1      -2.361  -2.524   0.185  0.00  0.00    -0.378 OA
ATOM     20  H2* UNL     1      -2.755  -2.890   0.992  0.00  0.00    +0.211 HD
ENDBRANCH  14  19
BRANCH  15  21
ATOM     21  C5* UNL     1      -3.878   1.606  -0.577  0.00  0.00    +0.169 C 
BRANCH  21  22
ATOM     22  O5* UNL     1      -4.983   1.660   0.308  0.00  0.00    -0.379 OA
ATOM     23  H5* UNL     1      -5.360   2.554   0.301  0.00  0.00    +0.211 HD
ENDBRANCH  21  22
ENDBRANCH  15  21
ENDBRANCH   1  16
BRANCH   5  26
ATOM     24  O   UNL     1       3.153   2.555   0.407  0.00  0.00    -0.130 OA
ATOM     25  O   UNL     1       1.018   2.307  -0.040  0.00  0.00    -0.130 OA
ATOM     26  N   UNL     1       2.165   1.833   0.133  0.00  0.00    +0.047 N 
ENDBRANCH   5  26
TORSDOF 6
