REMARK  Name = 129176
REMARK  10 active torsions:
REMARK  status: ('A' for Active; 'I' for Inactive)
REMARK    1  A    between atoms: C_2  and  C_3
REMARK    2  A    between atoms: C_2  and  C_16
REMARK    3  A    between atoms: C_3  and  N_5
REMARK    4  A    between atoms: C_3  and  C_9
REMARK    5  A    between atoms: C_9  and  C_10
REMARK    6  A    between atoms: C_16  and  O_17
REMARK    7  A    between atoms: C_16  and  C_19
REMARK    8  A    between atoms: C_19  and  S_20
REMARK    9  A    between atoms: S_20  and  S_21
REMARK   10  A    between atoms: S_21  and  C_23
REMARK                            x       y       z     vdW  Elec       q    Type
REMARK                         _______ _______ _______ _____ _____    ______ ____
ROOT
ATOM      1  O   UNL     1       1.744   0.799   2.574  0.00  0.00    -0.292 OA
ATOM      2  C   UNL     1       1.381   0.789   1.397  0.00  0.00    +0.196 C 
ENDROOT
BRANCH   2   3
ATOM      3  C   UNL     1       2.147   0.014   0.331  0.00  0.00    +0.136 C 
BRANCH   3   5
ATOM      4  O   UNL     1       3.781   0.306  -2.051  0.00  0.00    -0.275 OA
ATOM      5  N   UNL     1       3.425   0.671   0.221  0.00  0.00    -0.299 N 
ATOM      6  C   UNL     1       4.135   0.761  -0.967  0.00  0.00    +0.223 C 
ATOM      7  C   UNL     1       5.426   1.520  -0.807  0.00  0.00    +0.095 C 
ATOM      8  H   UNL     1       3.813   1.076   1.030  0.00  0.00    +0.150 HD
ENDBRANCH   3   5
BRANCH   3   9
ATOM      9  C   UNL     1       2.313  -1.458   0.714  0.00  0.00    +0.054 C 
BRANCH   9  10
ATOM     10  C   UNL     1       1.111  -2.297   0.355  0.00  0.00    -0.020 C 
ATOM     11  C   UNL     1       1.038  -2.912  -0.895  0.00  0.00    -0.004 C 
ATOM     12  C   UNL     1       0.073  -2.456   1.273  0.00  0.00    -0.004 C 
ATOM     13  C   UNL     1      -0.074  -3.687  -1.226  0.00  0.00    -0.000 C 
ATOM     14  C   UNL     1      -1.038  -3.231   0.942  0.00  0.00    -0.000 C 
ATOM     15  C   UNL     1      -1.112  -3.846  -0.307  0.00  0.00    -0.000 C 
ENDBRANCH   9  10
ENDBRANCH   3   9
ENDBRANCH   2   3
BRANCH   2  16
ATOM     16  C   UNL     1       0.131   1.535   0.939  0.00  0.00    +0.181 C 
BRANCH  16  17
ATOM     17  O   UNL     1      -0.461   2.138   2.081  0.00  0.00    -0.376 OA
ATOM     18  H   UNL     1      -0.704   1.450   2.720  0.00  0.00    +0.211 HD
ENDBRANCH  16  17
BRANCH  16  19
ATOM     19  C   UNL     1       0.512   2.620  -0.064  0.00  0.00    +0.106 C 
BRANCH  19  20
ATOM     20  S   UNL     1      -0.957   3.534  -0.627  0.00  0.00    -0.073 S 
BRANCH  20  21
ATOM     21  S   UNL     1      -1.722   2.248  -2.036  0.00  0.00    -0.036 S 
BRANCH  21  23
ATOM     22  N   UNL     1      -3.377   1.828   0.025  0.00  0.00    -0.237 NA
ATOM     23  C   UNL     1      -2.818   1.239  -1.055  0.00  0.00    +0.116 C 
ATOM     24  C   UNL     1      -3.047  -0.076  -1.427  0.00  0.00    +0.026 C 
ATOM     25  C   UNL     1      -3.905  -0.835  -0.639  0.00  0.00    +0.004 C 
ATOM     26  C   UNL     1      -4.206   1.059   0.767  0.00  0.00    +0.099 C 
ATOM     27  C   UNL     1      -4.500  -0.264   0.480  0.00  0.00    +0.021 C 
ENDBRANCH  21  23
ENDBRANCH  20  21
ENDBRANCH  19  20
ENDBRANCH  16  19
ENDBRANCH   2  16
TORSDOF 10
