REMARK  Name = 129163
REMARK  6 active torsions:
REMARK  status: ('A' for Active; 'I' for Inactive)
REMARK    1  A    between atoms: C_3  and  C_23
REMARK    2  A    between atoms: C_4  and  O_33
REMARK    3  A    between atoms: C_13  and  O_35
REMARK    4  A    between atoms: C_18  and  O_37
REMARK    5  A    between atoms: C_24  and  O_29
REMARK    6  A    between atoms: C_26  and  O_31
REMARK                            x       y       z     vdW  Elec       q    Type
REMARK                         _______ _______ _______ _____ _____    ______ ____
ROOT
ATOM      1  O   UNL     1       0.465   2.316   0.683  0.00  0.00    -0.286 OA
ATOM      2  O   UNL     1       0.949  -2.961   0.002  0.00  0.00    -0.286 OA
ATOM      3  C   UNL     1      -3.000  -0.071   0.892  0.00  0.00    +0.038 C 
ATOM      4  C   UNL     1      -1.882   0.762   0.831  0.00  0.00    +0.135 C 
ATOM      5  C   UNL     1      -0.616   0.216   0.589  0.00  0.00    +0.075 C 
ATOM      6  C   UNL     1      -2.858  -1.445   0.713  0.00  0.00    +0.001 C 
ATOM      7  C   UNL     1      -0.474  -1.161   0.409  0.00  0.00    +0.045 C 
ATOM      8  C   UNL     1      -1.598  -1.993   0.471  0.00  0.00    +0.003 C 
ATOM      9  C   UNL     1       1.893   0.516   0.270  0.00  0.00    +0.045 C 
ATOM     10  C   UNL     1       0.562   1.105   0.527  0.00  0.00    +0.199 C 
ATOM     11  C   UNL     1       2.034  -0.859   0.089  0.00  0.00    +0.076 C 
ATOM     12  C   UNL     1       0.857  -1.749   0.153  0.00  0.00    +0.199 C 
ATOM     13  C   UNL     1       3.301  -1.405  -0.154  0.00  0.00    +0.137 C 
ATOM     14  C   UNL     1       3.017   1.348   0.209  0.00  0.00    +0.006 C 
ATOM     15  C   UNL     1       4.437  -0.581  -0.219  0.00  0.00    +0.036 C 
ATOM     16  C   UNL     1       4.293   0.814  -0.035  0.00  0.00    +0.037 C 
ATOM     17  C   UNL     1       5.714  -1.113  -0.462  0.00  0.00    -0.001 C 
ATOM     18  C   UNL     1       5.431   1.635  -0.099  0.00  0.00    +0.133 C 
ATOM     19  C   UNL     1       6.833  -0.282  -0.523  0.00  0.00    -0.019 C 
ATOM     20  C   UNL     1       6.692   1.090  -0.341  0.00  0.00    +0.032 C 
ATOM     21  C   UNL     1       8.181  -0.865  -0.783  0.00  0.00    +0.031 C 
ENDROOT
BRANCH   3  23
ATOM     22  O   UNL     1      -4.699   1.557   0.233  0.00  0.00    -0.352 OA
ATOM     23  C   UNL     1      -4.386   0.498   1.154  0.00  0.00    +0.143 C 
ATOM     24  C   UNL     1      -6.033  -0.967  -0.125  0.00  0.00    +0.142 C 
ATOM     25  C   UNL     1      -5.576  -0.467   1.243  0.00  0.00    +0.066 C 
ATOM     26  C   UNL     1      -6.248   0.206  -1.079  0.00  0.00    +0.164 C 
ATOM     27  C   UNL     1      -5.020   1.119  -1.091  0.00  0.00    +0.145 C 
ATOM     28  C   UNL     1      -5.258   2.368  -1.935  0.00  0.00    +0.035 C 
BRANCH  24  29
ATOM     29  O   UNL     1      -7.263  -1.673   0.019  0.00  0.00    -0.382 OA
ATOM     30  H   UNL     1      -7.138  -2.422   0.623  0.00  0.00    +0.210 HD
ENDBRANCH  24  29
BRANCH  26  31
ATOM     31  O   UNL     1      -6.478  -0.291  -2.394  0.00  0.00    -0.380 OA
ATOM     32  H   UNL     1      -7.256  -0.871  -2.390  0.00  0.00    +0.211 HD
ENDBRANCH  26  31
ENDBRANCH   3  23
BRANCH   4  33
ATOM     33  O   UNL     1      -2.073   2.101   1.013  0.00  0.00    -0.506 OA
ATOM     34  H   UNL     1      -2.933   2.435   1.173  0.00  0.00    +0.292 HD
ENDBRANCH   4  33
BRANCH  13  35
ATOM     35  O   UNL     1       3.460  -2.752  -0.334  0.00  0.00    -0.505 OA
ATOM     36  H   UNL     1       2.716  -3.321  -0.295  0.00  0.00    +0.292 HD
ENDBRANCH  13  35
BRANCH  18  37
ATOM     37  O   UNL     1       5.343   2.987   0.075  0.00  0.00    -0.506 OA
ATOM     38  H   UNL     1       4.511   3.385   0.240  0.00  0.00    +0.292 HD
ENDBRANCH  18  37
TORSDOF 6
