REMARK  Name = 129144
REMARK  5 active torsions:
REMARK  status: ('A' for Active; 'I' for Inactive)
REMARK    1  A    between atoms: C_1  and  C_16
REMARK    2  A    between atoms: C_2  and  N_9
REMARK    3  A    between atoms: C_3  and  N_12
REMARK    4  A    between atoms: C_6  and  O_13
REMARK    5  A    between atoms: C_16  and  C_18
REMARK                            x       y       z     vdW  Elec       q    Type
REMARK                         _______ _______ _______ _____ _____    ______ ____
ROOT
ATOM      1  C   UNL     1       1.177   0.285  -0.009  0.00  0.00    +0.039 C 
ATOM      2  C   UNL     1      -1.093   1.114   0.001  0.00  0.00    +0.178 C 
ATOM      3  C   UNL     1      -0.675  -1.266  -0.002  0.00  0.00    +0.178 C 
ATOM      4  C   UNL     1       0.699  -1.025  -0.008  0.00  0.00    +0.030 C 
ATOM      5  C   UNL     1       0.281   1.355  -0.005  0.00  0.00    +0.030 C 
ATOM      6  C   UNL     1      -1.571  -0.197   0.003  0.00  0.00    +0.179 C 
ENDROOT
BRANCH   2   9
ATOM      7  O   UNL     1      -1.515   3.376   0.004  0.00  0.00    -0.126 OA
ATOM      8  O   UNL     1      -3.221   1.990   0.011  0.00  0.00    -0.126 OA
ATOM      9  N   UNL     1      -1.989   2.218   0.005  0.00  0.00    +0.061 N 
ENDBRANCH   2   9
BRANCH   3  12
ATOM     10  O   UNL     1      -0.302  -3.537  -0.004  0.00  0.00    -0.126 OA
ATOM     11  O   UNL     1      -2.378  -2.814   0.005  0.00  0.00    -0.126 OA
ATOM     12  N   UNL     1      -1.143  -2.609   0.000  0.00  0.00    +0.061 N 
ENDBRANCH   3  12
BRANCH   6  13
ATOM     13  O   UNL     1      -2.916  -0.432   0.008  0.00  0.00    -0.503 OA
ATOM     14  H   UNL     1      -3.518   0.286   0.011  0.00  0.00    +0.292 HD
ENDBRANCH   6  13
BRANCH   1  16
ATOM     15  O   UNL     1       3.040   1.707  -0.030  0.00  0.00    -0.290 OA
ATOM     16  C   UNL     1       2.610   0.537  -0.015  0.00  0.00    +0.185 C 
BRANCH  16  18
ATOM     17 BR   UNL     1       5.421  -0.051   0.058  0.00  0.00    -0.072 Br
ATOM     18  C   UNL     1       3.574  -0.651  -0.021  0.00  0.00    +0.136 C 
ENDBRANCH  16  18
ENDBRANCH   1  16
TORSDOF 5
