REMARK  Name = 129130
REMARK  11 active torsions:
REMARK  status: ('A' for Active; 'I' for Inactive)
REMARK    1  A    between atoms: N_2  and  CA_20
REMARK    2  A    between atoms: C_3  and  C_5
REMARK    3  A    between atoms: C_5  and  C_6
REMARK    4  A    between atoms: C_5  and  C_13
REMARK    5  A    between atoms: C_6  and  C_7
REMARK    6  A    between atoms: C_13  and  C_16
REMARK    7  A    between atoms: N_15  and  O_18
REMARK    8  A    between atoms: CA_20  and  C_22
REMARK    9  A    between atoms: CA_20  and  CB_25
REMARK   10  A    between atoms: C_22  and  O_23
REMARK   11  A    between atoms: CB_25  and  CG_26
REMARK                            x       y       z     vdW  Elec       q    Type
REMARK                         _______ _______ _______ _____ _____    ______ ____
ROOT
ATOM      1  O   UNL     1       0.249   0.442   2.130  0.00  0.00    -0.275 OA
ATOM      2  N   UNL     1       0.231   0.978  -0.129  0.00  0.00    -0.297 N 
ATOM      3  C   ACE A   0      -0.032   0.166   0.966  0.00  0.00    +0.223 C 
ATOM      4  H   UNL     1      -0.036   0.661  -1.022  0.00  0.00    +0.150 HD
ENDROOT
BRANCH   3   5
ATOM      5  C   UNL     1      -0.709  -1.149   0.567  0.00  0.00    +0.090 C 
BRANCH   5   6
ATOM      6  C   UNL     1      -2.108  -1.244   1.212  0.00  0.00    +0.036 C 
BRANCH   6   7
ATOM      7  C   UNL     1      -3.149  -0.383   0.541  0.00  0.00    -0.022 C 
ATOM      8  C   UNL     1      -3.351   0.929   0.972  0.00  0.00    -0.004 C 
ATOM      9  C   UNL     1      -3.909  -0.897  -0.509  0.00  0.00    -0.004 C 
ATOM     10  C   UNL     1      -4.313   1.726   0.352  0.00  0.00    -0.000 C 
ATOM     11  C   UNL     1      -4.872  -0.100  -1.129  0.00  0.00    -0.000 C 
ATOM     12  C   UNL     1      -5.074   1.212  -0.698  0.00  0.00    -0.000 C 
ENDBRANCH   6   7
ENDBRANCH   5   6
BRANCH   5  13
ATOM     13  C   UNL     1       0.201  -2.327   0.968  0.00  0.00    +0.097 C 
BRANCH  13  16
ATOM     14  O   UNL     1      -0.871  -4.446   0.486  0.00  0.00    -0.273 OA
ATOM     15  N   UNL     1       0.733  -3.643  -0.966  0.00  0.00    -0.197 N 
ATOM     16  C   UNL     1      -0.048  -3.593   0.163  0.00  0.00    +0.245 C 
ATOM     17  H   UNL     1       1.381  -2.935  -1.185  0.00  0.00    +0.182 HD
BRANCH  15  18
ATOM     18  O   UNL     1       0.551  -4.764  -1.787  0.00  0.00    -0.295 OA
ATOM     19  H   UNL     1       1.145  -4.704  -2.552  0.00  0.00    +0.241 HD
ENDBRANCH  15  18
ENDBRANCH  13  16
ENDBRANCH   5  13
ENDBRANCH   3   5
BRANCH   2  20
ATOM     20  CA  UNL     1       0.878   2.266  -0.023  0.00  0.00    +0.176 C 
BRANCH  20  22
ATOM     21  OXT UNL     1       0.244   4.573  -0.375  0.00  0.00    -0.248 OA
ATOM     22  C   UNL     1      -0.056   3.386  -0.455  0.00  0.00    +0.332 C 
BRANCH  22  23
ATOM     23  O   UNL     1      -1.249   2.975  -0.946  0.00  0.00    -0.479 OA
ATOM     24  H   UNL     1      -1.446   2.060  -0.994  0.00  0.00    +0.295 HD
ENDBRANCH  22  23
ENDBRANCH  20  22
BRANCH  20  25
ATOM     25  CB  UNL     1       2.167   2.308  -0.854  0.00  0.00    +0.057 C 
BRANCH  25  26
ATOM     26  CG  UNL     1       3.162   1.245  -0.452  0.00  0.00    -0.020 C 
ATOM     27  CD1 UNL     1       4.112   1.517   0.532  0.00  0.00    -0.004 C 
ATOM     28  CD2 UNL     1       3.131  -0.007  -1.065  0.00  0.00    -0.004 C 
ATOM     29  CE1 UNL     1       5.031   0.536   0.904  0.00  0.00    -0.000 C 
ATOM     30  CE2 UNL     1       4.050  -0.988  -0.694  0.00  0.00    -0.000 C 
ATOM     31  CZ  UNL     1       5.000  -0.717   0.291  0.00  0.00    -0.000 C 
ENDBRANCH  25  26
ENDBRANCH  20  25
ENDBRANCH   2  20
TORSDOF 11
