REMARK  Name = 129128579
REMARK  5 active torsions:
REMARK  status: ('A' for Active; 'I' for Inactive)
REMARK    1  A    between atoms: C2*_2  and  O2*_16
REMARK    2  A    between atoms: C3*_3  and  O3*_18
REMARK    3  A    between atoms: C1*_4  and  N_7
REMARK    4  A    between atoms: C4*_5  and  C5*_20
REMARK    5  A    between atoms: C5*_20  and  O5*_21
REMARK                            x       y       z     vdW  Elec       q    Type
REMARK                         _______ _______ _______ _____ _____    ______ ____
ROOT
ATOM      1  O4* UNL     1      -1.631  -0.483   1.030  0.00  0.00    -0.333 OA
ATOM      2  C2* UNL     1      -1.527   0.997  -0.817  0.00  0.00    +0.187 C 
ATOM      3  C3* UNL     1      -2.982   0.725  -0.496  0.00  0.00    +0.171 C 
ATOM      4  C1* UNL     1      -0.836   0.572   0.467  0.00  0.00    +0.229 C 
ATOM      5  C4* UNL     1      -2.892  -0.552   0.329  0.00  0.00    +0.175 C 
ENDROOT
BRANCH   4   7
ATOM      6  O   UNL     1       1.446   2.155   0.656  0.00  0.00    -0.252 OA
ATOM      7  N   UNL     1       0.494   0.083   0.237  0.00  0.00    -0.217 N 
ATOM      8  N   UNL     1       2.879   0.390   0.108  0.00  0.00    -0.226 N 
ATOM      9  N   UNL     1       4.248  -1.486  -0.460  0.00  0.00    -0.285 NA
ATOM     10  C   UNL     1       1.599   0.966   0.356  0.00  0.00    +0.318 C 
ATOM     11  C   UNL     1       0.688  -1.248  -0.098  0.00  0.00    +0.074 C 
ATOM     12  C   UNL     1       1.880  -1.793  -0.330  0.00  0.00    +0.050 C 
ATOM     13  C   UNL     1       3.089  -0.954  -0.233  0.00  0.00    +0.132 C 
ATOM     14  C   UNL     1       4.039   1.275   0.222  0.00  0.00    +0.123 C 
ATOM     15  H   UNL     1       5.062  -0.937  -0.399  0.00  0.00    +0.188 HD
ENDBRANCH   4   7
BRANCH   2  16
ATOM     16  O2* UNL     1      -1.293   2.353  -1.137  0.00  0.00    -0.378 OA
ATOM     17  H2* UNL     1      -1.754   2.575  -1.962  0.00  0.00    +0.211 HD
ENDBRANCH   2  16
BRANCH   3  18
ATOM     18  O3* UNL     1      -3.504   1.755   0.343  0.00  0.00    -0.379 OA
ATOM     19  H3* UNL     1      -3.570   2.581  -0.161  0.00  0.00    +0.211 HD
ENDBRANCH   3  18
BRANCH   5  20
ATOM     20  C5* UNL     1      -2.896  -1.817  -0.519  0.00  0.00    +0.169 C 
BRANCH  20  21
ATOM     21  O5* UNL     1      -2.800  -2.939   0.341  0.00  0.00    -0.379 OA
ATOM     22  H5* UNL     1      -2.801  -3.752  -0.187  0.00  0.00    +0.211 HD
ENDBRANCH  20  21
ENDBRANCH   5  20
TORSDOF 5
