REMARK  Name = 129146
REMARK  7 active torsions:
REMARK  status: ('A' for Active; 'I' for Inactive)
REMARK    1  A    between atoms: C_1  and  N_4
REMARK    2  A    between atoms: C_1  and  O_10
REMARK    3  A    between atoms: O_10  and  C_11
REMARK    4  A    between atoms: C_11  and  C_12
REMARK    5  A    between atoms: C_11  and  C_15
REMARK    6  A    between atoms: C_12  and  O_13
REMARK    7  A    between atoms: C_15  and  O_16
REMARK                            x       y       z     vdW  Elec       q    Type
REMARK                         _______ _______ _______ _____ _____    ______ ____
ROOT
ATOM      1  C   UNL     1      -0.237  -0.606  -0.697  0.00  0.00    +0.247 C 
ENDROOT
BRANCH   1   4
ATOM      2  O   UNL     1       3.124   1.911  -0.886  0.00  0.00    -0.123 OA
ATOM      3  O   UNL     1       0.968   1.981  -0.477  0.00  0.00    -0.123 OA
ATOM      4  N   UNL     1       1.078  -0.860  -0.125  0.00  0.00    -0.225 N 
ATOM      5  N   UNL     1       3.160  -0.521   0.530  0.00  0.00    -0.207 NA
ATOM      6  N   UNL     1       2.065   1.351  -0.481  0.00  0.00    +0.091 N 
ATOM      7  C   UNL     1       2.106   0.025  -0.034  0.00  0.00    +0.286 C 
ATOM      8  C   UNL     1       1.485  -2.043   0.408  0.00  0.00    +0.091 C 
ATOM      9  C   UNL     1       2.780  -1.810   0.808  0.00  0.00    +0.118 C 
ENDBRANCH   1   4
BRANCH   1  10
ATOM     10  O   UNL     1      -1.069  -0.142   0.354  0.00  0.00    -0.331 OA
BRANCH  10  11
ATOM     11  C   UNL     1      -2.381   0.165  -0.124  0.00  0.00    +0.175 C 
BRANCH  11  12
ATOM     12  C   UNL     1      -3.208   0.654   1.057  0.00  0.00    +0.169 C 
BRANCH  12  13
ATOM     13  O   UNL     1      -2.586   1.809   1.611  0.00  0.00    -0.379 OA
ATOM     14  H   UNL     1      -3.108   2.128   2.364  0.00  0.00    +0.211 HD
ENDBRANCH  12  13
ENDBRANCH  11  12
BRANCH  11  15
ATOM     15  C   UNL     1      -2.982  -1.092  -0.743  0.00  0.00    +0.169 C 
BRANCH  15  16
ATOM     16  O   UNL     1      -4.303  -0.821  -1.200  0.00  0.00    -0.379 OA
ATOM     17  H   UNL     1      -4.680  -1.624  -1.593  0.00  0.00    +0.211 HD
ENDBRANCH  15  16
ENDBRANCH  11  15
ENDBRANCH  10  11
ENDBRANCH   1  10
TORSDOF 7
