129128579
  -OEChem-03292013293D

 33 34  0     1  0  0  0  0  0999 V2000
   -1.6312   -0.4835    1.0299 O   0  0  0  0  0  0  0  0  0  0  0  0
   -1.2933    2.3534   -1.1373 O   0  0  0  0  0  0  0  0  0  0  0  0
   -3.5041    1.7550    0.3434 O   0  0  0  0  0  0  0  0  0  0  0  0
   -2.7995   -2.9388    0.3412 O   0  0  0  0  0  0  0  0  0  0  0  0
    1.4455    2.1545    0.6557 O   0  0  0  0  0  0  0  0  0  0  0  0
    0.4939    0.0832    0.2375 N   0  0  0  0  0  0  0  0  0  0  0  0
    2.8786    0.3897    0.1081 N   0  0  0  0  0  0  0  0  0  0  0  0
    4.2476   -1.4861   -0.4602 N   0  0  0  0  0  0  0  0  0  0  0  0
   -1.5273    0.9974   -0.8171 C   0  0  2  0  0  0  0  0  0  0  0  0
   -2.9815    0.7253   -0.4956 C   0  0  1  0  0  0  0  0  0  0  0  0
   -0.8357    0.5724    0.4668 C   0  0  1  0  0  0  0  0  0  0  0  0
   -2.8924   -0.5517    0.3288 C   0  0  1  0  0  0  0  0  0  0  0  0
   -2.8963   -1.8170   -0.5186 C   0  0  0  0  0  0  0  0  0  0  0  0
    1.5993    0.9662    0.3560 C   0  0  0  0  0  0  0  0  0  0  0  0
    0.6884   -1.2482   -0.0980 C   0  0  0  0  0  0  0  0  0  0  0  0
    1.8803   -1.7927   -0.3299 C   0  0  0  0  0  0  0  0  0  0  0  0
    3.0886   -0.9538   -0.2326 C   0  0  0  0  0  0  0  0  0  0  0  0
    4.0388    1.2749    0.2220 C   0  0  0  0  0  0  0  0  0  0  0  0
   -1.2061    0.3812   -1.6656 H   0  0  0  0  0  0  0  0  0  0  0  0
   -3.6184    0.6559   -1.3820 H   0  0  0  0  0  0  0  0  0  0  0  0
   -0.8073    1.3942    1.1924 H   0  0  0  0  0  0  0  0  0  0  0  0
   -3.6741   -0.6132    1.0943 H   0  0  0  0  0  0  0  0  0  0  0  0
   -2.0684   -1.8523   -1.2308 H   0  0  0  0  0  0  0  0  0  0  0  0
   -3.8347   -1.8939   -1.0775 H   0  0  0  0  0  0  0  0  0  0  0  0
   -1.8542    2.5743   -1.9003 H   0  0  0  0  0  0  0  0  0  0  0  0
   -4.4238    1.5194    0.5539 H   0  0  0  0  0  0  0  0  0  0  0  0
   -0.1809   -1.8839   -0.1735 H   0  0  0  0  0  0  0  0  0  0  0  0
    1.9789   -2.8405   -0.5883 H   0  0  0  0  0  0  0  0  0  0  0  0
   -2.8165   -3.7326   -0.2200 H   0  0  0  0  0  0  0  0  0  0  0  0
    3.9103    2.1085   -0.4757 H   0  0  0  0  0  0  0  0  0  0  0  0
    4.9822    0.7680    0.0095 H   0  0  0  0  0  0  0  0  0  0  0  0
    4.0666    1.6815    1.2379 H   0  0  0  0  0  0  0  0  0  0  0  0
    4.1625   -2.4811   -0.6918 H   0  0  0  0  0  0  0  0  0  0  0  0
  1 11  1  0  0  0  0
  1 12  1  0  0  0  0
  2  9  1  0  0  0  0
  2 25  1  0  0  0  0
  3 10  1  0  0  0  0
  3 26  1  0  0  0  0
  4 13  1  0  0  0  0
  4 29  1  0  0  0  0
  5 14  2  0  0  0  0
  6 11  1  0  0  0  0
  6 14  1  0  0  0  0
  6 15  1  0  0  0  0
  7 14  1  0  0  0  0
  7 17  1  0  0  0  0
  7 18  1  0  0  0  0
  8 17  2  0  0  0  0
  8 33  1  0  0  0  0
  9 10  1  0  0  0  0
  9 11  1  0  0  0  0
  9 19  1  0  0  0  0
 10 12  1  0  0  0  0
 10 20  1  0  0  0  0
 11 21  1  0  0  0  0
 12 13  1  0  0  0  0
 12 22  1  0  0  0  0
 13 23  1  0  0  0  0
 13 24  1  0  0  0  0
 15 16  2  0  0  0  0
 15 27  1  0  0  0  0
 16 17  1  0  0  0  0
 16 28  1  0  0  0  0
 18 30  1  0  0  0  0
 18 31  1  0  0  0  0
 18 32  1  0  0  0  0
M  END
> <PUBCHEM_COMPOUND_CID>
129128579

> <PUBCHEM_CONFORMER_RMSD>
0.6

> <PUBCHEM_CONFORMER_DIVERSEORDER>
1
25
23
11
2
10
24
27
19
20
9
29
35
34
36
22
15
33
8
31
28
16
32
26
17
12
14
21
5
6
30
4
18
13
3
7

> <PUBCHEM_MMFF94_PARTIAL_CHARGES>
24
1 -0.56
10 0.28
11 0.58
12 0.28
13 0.28
14 0.69
15 -0.04
16 -0.14
17 0.5
18 0.3
2 -0.68
25 0.4
26 0.4
27 0.15
28 0.15
29 0.4
3 -0.68
33 0.4
4 -0.68
5 -0.57
6 -0.47
7 -0.42
8 -0.85
9 0.28

> <PUBCHEM_EFFECTIVE_ROTOR_COUNT>
3

> <PUBCHEM_PHARMACOPHORE_FEATURES>
11
1 1 acceptor
1 2 acceptor
1 2 donor
1 3 acceptor
1 3 donor
1 4 acceptor
1 4 donor
1 5 acceptor
1 8 donor
5 1 9 10 11 12 rings
6 6 7 14 15 16 17 rings

> <PUBCHEM_HEAVY_ATOM_COUNT>
18

> <PUBCHEM_ATOM_DEF_STEREO_COUNT>
2

> <PUBCHEM_ATOM_UDEF_STEREO_COUNT>
2

> <PUBCHEM_BOND_DEF_STEREO_COUNT>
0

> <PUBCHEM_BOND_UDEF_STEREO_COUNT>
0

> <PUBCHEM_ISOTOPIC_ATOM_COUNT>
0

> <PUBCHEM_COMPONENT_COUNT>
1

> <PUBCHEM_CACTVS_TAUTO_COUNT>
1

> <PUBCHEM_CONFORMER_ID>
07B2588300000001

> <PUBCHEM_MMFF94_ENERGY>
48.3707

> <PUBCHEM_FEATURE_SELFOVERLAP>
55.84

> <PUBCHEM_SHAPE_FINGERPRINT>
10608611 8 18410007715352178132
10967382 1 18267867172739496923
11132069 177 18409725170949482568
11471102 20 18342171129331441844
12500047 106 18335980848817811103
12932764 1 17895188848987052698
12969540 114 17897144855247374301
13140716 1 18341324514310776714
13296908 3 18342738507517230762
14115302 16 18336559204592284357
14251745 187 18336819883395168602
14965852 173 18412826889040756841
15196674 1 18412544314299236782
15219456 202 18410575080410433168
15375462 6 18337388365435298054
16945 1 18263349305373083457
17834074 16 18411419522546827471
18175812 5 18411139112859059134
18186145 218 18334574590773493084
19141452 34 18341056311020614643
200 152 17774714286163412607
20201158 50 18339361842635959862
20645477 70 18059853918245034814
21501502 16 18409726261712855139
221490 88 18340211881494841394
23402539 116 17821998848499287420
23557571 272 18339653312027773484
23559900 14 18341047399068976946
2748010 2 18337945817793598615
2871803 45 18336819905176596599
4028521 119 17968648320746183701
46194498 28 17322357830272319439
5104073 3 18413107264484981994
58051976 378 18269270334497366980
69090 78 18337668608162518061
74978 22 18341894060943418505
81228 2 18114462370414379721
8809292 202 18409169874511984970
93112 12 18411698759840217775
9709674 26 18413390938258418927

> <PUBCHEM_SHAPE_MULTIPOLES>
326.14
6.9
2.55
0.84
2.99
0.48
0.05
0.9
0.24
-0.89
0.16
-0.27
-0.15
0.7

> <PUBCHEM_SHAPE_SELFOVERLAP>
683.011

> <PUBCHEM_SHAPE_VOLUME>
184.1

> <PUBCHEM_COORDINATE_TYPE>
2
5
10

$$$$
