REMARK  Name = 129147
REMARK  9 active torsions:
REMARK  status: ('A' for Active; 'I' for Inactive)
REMARK    1  A    between atoms: C_3  and  C_14
REMARK    2  A    between atoms: C_5  and  N_6
REMARK    3  A    between atoms: N_6  and  C_9
REMARK    4  A    between atoms: C_14  and  S_15
REMARK    5  A    between atoms: S_15  and  C_16
REMARK    6  A    between atoms: C_16  and  C_17
REMARK    7  A    between atoms: C_17  and  C_20
REMARK    8  A    between atoms: N_19  and  C_20
REMARK    9  A    between atoms: N_19  and  C_24
REMARK                            x       y       z     vdW  Elec       q    Type
REMARK                         _______ _______ _______ _____ _____    ______ ____
ROOT
ATOM      1  S   UNL     1      -1.296  -0.051  -0.837  0.00  0.00    -0.051 S 
ATOM      2  N   UNL     1      -3.091   1.682  -0.161  0.00  0.00    -0.219 NA
ATOM      3  C   UNL     1      -0.797   1.525  -0.430  0.00  0.00    +0.040 C 
ATOM      4  C   UNL     1      -1.862   2.308  -0.099  0.00  0.00    +0.104 C 
ATOM      5  C   UNL     1      -2.915   0.436  -0.540  0.00  0.00    +0.197 C 
ENDROOT
BRANCH   5   6
ATOM      6  N   UNL     1      -3.894  -0.487  -0.715  0.00  0.00    -0.189 NA
BRANCH   6   9
ATOM      7  N   UNL     1      -5.187  -2.215   0.377  0.00  0.00    -0.370 N 
ATOM      8  N   UNL     1      -3.597  -1.054   1.529  0.00  0.00    -0.370 N 
ATOM      9  C   UNL     1      -4.229  -1.224   0.319  0.00  0.00    +0.195 C 
ATOM     10  H   UNL     1      -5.714  -2.438  -0.425  0.00  0.00    +0.159 HD
ATOM     11  H   UNL     1      -5.344  -2.699   1.219  0.00  0.00    +0.159 HD
ATOM     12  H   UNL     1      -2.890  -0.376   1.624  0.00  0.00    +0.159 HD
ATOM     13  H   UNL     1      -3.853  -1.610   2.300  0.00  0.00    +0.159 HD
ENDBRANCH   6   9
ENDBRANCH   5   6
BRANCH   3  14
ATOM     14  C   UNL     1       0.661   1.879  -0.467  0.00  0.00    +0.092 C 
BRANCH  14  15
ATOM     15  S   UNL     1       1.452   1.564   1.127  0.00  0.00    -0.134 S 
BRANCH  15  16
ATOM     16  C   UNL     1       3.136   2.096   0.692  0.00  0.00    +0.066 C 
BRANCH  16  17
ATOM     17  C   UNL     1       3.749   1.236  -0.409  0.00  0.00    +0.073 C 
BRANCH  17  19
ATOM     18  N   UNL     1       4.652  -0.540   1.034  0.00  0.00    -0.388 N 
ATOM     19  C   UNL     1       3.824  -0.240  -0.025  0.00  0.00    +0.111 C 
ATOM     20  H   UNL     1       4.749  -1.473   1.335  0.00  0.00    +0.157 HD
ATOM     21  H   UNL     1       5.149   0.178   1.490  0.00  0.00    +0.157 HD
BRANCH  19  22
ATOM     22  N   UNL     1       3.103  -1.054  -0.739  0.00  0.00    -0.128 NA
BRANCH  22  24
ATOM     23  N   UNL     1       3.156  -3.497  -0.205  0.00  0.00    -0.172 NA
ATOM     24  C   UNL     1       3.135  -2.363  -0.449  0.00  0.00    +0.194 C 
ENDBRANCH  22  24
ENDBRANCH  19  22
ENDBRANCH  17  19
ENDBRANCH  16  17
ENDBRANCH  15  16
ENDBRANCH  14  15
ENDBRANCH   3  14
TORSDOF 9
