REMARK  Name = 129109
REMARK  10 active torsions:
REMARK  status: ('A' for Active; 'I' for Inactive)
REMARK    1  A    between atoms: N_1  and  CA_4
REMARK    2  A    between atoms: N_1  and  CA_19
REMARK    3  A    between atoms: CA_4  and  C_12
REMARK    4  A    between atoms: CA_10  and  C_16
REMARK    5  A    between atoms: C_16  and  O_17
REMARK    6  A    between atoms: CA_19  and  C_21
REMARK    7  A    between atoms: CA_19  and  C_24
REMARK    8  A    between atoms: C_21  and  O_22
REMARK    9  A    between atoms: C_24  and  C_25
REMARK   10  A    between atoms: C_25  and  C_26
REMARK                            x       y       z     vdW  Elec       q    Type
REMARK                         _______ _______ _______ _____ _____    ______ ____
ROOT
ATOM      1  N   UNL     1      -1.248   2.341  -0.796  0.00  0.00    +0.399 N 
ATOM      2  H1  UNL     1      -1.732   2.743  -1.599  0.00  0.00    -0.083 HD
ATOM      3  H2  UNL     1      -0.989   3.071  -0.132  0.00  0.00    -0.083 HD
ENDROOT
BRANCH   1   4
ATOM      4  CA  UNL     1      -0.036   1.682  -1.255  0.00  0.00    +0.018 C 
ATOM      5  CB  UNL     1       0.649   2.495  -2.336  0.00  0.00    -0.014 C 
BRANCH   4  12
ATOM      6  O   UNL     1       0.847   2.389   0.840  0.00  0.00    -0.277 OA
ATOM      7  O   UNL     1       1.339  -0.690  -2.153  0.00  0.00    -0.252 OA
ATOM      8  N   UNL     1       1.704   0.418  -0.060  0.00  0.00    -0.205 N 
ATOM      9  N   UNL     1       2.660  -1.623  -0.447  0.00  0.00    -0.260 N 
ATOM     10  CA  UNL     1       2.591   0.147   1.064  0.00  0.00    +0.202 C 
ATOM     11  C   UNL     1       2.967  -1.319   0.932  0.00  0.00    +0.127 C 
ATOM     12  C   UNL     1       0.869   1.546  -0.059  0.00  0.00    +0.213 C 
ATOM     13  C   UNL     1       1.836  -0.641  -1.035  0.00  0.00    +0.313 C 
ATOM     14  C   UNL     1       3.008  -2.895  -1.044  0.00  0.00    +0.117 C 
BRANCH  10  16
ATOM     15  OXT UNL     1       4.225   1.391  -0.214  0.00  0.00    -0.248 OA
ATOM     16  C   UNL     1       3.795   1.021   0.868  0.00  0.00    +0.334 C 
BRANCH  16  17
ATOM     17  O   UNL     1       4.348   1.348   2.061  0.00  0.00    -0.479 OA
ATOM     18  H   UNL     1       3.968   1.031   2.857  0.00  0.00    +0.295 HD
ENDBRANCH  16  17
ENDBRANCH  10  16
ENDBRANCH   4  12
ENDBRANCH   1   4
BRANCH   1  19
ATOM     19  CA  UNL     1      -2.135   1.399  -0.126  0.00  0.00    +0.041 C 
BRANCH  19  21
ATOM     20  OXT UNL     1      -3.490   3.335   0.463  0.00  0.00    -0.253 OA
ATOM     21  C   UNL     1      -3.074   2.216   0.743  0.00  0.00    +0.293 C 
BRANCH  21  22
ATOM     22  O   UNL     1      -3.438   1.562   1.875  0.00  0.00    -0.482 OA
ATOM     23  H   UNL     1      -3.097   0.707   2.052  0.00  0.00    +0.295 HD
ENDBRANCH  21  22
ENDBRANCH  19  21
BRANCH  19  24
ATOM     24  C   UNL     1      -2.913   0.599  -1.181  0.00  0.00    -0.006 C 
BRANCH  24  25
ATOM     25  C   UNL     1      -3.614  -0.657  -0.639  0.00  0.00    +0.025 C 
BRANCH  25  26
ATOM     26  C   UNL     1      -2.679  -1.707  -0.091  0.00  0.00    -0.022 C 
ATOM     27  C   UNL     1      -2.178  -2.702  -0.930  0.00  0.00    -0.004 C 
ATOM     28  C   UNL     1      -2.316  -1.683   1.256  0.00  0.00    -0.004 C 
ATOM     29  C   UNL     1      -1.314  -3.672  -0.423  0.00  0.00    -0.000 C 
ATOM     30  C   UNL     1      -1.452  -2.653   1.763  0.00  0.00    -0.000 C 
ATOM     31  C   UNL     1      -0.951  -3.648   0.923  0.00  0.00    -0.000 C 
ENDBRANCH  25  26
ENDBRANCH  24  25
ENDBRANCH  19  24
ENDBRANCH   1  19
TORSDOF 10
