REMARK  Name = 129127
REMARK  8 active torsions:
REMARK  status: ('A' for Active; 'I' for Inactive)
REMARK    1  A    between atoms: C3*_2  and  O3*_17
REMARK    2  A    between atoms: C2*_3  and  O2*_19
REMARK    3  A    between atoms: C4*_4  and  C5*_21
REMARK    4  A    between atoms: C1*_5  and  N_6
REMARK    5  A    between atoms: C_10  and  C_12
REMARK    6  A    between atoms: C_12  and  O_14
REMARK    7  A    between atoms: O_14  and  C_15
REMARK    8  A    between atoms: C5*_21  and  O5*_22
REMARK                            x       y       z     vdW  Elec       q    Type
REMARK                         _______ _______ _______ _____ _____    ______ ____
ROOT
ATOM      1  O4* UNL     1       2.097  -0.553  -0.994  0.00  0.00    -0.332 OA
ATOM      2  C3* UNL     1       3.719   0.224   0.565  0.00  0.00    +0.171 C 
ATOM      3  C2* UNL     1       2.412   0.951   0.808  0.00  0.00    +0.188 C 
ATOM      4  C4* UNL     1       3.275  -0.974  -0.269  0.00  0.00    +0.175 C 
ATOM      5  C1* UNL     1       1.702   0.750  -0.522  0.00  0.00    +0.240 C 
ENDROOT
BRANCH   5   6
ATOM      6  N   UNL     1       0.245   0.823  -0.437  0.00  0.00    -0.172 N 
ATOM      7  N   UNL     1      -0.482  -0.260  -0.123  0.00  0.00    -0.120 NA
ATOM      8  N   UNL     1      -1.808   1.571  -0.473  0.00  0.00    -0.191 NA
ATOM      9  C   UNL     1      -0.550   1.907  -0.643  0.00  0.00    +0.250 C 
ATOM     10  C   UNL     1      -1.717   0.245  -0.159  0.00  0.00    +0.103 C 
BRANCH  10  12
ATOM     11  N   UNL     1      -2.750  -1.830   0.416  0.00  0.00    -0.258 NA
ATOM     12  C   UNL     1      -2.866  -0.563   0.118  0.00  0.00    +0.284 C 
ATOM     13  H   UNL     1      -3.554  -2.368   0.602  0.00  0.00    +0.191 HD
BRANCH  12  14
ATOM     14  O   UNL     1      -4.083   0.076   0.050  0.00  0.00    -0.454 OA
BRANCH  14  15
ATOM     15  C   UNL     1      -5.304  -0.634   0.307  0.00  0.00    +0.208 C 
ATOM     16  C   UNL     1      -6.469   0.324   0.174  0.00  0.00    +0.051 C 
ENDBRANCH  14  15
ENDBRANCH  12  14
ENDBRANCH  10  12
ENDBRANCH   5   6
BRANCH   2  17
ATOM     17  O3* UNL     1       4.580   1.042  -0.227  0.00  0.00    -0.379 OA
ATOM     18  H3* UNL     1       4.868   1.807   0.295  0.00  0.00    +0.211 HD
ENDBRANCH   2  17
BRANCH   3  19
ATOM     19  O2* UNL     1       2.588   2.321   1.109  0.00  0.00    -0.378 OA
ATOM     20  H2* UNL     1       3.042   2.408   1.962  0.00  0.00    +0.211 HD
ENDBRANCH   3  19
BRANCH   4  21
ATOM     21  C5* UNL     1       2.909  -2.185   0.579  0.00  0.00    +0.169 C 
BRANCH  21  22
ATOM     22  O5* UNL     1       2.502  -3.234  -0.281  0.00  0.00    -0.379 OA
ATOM     23  H5* UNL     1       2.266  -4.012   0.248  0.00  0.00    +0.211 HD
ENDBRANCH  21  22
ENDBRANCH   4  21
TORSDOF 8
