129144
  -OEChem-03292013323D

 22 22  0     0  0  0  0  0  0999 V2000
    5.4212   -0.0512    0.0575 Br  0  0  0  0  0  0  0  0  0  0  0  0
   -2.9163   -0.4325    0.0083 O   0  0  0  0  0  0  0  0  0  0  0  0
    3.0403    1.7069   -0.0301 O   0  0  0  0  0  0  0  0  0  0  0  0
   -1.5148    3.3764    0.0041 O   0  5  0  0  0  0  0  0  0  0  0  0
   -0.3022   -3.5370   -0.0043 O   0  5  0  0  0  0  0  0  0  0  0  0
   -3.2207    1.9903    0.0108 O   0  0  0  0  0  0  0  0  0  0  0  0
   -2.3780   -2.8142    0.0046 O   0  0  0  0  0  0  0  0  0  0  0  0
   -1.9894    2.2178    0.0055 N   0  3  0  0  0  0  0  0  0  0  0  0
   -1.1428   -2.6091   -0.0004 N   0  3  0  0  0  0  0  0  0  0  0  0
    1.1770    0.2854   -0.0091 C   0  0  0  0  0  0  0  0  0  0  0  0
   -1.0925    1.1140    0.0010 C   0  0  0  0  0  0  0  0  0  0  0  0
   -0.6750   -1.2658   -0.0018 C   0  0  0  0  0  0  0  0  0  0  0  0
    0.6988   -1.0249   -0.0076 C   0  0  0  0  0  0  0  0  0  0  0  0
    0.2814    1.3548   -0.0049 C   0  0  0  0  0  0  0  0  0  0  0  0
   -1.5708   -0.1965    0.0025 C   0  0  0  0  0  0  0  0  0  0  0  0
    2.6096    0.5366   -0.0155 C   0  0  0  0  0  0  0  0  0  0  0  0
    3.5742   -0.6509   -0.0205 C   0  0  0  0  0  0  0  0  0  0  0  0
    1.3913   -1.8607   -0.0137 H   0  0  0  0  0  0  0  0  0  0  0  0
    0.6679    2.3712   -0.0058 H   0  0  0  0  0  0  0  0  0  0  0  0
    3.4303   -1.2731    0.8655 H   0  0  0  0  0  0  0  0  0  0  0  0
    3.4785   -1.2235   -0.9456 H   0  0  0  0  0  0  0  0  0  0  0  0
   -3.1114   -1.2748   -0.4311 H   0  0  0  0  0  0  0  0  0  0  0  0
  1 17  1  0  0  0  0
  2 15  1  0  0  0  0
  2 22  1  0  0  0  0
  3 16  2  0  0  0  0
  4  8  1  0  0  0  0
  5  9  1  0  0  0  0
  6  8  2  0  0  0  0
  7  9  2  0  0  0  0
  8 11  1  0  0  0  0
  9 12  1  0  0  0  0
 10 13  2  0  0  0  0
 10 14  1  0  0  0  0
 10 16  1  0  0  0  0
 11 14  2  0  0  0  0
 11 15  1  0  0  0  0
 12 13  1  0  0  0  0
 12 15  2  0  0  0  0
 13 18  1  0  0  0  0
 14 19  1  0  0  0  0
 16 17  1  0  0  0  0
 17 20  1  0  0  0  0
 17 21  1  0  0  0  0
M  CHG  4   4  -1   5  -1   8   1   9   1
M  END
> <PUBCHEM_COMPOUND_CID>
129144

> <PUBCHEM_CONFORMER_RMSD>
0.6

> <PUBCHEM_CONFORMER_DIVERSEORDER>
1
3
2
4
5

> <PUBCHEM_MMFF94_PARTIAL_CHARGES>
20
1 -0.23
10 0.09
11 0.13
12 0.13
13 -0.15
14 -0.15
15 0.08
16 0.42
17 0.29
18 0.15
19 0.15
2 -0.53
22 0.45
3 -0.57
4 -0.52
5 -0.52
6 -0.52
7 -0.52
8 0.91
9 0.91

> <PUBCHEM_EFFECTIVE_ROTOR_COUNT>
4

> <PUBCHEM_PHARMACOPHORE_FEATURES>
10
1 1 hydrophobe
1 2 donor
1 3 acceptor
1 4 acceptor
1 4 anion
1 5 acceptor
1 5 anion
1 6 acceptor
1 7 acceptor
6 10 11 12 13 14 15 rings

> <PUBCHEM_HEAVY_ATOM_COUNT>
17

> <PUBCHEM_ATOM_DEF_STEREO_COUNT>
0

> <PUBCHEM_ATOM_UDEF_STEREO_COUNT>
0

> <PUBCHEM_BOND_DEF_STEREO_COUNT>
0

> <PUBCHEM_BOND_UDEF_STEREO_COUNT>
0

> <PUBCHEM_ISOTOPIC_ATOM_COUNT>
0

> <PUBCHEM_COMPONENT_COUNT>
1

> <PUBCHEM_CACTVS_TAUTO_COUNT>
9

> <PUBCHEM_CONFORMER_ID>
0001F87800000001

> <PUBCHEM_MMFF94_ENERGY>
61.6881

> <PUBCHEM_FEATURE_SELFOVERLAP>
50.908

> <PUBCHEM_SHAPE_FINGERPRINT>
10319926 262 18269813416950079040
10411042 1 18050287273609697706
10608611 8 18342453773008859480
10616163 171 18410858793767140758
10967382 1 17978229357269004046
12173636 292 18338232648758597244
12500047 106 18411975828834662448
12553582 1 17834399303777920342
13140716 1 18194409007014479963
13380535 76 18269553849367206892
138480 1 16897645684683977415
14508225 48 18195795478323969325
14965852 173 18410572916374591880
15042514 8 18336834177173300427
15442244 35 18408319982768570864
16945 1 18410575119059760044
17804303 29 18341335582483449304
193761 8 17978229357675315855
19591789 44 18050291362338890102
20510252 161 18343865489592555456
20645477 56 18411421679148158112
20711985 365 18337954592601759894
20871998 184 18129104587661627622
212916 134 18125979604402248728
21501502 16 18336550533733821404
21524375 3 18200590276792101821
2306618 200 18201166519779762794
2334 1 17762058039770684207
23402539 116 18343012324583090335
23419403 2 17130693067208082355
23557571 272 18272942648043168772
23558518 356 18189056559247343328
23559900 14 18269549598120269232
257057 1 17907573984132970158
2748010 2 18193568765582863207
305870 269 18048878494165564072
3071541 12 17403176993482664100
3091708 16 9129066374816269643
352729 6 18410858737256819445
43471831 8 18263925427901810339
5104073 3 18412541033893860848
54173680 148 18265897032617797074
559249 180 18262233301899436378
573450 72 18261380145247628634
6992083 37 18113623369838382996
7364860 26 17618503181850106877
81228 2 18264484173039771681
8809292 202 18338518650757178234
9709674 26 18343868805824259654

> <PUBCHEM_SHAPE_MULTIPOLES>
310.62
6.68
3.45
0.58
9.84
1.13
0
-1.19
-0.09
-3.59
0
0.12
0
-0.01

> <PUBCHEM_SHAPE_SELFOVERLAP>
646.238

> <PUBCHEM_SHAPE_VOLUME>
182.4

> <PUBCHEM_COORDINATE_TYPE>
2
5
10

$$$$
