REMARK  Name = 129114
REMARK  4 active torsions:
REMARK  status: ('A' for Active; 'I' for Inactive)
REMARK    1  A    between atoms: C_5  and  O_20
REMARK    2  A    between atoms: C_7  and  O_24
REMARK    3  A    between atoms: C_19  and  O_22
REMARK    4  A    between atoms: O_24  and  N_27
REMARK                            x       y       z     vdW  Elec       q    Type
REMARK                         _______ _______ _______ _____ _____    ______ ____
ROOT
ATOM      1  O   UNL     1       4.848   0.074  -0.757  0.00  0.00    -0.296 OA
ATOM      2  C   UNL     1       1.804  -1.433  -0.081  0.00  0.00    +0.010 C 
ATOM      3  C   UNL     1       2.562  -0.097   0.067  0.00  0.00    +0.055 C 
ATOM      4  C   UNL     1       0.334  -1.288   0.325  0.00  0.00    +0.033 C 
ATOM      5  C   UNL     1      -0.361  -0.276  -0.652  0.00  0.00    +0.146 C 
ATOM      6  C   UNL     1       1.941   0.915  -0.899  0.00  0.00    +0.056 C 
ATOM      7  C   UNL     1       0.414   1.079  -0.682  0.00  0.00    +0.229 C 
ATOM      8  C   UNL     1       2.706  -2.449   0.612  0.00  0.00    +0.008 C 
ATOM      9  C   UNL     1      -0.413  -2.624   0.308  0.00  0.00    +0.007 C 
ATOM     10  C   UNL     1       3.949  -0.609  -0.284  0.00  0.00    +0.150 C 
ATOM     11  C   UNL     1       4.097  -2.082   0.067  0.00  0.00    +0.064 C 
ATOM     12  C   UNL     1      -1.857  -0.171  -0.355  0.00  0.00    +0.001 C 
ATOM     13  C   UNL     1       2.680   0.458   1.502  0.00  0.00    +0.007 C 
ATOM     14  C   UNL     1      -1.825  -2.431   0.851  0.00  0.00    +0.026 C 
ATOM     15  C   UNL     1      -2.535  -1.211   0.317  0.00  0.00    -0.021 C 
ATOM     16  C   UNL     1      -2.610   0.928  -0.811  0.00  0.00    +0.001 C 
ATOM     17  C   UNL     1      -3.918  -1.105   0.555  0.00  0.00    +0.032 C 
ATOM     18  C   UNL     1      -3.983   1.015  -0.575  0.00  0.00    +0.036 C 
ATOM     19  C   UNL     1      -4.637   0.001   0.111  0.00  0.00    +0.133 C 
ENDROOT
BRANCH   5  20
ATOM     20  O   UNL     1      -0.350  -0.817  -1.989  0.00  0.00    -0.379 OA
ATOM     21  H   UNL     1       0.567  -0.928  -2.285  0.00  0.00    +0.211 HD
ENDBRANCH   5  20
BRANCH  19  22
ATOM     22  O   UNL     1      -5.974   0.085   0.345  0.00  0.00    -0.506 OA
ATOM     23  H   UNL     1      -6.413  -0.601   0.808  0.00  0.00    +0.292 HD
ENDBRANCH  19  22
BRANCH   7  24
ATOM     24  O   UNL     1       0.227   1.804   0.532  0.00  0.00    -0.337 OA
BRANCH  24  27
ATOM     25  O   UNL     1       0.858   3.586  -0.611  0.00  0.00    -0.090 OA
ATOM     26  O   UNL     1       1.220   3.555   1.589  0.00  0.00    -0.090 OA
ATOM     27  N   UNL     1       0.822   3.093   0.517  0.00  0.00    +0.218 N 
ENDBRANCH  24  27
ENDBRANCH   7  24
TORSDOF 4
