129109
  -OEChem-03292013323D

 50 51  0     1  0  0  0  0  0999 V2000
    0.8470    2.3888    0.8401 O   0  0  0  0  0  0  0  0  0  0  0  0
    1.3385   -0.6900   -2.1527 O   0  0  0  0  0  0  0  0  0  0  0  0
    4.3484    1.3484    2.0614 O   0  0  0  0  0  0  0  0  0  0  0  0
    4.2249    1.3908   -0.2144 O   0  0  0  0  0  0  0  0  0  0  0  0
   -3.4375    1.5617    1.8752 O   0  0  0  0  0  0  0  0  0  0  0  0
   -3.4896    3.3346    0.4633 O   0  0  0  0  0  0  0  0  0  0  0  0
    1.7043    0.4177   -0.0600 N   0  0  0  0  0  0  0  0  0  0  0  0
    2.6598   -1.6235   -0.4474 N   0  0  0  0  0  0  0  0  0  0  0  0
   -1.2477    2.3412   -0.7962 N   0  0  0  0  0  0  0  0  0  0  0  0
    2.5912    0.1466    1.0644 C   0  0  1  0  0  0  0  0  0  0  0  0
    2.9666   -1.3185    0.9324 C   0  0  0  0  0  0  0  0  0  0  0  0
   -0.0359    1.6824   -1.2546 C   0  0  2  0  0  0  0  0  0  0  0  0
    0.8690    1.5464   -0.0589 C   0  0  0  0  0  0  0  0  0  0  0  0
    1.8358   -0.6412   -1.0350 C   0  0  0  0  0  0  0  0  0  0  0  0
   -2.1355    1.3988   -0.1264 C   0  0  2  0  0  0  0  0  0  0  0  0
   -2.9132    0.5992   -1.1812 C   0  0  0  0  0  0  0  0  0  0  0  0
    3.7948    1.0214    0.8682 C   0  0  0  0  0  0  0  0  0  0  0  0
    0.6495    2.4953   -2.3355 C   0  0  0  0  0  0  0  0  0  0  0  0
   -3.6136   -0.6567   -0.6394 C   0  0  0  0  0  0  0  0  0  0  0  0
    3.0081   -2.8946   -1.0436 C   0  0  0  0  0  0  0  0  0  0  0  0
   -3.0744    2.2165    0.7429 C   0  0  0  0  0  0  0  0  0  0  0  0
   -2.6792   -1.7070   -0.0907 C   0  0  0  0  0  0  0  0  0  0  0  0
   -2.1781   -2.7018   -0.9303 C   0  0  0  0  0  0  0  0  0  0  0  0
   -2.3161   -1.6826    1.2559 C   0  0  0  0  0  0  0  0  0  0  0  0
   -1.3141   -3.6725   -0.4233 C   0  0  0  0  0  0  0  0  0  0  0  0
   -1.4520   -2.6532    1.7628 C   0  0  0  0  0  0  0  0  0  0  0  0
   -0.9510   -3.6482    0.9231 C   0  0  0  0  0  0  0  0  0  0  0  0
    2.0974    0.3920    2.0103 H   0  0  0  0  0  0  0  0  0  0  0  0
    2.3283   -1.9492    1.5605 H   0  0  0  0  0  0  0  0  0  0  0  0
    4.0191   -1.5303    1.1433 H   0  0  0  0  0  0  0  0  0  0  0  0
   -0.2912    0.7136   -1.6748 H   0  0  0  0  0  0  0  0  0  0  0  0
   -1.5503    0.7629    0.5425 H   0  0  0  0  0  0  0  0  0  0  0  0
   -1.7351    2.7747   -1.5803 H   0  0  0  0  0  0  0  0  0  0  0  0
   -2.2704    0.2787   -2.0087 H   0  0  0  0  0  0  0  0  0  0  0  0
   -3.6822    1.2416   -1.6322 H   0  0  0  0  0  0  0  0  0  0  0  0
    0.0092    2.5988   -3.2185 H   0  0  0  0  0  0  0  0  0  0  0  0
    1.5854    2.0240   -2.6542 H   0  0  0  0  0  0  0  0  0  0  0  0
    0.9032    3.5018   -1.9823 H   0  0  0  0  0  0  0  0  0  0  0  0
   -4.2111   -1.1015   -1.4464 H   0  0  0  0  0  0  0  0  0  0  0  0
   -4.3426   -0.3784    0.1320 H   0  0  0  0  0  0  0  0  0  0  0  0
    4.0897   -3.0348   -0.9727 H   0  0  0  0  0  0  0  0  0  0  0  0
    2.7006   -2.9187   -2.0921 H   0  0  0  0  0  0  0  0  0  0  0  0
    2.4941   -3.6903   -0.4979 H   0  0  0  0  0  0  0  0  0  0  0  0
    5.1387    1.9197    1.9544 H   0  0  0  0  0  0  0  0  0  0  0  0
   -2.4508   -2.7293   -1.9818 H   0  0  0  0  0  0  0  0  0  0  0  0
   -2.7081   -0.9281    1.9297 H   0  0  0  0  0  0  0  0  0  0  0  0
   -4.0538    2.0926    2.4233 H   0  0  0  0  0  0  0  0  0  0  0  0
   -0.9220   -4.4458   -1.0775 H   0  0  0  0  0  0  0  0  0  0  0  0
   -1.1711   -2.6360    2.8118 H   0  0  0  0  0  0  0  0  0  0  0  0
   -0.2770   -4.4030    1.3175 H   0  0  0  0  0  0  0  0  0  0  0  0
  1 13  2  0  0  0  0
  2 14  2  0  0  0  0
  3 17  1  0  0  0  0
  3 44  1  0  0  0  0
  4 17  2  0  0  0  0
  5 21  1  0  0  0  0
  5 47  1  0  0  0  0
  6 21  2  0  0  0  0
  7 10  1  0  0  0  0
  7 13  1  0  0  0  0
  7 14  1  0  0  0  0
  8 11  1  0  0  0  0
  8 14  1  0  0  0  0
  8 20  1  0  0  0  0
  9 12  1  0  0  0  0
  9 15  1  0  0  0  0
  9 33  1  0  0  0  0
 10 11  1  0  0  0  0
 10 17  1  0  0  0  0
 10 28  1  0  0  0  0
 11 29  1  0  0  0  0
 11 30  1  0  0  0  0
 12 13  1  0  0  0  0
 12 18  1  0  0  0  0
 12 31  1  0  0  0  0
 15 16  1  0  0  0  0
 15 21  1  0  0  0  0
 15 32  1  0  0  0  0
 16 19  1  0  0  0  0
 16 34  1  0  0  0  0
 16 35  1  0  0  0  0
 18 36  1  0  0  0  0
 18 37  1  0  0  0  0
 18 38  1  0  0  0  0
 19 22  1  0  0  0  0
 19 39  1  0  0  0  0
 19 40  1  0  0  0  0
 20 41  1  0  0  0  0
 20 42  1  0  0  0  0
 20 43  1  0  0  0  0
 22 23  2  0  0  0  0
 22 24  1  0  0  0  0
 23 25  1  0  0  0  0
 23 45  1  0  0  0  0
 24 26  2  0  0  0  0
 24 46  1  0  0  0  0
 25 27  2  0  0  0  0
 25 48  1  0  0  0  0
 26 27  1  0  0  0  0
 26 49  1  0  0  0  0
 27 50  1  0  0  0  0
M  END
> <PUBCHEM_COMPOUND_CID>
129109

> <PUBCHEM_CONFORMER_RMSD>
1

> <PUBCHEM_CONFORMER_DIVERSEORDER>
2
62
360
144
367
75
309
388
455
465
224
356
330
418
35
85
346
179
55
436
355
74
460
235
200
376
132
406
270
255
411
449
439
443
247
99
275
59
466
141
253
20
22
87
151
267
227
491
50
413
8
425
167
108
338
115
264
249
150
105
437
68
118
370
487
384
334
218
70
440
24
415
426
378
474
451
188
273
496
164
214
394
120
174
452
166
310
478
280
245
213
222
26
482
377
47
416
84
45
165
27
342
82
121
295
299
231
154
206
494
472
199
301
379
287
1
30
44
395
239
476
49
83
226
371
268
196
339
265
129
447
354
432
5
450
88
321
289
29
463
383
190
362
170
158
279
431
344
352
429
41
125
398
78
54
444
142
335
61
256
184
98
72
351
156
283
23
319
209
95
33
328
412
254
89
396
420
464
405
470
278
305
119
153
399
332
357
296
271
363
481
471
237
454
73
92
403
69
272
112
79
428
313
497
317
52
419
473
97
361
274
493
424
266
404
9
21
13
57
186
12
417
124
316
387
434
194
486
336
240
10
311
467
250
76
448
106
172
307
308
349
113
414
116
171
145
337
327
364
263
475
162
303
252
4
410
329
479
169
347
244
130
53
353
368
393
485
375
257
408
402
477
37
480
427
42
66
157
143
442
217
294
438
134
350
180
187
58
202
290
489
484
433
234
192
64
56
28
7
241
315
333
32
93
391
139
15
276
348
43
51
392
292
148
359
223
221
385
11
18
197
488
285
323
204
215
19
459
185
177
90
212
435
220
261
175
208
114
161
81
286
152
229
445
324
96
453
284
133
372
38
63
306
140
291
147
14
246
101
131
60
236
251
380
366
243
107
219
128
207
382
318
198
462
3
117
248
110
421
233
258
40
195
205
322
160
495
369
155
297
397
374
34
211
48
67
102
238
173
282
109
468
80
492
312
458
136
230
228
320
36
86
191
225
146
189
343
122
178
242
65
168
100
293
441
390
314
91
304
300
46
490
386
407
262
401
358
138
183
94
16
456
111
340
77
400
409
341
288
123
216
104
71
277
193
201
331
159
137
325
326
457
103
127
126
31
25
389
163
423
345
232
176
483
6
181
422
281
381
210
182
365
373
149
302
430
446
298
260
461
203
135
39
17
469
259
269

> <PUBCHEM_MMFF94_PARTIAL_CHARGES>
33
1 -0.57
10 0.36
11 0.3
12 0.33
13 0.57
14 0.69
15 0.33
17 0.66
19 0.14
2 -0.57
20 0.3
21 0.66
22 -0.14
23 -0.15
24 -0.15
25 -0.15
26 -0.15
27 -0.15
3 -0.65
33 0.36
4 -0.57
44 0.5
45 0.15
46 0.15
47 0.5
48 0.15
49 0.15
5 -0.65
50 0.15
6 -0.57
7 -0.42
8 -0.66
9 -0.9

> <PUBCHEM_EFFECTIVE_ROTOR_COUNT>
9.8

> <PUBCHEM_PHARMACOPHORE_FEATURES>
12
1 1 acceptor
1 2 acceptor
1 3 acceptor
1 4 acceptor
1 5 acceptor
1 6 acceptor
1 9 cation
1 9 donor
3 3 4 17 anion
3 5 6 21 anion
5 7 8 10 11 14 rings
6 22 23 24 25 26 27 rings

> <PUBCHEM_HEAVY_ATOM_COUNT>
27

> <PUBCHEM_ATOM_DEF_STEREO_COUNT>
0

> <PUBCHEM_ATOM_UDEF_STEREO_COUNT>
3

> <PUBCHEM_BOND_DEF_STEREO_COUNT>
0

> <PUBCHEM_BOND_UDEF_STEREO_COUNT>
0

> <PUBCHEM_ISOTOPIC_ATOM_COUNT>
0

> <PUBCHEM_COMPONENT_COUNT>
1

> <PUBCHEM_CACTVS_TAUTO_COUNT>
1

> <PUBCHEM_CONFORMER_ID>
0001F85500000002

> <PUBCHEM_MMFF94_ENERGY>
57.1003

> <PUBCHEM_FEATURE_SELFOVERLAP>
61.014

> <PUBCHEM_SHAPE_FINGERPRINT>
10366900 7 17916292999767075185
1100329 8 15457628401294373937
12156800 1 15318387623242641447
12422481 6 18122661338866327395
12553582 1 18120948462194331871
12788726 201 18339917220983908459
13122387 1 18263640675960011235
13140716 1 18265332798495580179
14081887 123 18269541913721650232
14178342 30 18410013268739279384
20691752 17 18116432548731894847
20905425 154 17469609971453885055
23558518 356 18412269415629742957
23559900 14 18339359652856682542
3298306 158 17613718116047372869
35225 105 17689099752388743531
463206 1 17620181474897899487
5265222 85 17974875890408608486
81228 2 18333730234341493135

> <PUBCHEM_SHAPE_MULTIPOLES>
505.49
6.9
4.67
1.85
3.45
1.77
0.1
-1.31
-2.11
-2.79
0.03
0.4
-0.31
0.26

> <PUBCHEM_SHAPE_SELFOVERLAP>
1052.451

> <PUBCHEM_SHAPE_VOLUME>
285.5

> <PUBCHEM_COORDINATE_TYPE>
2
5
10

$$$$
