REMARK  Name = 129206
REMARK  5 active torsions:
REMARK  status: ('A' for Active; 'I' for Inactive)
REMARK    1  A    between atoms: N_7  and  C_10
REMARK    2  A    between atoms: N_7  and  N_18
REMARK    3  A    between atoms: N_18  and  C_20
REMARK    4  A    between atoms: C_20  and  C_24
REMARK    5  A    between atoms: C_20  and  O_25
REMARK                            x       y       z     vdW  Elec       q    Type
REMARK                         _______ _______ _______ _____ _____    ______ ____
ROOT
ATOM      1  O   UNL     1       3.470  -2.575   0.228  0.00  0.00    -0.265 OA
ATOM      2  O   UNL     1       4.804   1.918  -0.070  0.00  0.00    -0.246 OA
ATOM      3  N   UNL     1       2.527   1.441  -0.110  0.00  0.00    -0.266 N 
ATOM      4  N   UNL     1       0.680  -1.531   0.053  0.00  0.00    -0.299 N 
ATOM      5  N   UNL     1       4.167  -0.331   0.080  0.00  0.00    -0.246 N 
ATOM      6  N   UNL     1       0.200   0.638  -0.127  0.00  0.00    -0.291 N 
ATOM      7  C   UNL     1       1.877  -0.875   0.043  0.00  0.00    +0.134 A 
ATOM      8  C   UNL     1       1.555   0.450  -0.068  0.00  0.00    +0.133 A 
ATOM      9  C   UNL     1      -0.300  -0.578  -0.052  0.00  0.00    +0.222 C 
ATOM     10  C   UNL     1       3.209  -1.379   0.127  0.00  0.00    +0.280 A 
ATOM     11  C   UNL     1       3.895   1.080  -0.037  0.00  0.00    +0.335 A 
ATOM     12  C   UNL     1       2.134   2.839  -0.230  0.00  0.00    +0.136 C 
ATOM     13  C   UNL     1       5.570  -0.723   0.159  0.00  0.00    +0.138 C 
ATOM     14  H   UNL     1       0.546  -2.504   0.123  0.00  0.00    +0.150 HD
ATOM     15  H   UNL     1      -0.289   1.489  -0.208  0.00  0.00    +0.151 HD
ENDROOT
BRANCH   9  16
ATOM     16  N   UNL     1      -1.588  -0.985  -0.064  0.00  0.00    -0.211 NA
ATOM     17  H   UNL     1      -1.818  -1.937  -0.164  0.00  0.00    +0.145 HD
BRANCH  16  18
ATOM     18  N   UNL     1      -2.582  -0.018   0.067  0.00  0.00    -0.216 NA
ATOM     19  H   UNL     1      -2.517   0.644  -0.706  0.00  0.00    +0.144 HD
BRANCH  18  20
ATOM     20  C   UNL     1      -3.901  -0.668   0.046  0.00  0.00    +0.226 C 
BRANCH  20  24
ATOM     21 CL   UNL     1      -6.635  -0.471   0.190  0.00  0.00    -0.079 Cl
ATOM     22 CL   UNL     1      -5.027   1.591  -1.087  0.00  0.00    -0.079 Cl
ATOM     23 CL   UNL     1      -4.902   1.204   1.802  0.00  0.00    -0.079 Cl
ATOM     24  C   UNL     1      -5.041   0.361   0.221  0.00  0.00    +0.238 C 
ENDBRANCH  20  24
BRANCH  20  25
ATOM     25  O   UNL     1      -4.112  -1.389  -1.172  0.00  0.00    -0.366 OA
ATOM     26  H   UNL     1      -3.401  -2.038  -1.291  0.00  0.00    +0.212 HD
ENDBRANCH  20  25
ENDBRANCH  18  20
ENDBRANCH  16  18
ENDBRANCH   9  16
TORSDOF 5
