REMARK  Name = 129202
REMARK  8 active torsions:
REMARK  status: ('A' for Active; 'I' for Inactive)
REMARK    1  A    between atoms: N_1  and  C_2
REMARK    2  A    between atoms: N_1  and  N_3
REMARK    3  A    between atoms: C_2  and  C_12
REMARK    4  A    between atoms: C_2  and  C_22
REMARK    5  A    between atoms: N_3  and  C_6
REMARK    6  A    between atoms: N_11  and  C_12
REMARK    7  A    between atoms: N_11  and  N_14
REMARK    8  A    between atoms: N_14  and  C_17
REMARK                            x       y       z     vdW  Elec       q    Type
REMARK                         _______ _______ _______ _____ _____    ______ ____
ROOT
ATOM      1  C   UNL     1      -0.660  -0.764   0.391  0.00  0.00    +0.116 C 
ENDROOT
BRANCH   1   2
ATOM      2  C   UNL     1       0.715  -0.416   0.880  0.00  0.00    +0.116 C 
ATOM      3  C   UNL     1       0.960  -0.547   2.355  0.00  0.00    +0.023 C 
BRANCH   2   4
ATOM      4  N   UNL     1       1.567  -0.040  -0.019  0.00  0.00    -0.097 NA
BRANCH   4   5
ATOM      5  N   UNL     1       2.816   0.258   0.513  0.00  0.00    -0.145 NA
BRANCH   5   8
ATOM      6  N   UNL     1       4.958   0.975  -0.074  0.00  0.00    -0.369 N 
ATOM      7  N   UNL     1       3.425   0.747  -1.753  0.00  0.00    -0.369 N 
ATOM      8  C   UNL     1       3.668   0.636  -0.403  0.00  0.00    +0.207 C 
ATOM      9  H   UNL     1       5.254   0.935   0.864  0.00  0.00    +0.159 HD
ATOM     10  H   UNL     1       5.587   1.257  -0.777  0.00  0.00    +0.159 HD
ATOM     11  H   UNL     1       2.534   0.531  -2.112  0.00  0.00    +0.159 HD
ATOM     12  H   UNL     1       4.142   1.042  -2.360  0.00  0.00    +0.159 HD
ENDBRANCH   5   8
ENDBRANCH   4   5
ENDBRANCH   2   4
ENDBRANCH   1   2
BRANCH   1  13
ATOM     13  C   UNL     1      -0.887  -2.202  -0.006  0.00  0.00    +0.021 C 
ATOM     14  C   UNL     1      -0.592  -2.405  -1.481  0.00  0.00    +0.002 C 
ENDBRANCH   1  13
BRANCH   1  15
ATOM     15  N   UNL     1      -1.506   0.214   0.337  0.00  0.00    -0.097 NA
BRANCH  15  16
ATOM     16  N   UNL     1      -2.753  -0.167  -0.141  0.00  0.00    -0.145 NA
BRANCH  16  19
ATOM     17  N   UNL     1      -4.902   0.785  -0.614  0.00  0.00    -0.369 N 
ATOM     18  N   UNL     1      -3.217   2.094   0.204  0.00  0.00    -0.369 N 
ATOM     19  C   UNL     1      -3.594   0.833  -0.190  0.00  0.00    +0.207 C 
ATOM     20  H   UNL     1      -5.289  -0.067  -0.921  0.00  0.00    +0.159 HD
ATOM     21  H   UNL     1      -5.451   1.602  -0.610  0.00  0.00    +0.159 HD
ATOM     22  H   UNL     1      -2.302   2.256   0.528  0.00  0.00    +0.159 HD
ATOM     23  H   UNL     1      -3.863   2.837   0.161  0.00  0.00    +0.159 HD
ENDBRANCH  16  19
ENDBRANCH  15  16
ENDBRANCH   1  15
TORSDOF 8
