REMARK  Name = 129213
REMARK  17 active torsions:
REMARK  status: ('A' for Active; 'I' for Inactive)
REMARK    1  A    between atoms: C_1  and  N_2
REMARK    2  A    between atoms: C_1  and  C_14
REMARK    3  A    between atoms: C_1  and  C_27
REMARK    4  A    between atoms: N_2  and  C_4
REMARK    5  A    between atoms: N_2  and  C_9
REMARK    6  A    between atoms: C_4  and  C_6
REMARK    7  A    between atoms: C_6  and  O_7
REMARK    8  A    between atoms: C_9  and  C_11
REMARK    9  A    between atoms: C_11  and  O_12
REMARK   10  A    between atoms: C_14  and  N_15
REMARK   11  A    between atoms: N_15  and  C_17
REMARK   12  A    between atoms: N_15  and  C_22
REMARK   13  A    between atoms: C_17  and  C_19
REMARK   14  A    between atoms: C_19  and  O_20
REMARK   15  A    between atoms: C_22  and  C_24
REMARK   16  A    between atoms: C_24  and  O_25
REMARK   17  A    between atoms: C_27  and  C_28
REMARK                            x       y       z     vdW  Elec       q    Type
REMARK                         _______ _______ _______ _____ _____    ______ ____
ROOT
ATOM      1  C   UNL     1      -0.043  -0.105   0.323  0.00  0.00    -0.073 C 
ENDROOT
BRANCH   1   2
ATOM      2  N   UNL     1       1.076  -0.981   0.691  0.00  0.00    +0.402 N 
ATOM      3  H   UNL     1       1.938  -0.592   0.308  0.00  0.00    -0.078 HD
BRANCH   2   4
ATOM      4  C   UNL     1       0.881  -2.314   0.128  0.00  0.00    +0.035 C 
BRANCH   4   6
ATOM      5  O   UNL     1       3.272  -2.483   0.386  0.00  0.00    -0.253 OA
ATOM      6  C   UNL     1       2.217  -2.998   0.036  0.00  0.00    +0.293 C 
BRANCH   6   7
ATOM      7  O   UNL     1       2.141  -4.236  -0.514  0.00  0.00    -0.482 OA
ATOM      8  H   UNL     1       1.310  -4.587  -0.766  0.00  0.00    +0.295 HD
ENDBRANCH   6   7
ENDBRANCH   4   6
ENDBRANCH   2   4
BRANCH   2   9
ATOM      9  C   UNL     1       1.208  -1.050   2.144  0.00  0.00    +0.035 C 
BRANCH   9  11
ATOM     10  O   UNL     1       2.688   0.844   1.964  0.00  0.00    -0.253 OA
ATOM     11  C   UNL     1       1.879   0.207   2.626  0.00  0.00    +0.293 C 
BRANCH  11  12
ATOM     12  O   UNL     1       1.525   0.543   3.893  0.00  0.00    -0.482 OA
ATOM     13  H   UNL     1       0.900   0.023   4.359  0.00  0.00    +0.295 HD
ENDBRANCH  11  12
ENDBRANCH   9  11
ENDBRANCH   2   9
ENDBRANCH   1   2
BRANCH   1  14
ATOM     14  C   UNL     1      -1.347  -0.909   0.479  0.00  0.00    -0.097 C 
BRANCH  14  15
ATOM     15  N   UNL     1      -2.525  -0.095   0.193  0.00  0.00    +0.400 N 
ATOM     16  H   UNL     1      -2.321   0.490  -0.618  0.00  0.00    -0.078 HD
BRANCH  15  17
ATOM     17  C   UNL     1      -2.834   0.777   1.327  0.00  0.00    +0.035 C 
BRANCH  17  19
ATOM     18  O   UNL     1      -3.544   2.412  -0.296  0.00  0.00    -0.253 OA
ATOM     19  C   UNL     1      -3.643   1.943   0.831  0.00  0.00    +0.293 C 
BRANCH  19  20
ATOM     20  O   UNL     1      -4.471   2.453   1.778  0.00  0.00    -0.482 OA
ATOM     21  H   UNL     1      -4.512   2.059   2.627  0.00  0.00    +0.295 HD
ENDBRANCH  19  20
ENDBRANCH  17  19
ENDBRANCH  15  17
BRANCH  15  22
ATOM     22  C   UNL     1      -3.672  -0.945  -0.123  0.00  0.00    +0.035 C 
BRANCH  22  24
ATOM     23  O   UNL     1      -2.957  -0.825  -2.422  0.00  0.00    -0.253 OA
ATOM     24  C   UNL     1      -3.526  -1.447  -1.533  0.00  0.00    +0.293 C 
BRANCH  24  25
ATOM     25  O   UNL     1      -4.127  -2.647  -1.733  0.00  0.00    -0.482 OA
ATOM     26  H   UNL     1      -4.549  -3.084  -1.020  0.00  0.00    +0.295 HD
ENDBRANCH  24  25
ENDBRANCH  22  24
ENDBRANCH  15  22
ENDBRANCH  14  15
ENDBRANCH   1  14
BRANCH   1  27
ATOM     27  C   UNL     1       0.144   0.419  -1.117  0.00  0.00    +0.004 C 
BRANCH  27  28
ATOM     28  C   UNL     1       1.426   1.192  -1.322  0.00  0.00    -0.024 C 
ATOM     29  C   UNL     1       2.588   0.526  -1.714  0.00  0.00    -0.004 C 
ATOM     30  C   UNL     1       1.449   2.572  -1.118  0.00  0.00    -0.004 C 
ATOM     31  C   UNL     1       3.771   1.240  -1.903  0.00  0.00    -0.000 C 
ATOM     32  C   UNL     1       2.632   3.286  -1.307  0.00  0.00    -0.000 C 
ATOM     33  C   UNL     1       3.793   2.620  -1.700  0.00  0.00    -0.000 C 
ENDBRANCH  27  28
ENDBRANCH   1  27
TORSDOF 17
