129260
  -OEChem-03292013323D

 36 37  0     1  0  0  0  0  0999 V2000
   -4.6954    1.1384    0.5982 S   0  0  0  0  0  0  0  0  0  0  0  0
   -0.7678   -0.8329   -1.0275 O   0  0  0  0  0  0  0  0  0  0  0  0
   -6.2436    0.6858    0.8416 O   0  0  0  0  0  0  0  0  0  0  0  0
   -2.6087    1.1968   -1.8188 O   0  0  0  0  0  0  0  0  0  0  0  0
   -2.2542   -2.9088    0.2473 O   0  0  0  0  0  0  0  0  0  0  0  0
   -4.6860    2.4503   -0.0244 O   0  0  0  0  0  0  0  0  0  0  0  0
   -3.9363    0.8679    1.8064 O   0  0  0  0  0  0  0  0  0  0  0  0
   -0.5345    0.2076    1.0194 O   0  0  0  0  0  0  0  0  0  0  0  0
    7.7805    0.1477   -0.4201 O   0  0  0  0  0  0  0  0  0  0  0  0
   -2.1284   -0.8303   -0.7876 N   0  0  0  0  0  0  0  0  0  0  0  0
   -4.2876   -0.0750   -0.6144 C   0  0  2  0  0  0  0  0  0  0  0  0
   -4.1932   -1.4825   -0.0172 C   0  0  0  0  0  0  0  0  0  0  0  0
   -2.9193    0.2039   -1.1787 C   0  0  0  0  0  0  0  0  0  0  0  0
   -2.7413   -1.8613   -0.1492 C   0  0  0  0  0  0  0  0  0  0  0  0
    1.4287   -0.2938   -0.3251 C   0  0  0  0  0  0  0  0  0  0  0  0
    2.2741    0.3034    0.7994 C   0  0  0  0  0  0  0  0  0  0  0  0
   -0.0480   -0.2595   -0.0016 C   0  0  0  0  0  0  0  0  0  0  0  0
    3.7447    0.2618    0.4739 C   0  0  0  0  0  0  0  0  0  0  0  0
    4.4936   -0.8462    0.8423 C   0  0  0  0  0  0  0  0  0  0  0  0
    4.3268    1.3321   -0.1891 C   0  0  0  0  0  0  0  0  0  0  0  0
    5.8551   -0.8845    0.5410 C   0  0  0  0  0  0  0  0  0  0  0  0
    5.6882    1.2937   -0.4905 C   0  0  0  0  0  0  0  0  0  0  0  0
    6.4524    0.1854   -0.1253 C   0  0  0  0  0  0  0  0  0  0  0  0
   -5.0287   -0.0235   -1.4179 H   0  0  0  0  0  0  0  0  0  0  0  0
   -4.7822   -2.1877   -0.6137 H   0  0  0  0  0  0  0  0  0  0  0  0
   -4.5075   -1.5555    1.0272 H   0  0  0  0  0  0  0  0  0  0  0  0
    1.5855    0.2673   -1.2537 H   0  0  0  0  0  0  0  0  0  0  0  0
    1.7145   -1.3385   -0.4953 H   0  0  0  0  0  0  0  0  0  0  0  0
    2.0887   -0.2335    1.7392 H   0  0  0  0  0  0  0  0  0  0  0  0
    1.9684    1.3400    0.9939 H   0  0  0  0  0  0  0  0  0  0  0  0
   -6.8640    0.8797    0.1000 H   0  0  0  0  0  0  0  0  0  0  0  0
    4.0371   -1.6852    1.3598 H   0  0  0  0  0  0  0  0  0  0  0  0
    3.7398    2.1988   -0.4793 H   0  0  0  0  0  0  0  0  0  0  0  0
    6.4392   -1.7541    0.8304 H   0  0  0  0  0  0  0  0  0  0  0  0
    6.1476    2.1300   -1.0104 H   0  0  0  0  0  0  0  0  0  0  0  0
    8.1516   -0.6907   -0.0952 H   0  0  0  0  0  0  0  0  0  0  0  0
  1  3  1  0  0  0  0
  1  6  2  0  0  0  0
  1  7  2  0  0  0  0
  1 11  1  0  0  0  0
  2 10  1  0  0  0  0
  2 17  1  0  0  0  0
  3 31  1  0  0  0  0
  4 13  2  0  0  0  0
  5 14  2  0  0  0  0
  8 17  2  0  0  0  0
  9 23  1  0  0  0  0
  9 36  1  0  0  0  0
 10 13  1  0  0  0  0
 10 14  1  0  0  0  0
 11 12  1  0  0  0  0
 11 13  1  0  0  0  0
 11 24  1  0  0  0  0
 12 14  1  0  0  0  0
 12 25  1  0  0  0  0
 12 26  1  0  0  0  0
 15 16  1  0  0  0  0
 15 17  1  0  0  0  0
 15 27  1  0  0  0  0
 15 28  1  0  0  0  0
 16 18  1  0  0  0  0
 16 29  1  0  0  0  0
 16 30  1  0  0  0  0
 18 19  2  0  0  0  0
 18 20  1  0  0  0  0
 19 21  1  0  0  0  0
 19 32  1  0  0  0  0
 20 22  2  0  0  0  0
 20 33  1  0  0  0  0
 21 23  2  0  0  0  0
 21 34  1  0  0  0  0
 22 23  1  0  0  0  0
 22 35  1  0  0  0  0
M  END
> <PUBCHEM_COMPOUND_CID>
129260

> <PUBCHEM_CONFORMER_RMSD>
0.8

> <PUBCHEM_CONFORMER_DIVERSEORDER>
1
43
187
62
192
202
220
102
307
12
274
183
190
94
136
219
115
120
178
65
198
36
286
113
118
3
41
16
276
150
96
167
20
297
264
86
6
193
250
137
246
298
130
124
110
215
23
230
8
87
71
56
240
168
290
27
103
147
282
251
109
70
238
4
30
31
186
78
114
38
265
61
77
257
11
180
92
163
177
245
157
242
45
66
117
291
295
108
179
205
231
159
191
22
37
247
72
145
300
226
182
44
32
262
144
299
54
2
273
228
154
142
85
100
64
181
76
279
135
55
161
203
151
67
207
271
175
93
13
270
212
263
119
234
196
258
122
244
162
253
140
99
266
306
221
229
125
174
138
69
91
141
255
134
169
252
239
218
269
129
121
82
185
156
139
111
275
280
197
105
60
284
112
58
214
176
261
217
309
287
148
281
74
53
166
131
126
132
5
84
223
155
213
293
308
83
277
288
199
59
153
18
63
127
222
305
26
39
235
28
57
81
268
9
160
189
68
301
42
278
285
170
10
256
25
143
88
195
73
98
106
95
260
216
227
123
188
201
303
14
152
310
254
46
259
17
173
289
19
267
24
237
206
232
272
224
211
52
80
209
33
97
158
104
48
302
47
89
146
101
79
165
208
7
225
210
292
171
21
236
184
248
128
249
304
294
75
149
51
172
204
34
90
233
50
49
29
200
35
164
243
15
40
133
107
241
296
116
194
283

> <PUBCHEM_MMFF94_PARTIAL_CHARGES>
29
1 1.38
10 -0.08
11 0.17
12 0.06
13 0.57
14 0.57
15 0.06
16 0.14
17 0.66
18 -0.14
19 -0.15
2 -0.19
20 -0.15
21 -0.15
22 -0.15
23 0.08
3 -0.68
31 0.5
32 0.15
33 0.15
34 0.15
35 0.15
36 0.45
4 -0.57
5 -0.57
6 -0.65
7 -0.65
8 -0.57
9 -0.53

> <PUBCHEM_EFFECTIVE_ROTOR_COUNT>
6.6

> <PUBCHEM_PHARMACOPHORE_FEATURES>
10
1 3 acceptor
1 4 acceptor
1 5 acceptor
1 6 acceptor
1 7 acceptor
1 8 acceptor
1 9 donor
4 1 3 6 7 anion
5 10 11 12 13 14 rings
6 18 19 20 21 22 23 rings

> <PUBCHEM_HEAVY_ATOM_COUNT>
23

> <PUBCHEM_ATOM_DEF_STEREO_COUNT>
0

> <PUBCHEM_ATOM_UDEF_STEREO_COUNT>
1

> <PUBCHEM_BOND_DEF_STEREO_COUNT>
0

> <PUBCHEM_BOND_UDEF_STEREO_COUNT>
0

> <PUBCHEM_ISOTOPIC_ATOM_COUNT>
0

> <PUBCHEM_COMPONENT_COUNT>
1

> <PUBCHEM_CACTVS_TAUTO_COUNT>
8

> <PUBCHEM_CONFORMER_ID>
0001F8EC00000001

> <PUBCHEM_MMFF94_ENERGY>
43.6492

> <PUBCHEM_FEATURE_SELFOVERLAP>
50.803

> <PUBCHEM_SHAPE_FINGERPRINT>
10 15 18335427850810049353
106641 1 18041005051267528593
11089746 13 13039188104742678386
11315181 36 18336545014310352015
11405975 8 18410285952192267938
11796584 16 18131634508963741246
12107183 9 17684917017405212968
12236239 1 18413107282202647616
12730499 353 16805322176835216306
12788726 201 17559957623439293753
13914758 101 13182750212241133915
1420 363 15719392828491184400
14251752 14 18202002101773314400
14251764 18 18411698794226570215
14341114 176 18113616785700789500
14933364 13 18334858333804237468
15183329 4 18411415103537072380
15716309 27 12107786311379473688
17093844 174 17775559862540568306
17844677 252 18340209712504435616
19489759 90 17203610384649138011
20281389 69 18412542111113363664
20645477 56 18187640289027525959
21033648 29 17560786775882367706
220451 1 18186518813628224306
23198884 109 18343018908657094025
23402539 116 16702017587063567308
23522609 53 17968961733358657708
23536379 177 18408882941227582762
23559900 14 18342167921539270992
2838139 119 16917062223245570201
29717793 49 17846504734375109844
3004659 81 18413106170064606858
4015057 19 11887657507587679910
4073 2 18114184202858315066
4214541 1 18335134323775356286
474229 33 11169914974439892384
497634 4 18262231231060340879
5104073 3 18262790878468560090
531348 171 15625948590399358613
542803 24 18411979170081724886
59755656 215 16558758880281291124
59755656 520 18412820292472592135
7226269 152 17988925543965693185
90127 26 17774716584371823466

> <PUBCHEM_SHAPE_MULTIPOLES>
425.24
17.84
1.83
1.15
20.18
0.45
0
-4.07
-1.09
-2.26
-0.02
-0.96
-0.25
-0.88

> <PUBCHEM_SHAPE_SELFOVERLAP>
890.512

> <PUBCHEM_SHAPE_VOLUME>
240.5

> <PUBCHEM_COORDINATE_TYPE>
2
5
10

$$$$
