REMARK  Name = 129262
REMARK  9 active torsions:
REMARK  status: ('A' for Active; 'I' for Inactive)
REMARK    1  A    between atoms: C_1  and  N_2
REMARK    2  A    between atoms: C_1  and  C_14
REMARK    3  A    between atoms: N_2  and  S_4
REMARK    4  A    between atoms: S_4  and  C_8
REMARK    5  A    between atoms: C_14  and  C_16
REMARK    6  A    between atoms: C_18  and  O_20
REMARK    7  A    between atoms: O_20  and  C_21
REMARK    8  A    between atoms: C_21  and  C_23
REMARK    9  A    between atoms: C_23  and  O_24
REMARK                            x       y       z     vdW  Elec       q    Type
REMARK                         _______ _______ _______ _____ _____    ______ ____
ROOT
ATOM      1  C   UNL     1       2.961  -2.110   0.703  0.00  0.00    +0.097 C 
ENDROOT
BRANCH   1   2
ATOM      2  N   UNL     1       3.222  -1.195  -0.418  0.00  0.00    -0.179 NA
ATOM      3  H   UNL     1       3.943  -1.631  -0.993  0.00  0.00    +0.149 HD
BRANCH   2   4
ATOM      4  S   UNL     1       3.737   0.405  -0.110  0.00  0.00    +0.060 S 
ATOM      5  O   UNL     1       4.472   0.889  -1.270  0.00  0.00    -0.153 OA
ATOM      6  O   UNL     1       4.369   0.445   1.202  0.00  0.00    -0.153 OA
BRANCH   4   8
ATOM      7 CL   UNL     1      -1.679   3.513   0.286  0.00  0.00    -0.082 Cl
ATOM      8  C   UNL     1       2.226   1.272   0.001  0.00  0.00    +0.122 C 
ATOM      9  C   UNL     1       1.584   1.401   1.233  0.00  0.00    +0.021 C 
ATOM     10  C   UNL     1       1.660   1.835  -1.143  0.00  0.00    +0.021 C 
ATOM     11  C   UNL     1       0.377   2.094   1.321  0.00  0.00    +0.013 C 
ATOM     12  C   UNL     1       0.452   2.528  -1.055  0.00  0.00    +0.013 C 
ATOM     13  C   UNL     1      -0.189   2.658   0.177  0.00  0.00    +0.058 C 
ENDBRANCH   4   8
ENDBRANCH   2   4
ENDBRANCH   1   2
BRANCH   1  14
ATOM     14  C   UNL     1       1.884  -3.123   0.325  0.00  0.00    +0.052 C 
BRANCH  14  16
ATOM     15  S   UNL     1      -0.569  -2.171   1.156  0.00  0.00    -0.055 S 
ATOM     16  C   UNL     1       0.579  -2.468  -0.059  0.00  0.00    +0.012 C 
ATOM     17  C   UNL     1       0.188  -2.069  -1.298  0.00  0.00    +0.006 C 
ATOM     18  C   UNL     1      -1.641  -1.483   0.012  0.00  0.00    +0.169 C 
ATOM     19  C   UNL     1      -1.114  -1.491  -1.261  0.00  0.00    +0.044 C 
BRANCH  18  20
ATOM     20  O   UNL     1      -2.826  -1.021   0.400  0.00  0.00    -0.458 OA
BRANCH  20  21
ATOM     21  C   UNL     1      -3.695  -0.450  -0.598  0.00  0.00    +0.314 C 
BRANCH  21  23
ATOM     22  O   UNL     1      -5.249  -0.075   1.231  0.00  0.00    -0.246 OA
ATOM     23  C   UNL     1      -4.968   0.024   0.047  0.00  0.00    +0.359 C 
BRANCH  23  24
ATOM     24  O   UNL     1      -5.780   0.591  -0.881  0.00  0.00    -0.478 OA
ATOM     25  H   UNL     1      -5.507   0.638  -1.776  0.00  0.00    +0.295 HD
ENDBRANCH  23  24
ENDBRANCH  21  23
ENDBRANCH  20  21
ENDBRANCH  18  20
ENDBRANCH  14  16
ENDBRANCH   1  14
TORSDOF 9
