REMARK  Name = 129282
REMARK  11 active torsions:
REMARK  status: ('A' for Active; 'I' for Inactive)
REMARK    1  A    between atoms: C_1  and  C_8
REMARK    2  A    between atoms: C_2  and  C_19
REMARK    3  A    between atoms: C_3  and  C_23
REMARK    4  A    between atoms: C_8  and  O_9
REMARK    5  A    between atoms: O_9  and  C_10
REMARK    6  A    between atoms: C_10  and  C_11
REMARK    7  A    between atoms: C_11  and  O_12
REMARK    8  A    between atoms: O_12  and  C_14
REMARK    9  A    between atoms: C_14  and  C_15
REMARK   10  A    between atoms: C_19  and  O_20
REMARK   11  A    between atoms: C_23  and  O_24
REMARK                            x       y       z     vdW  Elec       q    Type
REMARK                         _______ _______ _______ _____ _____    ______ ____
ROOT
ATOM      1  C   UNL     1      -1.128  -1.589  -0.179  0.00  0.00    +0.076 C 
ATOM      2  C   UNL     1      -2.161   0.559  -0.017  0.00  0.00    +0.082 C 
ATOM      3  C   UNL     1      -3.404  -0.059   0.121  0.00  0.00    +0.082 C 
ATOM      4  C   UNL     1      -1.010  -0.214  -0.169  0.00  0.00    +0.013 C 
ATOM      5  C   UNL     1      -2.345  -2.224  -0.045  0.00  0.00    +0.007 C 
ATOM      6  C   UNL     1      -3.496  -1.450   0.107  0.00  0.00    +0.007 C 
ENDROOT
BRANCH   1   8
ATOM      7  O   UNL     1       0.100  -3.511  -0.876  0.00  0.00    -0.245 OA
ATOM      8  C   UNL     1       0.097  -2.413  -0.341  0.00  0.00    +0.341 C 
BRANCH   8   9
ATOM      9  O   UNL     1       1.180  -1.774   0.181  0.00  0.00    -0.441 OA
BRANCH   9  10
ATOM     10  C   UNL     1       2.419  -2.466   0.084  0.00  0.00    +0.256 C 
BRANCH  10  11
ATOM     11  C   UNL     1       3.510  -1.617   0.710  0.00  0.00    +0.256 C 
BRANCH  11  12
ATOM     12  O   UNL     1       3.605  -0.379  -0.003  0.00  0.00    -0.442 OA
BRANCH  12  14
ATOM     13  O   UNL     1       5.303   0.303   1.393  0.00  0.00    -0.245 OA
ATOM     14  C   UNL     1       4.549   0.490   0.449  0.00  0.00    +0.337 C 
BRANCH  14  15
ATOM     15  C   UNL     1       4.530   1.725  -0.385  0.00  0.00    +0.054 C 
ATOM     16  C   UNL     1       3.563   1.855  -1.522  0.00  0.00    +0.038 C 
ATOM     17  C   UNL     1       5.404   2.693  -0.071  0.00  0.00    +0.002 C 
ENDBRANCH  14  15
ENDBRANCH  12  14
ENDBRANCH  11  12
ENDBRANCH  10  11
ENDBRANCH   9  10
ENDBRANCH   8   9
ENDBRANCH   1   8
BRANCH   2  19
ATOM     18  O   UNL     1      -2.771   2.788   0.603  0.00  0.00    -0.245 OA
ATOM     19  C   UNL     1      -2.032   2.011  -0.007  0.00  0.00    +0.338 C 
BRANCH  19  20
ATOM     20  O   UNL     1      -0.983   2.443  -0.757  0.00  0.00    -0.477 OA
ATOM     21  H   UNL     1      -0.442   1.823  -1.206  0.00  0.00    +0.295 HD
ENDBRANCH  19  20
ENDBRANCH   2  19
BRANCH   3  23
ATOM     22  O   UNL     1      -5.102   1.086   1.357  0.00  0.00    -0.245 OA
ATOM     23  C   UNL     1      -4.624   0.722   0.280  0.00  0.00    +0.338 C 
BRANCH  23  24
ATOM     24  O   UNL     1      -5.206   1.022  -0.912  0.00  0.00    -0.477 OA
ATOM     25  H   UNL     1      -4.815   0.729  -1.712  0.00  0.00    +0.295 HD
ENDBRANCH  23  24
ENDBRANCH   3  23
TORSDOF 11
