REMARK  Name = 129235
REMARK  8 active torsions:
REMARK  status: ('A' for Active; 'I' for Inactive)
REMARK    1  A    between atoms: C_2  and  O_16
REMARK    2  A    between atoms: C_3  and  O_18
REMARK    3  A    between atoms: C_4  and  C_20
REMARK    4  A    between atoms: C_5  and  N_6
REMARK    5  A    between atoms: C_10  and  C_13
REMARK    6  A    between atoms: C_20  and  O_21
REMARK    7  A    between atoms: O_21  and  S_22
REMARK    8  A    between atoms: S_22  and  N_25
REMARK                            x       y       z     vdW  Elec       q    Type
REMARK                         _______ _______ _______ _____ _____    ______ ____
ROOT
ATOM      1  O   UNL     1       0.529  -1.090   1.066  0.00  0.00    -0.332 OA
ATOM      2  C   UNL     1       1.250  -2.767  -0.462  0.00  0.00    +0.171 C 
ATOM      3  C   UNL     1      -0.184  -2.392  -0.779  0.00  0.00    +0.188 C 
ATOM      4  C   UNL     1       1.710  -1.595   0.400  0.00  0.00    +0.178 C 
ATOM      5  C   UNL     1      -0.628  -1.760   0.531  0.00  0.00    +0.240 C 
ENDROOT
BRANCH   5   6
ATOM      6  N   UNL     1      -1.728  -0.808   0.390  0.00  0.00    -0.172 N 
ATOM      7  N   UNL     1      -1.492   0.478   0.092  0.00  0.00    -0.120 NA
ATOM      8  N   UNL     1      -3.730   0.065   0.323  0.00  0.00    -0.191 NA
ATOM      9  C   UNL     1      -3.060  -1.046   0.526  0.00  0.00    +0.250 C 
ATOM     10  C   UNL     1      -2.735   0.963   0.063  0.00  0.00    +0.104 C 
BRANCH  10  13
ATOM     11  O   UNL     1      -2.100   3.174  -0.484  0.00  0.00    -0.259 OA
ATOM     12  N   UNL     1      -4.328   2.763  -0.232  0.00  0.00    -0.317 N 
ATOM     13  C   UNL     1      -2.996   2.341  -0.223  0.00  0.00    +0.307 C 
ATOM     14  H   UNL     1      -4.546   3.704  -0.425  0.00  0.00    +0.146 HD
ATOM     15  H   UNL     1      -5.049   2.119  -0.046  0.00  0.00    +0.146 HD
ENDBRANCH  10  13
ENDBRANCH   5   6
BRANCH   2  16
ATOM     16  O   UNL     1       1.268  -3.955   0.329  0.00  0.00    -0.379 OA
ATOM     17  H   UNL     1       0.977  -4.707  -0.211  0.00  0.00    +0.211 HD
ENDBRANCH   2  16
BRANCH   3  18
ATOM     18  O   UNL     1      -0.983  -3.505  -1.126  0.00  0.00    -0.378 OA
ATOM     19  H   UNL     1      -0.670  -3.879  -1.964  0.00  0.00    +0.211 HD
ENDBRANCH   3  18
BRANCH   4  20
ATOM     20  C   UNL     1       2.323  -0.464  -0.413  0.00  0.00    +0.206 C 
BRANCH  20  21
ATOM     21  O   UNL     1       2.706   0.574   0.471  0.00  0.00    -0.227 OA
BRANCH  21  22
ATOM     22  S   UNL     1       3.401   1.934  -0.120  0.00  0.00    +0.045 S 
ATOM     23  O   UNL     1       4.683   1.581  -0.700  0.00  0.00    -0.056 OA
ATOM     24  O   UNL     1       2.403   2.617  -0.924  0.00  0.00    -0.056 OA
BRANCH  22  25
ATOM     25  N   UNL     1       3.690   2.893   1.272  0.00  0.00    -0.204 NA
ATOM     26  H   UNL     1       4.389   2.438   1.859  0.00  0.00    +0.144 HD
ATOM     27  H   UNL     1       2.822   2.999   1.798  0.00  0.00    +0.144 HD
ENDBRANCH  22  25
ENDBRANCH  21  22
ENDBRANCH  20  21
ENDBRANCH   4  20
TORSDOF 8
