REMARK  Name = 129258
REMARK  3 active torsions:
REMARK  status: ('A' for Active; 'I' for Inactive)
REMARK    1  A    between atoms: N_3  and  C_26
REMARK    2  A    between atoms: C_12  and  O_21
REMARK    3  A    between atoms: C_16  and  O_23
REMARK                            x       y       z     vdW  Elec       q    Type
REMARK                         _______ _______ _______ _____ _____    ______ ____
ROOT
ATOM      1  O   UNL     1      -0.529  -2.814   0.000  0.00  0.00    -0.287 OA
ATOM      2  O   UNL     1      -1.716   2.462  -0.001  0.00  0.00    -0.285 OA
ATOM      3  N   UNL     1       1.060   1.478   0.000  0.00  0.00    -0.242 N 
ATOM      4  C   UNL     1       0.237  -0.586   0.001  0.00  0.00    +0.063 A 
ATOM      5  C   UNL     1       1.660  -0.676   0.000  0.00  0.00    +0.055 A 
ATOM      6  C   UNL     1      -0.099   0.751   0.001  0.00  0.00    +0.116 A 
ATOM      7  C   UNL     1       2.148   0.634   0.000  0.00  0.00    +0.077 A 
ATOM      8  C   UNL     1      -0.781  -1.617   0.001  0.00  0.00    +0.197 C 
ATOM      9  C   UNL     1      -2.197  -1.141   0.000  0.00  0.00    +0.045 C 
ATOM     10  C   UNL     1      -2.515   0.233   0.000  0.00  0.00    +0.077 C 
ATOM     11  C   UNL     1      -1.441   1.269   0.001  0.00  0.00    +0.215 C 
ATOM     12  C   UNL     1       2.587  -1.739   0.000  0.00  0.00    +0.135 C 
ATOM     13  C   UNL     1       3.516   0.932   0.000  0.00  0.00    +0.014 C 
ATOM     14  C   UNL     1       4.413  -0.139   0.000  0.00  0.00    -0.017 C 
ATOM     15  C   UNL     1       3.958  -1.455   0.000  0.00  0.00    +0.032 C 
ATOM     16  C   UNL     1      -3.854   0.639   0.000  0.00  0.00    +0.137 C 
ATOM     17  C   UNL     1      -3.227  -2.090  -0.001  0.00  0.00    +0.003 C 
ATOM     18  C   UNL     1      -4.871  -0.315  -0.001  0.00  0.00    +0.037 C 
ATOM     19  C   UNL     1       5.881   0.134  -0.001  0.00  0.00    +0.031 C 
ATOM     20  C   UNL     1      -4.559  -1.674  -0.001  0.00  0.00    +0.003 C 
ENDROOT
BRANCH  12  21
ATOM     21  O   UNL     1       2.198  -3.053   0.000  0.00  0.00    -0.505 OA
ATOM     22  H   UNL     1       1.287  -3.271   0.000  0.00  0.00    +0.292 HD
ENDBRANCH  12  21
BRANCH  16  23
ATOM     23  O   UNL     1      -4.232   1.949   0.001  0.00  0.00    -0.505 OA
ATOM     24  H   UNL     1      -3.583   2.624   0.002  0.00  0.00    +0.292 HD
ENDBRANCH  16  23
BRANCH   3  26
ATOM     25  N   UNL     1       1.218   3.987  -0.001  0.00  0.00    -0.171 NA
ATOM     26  C   UNL     1       1.145   2.829   0.000  0.00  0.00    +0.189 C 
ENDBRANCH   3  26
TORSDOF 3
