REMARK  Name = 129280
REMARK  14 active torsions:
REMARK  status: ('A' for Active; 'I' for Inactive)
REMARK    1  A    between atoms: C_1  and  C_8
REMARK    2  A    between atoms: C_2  and  O_19
REMARK    3  A    between atoms: C_3  and  O_17
REMARK    4  A    between atoms: C_5  and  C_36
REMARK    5  A    between atoms: C_7  and  C_14
REMARK    6  A    between atoms: O_19  and  C_22
REMARK    7  A    between atoms: C_21  and  O_26
REMARK    8  A    between atoms: C_23  and  O_28
REMARK    9  A    between atoms: C_24  and  O_30
REMARK   10  A    between atoms: C_25  and  C_33
REMARK   11  A    between atoms: C_33  and  O_34
REMARK   12  A    between atoms: C_36  and  C_37
REMARK   13  A    between atoms: C_37  and  C_38
REMARK   14  A    between atoms: C_38  and  C_39
REMARK                            x       y       z     vdW  Elec       q    Type
REMARK                         _______ _______ _______ _____ _____    ______ ____
ROOT
ATOM      1  C   UNL     1      -0.104  -1.877  -0.417  0.00  0.00    +0.049 C 
ATOM      2  C   UNL     1      -0.401  -0.957   0.588  0.00  0.00    +0.140 C 
ATOM      3  C   UNL     1      -1.131  -2.592  -1.034  0.00  0.00    +0.133 C 
ATOM      4  C   UNL     1      -1.725  -0.751   0.976  0.00  0.00    +0.033 C 
ATOM      5  C   UNL     1      -2.752  -1.465   0.359  0.00  0.00    -0.016 C 
ATOM      6  C   UNL     1      -2.455  -2.386  -0.646  0.00  0.00    +0.032 C 
ENDROOT
BRANCH   1   8
ATOM      7  C   UNL     1       2.205  -2.643   0.334  0.00  0.00    +0.027 C 
ATOM      8  C   UNL     1       1.343  -2.103  -0.841  0.00  0.00    +0.053 C 
ATOM      9  C   UNL     1       3.698  -2.541  -0.002  0.00  0.00    +0.009 C 
ATOM     10  C   UNL     1       4.104  -1.094  -0.287  0.00  0.00    +0.022 C 
ATOM     11  C   UNL     1       1.926  -0.857  -1.476  0.00  0.00    -0.030 C 
ATOM     12  C   UNL     1       3.156  -0.383  -1.216  0.00  0.00    -0.048 C 
ATOM     13  C   UNL     1       3.666   0.884  -1.838  0.00  0.00    +0.026 C 
BRANCH   7  14
ATOM     14  C   UNL     1       1.848  -4.064   0.667  0.00  0.00    -0.044 C 
ATOM     15  C   UNL     1       1.347  -4.311   2.059  0.00  0.00    +0.026 C 
ATOM     16  C   UNL     1       1.972  -5.055  -0.228  0.00  0.00    -0.009 C 
ENDBRANCH   7  14
ENDBRANCH   1   8
BRANCH   3  17
ATOM     17  O   UNL     1      -0.860  -3.495  -2.017  0.00  0.00    -0.506 OA
ATOM     18  H   UNL     1       0.025  -3.643  -2.287  0.00  0.00    +0.292 HD
ENDBRANCH   3  17
BRANCH   2  19
ATOM     19  O   UNL     1       0.593  -0.247   1.204  0.00  0.00    -0.451 OA
BRANCH  19  22
ATOM     20  O   UNL     1       0.571   1.557  -0.275  0.00  0.00    -0.307 OA
ATOM     21  C   UNL     1       1.717   1.762   1.853  0.00  0.00    +0.210 C 
ATOM     22  C   UNL     1       0.525   1.174   1.097  0.00  0.00    +0.318 C 
ATOM     23  C   UNL     1       1.794   3.278   1.673  0.00  0.00    +0.173 C 
ATOM     24  C   UNL     1       1.668   3.672   0.202  0.00  0.00    +0.178 C 
ATOM     25  C   UNL     1       0.484   2.966  -0.447  0.00  0.00    +0.246 C 
BRANCH  21  26
ATOM     26  O   UNL     1       1.563   1.457   3.239  0.00  0.00    -0.377 OA
ATOM     27  H   UNL     1       1.514   0.495   3.355  0.00  0.00    +0.211 HD
ENDBRANCH  21  26
BRANCH  23  28
ATOM     28  O   UNL     1       3.054   3.752   2.152  0.00  0.00    -0.379 OA
ATOM     29  H   UNL     1       3.155   3.513   3.086  0.00  0.00    +0.211 HD
ENDBRANCH  23  28
BRANCH  24  30
ATOM     30  O   UNL     1       1.467   5.082   0.111  0.00  0.00    -0.379 OA
ATOM     31  H   UNL     1       2.216   5.542   0.522  0.00  0.00    +0.211 HD
ENDBRANCH  24  30
BRANCH  25  33
ATOM     32  O   UNL     1       0.639   2.224  -2.739  0.00  0.00    -0.247 OA
ATOM     33  C   UNL     1       0.510   3.133  -1.932  0.00  0.00    +0.344 C 
BRANCH  33  34
ATOM     34  O   UNL     1       0.372   4.439  -2.270  0.00  0.00    -0.478 OA
ATOM     35  H   UNL     1       0.277   5.088  -1.601  0.00  0.00    +0.295 HD
ENDBRANCH  33  34
ENDBRANCH  25  33
ENDBRANCH  19  22
ENDBRANCH   2  19
BRANCH   5  36
ATOM     36  C   UNL     1      -4.167  -1.244   0.773  0.00  0.00    +0.027 C 
BRANCH  36  37
ATOM     37  C   UNL     1      -4.895  -0.139  -0.014  0.00  0.00    +0.005 C 
BRANCH  37  38
ATOM     38  C   UNL     1      -6.323   0.104   0.484  0.00  0.00    +0.000 C 
BRANCH  38  39
ATOM     39  C   UNL     1      -7.002   1.224  -0.305  0.00  0.00    +0.000 C 
ATOM     40  C   UNL     1      -8.406   1.496   0.210  0.00  0.00    +0.000 C 
ENDBRANCH  38  39
ENDBRANCH  37  38
ENDBRANCH  36  37
ENDBRANCH   5  36
TORSDOF 14
