REMARK  Name = 129205
REMARK  12 active torsions:
REMARK  status: ('A' for Active; 'I' for Inactive)
REMARK    1  A    between atoms: N_2  and  CA_5
REMARK    2  A    between atoms: C_3  and  C_18
REMARK    3  A    between atoms: CA_5  and  C_7
REMARK    4  A    between atoms: CA_5  and  CB_10
REMARK    5  A    between atoms: C_7  and  O_8
REMARK    6  A    between atoms: CB_10  and  CG_11
REMARK    7  A    between atoms: CG_11  and  CD_12
REMARK    8  A    between atoms: CD_12  and  CE_13
REMARK    9  A    between atoms: CE_13  and  NZ_14
REMARK   10  A    between atoms: C_18  and  N_20
REMARK   11  A    between atoms: C_21  and  C_23
REMARK   12  A    between atoms: C_28  and  O_29
REMARK                            x       y       z     vdW  Elec       q    Type
REMARK                         _______ _______ _______ _____ _____    ______ ____
ROOT
ATOM      1  O   UNK A   0       0.211   0.488   1.028  0.00  0.00    -0.273 OA
ATOM      2  N   LYS A   1       2.029   0.416  -0.420  0.00  0.00    -0.295 N 
ATOM      3  C   UNK A   0       0.708   0.184  -0.054  0.00  0.00    +0.243 C 
ATOM      4  H   LYS A   1       2.321   0.130  -1.316  0.00  0.00    +0.150 HD
ENDROOT
BRANCH   2   5
ATOM      5  CA  LYS A   1       2.991   1.054   0.441  0.00  0.00    +0.171 C 
BRANCH   5   7
ATOM      6  OXT LYS A   1       2.564   3.087  -0.833  0.00  0.00    -0.248 OA
ATOM      7  C   LYS A   1       2.832   2.547   0.232  0.00  0.00    +0.332 C 
BRANCH   7   8
ATOM      8  O   LYS A   1       3.074   3.247   1.372  0.00  0.00    -0.479 OA
ATOM      9  H   LYS A   1       3.276   2.793   2.166  0.00  0.00    +0.295 HD
ENDBRANCH   7   8
ENDBRANCH   5   7
BRANCH   5  10
ATOM     10  CB  LYS A   1       4.427   0.628   0.129  0.00  0.00    +0.031 C 
BRANCH  10  11
ATOM     11  CG  LYS A   1       4.712  -0.864   0.343  0.00  0.00    +0.000 C 
BRANCH  11  12
ATOM     12  CD  LYS A   1       6.172  -1.245   0.074  0.00  0.00    -0.024 C 
BRANCH  12  13
ATOM     13  CE  LYS A   1       6.436  -2.745   0.231  0.00  0.00    -0.086 C 
BRANCH  13  14
ATOM     14  NZ  LYS A   1       7.821  -3.088  -0.067  0.00  0.00    +0.380 N 
ATOM     15  HZ1 LYS A   1       7.955  -4.093   0.050  0.00  0.00    -0.089 HD
ATOM     16  HZ2 LYS A   1       8.441  -2.586   0.570  0.00  0.00    -0.089 HD
ATOM     17  HZ3 LYS A   1       8.037  -2.826  -1.029  0.00  0.00    -0.089 HD
ENDBRANCH  13  14
ENDBRANCH  12  13
ENDBRANCH  11  12
ENDBRANCH  10  11
ENDBRANCH   5  10
ENDBRANCH   2   5
BRANCH   3  18
ATOM     18  C   UNK A   0      -0.082  -0.449  -1.179  0.00  0.00    +0.176 C 
BRANCH  18  20
ATOM     19  O   UNK A   0      -2.299   1.360  -1.413  0.00  0.00    -0.270 OA
ATOM     20  N   UNK A   0      -1.428  -0.685  -0.748  0.00  0.00    -0.293 N 
ATOM     21  C   UNK A   0      -2.445   0.253  -0.901  0.00  0.00    +0.246 C 
ATOM     22  H   UNK A   0      -1.643  -1.547  -0.324  0.00  0.00    +0.150 HD
BRANCH  21  23
ATOM     23  C   UNK A   0      -3.781  -0.133  -0.377  0.00  0.00    +0.054 C 
ATOM     24  C   UNK A   0      -4.680   0.851   0.035  0.00  0.00    +0.008 C 
ATOM     25  C   UNK A   0      -4.136  -1.480  -0.298  0.00  0.00    +0.008 C 
ATOM     26  C   UNK A   0      -5.934   0.488   0.526  0.00  0.00    +0.037 C 
ATOM     27  C   UNK A   0      -5.390  -1.843   0.193  0.00  0.00    +0.037 C 
ATOM     28  C   UNK A   0      -6.289  -0.859   0.605  0.00  0.00    +0.134 C 
BRANCH  28  29
ATOM     29  O   UNK A   0      -7.513  -1.212   1.083  0.00  0.00    -0.506 OA
ATOM     30  H   UNK A   0      -8.117  -0.551   1.359  0.00  0.00    +0.292 HD
ENDBRANCH  28  29
ENDBRANCH  21  23
ENDBRANCH  18  20
ENDBRANCH   3  18
TORSDOF 12
