REMARK  Name = 129260
REMARK  7 active torsions:
REMARK  status: ('A' for Active; 'I' for Inactive)
REMARK    1  A    between atoms: O_1  and  N_4
REMARK    2  A    between atoms: O_1  and  C_14
REMARK    3  A    between atoms: C_5  and  S_9
REMARK    4  A    between atoms: C_14  and  C_15
REMARK    5  A    between atoms: C_15  and  C_16
REMARK    6  A    between atoms: C_16  and  C_17
REMARK    7  A    between atoms: C_22  and  O_23
REMARK                            x       y       z     vdW  Elec       q    Type
REMARK                         _______ _______ _______ _____ _____    ______ ____
ROOT
ATOM      1  O   UNL     1      -0.768  -0.833  -1.028  0.00  0.00    -0.337 OA
ENDROOT
BRANCH   1   4
ATOM      2  O   UNL     1      -2.609   1.197  -1.819  0.00  0.00    -0.270 OA
ATOM      3  O   UNL     1      -2.254  -2.909   0.247  0.00  0.00    -0.271 OA
ATOM      4  N   UNL     1      -2.128  -0.830  -0.788  0.00  0.00    -0.060 N 
ATOM      5  C   UNL     1      -4.288  -0.075  -0.614  0.00  0.00    +0.224 C 
ATOM      6  C   UNL     1      -4.193  -1.482  -0.017  0.00  0.00    +0.122 C 
ATOM      7  C   UNL     1      -2.919   0.204  -1.179  0.00  0.00    +0.286 C 
ATOM      8  C   UNL     1      -2.741  -1.861  -0.149  0.00  0.00    +0.266 C 
BRANCH   5   9
ATOM      9  S   UNL     1      -4.695   1.138   0.598  0.00  0.00    +0.030 S 
ATOM     10  O   UNL     1      -6.244   0.686   0.842  0.00  0.00    -0.069 OA
ATOM     11  O   UNL     1      -4.686   2.450  -0.024  0.00  0.00    -0.069 OA
ATOM     12  O   UNL     1      -3.936   0.868   1.806  0.00  0.00    -0.069 OA
ENDBRANCH   5   9
ENDBRANCH   1   4
BRANCH   1  14
ATOM     13  O   UNL     1      -0.534   0.208   1.019  0.00  0.00    -0.248 OA
ATOM     14  C   UNL     1      -0.048  -0.260  -0.002  0.00  0.00    +0.341 C 
BRANCH  14  15
ATOM     15  C   UNL     1       1.429  -0.294  -0.325  0.00  0.00    +0.116 C 
BRANCH  15  16
ATOM     16  C   UNL     1       2.274   0.303   0.799  0.00  0.00    +0.038 C 
BRANCH  16  17
ATOM     17  C   UNL     1       3.745   0.262   0.474  0.00  0.00    -0.021 C 
ATOM     18  C   UNL     1       4.494  -0.846   0.842  0.00  0.00    -0.001 C 
ATOM     19  C   UNL     1       4.327   1.332  -0.189  0.00  0.00    -0.001 C 
ATOM     20  C   UNL     1       5.855  -0.884   0.541  0.00  0.00    +0.036 C 
ATOM     21  C   UNL     1       5.688   1.294  -0.490  0.00  0.00    +0.036 C 
ATOM     22  C   UNL     1       6.452   0.185  -0.125  0.00  0.00    +0.134 C 
BRANCH  22  23
ATOM     23  O   UNL     1       7.780   0.148  -0.420  0.00  0.00    -0.506 OA
ATOM     24  H   UNL     1       8.294  -0.597  -0.175  0.00  0.00    +0.292 HD
ENDBRANCH  22  23
ENDBRANCH  16  17
ENDBRANCH  15  16
ENDBRANCH  14  15
ENDBRANCH   1  14
TORSDOF 7
