REMARK  Name = 129316867
REMARK  3 active torsions:
REMARK  status: ('A' for Active; 'I' for Inactive)
REMARK    1  A    between atoms: C_8  and  O_25
REMARK    2  A    between atoms: C_14  and  O_27
REMARK    3  A    between atoms: C_15  and  O_29
REMARK                            x       y       z     vdW  Elec       q    Type
REMARK                         _______ _______ _______ _____ _____    ______ ____
ROOT
ATOM      1  O   UNL     1       2.375  -0.973  -1.914  0.00  0.00    -0.332 OA
ATOM      2  O   UNL     1       1.202   2.890  -0.224  0.00  0.00    -0.452 OA
ATOM      3  O   UNL     1       2.878   3.711   1.079  0.00  0.00    -0.250 OA
ATOM      4  O   UNL     1      -3.313  -0.864   2.404  0.00  0.00    -0.289 OA
ATOM      5  C   UNL     1       1.135   0.524  -0.600  0.00  0.00    +0.073 C 
ATOM      6  C   UNL     1       0.240  -0.621  -1.105  0.00  0.00    +0.063 C 
ATOM      7  C   UNL     1      -1.236  -0.626  -0.617  0.00  0.00    +0.040 C 
ATOM      8  C   UNL     1       1.296  -1.711  -1.215  0.00  0.00    +0.213 C 
ATOM      9  C   UNL     1       0.316   1.777  -0.329  0.00  0.00    +0.172 C 
ATOM     10  C   UNL     1       2.073   0.271   0.644  0.00  0.00    +0.038 C 
ATOM     11  C   UNL     1      -1.857   0.749  -1.183  0.00  0.00    +0.025 C 
ATOM     12  C   UNL     1       2.108   0.463  -1.790  0.00  0.00    +0.149 C 
ATOM     13  C   UNL     1      -0.834   1.938  -1.306  0.00  0.00    +0.048 C 
ATOM     14  C   UNL     1       1.876  -2.208   0.132  0.00  0.00    +0.180 C 
ATOM     15  C   UNL     1      -1.423  -0.725   0.916  0.00  0.00    +0.172 C 
ATOM     16  C   UNL     1       1.890  -1.123   1.205  0.00  0.00    -0.013 C 
ATOM     17  C   UNL     1       2.065   1.489   1.593  0.00  0.00    +0.114 C 
ATOM     18  C   UNL     1      -1.989  -1.808  -1.287  0.00  0.00    +0.003 C 
ATOM     19  C   UNL     1      -3.146   1.173  -0.500  0.00  0.00    -0.041 C 
ATOM     20  C   UNL     1       2.110   2.795   0.802  0.00  0.00    +0.317 C 
ATOM     21  C   UNL     1      -2.814  -0.359   1.399  0.00  0.00    +0.199 C 
ATOM     22  C   UNL     1      -3.578   0.667   0.662  0.00  0.00    +0.031 C 
ATOM     23  C   UNL     1       1.772  -1.389   2.516  0.00  0.00    -0.007 C 
ATOM     24  C   UNL     1      -4.002   2.171  -1.239  0.00  0.00    +0.026 C 
ENDROOT
BRANCH   8  25
ATOM     25  O   UNL     1       0.898  -2.821  -2.005  0.00  0.00    -0.362 OA
ATOM     26  H   UNL     1       0.536  -2.504  -2.847  0.00  0.00    +0.213 HD
ENDBRANCH   8  25
BRANCH  14  27
ATOM     27  O   UNL     1       1.142  -3.342   0.587  0.00  0.00    -0.376 OA
ATOM     28  H   UNL     1       1.140  -4.024  -0.103  0.00  0.00    +0.211 HD
ENDBRANCH  14  27
BRANCH  15  29
ATOM     29  O   UNL     1      -1.185  -2.049   1.374  0.00  0.00    -0.377 OA
ATOM     30  H   UNL     1      -0.302  -2.335   1.091  0.00  0.00    +0.211 HD
ENDBRANCH  15  29
TORSDOF 3
