REMARK  Name = 129375
REMARK  10 active torsions:
REMARK  status: ('A' for Active; 'I' for Inactive)
REMARK    1  A    between atoms: C_1  and  N_4
REMARK    2  A    between atoms: C_1  and  C_14
REMARK    3  A    between atoms: C_1  and  C_26
REMARK    4  A    between atoms: C_14  and  O_15
REMARK    5  A    between atoms: O_15  and  C_16
REMARK    6  A    between atoms: C_16  and  C_17
REMARK    7  A    between atoms: C_22  and  N_25
REMARK    8  A    between atoms: C_26  and  C_27
REMARK    9  A    between atoms: C_27  and  C_28
REMARK   10  A    between atoms: C_28  and  C_30
REMARK                            x       y       z     vdW  Elec       q    Type
REMARK                         _______ _______ _______ _____ _____    ______ ____
ROOT
ATOM      1  C   UNL     1      -2.041   1.473  -0.466  0.00  0.00    +0.181 C 
ENDROOT
BRANCH   1   4
ATOM      2  O   UNL     1      -1.679  -0.684  -2.492  0.00  0.00    -0.269 OA
ATOM      3  O   UNL     1      -1.475   0.025   2.082  0.00  0.00    -0.269 OA
ATOM      4  N   UNL     1      -1.681   0.091  -0.266  0.00  0.00    -0.214 N 
ATOM      5  C   UNL     1      -1.539  -0.827  -1.292  0.00  0.00    +0.256 C 
ATOM      6  C   UNL     1      -1.438  -0.474   0.973  0.00  0.00    +0.256 C 
ATOM      7  C   UNL     1      -1.162  -2.087  -0.653  0.00  0.00    +0.058 C 
ATOM      8  C   UNL     1      -1.101  -1.874   0.717  0.00  0.00    +0.058 C 
ATOM      9  C   UNL     1      -0.895  -3.320  -1.212  0.00  0.00    +0.005 C 
ATOM     10  C   UNL     1      -0.770  -2.882   1.599  0.00  0.00    +0.005 C 
ATOM     11  C   UNL     1      -0.557  -4.356  -0.338  0.00  0.00    +0.000 C 
ATOM     12  C   UNL     1      -0.495  -4.139   1.054  0.00  0.00    +0.000 C 
ENDBRANCH   1   4
BRANCH   1  14
ATOM     13  O   UNL     1      -1.110   3.554   0.335  0.00  0.00    -0.248 OA
ATOM     14  C   UNL     1      -0.914   2.398  -0.027  0.00  0.00    +0.336 C 
BRANCH  14  15
ATOM     15  O   UNL     1       0.307   1.796  -0.089  0.00  0.00    -0.442 OA
BRANCH  15  16
ATOM     16  C   UNL     1       1.421   2.603   0.305  0.00  0.00    +0.235 C 
BRANCH  16  17
ATOM     17  C   UNL     1       2.680   1.796   0.179  0.00  0.00    +0.021 C 
ATOM     18  C   UNL     1       3.394   1.800  -1.019  0.00  0.00    +0.001 C 
ATOM     19  C   UNL     1       3.137   1.043   1.261  0.00  0.00    +0.001 C 
ATOM     20  C   UNL     1       4.564   1.051  -1.136  0.00  0.00    +0.024 C 
ATOM     21  C   UNL     1       4.308   0.294   1.145  0.00  0.00    +0.024 C 
ATOM     22  C   UNL     1       5.021   0.298  -0.054  0.00  0.00    +0.143 C 
BRANCH  22  25
ATOM     23  O   UNL     1       6.842  -0.446  -1.258  0.00  0.00    -0.126 OA
ATOM     24  O   UNL     1       6.608  -1.134   0.813  0.00  0.00    -0.126 OA
ATOM     25  N   UNL     1       6.214  -0.464  -0.172  0.00  0.00    +0.058 N 
ENDBRANCH  22  25
ENDBRANCH  16  17
ENDBRANCH  15  16
ENDBRANCH  14  15
ENDBRANCH   1  14
BRANCH   1  26
ATOM     26  C   UNL     1      -3.334   1.827   0.278  0.00  0.00    +0.032 C 
BRANCH  26  27
ATOM     27  C   UNL     1      -4.520   0.964  -0.163  0.00  0.00    +0.011 C 
BRANCH  27  28
ATOM     28  C   UNL     1      -5.803   1.381   0.550  0.00  0.00    +0.072 C 
BRANCH  28  30
ATOM     29  O   UNL     1      -6.980  -0.290  -0.760  0.00  0.00    -0.288 OA
ATOM     30  C   UNL     1      -7.002   0.580   0.104  0.00  0.00    +0.207 C 
ENDBRANCH  28  30
ENDBRANCH  27  28
ENDBRANCH  26  27
ENDBRANCH   1  26
TORSDOF 10
