REMARK  Name = 129316869
REMARK  3 active torsions:
REMARK  status: ('A' for Active; 'I' for Inactive)
REMARK    1  A    between atoms: C_12  and  C_24
REMARK    2  A    between atoms: C_13  and  O_28
REMARK    3  A    between atoms: C_18  and  O_30
REMARK                            x       y       z     vdW  Elec       q    Type
REMARK                         _______ _______ _______ _____ _____    ______ ____
ROOT
ATOM      1  O   UNL     1      -0.630  -0.258  -1.573  0.00  0.00    -0.312 OA
ATOM      2  O   UNL     1      -0.071   2.716  -0.070  0.00  0.00    -0.451 OA
ATOM      3  O   UNL     1       1.382  -1.506  -2.008  0.00  0.00    -0.423 OA
ATOM      4  O   UNL     1      -3.172  -1.331   1.550  0.00  0.00    -0.450 OA
ATOM      5  O   UNL     1      -1.410   2.588  -1.927  0.00  0.00    -0.247 OA
ATOM      6  O   UNL     1       2.769  -3.103  -1.119  0.00  0.00    -0.247 OA
ATOM      7  O   UNL     1      -5.274  -1.646   0.645  0.00  0.00    -0.250 OA
ATOM      8  C   UNL     1      -0.063   0.458   0.625  0.00  0.00    +0.084 C 
ATOM      9  C   UNL     1       1.197  -0.150  -0.042  0.00  0.00    +0.106 C 
ATOM     10  C   UNL     1      -1.057   0.621  -0.541  0.00  0.00    +0.214 C 
ATOM     11  C   UNL     1       0.286   1.874   1.038  0.00  0.00    +0.172 C 
ATOM     12  C   UNL     1       2.303   0.942   0.117  0.00  0.00    +0.013 C 
ATOM     13  C   UNL     1      -2.398   0.242   0.064  0.00  0.00    +0.167 C 
ATOM     14  C   UNL     1      -0.817  -0.332   1.736  0.00  0.00    +0.053 C 
ATOM     15  C   UNL     1       0.801  -0.293  -1.520  0.00  0.00    +0.293 C 
ATOM     16  C   UNL     1       1.792   1.838   1.251  0.00  0.00    +0.044 C 
ATOM     17  C   UNL     1      -1.970  -0.920   0.943  0.00  0.00    +0.197 C 
ATOM     18  C   UNL     1       1.505  -1.602   0.316  0.00  0.00    +0.216 C 
ATOM     19  C   UNL     1      -0.900   2.068  -0.946  0.00  0.00    +0.344 C 
ATOM     20  C   UNL     1      -3.550  -0.443  -0.640  0.00  0.00    +0.130 C 
ATOM     21  C   UNL     1       1.998  -2.168  -0.984  0.00  0.00    +0.346 C 
ATOM     22  C   UNL     1      -4.137  -1.207   0.557  0.00  0.00    +0.319 C 
ATOM     23  C   UNL     1      -4.562   0.490  -1.281  0.00  0.00    +0.014 C 
ENDROOT
BRANCH  12  24
ATOM     24  C   UNL     1       3.746   0.508   0.327  0.00  0.00    +0.000 C 
ATOM     25  C   UNL     1       4.704   1.564  -0.257  0.00  0.00    +0.000 C 
ATOM     26  C   UNL     1       4.034   0.350   1.832  0.00  0.00    +0.000 C 
ATOM     27  C   UNL     1       3.999  -0.840  -0.375  0.00  0.00    +0.000 C 
ENDBRANCH  12  24
BRANCH  13  28
ATOM     28  O   UNL     1      -2.887   1.311   0.887  0.00  0.00    -0.380 OA
ATOM     29  H   UNL     1      -2.141   1.742   1.334  0.00  0.00    +0.211 HD
ENDBRANCH  13  28
BRANCH  18  30
ATOM     30  O   UNL     1       2.381  -1.770   1.393  0.00  0.00    -0.374 OA
ATOM     31  H   UNL     1       1.991  -1.379   2.191  0.00  0.00    +0.211 HD
ENDBRANCH  18  30
TORSDOF 3
