REMARK  Name = 129350
REMARK  4 active torsions:
REMARK  status: ('A' for Active; 'I' for Inactive)
REMARK    1  A    between atoms: N_2  and  C1*_16
REMARK    2  A    between atoms: C3*_18  and  O3*_20
REMARK    3  A    between atoms: C4*_19  and  C5*_22
REMARK    4  A    between atoms: C5*_22  and  O5*_23
REMARK                            x       y       z     vdW  Elec       q    Type
REMARK                         _______ _______ _______ _____ _____    ______ ____
ROOT
ATOM      1  O   UNL     1       3.673  -2.659  -0.272  0.00  0.00    -0.268 OA
ATOM      2  N   UNL     1      -0.310  -0.513   0.051  0.00  0.00    -0.209 NA
ATOM      3  N   UNL     1       1.734   0.891   0.130  0.00  0.00    -0.240 N 
ATOM      4  N   UNL     1       0.738  -2.486  -0.171  0.00  0.00    -0.249 NA
ATOM      5  N   UNL     1       3.789  -0.354  -0.049  0.00  0.00    -0.253 N 
ATOM      6  N   UNL     1       3.622   2.068   0.193  0.00  0.00    -0.214 NA
ATOM      7  C   UNL     1       1.021  -0.272   0.036  0.00  0.00    +0.189 C 
ATOM      8  C   UNL     1      -0.433  -1.878  -0.079  0.00  0.00    +0.204 C 
ATOM      9  C   UNL     1       1.657  -1.474  -0.098  0.00  0.00    +0.143 C 
ATOM     10  C   UNL     1       3.115   0.859   0.088  0.00  0.00    +0.196 C 
ATOM     11  C   UNL     1       3.105  -1.578  -0.149  0.00  0.00    +0.268 C 
ATOM     12  C   UNL     1       1.350   2.192   0.268  0.00  0.00    +0.090 C 
ATOM     13  C   UNL     1       2.531   2.900   0.305  0.00  0.00    +0.118 C 
ATOM     14  H   UNL     1       4.774  -0.354  -0.076  0.00  0.00    +0.158 HD
ENDROOT
BRANCH   2  16
ATOM     15  O4* UNL     1      -2.504  -0.186   0.892  0.00  0.00    -0.338 OA
ATOM     16  C1* UNL     1      -1.419   0.426   0.173  0.00  0.00    +0.182 C 
ATOM     17  C2* UNL     1      -1.988   0.900  -1.157  0.00  0.00    +0.079 C 
ATOM     18  C3* UNL     1      -3.403   1.266  -0.770  0.00  0.00    +0.144 C 
ATOM     19  C4* UNL     1      -3.750   0.233   0.297  0.00  0.00    +0.173 C 
BRANCH  18  20
ATOM     20  O3* UNL     1      -3.389   2.567  -0.188  0.00  0.00    -0.382 OA
ATOM     21  H3* UNL     1      -3.168   3.223  -0.868  0.00  0.00    +0.210 HD
ENDBRANCH  18  20
BRANCH  19  22
ATOM     22  C5* UNL     1      -4.434  -0.999  -0.279  0.00  0.00    +0.169 C 
BRANCH  22  23
ATOM     23  O5* UNL     1      -4.708  -1.902   0.777  0.00  0.00    -0.379 OA
ATOM     24  H5* UNL     1      -5.145  -2.692   0.422  0.00  0.00    +0.211 HD
ENDBRANCH  22  23
ENDBRANCH  19  22
ENDBRANCH   2  16
TORSDOF 4
