REMARK  Name = 129362
REMARK  5 active torsions:
REMARK  status: ('A' for Active; 'I' for Inactive)
REMARK    1  A    between atoms: C_3  and  O_28
REMARK    2  A    between atoms: C_9  and  C_15
REMARK    3  A    between atoms: C_11  and  O_30
REMARK    4  A    between atoms: C_20  and  O_24
REMARK    5  A    between atoms: C_22  and  O_26
REMARK                            x       y       z     vdW  Elec       q    Type
REMARK                         _______ _______ _______ _____ _____    ______ ____
ROOT
ATOM      1  O   UNL     1      -4.561  -0.229   0.754  0.00  0.00    -0.477 OA
ATOM      2  C   UNL     1      -5.284  -0.576  -0.444  0.00  0.00    +0.158 C 
ATOM      3  C   UNL     1      -4.757   0.184  -1.679  0.00  0.00    +0.151 C 
ATOM      4  C   UNL     1      -3.261  -0.039  -1.882  0.00  0.00    +0.062 C 
ATOM      5  C   UNL     1      -2.527   0.036  -0.573  0.00  0.00    +0.017 C 
ATOM      6  C   UNL     1      -3.206  -0.068   0.645  0.00  0.00    +0.168 C 
ATOM      7  C   UNL     1      -5.209  -2.102  -0.635  0.00  0.00    +0.046 C 
ATOM      8  C   UNL     1      -6.749  -0.205  -0.158  0.00  0.00    +0.046 C 
ATOM      9  C   UNL     1      -0.433   0.259   0.637  0.00  0.00    +0.021 C 
ATOM     10  C   UNL     1      -1.133   0.187  -0.568  0.00  0.00    -0.002 C 
ATOM     11  C   UNL     1      -2.504   0.015   1.851  0.00  0.00    +0.167 C 
ATOM     12  C   UNL     1      -1.119   0.177   1.846  0.00  0.00    +0.039 C 
ENDROOT
BRANCH   9  15
ATOM     13  O   UNL     1       1.655  -0.728   0.008  0.00  0.00    -0.474 OA
ATOM     14  O   UNL     1       3.555   2.906  -0.123  0.00  0.00    -0.291 OA
ATOM     15  C   UNL     1       1.071   0.428   0.628  0.00  0.00    +0.196 C 
ATOM     16  C   UNL     1       1.477   1.706  -0.103  0.00  0.00    +0.117 C 
ATOM     17  C   UNL     1       2.979   1.825  -0.089  0.00  0.00    +0.183 C 
ATOM     18  C   UNL     1       3.728   0.551  -0.106  0.00  0.00    +0.103 C 
ATOM     19  C   UNL     1       3.021  -0.654  -0.079  0.00  0.00    +0.148 C 
ATOM     20  C   UNL     1       5.123   0.550  -0.191  0.00  0.00    +0.142 C 
ATOM     21  C   UNL     1       3.710  -1.865  -0.171  0.00  0.00    +0.074 C 
ATOM     22  C   UNL     1       5.103  -1.868  -0.258  0.00  0.00    +0.140 C 
ATOM     23  C   UNL     1       5.807  -0.664  -0.263  0.00  0.00    +0.073 C 
BRANCH  20  24
ATOM     24  O   UNL     1       5.859   1.696  -0.216  0.00  0.00    -0.505 OA
ATOM     25  H   UNL     1       5.432   2.528  -0.170  0.00  0.00    +0.292 HD
ENDBRANCH  20  24
BRANCH  22  26
ATOM     26  O   UNL     1       5.775  -3.049  -0.337  0.00  0.00    -0.505 OA
ATOM     27  H   UNL     1       5.303  -3.858  -0.334  0.00  0.00    +0.292 HD
ENDBRANCH  22  26
ENDBRANCH   9  15
BRANCH   3  28
ATOM     28  O   UNL     1      -4.964   1.593  -1.538  0.00  0.00    -0.381 OA
ATOM     29  H   UNL     1      -5.908   1.769  -1.407  0.00  0.00    +0.211 HD
ENDBRANCH   3  28
BRANCH  11  30
ATOM     30  O   UNL     1      -3.156  -0.068   3.045  0.00  0.00    -0.503 OA
ATOM     31  H   UNL     1      -4.087  -0.177   3.064  0.00  0.00    +0.292 HD
ENDBRANCH  11  30
TORSDOF 5
