REMARK  Name = 129343
REMARK  8 active torsions:
REMARK  status: ('A' for Active; 'I' for Inactive)
REMARK    1  A    between atoms: C_2  and  N_10
REMARK    2  A    between atoms: C_3  and  O_21
REMARK    3  A    between atoms: C_4  and  O_23
REMARK    4  A    between atoms: C_5  and  O_25
REMARK    5  A    between atoms: C_6  and  C_27
REMARK    6  A    between atoms: C_12  and  C_17
REMARK    7  A    between atoms: C_12  and  C_19
REMARK    8  A    between atoms: C_27  and  O_28
REMARK                            x       y       z     vdW  Elec       q    Type
REMARK                         _______ _______ _______ _____ _____    ______ ____
ROOT
ATOM      1  O   UNL     1       1.472   1.022  -0.101  0.00  0.00    -0.333 OA
ATOM      2  C   UNL     1       0.924   0.028   0.759  0.00  0.00    +0.231 C 
ATOM      3  C   UNL     1       1.391  -1.367   0.345  0.00  0.00    +0.187 C 
ATOM      4  C   UNL     1       2.917  -1.429   0.264  0.00  0.00    +0.171 C 
ATOM      5  C   UNL     1       3.485  -0.261  -0.544  0.00  0.00    +0.169 C 
ATOM      6  C   UNL     1       2.901   1.068  -0.051  0.00  0.00    +0.175 C 
ENDROOT
BRANCH   2  10
ATOM      7  O   UNL     1      -0.501  -0.216  -1.615  0.00  0.00    -0.274 OA
ATOM      8  O   UNL     1      -4.469   1.013   0.430  0.00  0.00    -0.274 OA
ATOM      9  O   UNL     1      -0.620   0.870   2.901  0.00  0.00    -0.252 OA
ATOM     10  N   UNL     1      -0.512   0.137   0.686  0.00  0.00    -0.188 N 
ATOM     11  N   UNL     1      -2.539   0.866   1.661  0.00  0.00    -0.239 N 
ATOM     12  C   UNL     1      -2.637  -0.277  -0.493  0.00  0.00    +0.138 C 
ATOM     13  C   UNL     1      -1.121  -0.099  -0.557  0.00  0.00    +0.242 C 
ATOM     14  C   UNL     1      -3.312   0.610   0.540  0.00  0.00    +0.237 C 
ATOM     15  C   UNL     1      -1.178   0.621   1.829  0.00  0.00    +0.317 C 
ATOM     16  H   UNL     1      -3.007   1.268   2.429  0.00  0.00    +0.159 HD
BRANCH  12  17
ATOM     17  C   UNL     1      -3.252  -0.009  -1.876  0.00  0.00    +0.017 C 
ATOM     18  C   UNL     1      -3.038   1.428  -2.294  0.00  0.00    +0.001 C 
ENDBRANCH  12  17
BRANCH  12  19
ATOM     19  C   UNL     1      -2.912  -1.738  -0.095  0.00  0.00    +0.017 C 
ATOM     20  C   UNL     1      -2.245  -2.697  -1.057  0.00  0.00    +0.001 C 
ENDBRANCH  12  19
ENDBRANCH   2  10
BRANCH   3  21
ATOM     21  O   UNL     1       0.939  -2.313   1.313  0.00  0.00    -0.378 OA
ATOM     22  H   UNL     1      -0.029  -2.280   1.370  0.00  0.00    +0.211 HD
ENDBRANCH   3  21
BRANCH   4  23
ATOM     23  O   UNL     1       3.306  -2.661  -0.346  0.00  0.00    -0.379 OA
ATOM     24  H   UNL     1       2.946  -3.403   0.165  0.00  0.00    +0.211 HD
ENDBRANCH   4  23
BRANCH   5  25
ATOM     25  O   UNL     1       4.902  -0.267  -0.394  0.00  0.00    -0.379 OA
ATOM     26  H   UNL     1       5.257  -1.113  -0.710  0.00  0.00    +0.211 HD
ENDBRANCH   5  25
BRANCH   6  27
ATOM     27  C   UNL     1       3.345   2.247  -0.910  0.00  0.00    +0.169 C 
BRANCH  27  28
ATOM     28  O   UNL     1       2.755   3.427  -0.396  0.00  0.00    -0.379 OA
ATOM     29  H   UNL     1       3.029   4.187  -0.933  0.00  0.00    +0.211 HD
ENDBRANCH  27  28
ENDBRANCH   6  27
TORSDOF 8
