REMARK  Name = 129320410
REMARK  12 active torsions:
REMARK  status: ('A' for Active; 'I' for Inactive)
REMARK    1  A    between atoms: CA_1  and  N_3
REMARK    2  A    between atoms: CA_1  and  C_18
REMARK    3  A    between atoms: CA_1  and  CB_24
REMARK    4  A    between atoms: C_4  and  C_6
REMARK    5  A    between atoms: C_6  and  C_7
REMARK    6  A    between atoms: C_7  and  CA_8
REMARK    7  A    between atoms: CA_8  and  N_9
REMARK    8  A    between atoms: CA_8  and  C_15
REMARK    9  A    between atoms: N_17  and  CA_20
REMARK   10  A    between atoms: CA_20  and  C_23
REMARK   11  A    between atoms: CB_24  and  SG_25
REMARK   12  A    between atoms: SG_25  and  N_27
REMARK                            x       y       z     vdW  Elec       q    Type
REMARK                         _______ _______ _______ _____ _____    ______ ____
ROOT
ATOM      1  CA  UNL     1       1.286   0.917   0.124  0.00  0.00    +0.163 C 
ENDROOT
BRANCH   1   3
ATOM      2  O   UNL     1      -0.521  -0.588  -1.567  0.00  0.00    -0.275 OA
ATOM      3  N   UNL     1      -0.142   0.765   0.284  0.00  0.00    -0.298 N 
ATOM      4  C   UNL     1      -0.930   0.020  -0.582  0.00  0.00    +0.223 C 
ATOM      5  H   UNL     1      -0.578   1.212   1.045  0.00  0.00    +0.150 HD
BRANCH   4   6
ATOM      6  C   UNL     1      -2.390   0.035  -0.159  0.00  0.00    +0.083 C 
BRANCH   6   7
ATOM      7  C   UNL     1      -3.277  -0.782  -1.103  0.00  0.00    -0.001 C 
BRANCH   7   8
ATOM      8  CA  UNL     1      -4.771  -0.752  -0.756  0.00  0.00    +0.041 C 
BRANCH   8   9
ATOM      9  N   UNL     1      -5.256   0.647  -0.979  0.00  0.00    +0.389 N 
ATOM     10  H1  UNL     1      -4.967   0.963  -1.904  0.00  0.00    -0.088 HD
ATOM     11  H2  UNL     1      -4.858   1.262  -0.269  0.00  0.00    -0.088 HD
ATOM     12  H3  UNL     1      -6.274   0.668  -0.915  0.00  0.00    -0.088 HD
ENDBRANCH   8   9
BRANCH   8  15
ATOM     13  O   UNL     1      -6.158  -0.813   1.165  0.00  0.00    -0.248 OA
ATOM     14  OXT UNL     1      -4.398  -2.260   1.046  0.00  0.00    -0.248 OA
ATOM     15  C   UNL     1      -5.149  -1.340   0.614  0.00  0.00    +0.345 C 
ENDBRANCH   8  15
ENDBRANCH   7   8
ENDBRANCH   6   7
ENDBRANCH   4   6
ENDBRANCH   1   3
BRANCH   1  18
ATOM     16  O   UNL     1       1.498  -0.767   1.854  0.00  0.00    -0.273 OA
ATOM     17  N   UNL     1       3.065  -0.717   0.140  0.00  0.00    -0.294 N 
ATOM     18  C   ACE A   1       1.947  -0.264   0.826  0.00  0.00    +0.242 C 
ATOM     19  H   UNL     1       3.339  -0.239  -0.675  0.00  0.00    +0.150 HD
BRANCH  17  20
ATOM     20  CA  UNL     1       3.846  -1.857   0.564  0.00  0.00    +0.205 C 
BRANCH  20  23
ATOM     21  O   UNL     1       4.695  -2.376  -1.570  0.00  0.00    -0.244 OA
ATOM     22  OXT UNL     1       6.155  -2.083   0.166  0.00  0.00    -0.244 OA
ATOM     23  C   UNL     1       5.014  -2.130  -0.373  0.00  0.00    +0.385 C 
ENDBRANCH  20  23
ENDBRANCH  17  20
ENDBRANCH   1  18
BRANCH   1  24
ATOM     24  CB  UNL     1       1.794   2.230   0.709  0.00  0.00    +0.136 C 
BRANCH  24  25
ATOM     25  SG  UNL     1       1.495   3.623  -0.428  0.00  0.00    +0.102 S 
ATOM     26  O   UNL     1       0.014   3.763  -0.581  0.00  0.00    -0.240 OA
BRANCH  25  27
ATOM     27  N   UNL     1       2.181   4.730   0.606  0.00  0.00    -0.251 NA
ATOM     28  H   UNL     1       2.142   5.658   0.184  0.00  0.00    +0.134 HD
ATOM     29  H   UNL     1       3.154   4.476   0.779  0.00  0.00    +0.134 HD
ENDBRANCH  25  27
ENDBRANCH  24  25
ENDBRANCH   1  24
TORSDOF 12
