REMARK  Name = 129361448
REMARK  8 active torsions:
REMARK  status: ('A' for Active; 'I' for Inactive)
REMARK    1  A    between atoms: C_1  and  C_4
REMARK    2  A    between atoms: C_1  and  N_15
REMARK    3  A    between atoms: C_1  and  C_19
REMARK    4  A    between atoms: N_3  and  C_6
REMARK    5  A    between atoms: C_6  and  C_9
REMARK    6  A    between atoms: C_6  and  C_12
REMARK    7  A    between atoms: C_19  and  C_20
REMARK    8  A    between atoms: C_25  and  O_26
REMARK                            x       y       z     vdW  Elec       q    Type
REMARK                         _______ _______ _______ _____ _____    ______ ____
ROOT
ATOM      1  C   UNL     1       0.014  -2.242  -0.642  0.00  0.00    +0.017 C 
ENDROOT
BRANCH   1   4
ATOM      2  O   UNL     1       1.040  -1.623   1.463  0.00  0.00    -0.277 OA
ATOM      3  N   UNL     1       1.336  -0.226  -0.364  0.00  0.00    -0.300 N 
ATOM      4  C   UNL     1       0.849  -1.357   0.278  0.00  0.00    +0.202 C 
ATOM      5  H   UNL     1       1.131  -0.096  -1.319  0.00  0.00    +0.150 HD
BRANCH   3   6
ATOM      6  C   UNL     1       2.130   0.764   0.319  0.00  0.00    +0.148 C 
BRANCH   6   9
ATOM      7  O   UNL     1       3.972  -0.688  -0.323  0.00  0.00    -0.274 OA
ATOM      8  N   UNL     1       4.410   1.087   1.067  0.00  0.00    -0.327 N 
ATOM      9  C   UNL     1       3.582   0.301   0.294  0.00  0.00    +0.237 C 
ATOM     10  H   UNL     1       5.371   0.880   1.125  0.00  0.00    +0.145 HD
ATOM     11  H   UNL     1       4.040   1.854   1.561  0.00  0.00    +0.145 HD
ENDBRANCH   6   9
BRANCH   6  12
ATOM     12  C   UNL     1       1.958   2.184  -0.260  0.00  0.00    +0.027 C 
ATOM     13  C   UNL     1       0.510   2.682  -0.214  0.00  0.00    +0.002 C 
ATOM     14  C   UNL     1       2.489   2.260  -1.695  0.00  0.00    +0.002 C 
ENDBRANCH   6  12
ENDBRANCH   3   6
ENDBRANCH   1   4
BRANCH   1  15
ATOM     15  N   UNL     1       0.695  -3.535  -0.716  0.00  0.00    +0.388 N 
ATOM     16  H   UNL     1       0.168  -4.162  -1.324  0.00  0.00    -0.089 HD
ATOM     17  H   UNL     1       0.757  -3.940   0.218  0.00  0.00    -0.089 HD
ATOM     18  H   UNL     1       1.633  -3.404  -1.093  0.00  0.00    -0.089 HD
ENDBRANCH   1  15
BRANCH   1  19
ATOM     19  C   UNL     1      -1.403  -2.429  -0.079  0.00  0.00    +0.013 C 
BRANCH  19  20
ATOM     20  C   UNL     1      -2.172  -1.132   0.015  0.00  0.00    -0.024 C 
ATOM     21  C   UNL     1      -2.105  -0.363   1.177  0.00  0.00    -0.001 C 
ATOM     22  C   UNL     1      -2.950  -0.704  -1.061  0.00  0.00    -0.001 C 
ATOM     23  C   UNL     1      -2.816   0.834   1.263  0.00  0.00    +0.036 C 
ATOM     24  C   UNL     1      -3.660   0.493  -0.975  0.00  0.00    +0.036 C 
ATOM     25  C   UNL     1      -3.593   1.262   0.187  0.00  0.00    +0.134 C 
BRANCH  25  26
ATOM     26  O   UNL     1      -4.286   2.431   0.270  0.00  0.00    -0.506 OA
ATOM     27  H   UNL     1      -4.241   2.947   1.051  0.00  0.00    +0.292 HD
ENDBRANCH  25  26
ENDBRANCH  19  20
ENDBRANCH   1  19
TORSDOF 8
