REMARK  Name = 129346
REMARK  8 active torsions:
REMARK  status: ('A' for Active; 'I' for Inactive)
REMARK    1  A    between atoms: C_2  and  O_7
REMARK    2  A    between atoms: C_3  and  O_11
REMARK    3  A    between atoms: C_4  and  O_9
REMARK    4  A    between atoms: C_5  and  C_14
REMARK    5  A    between atoms: C_6  and  O_17
REMARK    6  A    between atoms: C_14  and  O_15
REMARK    7  A    between atoms: O_17  and  N_18
REMARK    8  A    between atoms: N_18  and  C_20
REMARK                            x       y       z     vdW  Elec       q    Type
REMARK                         _______ _______ _______ _____ _____    ______ ____
ROOT
ATOM      1  O   UNL     1      -0.777  -0.436  -0.709  0.00  0.00    -0.316 OA
ATOM      2  C   UNL     1      -2.467   1.456   0.641  0.00  0.00    +0.172 C 
ATOM      3  C   UNL     1      -2.897   0.009   0.394  0.00  0.00    +0.178 C 
ATOM      4  C   UNL     1      -1.371   1.886  -0.335  0.00  0.00    +0.199 C 
ATOM      5  C   UNL     1      -1.683  -0.904   0.284  0.00  0.00    +0.245 C 
ATOM      6  C   UNL     1      -0.248   0.851  -0.398  0.00  0.00    +0.291 C 
ENDROOT
BRANCH   2   7
ATOM      7  O   UNL     1      -3.612   2.292   0.471  0.00  0.00    -0.379 OA
ATOM      8  H   UNL     1      -4.307   2.019   1.090  0.00  0.00    +0.211 HD
ENDBRANCH   2   7
BRANCH   4   9
ATOM      9  O   UNL     1      -0.812   3.126   0.099  0.00  0.00    -0.377 OA
ATOM     10  H   UNL     1      -1.511   3.797   0.145  0.00  0.00    +0.211 HD
ENDBRANCH   4   9
BRANCH   3  11
ATOM     11  O   UNL     1      -3.704  -0.430   1.485  0.00  0.00    -0.379 OA
ATOM     12  H   UNL     1      -4.481   0.145   1.564  0.00  0.00    +0.211 HD
ENDBRANCH   3  11
BRANCH   5  14
ATOM     13  O   UNL     1      -1.703  -2.748  -1.272  0.00  0.00    -0.247 OA
ATOM     14  C   UNL     1      -2.073  -2.257  -0.216  0.00  0.00    +0.344 C 
BRANCH  14  15
ATOM     15  O   UNL     1      -2.903  -2.871   0.662  0.00  0.00    -0.478 OA
ATOM     16  H   UNL     1      -3.150  -2.438   1.455  0.00  0.00    +0.295 HD
ENDBRANCH  14  15
ENDBRANCH   5  14
BRANCH   6  17
ATOM     17  O   UNL     1       0.666   1.254  -1.416  0.00  0.00    -0.226 OA
BRANCH  17  18
ATOM     18  N   UNL     1       1.684   0.298  -1.460  0.00  0.00    -0.234 N 
ATOM     19  C   UNL     1       2.069  -0.086  -2.808  0.00  0.00    +0.159 C 
BRANCH  18  20
ATOM     20  C   UNL     1       2.494   0.029  -0.348  0.00  0.00    +0.082 C 
ATOM     21  C   UNL     1       2.831  -1.289  -0.023  0.00  0.00    +0.019 C 
ATOM     22  C   UNL     1       2.974   1.076   0.446  0.00  0.00    +0.019 C 
ATOM     23  C   UNL     1       3.638  -1.557   1.083  0.00  0.00    +0.002 C 
ATOM     24  C   UNL     1       3.781   0.809   1.552  0.00  0.00    +0.002 C 
ATOM     25  C   UNL     1       4.113  -0.508   1.870  0.00  0.00    +0.000 C 
ENDBRANCH  18  20
ENDBRANCH  17  18
ENDBRANCH   6  17
TORSDOF 8
