REMARK  Name = 129338
REMARK  10 active torsions:
REMARK  status: ('A' for Active; 'I' for Inactive)
REMARK    1  A    between atoms: C_2  and  O_19
REMARK    2  A    between atoms: C_3  and  O_17
REMARK    3  A    between atoms: C_4  and  N_6
REMARK    4  A    between atoms: C_5  and  C_26
REMARK    5  A    between atoms: C_13  and  O_15
REMARK    6  A    between atoms: O_19  and  C_21
REMARK    7  A    between atoms: C_21  and  C_22
REMARK    8  A    between atoms: C_22  and  C_23
REMARK    9  A    between atoms: C_23  and  C_24
REMARK   10  A    between atoms: C_26  and  O_27
REMARK                            x       y       z     vdW  Elec       q    Type
REMARK                         _______ _______ _______ _____ _____    ______ ____
ROOT
ATOM      1  O   UNL     1       0.099  -2.583  -0.568  0.00  0.00    -0.332 OA
ATOM      2  C   UNL     1      -1.226  -1.478   1.069  0.00  0.00    +0.244 C 
ATOM      3  C   UNL     1      -2.135  -2.382   0.263  0.00  0.00    +0.184 C 
ATOM      4  C   UNL     1       0.143  -2.089   0.782  0.00  0.00    +0.239 C 
ATOM      5  C   UNL     1      -1.280  -2.768  -0.947  0.00  0.00    +0.177 C 
ENDROOT
BRANCH   4   6
ATOM      6  N   UNL     1       1.283  -1.197   0.964  0.00  0.00    -0.246 N 
ATOM      7  N   UNL     1       2.999  -0.176   1.967  0.00  0.00    -0.241 NA
ATOM      8  N   UNL     1       1.393  -0.133  -1.218  0.00  0.00    -0.228 NA
ATOM      9  N   UNL     1       3.222   1.480  -1.333  0.00  0.00    -0.209 NA
ATOM     10  C   UNL     1       1.812  -0.335   0.040  0.00  0.00    +0.154 C 
ATOM     11  C   UNL     1       2.034  -1.062   2.105  0.00  0.00    +0.223 C 
ATOM     12  C   UNL     1       2.872   0.285   0.681  0.00  0.00    +0.162 C 
ATOM     13  C   UNL     1       3.589   1.224  -0.054  0.00  0.00    +0.243 C 
ATOM     14  C   UNL     1       2.162   0.796  -1.828  0.00  0.00    +0.255 C 
BRANCH  13  15
ATOM     15  O   UNL     1       4.658   1.907   0.469  0.00  0.00    -0.455 OA
ATOM     16  C   UNL     1       5.302   2.839  -0.391  0.00  0.00    +0.254 C 
ENDBRANCH  13  15
ENDBRANCH   4   6
BRANCH   3  17
ATOM     17  O   UNL     1      -2.407  -3.548   1.037  0.00  0.00    -0.378 OA
ATOM     18  H   UNL     1      -2.949  -3.307   1.805  0.00  0.00    +0.211 HD
ENDBRANCH   3  17
BRANCH   2  19
ATOM     19  O   UNL     1      -1.312  -0.151   0.565  0.00  0.00    -0.445 OA
BRANCH  19  21
ATOM     20  O   UNL     1      -3.520  -0.041   1.225  0.00  0.00    -0.250 OA
ATOM     21  C   UNL     1      -2.528   0.455   0.710  0.00  0.00    +0.317 C 
BRANCH  21  22
ATOM     22  C   UNL     1      -2.451   1.849   0.130  0.00  0.00    +0.110 C 
BRANCH  22  23
ATOM     23  C   UNL     1      -3.785   2.587   0.233  0.00  0.00    +0.012 C 
BRANCH  23  24
ATOM     24  C   UNL     1      -3.680   4.006  -0.322  0.00  0.00    +0.001 C 
ATOM     25  C   UNL     1      -4.995   4.757  -0.185  0.00  0.00    +0.000 C 
ENDBRANCH  23  24
ENDBRANCH  22  23
ENDBRANCH  21  22
ENDBRANCH  19  21
ENDBRANCH   2  19
BRANCH   5  26
ATOM     26  C   UNL     1      -1.547  -1.905  -2.172  0.00  0.00    +0.169 C 
BRANCH  26  27
ATOM     27  O   UNL     1      -0.702  -2.337  -3.224  0.00  0.00    -0.379 OA
ATOM     28  H   UNL     1      -0.862  -1.794  -4.011  0.00  0.00    +0.211 HD
ENDBRANCH  26  27
ENDBRANCH   5  26
TORSDOF 10
