129317836
  -OEChem-03292013293D

 32 33  0     1  0  0  0  0  0999 V2000
    0.9256    0.4252    0.6190 O   0  0  0  0  0  0  0  0  0  0  0  0
    2.6367   -0.8899   -2.2510 O   0  0  0  0  0  0  0  0  0  0  0  0
    0.3209   -2.6275   -1.1173 O   0  0  0  0  0  0  0  0  0  0  0  0
    1.9679    2.8063   -0.4078 O   0  0  0  0  0  0  0  0  0  0  0  0
   -2.2101   -2.1867    0.9581 O   0  0  0  0  0  0  0  0  0  0  0  0
   -1.2830   -0.2108    0.2081 N   0  0  0  0  0  0  0  0  0  0  0  0
    3.3765    0.5545    0.4207 N   0  0  0  0  0  0  0  0  0  0  0  0
   -3.6640   -0.5144    0.4668 N   0  0  0  0  0  0  0  0  0  0  0  0
    3.4207    0.1290    1.5867 N   0  3  0  0  0  0  0  0  0  0  0  0
   -5.1484    1.2028   -0.0387 N   0  0  0  0  0  0  0  0  0  0  0  0
    3.4728   -0.2586    2.6582 N   0  5  0  0  0  0  0  0  0  0  0  0
    2.0466   -0.9306   -0.9650 C   0  0  1  0  0  0  0  0  0  0  0  0
    2.0777    0.4248   -0.2538 C   0  0  1  0  0  0  0  0  0  0  0  0
    0.5662   -1.2348   -1.0363 C   0  0  2  0  0  0  0  0  0  0  0  0
    0.0721   -0.6777    0.2843 C   0  0  1  0  0  0  0  0  0  0  0  0
    1.9342    1.6275   -1.1888 C   0  0  0  0  0  0  0  0  0  0  0  0
   -1.5188    1.0842   -0.2294 C   0  0  0  0  0  0  0  0  0  0  0  0
   -2.3835   -1.0314    0.5655 C   0  0  0  0  0  0  0  0  0  0  0  0
   -2.7423    1.5998   -0.3314 C   0  0  0  0  0  0  0  0  0  0  0  0
   -3.8679    0.7085    0.0523 C   0  0  0  0  0  0  0  0  0  0  0  0
    2.5624   -1.7097   -0.3892 H   0  0  0  0  0  0  0  0  0  0  0  0
    0.1038   -0.7599   -1.9090 H   0  0  0  0  0  0  0  0  0  0  0  0
    0.1530   -1.4184    1.0889 H   0  0  0  0  0  0  0  0  0  0  0  0
    1.0057    1.6084   -1.7640 H   0  0  0  0  0  0  0  0  0  0  0  0
    2.7700    1.6787   -1.8954 H   0  0  0  0  0  0  0  0  0  0  0  0
    3.5702   -0.6438   -2.1343 H   0  0  0  0  0  0  0  0  0  0  0  0
    0.7459   -3.0605   -0.3577 H   0  0  0  0  0  0  0  0  0  0  0  0
   -0.6788    1.7060   -0.4937 H   0  0  0  0  0  0  0  0  0  0  0  0
    1.8804    3.5584   -1.0179 H   0  0  0  0  0  0  0  0  0  0  0  0
   -2.9327    2.6096   -0.6694 H   0  0  0  0  0  0  0  0  0  0  0  0
   -5.3390    2.1473   -0.3568 H   0  0  0  0  0  0  0  0  0  0  0  0
   -5.9467    0.6298    0.2127 H   0  0  0  0  0  0  0  0  0  0  0  0
  1 13  1  0  0  0  0
  1 15  1  0  0  0  0
  2 12  1  0  0  0  0
  2 26  1  0  0  0  0
  3 14  1  0  0  0  0
  3 27  1  0  0  0  0
  4 16  1  0  0  0  0
  4 29  1  0  0  0  0
  5 18  2  0  0  0  0
  6 15  1  0  0  0  0
  6 17  1  0  0  0  0
  6 18  1  0  0  0  0
  7  9  2  0  0  0  0
  7 13  1  0  0  0  0
  8 18  1  0  0  0  0
  8 20  2  0  0  0  0
  9 11  2  0  0  0  0
 10 20  1  0  0  0  0
 10 31  1  0  0  0  0
 10 32  1  0  0  0  0
 12 13  1  0  0  0  0
 12 14  1  0  0  0  0
 12 21  1  0  0  0  0
 13 16  1  0  0  0  0
 14 15  1  0  0  0  0
 14 22  1  0  0  0  0
 15 23  1  0  0  0  0
 16 24  1  0  0  0  0
 16 25  1  0  0  0  0
 17 19  2  0  0  0  0
 17 28  1  0  0  0  0
 19 20  1  0  0  0  0
 19 30  1  0  0  0  0
M  CHG  2   9   1  11  -1
M  END
> <PUBCHEM_COMPOUND_CID>
129317836

> <PUBCHEM_CONFORMER_RMSD>
0.6

> <PUBCHEM_CONFORMER_DIVERSEORDER>
1
309
206
72
277
272
159
412
199
375
169
360
302
284
130
293
340
392
131
406
361
46
370
347
343
377
334
304
314
210
128
411
215
409
388
125
69
397
288
268
221
371
56
367
240
214
229
255
313
373
97
322
398
213
308
256
144
250
244
228
203
118
196
396
391
349
218
78
328
359
315
407
372
182
12
234
263
170
251
139
386
15
316
208
352
305
166
326
64
241
413
261
385
79
353
264
312
168
207
285
291
235
60
238
150
173
252
51
236
327
177
205
331
65
257
286
404
249
289
394
209
254
259
81
76
225
287
384
33
354
217
224
188
387
323
185
311
275
232
123
237
325
231
94
342
158
405
318
401
191
37
192
180
120
306
338
178
29
324
246
245
344
395
292
175
121
98
351
155
378
280
276
363
279
270
346
122
368
111
106
283
258
247
27
303
147
138
300
58
319
233
393
189
212
408
181
164
194
330
376
379
174
92
216
85
68
365
355
262
296
84
99
119
102
299
321
133
332
366
267
160
243
211
49
201
176
380
402
227
57
91
54
410
336
129
110
14
195
21
50
362
30
103
197
40
348
112
187
143
165
345
70
5
52
171
298
230
124
127
294
140
339
350
116
87
271
382
223
53
383
329
28
9
390
44
403
66
137
242
108
341
90
73
105
31
101
260
273
190
219
222
11
141
364
307
399
25
13
45
200
59
381
337
3
202
136
253
39
297
167
184
301
265
82
357
295
163
335
95
71
55
24
43
281
35
157
374
83
86
274
266
23
248
89
151
38
19
154
107
204
26
113
153
88
179
186
356
320
32
400
74
369
100
10
132
62
198
269
20
226
278
290
183
148
109
239
115
172
80
96
142
47
63
149
22
135
126
152
77
114
48
146
34
310
2
17
282
333
61
193
389
93
7
36
104
162
134
161
317
75
67
117
8
18
220
41
358
4
16
6
145
42
156

> <PUBCHEM_MMFF94_PARTIAL_CHARGES>
27
1 -0.56
10 -0.85
11 -0.37
12 0.28
13 0.53
14 0.28
15 0.58
16 0.28
17 -0.04
18 0.84
19 -0.14
2 -0.68
20 0.49
26 0.4
27 0.4
28 0.15
29 0.4
3 -0.68
30 0.15
31 0.4
32 0.4
4 -0.68
5 -0.57
6 -0.47
7 -0.56
8 -0.66
9 0.69

> <PUBCHEM_EFFECTIVE_ROTOR_COUNT>
4

> <PUBCHEM_PHARMACOPHORE_FEATURES>
12
1 1 acceptor
1 10 donor
1 2 acceptor
1 2 donor
1 3 acceptor
1 3 donor
1 4 acceptor
1 4 donor
1 5 acceptor
1 8 donor
5 1 12 13 14 15 rings
6 6 8 17 18 19 20 rings

> <PUBCHEM_HEAVY_ATOM_COUNT>
20

> <PUBCHEM_ATOM_DEF_STEREO_COUNT>
0

> <PUBCHEM_ATOM_UDEF_STEREO_COUNT>
4

> <PUBCHEM_BOND_DEF_STEREO_COUNT>
1

> <PUBCHEM_BOND_UDEF_STEREO_COUNT>
0

> <PUBCHEM_ISOTOPIC_ATOM_COUNT>
0

> <PUBCHEM_COMPONENT_COUNT>
1

> <PUBCHEM_CACTVS_TAUTO_COUNT>
3

> <PUBCHEM_CONFORMER_ID>
07B53BCC00000001

> <PUBCHEM_MMFF94_ENERGY>
54.9346

> <PUBCHEM_FEATURE_SELFOVERLAP>
60.95

> <PUBCHEM_SHAPE_FINGERPRINT>
10608611 8 18409177623023214757
11132069 177 18412263930840415721
11140007 195 14851878102457016837
11543360 7 13830129511949210353
12251169 10 18113893862145737641
12633257 1 18259701181795723617
13134695 92 16916238654570710166
13140716 1 18334859471638508441
13380535 76 18410292497812246923
13583140 156 17168700963840415963
15061688 2 17202746207422881322
15219456 202 18342468023477972655
15375358 24 18341891875153302257
15852999 172 18342735182996519331
16945 1 18334022674385333391
17041 49 18040990748156397456
17980427 23 18197474402710334836
1813 80 15865191253142893330
18186145 218 18198353870605201661
20559304 39 17894911798006095952
20645477 70 17202768085980986613
21501502 16 18188492513739683745
23402539 116 18335405873341017845
23419403 2 17402868057017897766
23557571 272 18201442518868622107
23559900 14 18339088094279281582
2748010 2 18200890520765340230
3060560 45 18200601289051306743
495365 180 17916861305829486151
5104073 3 18187088394879516441
5939293 188 18335986445050181596
7097593 13 17895459389240934746
7364860 26 18197216949390732567
77492 1 16732991946135512347
9709674 26 18411429422953074543

> <PUBCHEM_SHAPE_MULTIPOLES>
352.36
7.17
2.16
1.56
5.43
0.09
-0.41
2.03
-1.86
0.1
0.56
-2.34
-0.49
0.45

> <PUBCHEM_SHAPE_SELFOVERLAP>
745.646

> <PUBCHEM_SHAPE_VOLUME>
195.1

> <PUBCHEM_COORDINATE_TYPE>
2
5
10

$$$$
