REMARK  Name = 129317940
REMARK  4 active torsions:
REMARK  status: ('A' for Active; 'I' for Inactive)
REMARK    1  A    between atoms: C_5  and  C_24
REMARK    2  A    between atoms: C_8  and  C_16
REMARK    3  A    between atoms: C_24  and  S_27
REMARK    4  A    between atoms: S_27  and  N_29
REMARK                            x       y       z     vdW  Elec       q    Type
REMARK                         _______ _______ _______ _____ _____    ______ ____
ROOT
ATOM      1  O   UNL     1       3.716  -4.089  -0.595  0.00  0.00    -0.350 OA
ATOM      2  N   UNL     1      -0.381   1.361   0.533  0.00  0.00    -0.347 NA
ATOM      3  N   UNL     1       1.966  -2.000   0.091  0.00  0.00    -0.283 N 
ATOM      4  N   UNL     1      -0.168  -1.036   0.391  0.00  0.00    -0.329 NA
ATOM      5  C   UNL     1       0.956   1.451   0.378  0.00  0.00    +0.118 C 
ATOM      6  C   UNL     1       1.786   0.359   0.226  0.00  0.00    +0.132 C 
ATOM      7  C   UNL     1       1.162  -0.872   0.241  0.00  0.00    +0.179 C 
ATOM      8  C   UNL     1      -0.870   0.106   0.530  0.00  0.00    +0.138 C 
ATOM      9  C   UNL     1       3.250  -2.140   0.804  0.00  0.00    +0.104 C 
ATOM     10  C   UNL     1       1.450  -3.223  -0.541  0.00  0.00    +0.125 C 
ATOM     11  C   UNL     1       4.248  -2.852  -0.119  0.00  0.00    +0.162 C 
ATOM     12  C   UNL     1       2.546  -3.867  -1.382  0.00  0.00    +0.164 C 
ATOM     13  C   UNL     1       3.067  -2.909   2.116  0.00  0.00    +0.024 C 
ENDROOT
BRANCH   8  16
ATOM     14  N   UNL     1      -4.981  -1.382  -1.178  0.00  0.00    -0.297 N 
ATOM     15  N   UNL     1      -5.120  -0.319   0.979  0.00  0.00    -0.229 NA
ATOM     16  C   UNL     1      -2.293  -0.030   0.693  0.00  0.00    +0.090 C 
ATOM     17  C   UNL     1      -3.059  -0.650  -0.307  0.00  0.00    +0.044 C 
ATOM     18  C   UNL     1      -2.958   0.437   1.826  0.00  0.00    +0.033 C 
ATOM     19  C   UNL     1      -4.431  -0.752  -0.093  0.00  0.00    +0.133 C 
ATOM     20  C   UNL     1      -2.795  -1.244  -1.570  0.00  0.00    +0.019 C 
ATOM     21  C   UNL     1      -4.333   0.269   1.910  0.00  0.00    +0.101 C 
ATOM     22  C   UNL     1      -3.996  -1.685  -2.082  0.00  0.00    +0.063 C 
ATOM     23  H   UNL     1      -5.938  -1.585  -1.291  0.00  0.00    +0.154 HD
ENDBRANCH   8  16
BRANCH   5  24
ATOM     24  C   UNL     1       1.552   2.819   0.373  0.00  0.00    +0.105 C 
ATOM     25  C   UNL     1       2.745   3.135   1.217  0.00  0.00    +0.020 C 
ATOM     26  C   UNL     1       1.405   3.721   1.556  0.00  0.00    +0.020 C 
BRANCH  24  27
ATOM     27  S   UNL     1       1.545   3.705  -1.188  0.00  0.00    -0.007 S 
ATOM     28  O   UNL     1       1.996   5.079  -0.930  0.00  0.00    -0.156 OA
ATOM     29  C   UNL     1      -0.186   3.836  -1.615  0.00  0.00    +0.097 C 
BRANCH  27  30
ATOM     30  N   UNL     1       2.180   2.771  -2.264  0.00  0.00    -0.183 NA
ATOM     31  H   UNL     1       3.140   2.556  -2.225  0.00  0.00    +0.156 HD
ENDBRANCH  27  30
ENDBRANCH  24  27
ENDBRANCH   5  24
TORSDOF 4
