129375
  -OEChem-03292013323D

 48 50  0     1  0  0  0  0  0999 V2000
    0.3069    1.7959   -0.0890 O   0  0  0  0  0  0  0  0  0  0  0  0
   -1.6795   -0.6839   -2.4919 O   0  0  0  0  0  0  0  0  0  0  0  0
   -1.4751    0.0253    2.0822 O   0  0  0  0  0  0  0  0  0  0  0  0
   -1.1104    3.5543    0.3349 O   0  0  0  0  0  0  0  0  0  0  0  0
   -6.9796   -0.2897   -0.7603 O   0  0  0  0  0  0  0  0  0  0  0  0
    6.8418   -0.4458   -1.2583 O   0  5  0  0  0  0  0  0  0  0  0  0
    6.6080   -1.1337    0.8132 O   0  0  0  0  0  0  0  0  0  0  0  0
   -1.6815    0.0909   -0.2663 N   0  0  0  0  0  0  0  0  0  0  0  0
    6.2141   -0.4637   -0.1719 N   0  3  0  0  0  0  0  0  0  0  0  0
   -2.0409    1.4726   -0.4658 C   0  0  1  0  0  0  0  0  0  0  0  0
   -3.3336    1.8273    0.2778 C   0  0  0  0  0  0  0  0  0  0  0  0
   -4.5200    0.9644   -0.1632 C   0  0  0  0  0  0  0  0  0  0  0  0
   -1.5391   -0.8269   -1.2916 C   0  0  0  0  0  0  0  0  0  0  0  0
   -1.4382   -0.4737    0.9728 C   0  0  0  0  0  0  0  0  0  0  0  0
   -1.1621   -2.0872   -0.6527 C   0  0  0  0  0  0  0  0  0  0  0  0
   -1.1012   -1.8737    0.7165 C   0  0  0  0  0  0  0  0  0  0  0  0
   -0.9137    2.3984   -0.0268 C   0  0  0  0  0  0  0  0  0  0  0  0
   -5.8028    1.3814    0.5501 C   0  0  0  0  0  0  0  0  0  0  0  0
   -0.8951   -3.3198   -1.2121 C   0  0  0  0  0  0  0  0  0  0  0  0
   -0.7701   -2.8817    1.5986 C   0  0  0  0  0  0  0  0  0  0  0  0
   -0.5567   -4.3563   -0.3375 C   0  0  0  0  0  0  0  0  0  0  0  0
   -0.4950   -4.1394    1.0543 C   0  0  0  0  0  0  0  0  0  0  0  0
    1.4213    2.6033    0.3054 C   0  0  0  0  0  0  0  0  0  0  0  0
   -7.0019    0.5797    0.1042 C   0  0  0  0  0  0  0  0  0  0  0  0
    2.6799    1.7961    0.1795 C   0  0  0  0  0  0  0  0  0  0  0  0
    3.3938    1.7997   -1.0188 C   0  0  0  0  0  0  0  0  0  0  0  0
    3.1370    1.0434    1.2614 C   0  0  0  0  0  0  0  0  0  0  0  0
    4.5645    1.0507   -1.1356 C   0  0  0  0  0  0  0  0  0  0  0  0
    4.3077    0.2942    1.1447 C   0  0  0  0  0  0  0  0  0  0  0  0
    5.0215    0.2978   -0.0537 C   0  0  0  0  0  0  0  0  0  0  0  0
   -2.1808    1.6486   -1.5396 H   0  0  0  0  0  0  0  0  0  0  0  0
   -3.2016    1.7446    1.3632 H   0  0  0  0  0  0  0  0  0  0  0  0
   -3.5800    2.8802    0.0868 H   0  0  0  0  0  0  0  0  0  0  0  0
   -4.6546    1.0534   -1.2484 H   0  0  0  0  0  0  0  0  0  0  0  0
   -4.3250   -0.0941    0.0452 H   0  0  0  0  0  0  0  0  0  0  0  0
   -5.6984    1.2457    1.6320 H   0  0  0  0  0  0  0  0  0  0  0  0
   -6.0245    2.4366    0.3574 H   0  0  0  0  0  0  0  0  0  0  0  0
   -0.9430   -3.4869   -2.2816 H   0  0  0  0  0  0  0  0  0  0  0  0
   -0.7227   -2.7153    2.6683 H   0  0  0  0  0  0  0  0  0  0  0  0
   -0.3379   -5.3446   -0.7336 H   0  0  0  0  0  0  0  0  0  0  0  0
   -0.2295   -4.9635    1.7113 H   0  0  0  0  0  0  0  0  0  0  0  0
    1.2880    2.9369    1.3420 H   0  0  0  0  0  0  0  0  0  0  0  0
    1.4777    3.4941   -0.3326 H   0  0  0  0  0  0  0  0  0  0  0  0
   -7.9464    0.8333    0.6161 H   0  0  0  0  0  0  0  0  0  0  0  0
    3.0462    2.3809   -1.8689 H   0  0  0  0  0  0  0  0  0  0  0  0
    2.5876    1.0309    2.1991 H   0  0  0  0  0  0  0  0  0  0  0  0
    5.0944    1.0770   -2.0844 H   0  0  0  0  0  0  0  0  0  0  0  0
    4.6333   -0.2806    2.0079 H   0  0  0  0  0  0  0  0  0  0  0  0
  1 17  1  0  0  0  0
  1 23  1  0  0  0  0
  2 13  2  0  0  0  0
  3 14  2  0  0  0  0
  4 17  2  0  0  0  0
  5 24  2  0  0  0  0
  6  9  1  0  0  0  0
  7  9  2  0  0  0  0
  8 10  1  0  0  0  0
  8 13  1  0  0  0  0
  8 14  1  0  0  0  0
  9 30  1  0  0  0  0
 10 11  1  0  0  0  0
 10 17  1  0  0  0  0
 10 31  1  0  0  0  0
 11 12  1  0  0  0  0
 11 32  1  0  0  0  0
 11 33  1  0  0  0  0
 12 18  1  0  0  0  0
 12 34  1  0  0  0  0
 12 35  1  0  0  0  0
 13 15  1  0  0  0  0
 14 16  1  0  0  0  0
 15 16  1  0  0  0  0
 15 19  2  0  0  0  0
 16 20  2  0  0  0  0
 18 24  1  0  0  0  0
 18 36  1  0  0  0  0
 18 37  1  0  0  0  0
 19 21  1  0  0  0  0
 19 38  1  0  0  0  0
 20 22  1  0  0  0  0
 20 39  1  0  0  0  0
 21 22  2  0  0  0  0
 21 40  1  0  0  0  0
 22 41  1  0  0  0  0
 23 25  1  0  0  0  0
 23 42  1  0  0  0  0
 23 43  1  0  0  0  0
 24 44  1  0  0  0  0
 25 26  2  0  0  0  0
 25 27  1  0  0  0  0
 26 28  1  0  0  0  0
 26 45  1  0  0  0  0
 27 29  2  0  0  0  0
 27 46  1  0  0  0  0
 28 30  2  0  0  0  0
 28 47  1  0  0  0  0
 29 30  1  0  0  0  0
 29 48  1  0  0  0  0
M  CHG  2   6  -1   9   1
M  END
> <PUBCHEM_COMPOUND_CID>
129375

> <PUBCHEM_CONFORMER_RMSD>
1

> <PUBCHEM_CONFORMER_DIVERSEORDER>
1
58
91
40
34
54
92
68
7
57
81
86
31
28
32
45
30
51
80
85
11
49
72
38
76
61
9
20
77
47
37
22
84
15
44
13
66
88
14
2
82
63
29
42
70
3
24
71
8
52
53
90
25
41
26
56
74
65
73
67
4
43
16
48
23
55
69
89
46
27
6
78
18
17
62
50
75
35
33
12
60
21
39
83
19
64
87
79
59
5
10
36

> <PUBCHEM_MMFF94_PARTIAL_CHARGES>
37
1 -0.43
10 0.36
13 0.54
14 0.54
15 0.09
16 0.09
17 0.66
18 0.06
19 -0.15
2 -0.57
20 -0.15
21 -0.15
22 -0.15
23 0.42
24 0.45
25 -0.14
26 -0.15
27 -0.15
28 -0.15
29 -0.15
3 -0.57
30 0.13
38 0.15
39 0.15
4 -0.57
40 0.15
41 0.15
44 0.06
45 0.15
46 0.15
47 0.15
48 0.15
5 -0.57
6 -0.52
7 -0.52
8 -0.42
9 0.91

> <PUBCHEM_EFFECTIVE_ROTOR_COUNT>
10.2

> <PUBCHEM_PHARMACOPHORE_FEATURES>
10
1 2 acceptor
1 3 acceptor
1 4 acceptor
1 5 acceptor
1 6 acceptor
1 6 anion
1 7 acceptor
5 8 13 14 15 16 rings
6 15 16 19 20 21 22 rings
6 25 26 27 28 29 30 rings

> <PUBCHEM_HEAVY_ATOM_COUNT>
30

> <PUBCHEM_ATOM_DEF_STEREO_COUNT>
1

> <PUBCHEM_ATOM_UDEF_STEREO_COUNT>
0

> <PUBCHEM_BOND_DEF_STEREO_COUNT>
0

> <PUBCHEM_BOND_UDEF_STEREO_COUNT>
0

> <PUBCHEM_ISOTOPIC_ATOM_COUNT>
0

> <PUBCHEM_COMPONENT_COUNT>
1

> <PUBCHEM_CACTVS_TAUTO_COUNT>
2

> <PUBCHEM_CONFORMER_ID>
0001F95F00000001

> <PUBCHEM_MMFF94_ENERGY>
70.8381

> <PUBCHEM_FEATURE_SELFOVERLAP>
50.924

> <PUBCHEM_SHAPE_FINGERPRINT>
107951 10 17531252716433232272
11135926 11 18339356376277040837
11991303 11 17895472643927247759
12156800 1 16158831320607194778
13726171 33 17909025258658673108
14659021 117 18267845342164491216
14725015 67 18342172233022616329
14866123 147 18339922727174770703
15131766 46 15504368061340162676
15320294 125 18041549262311006962
15439362 3 17110150526484962860
15849732 13 17822013120422762237
16628084 112 18262514767600215350
16728300 4 17607222287123101322
19311894 1 18057027229154940279
19319366 153 17603579734202200704
20028762 73 18272366516882231677
21344244 246 18342459188767655407
21781051 124 18188505660856084307
22956985 138 17972878051858238907
23559900 14 18341046424085455848
23728640 28 18410575093485284680
3178227 256 18337964480292150689
3383291 50 18412262826638474394
340366 18 18114467850434564180
3411729 13 17980488854276832273
404807 14 15189983305080914892
508706 21 18271536355507510702
5265222 85 18408328782867319828
5309563 4 16969424595833010054
58260988 521 18114477703600600833
6138700 20 18411702062960478581
6679774 75 18114728383050643419

> <PUBCHEM_SHAPE_MULTIPOLES>
566.34
13.62
4.48
1.48
5.24
4.65
0.14
-4.62
1.32
-1.7
-0.4
0.18
0.65
-0.48

> <PUBCHEM_SHAPE_SELFOVERLAP>
1222.445

> <PUBCHEM_SHAPE_VOLUME>
309.6

> <PUBCHEM_COORDINATE_TYPE>
2
5
10

$$$$
