REMARK  Name = 129317836
REMARK  5 active torsions:
REMARK  status: ('A' for Active; 'I' for Inactive)
REMARK    1  A    between atoms: C3*_2  and  O3*_16
REMARK    2  A    between atoms: C4*_3  and  C5*_20
REMARK    3  A    between atoms: C2*_4  and  O2*_18
REMARK    4  A    between atoms: C1*_5  and  N1_7
REMARK    5  A    between atoms: C5*_20  and  O5*_21
REMARK                            x       y       z     vdW  Elec       q    Type
REMARK                         _______ _______ _______ _____ _____    ______ ____
ROOT
ATOM      1  O4* C   A   1       0.926   0.425   0.619  0.00  0.00    -0.332 OA
ATOM      2  C3* C   A   1       2.047  -0.931  -0.965  0.00  0.00    +0.171 C 
ATOM      3  C4* C   A   1       2.078   0.425  -0.254  0.00  0.00    +0.175 C 
ATOM      4  C2* C   A   1       0.566  -1.235  -1.036  0.00  0.00    +0.188 C 
ATOM      5  C1* C   A   1       0.072  -0.678   0.284  0.00  0.00    +0.236 C 
ENDROOT
BRANCH   5   7
ATOM      6  O2  C   A   1      -2.210  -2.187   0.958  0.00  0.00    -0.193 OA
ATOM      7  N1  C   A   1      -1.283  -0.211   0.208  0.00  0.00    -0.178 N 
ATOM      8  N3  C   A   1      -3.664  -0.514   0.467  0.00  0.00    -0.306 NA
ATOM      9  N4  C   A   1      -5.148   1.203  -0.039  0.00  0.00    -0.332 N 
ATOM     10  C6  C   A   1      -1.519   1.084  -0.229  0.00  0.00    +0.083 C 
ATOM     11  C2  C   A   1      -2.384  -1.031   0.566  0.00  0.00    +0.276 C 
ATOM     12  C5  C   A   1      -2.742   1.600  -0.331  0.00  0.00    +0.065 C 
ATOM     13  C4  C   A   1      -3.868   0.709   0.052  0.00  0.00    +0.193 C 
ATOM     14  H41 C   A   1      -5.914   0.635   0.209  0.00  0.00    +0.145 HD
ATOM     15  H42 C   A   1      -5.299   2.124  -0.351  0.00  0.00    +0.145 HD
ENDBRANCH   5   7
BRANCH   2  16
ATOM     16  O3* C   A   1       2.637  -0.890  -2.251  0.00  0.00    -0.379 OA
ATOM     17  H3* C   A   1       3.583  -0.693  -2.167  0.00  0.00    +0.211 HD
ENDBRANCH   2  16
BRANCH   4  18
ATOM     18  O2* C   A   1       0.321  -2.627  -1.117  0.00  0.00    -0.378 OA
ATOM     19  H2* C   A   1       0.644  -2.964  -1.968  0.00  0.00    +0.211 HD
ENDBRANCH   4  18
BRANCH   3  20
ATOM     20  C5* C   A   1       1.934   1.627  -1.189  0.00  0.00    +0.169 C 
BRANCH  20  21
ATOM     21  O5* C   A   1       1.968   2.806  -0.408  0.00  0.00    -0.379 OA
ATOM     22  H5* C   A   1       1.878   3.580  -0.986  0.00  0.00    +0.211 HD
ENDBRANCH  20  21
ENDBRANCH   3  20
TORSDOF 5
REMARK  Name = 129317836
REMARK  5 active torsions:
REMARK  status: ('A' for Active; 'I' for Inactive)
REMARK    1  A    between atoms: C3*_2  and  O3*_16
REMARK    2  A    between atoms: C4*_3  and  C5*_20
REMARK    3  A    between atoms: C2*_4  and  O2*_18
REMARK    4  A    between atoms: C1*_5  and  N1_7
REMARK    5  A    between atoms: C5*_20  and  O5*_21
REMARK                            x       y       z     vdW  Elec       q    Type
REMARK                         _______ _______ _______ _____ _____    ______ ____
ROOT
ATOM      1  N   UNL     1       3.421   0.129   1.587  0.00  0.00    +0.000 NA
ATOM      2  N   UNL     1       3.473  -0.259   2.658  0.00  0.00    +0.000 NA
ENDROOT
TORSDOF 0
