129361448
  -OEChem-03292013293D

 41 41  0     1  0  0  0  0  0999 V2000
    1.0405   -1.6227    1.4633 O   0  0  0  0  0  0  0  0  0  0  0  0
    3.9721   -0.6882   -0.3225 O   0  0  0  0  0  0  0  0  0  0  0  0
   -4.2859    2.4310    0.2704 O   0  0  0  0  0  0  0  0  0  0  0  0
    1.3356   -0.2257   -0.3644 N   0  0  0  0  0  0  0  0  0  0  0  0
    0.6947   -3.5352   -0.7161 N   0  0  0  0  0  0  0  0  0  0  0  0
    4.4100    1.0866    1.0669 N   0  0  0  0  0  0  0  0  0  0  0  0
    1.9585    2.1838   -0.2603 C   0  0  0  0  0  0  0  0  0  0  0  0
    2.1295    0.7636    0.3188 C   0  0  2  0  0  0  0  0  0  0  0  0
    0.0139   -2.2420   -0.6423 C   0  0  1  0  0  0  0  0  0  0  0  0
   -1.4027   -2.4287   -0.0793 C   0  0  0  0  0  0  0  0  0  0  0  0
    0.5101    2.6821   -0.2143 C   0  0  0  0  0  0  0  0  0  0  0  0
    2.4890    2.2604   -1.6954 C   0  0  0  0  0  0  0  0  0  0  0  0
    0.8489   -1.3567    0.2778 C   0  0  0  0  0  0  0  0  0  0  0  0
    3.5820    0.3007    0.2938 C   0  0  0  0  0  0  0  0  0  0  0  0
   -2.1722   -1.1321    0.0146 C   0  0  0  0  0  0  0  0  0  0  0  0
   -2.1051   -0.3631    1.1765 C   0  0  0  0  0  0  0  0  0  0  0  0
   -2.9497   -0.7036   -1.0614 C   0  0  0  0  0  0  0  0  0  0  0  0
   -2.8156    0.8339    1.2626 C   0  0  0  0  0  0  0  0  0  0  0  0
   -3.6603    0.4935   -0.9753 C   0  0  0  0  0  0  0  0  0  0  0  0
   -3.5934    1.2623    0.1867 C   0  0  0  0  0  0  0  0  0  0  0  0
    2.5531    2.8834    0.3407 H   0  0  0  0  0  0  0  0  0  0  0  0
    1.8169    0.7782    1.3715 H   0  0  0  0  0  0  0  0  0  0  0  0
   -0.0418   -1.8131   -1.6495 H   0  0  0  0  0  0  0  0  0  0  0  0
    1.1835   -0.1220   -1.3625 H   0  0  0  0  0  0  0  0  0  0  0  0
   -1.9666   -3.1320   -0.7071 H   0  0  0  0  0  0  0  0  0  0  0  0
   -1.3672   -2.8906    0.9173 H   0  0  0  0  0  0  0  0  0  0  0  0
   -0.1455    2.0787   -0.8508 H   0  0  0  0  0  0  0  0  0  0  0  0
    3.5437    1.9759   -1.7578 H   0  0  0  0  0  0  0  0  0  0  0  0
    0.1220    2.6427    0.8088 H   0  0  0  0  0  0  0  0  0  0  0  0
    0.4466    3.7204   -0.5568 H   0  0  0  0  0  0  0  0  0  0  0  0
    2.4138    3.2876   -2.0705 H   0  0  0  0  0  0  0  0  0  0  0  0
    1.9208    1.6242   -2.3812 H   0  0  0  0  0  0  0  0  0  0  0  0
    1.6000   -3.4185   -1.1703 H   0  0  0  0  0  0  0  0  0  0  0  0
    0.1601   -4.1693   -1.3087 H   0  0  0  0  0  0  0  0  0  0  0  0
   -1.5117   -0.6865    2.0270 H   0  0  0  0  0  0  0  0  0  0  0  0
   -3.0077   -1.2928   -1.9727 H   0  0  0  0  0  0  0  0  0  0  0  0
    4.0707    1.8766    1.6057 H   0  0  0  0  0  0  0  0  0  0  0  0
    5.4009    0.8811    1.1401 H   0  0  0  0  0  0  0  0  0  0  0  0
   -2.7601    1.4281    2.1706 H   0  0  0  0  0  0  0  0  0  0  0  0
   -4.2617    0.8167   -1.8207 H   0  0  0  0  0  0  0  0  0  0  0  0
   -4.7675    2.5721   -0.5627 H   0  0  0  0  0  0  0  0  0  0  0  0
  1 13  2  0  0  0  0
  2 14  2  0  0  0  0
  3 20  1  0  0  0  0
  3 41  1  0  0  0  0
  4  8  1  0  0  0  0
  4 13  1  0  0  0  0
  4 24  1  0  0  0  0
  5  9  1  0  0  0  0
  5 33  1  0  0  0  0
  5 34  1  0  0  0  0
  6 14  1  0  0  0  0
  6 37  1  0  0  0  0
  6 38  1  0  0  0  0
  7  8  1  0  0  0  0
  7 11  1  0  0  0  0
  7 12  1  0  0  0  0
  7 21  1  0  0  0  0
  8 14  1  0  0  0  0
  8 22  1  0  0  0  0
  9 10  1  0  0  0  0
  9 13  1  0  0  0  0
  9 23  1  0  0  0  0
 10 15  1  0  0  0  0
 10 25  1  0  0  0  0
 10 26  1  0  0  0  0
 11 27  1  0  0  0  0
 11 29  1  0  0  0  0
 11 30  1  0  0  0  0
 12 28  1  0  0  0  0
 12 31  1  0  0  0  0
 12 32  1  0  0  0  0
 15 16  2  0  0  0  0
 15 17  1  0  0  0  0
 16 18  1  0  0  0  0
 16 35  1  0  0  0  0
 17 19  2  0  0  0  0
 17 36  1  0  0  0  0
 18 20  2  0  0  0  0
 18 39  1  0  0  0  0
 19 20  1  0  0  0  0
 19 40  1  0  0  0  0
M  END
> <PUBCHEM_COMPOUND_CID>
129361448

> <PUBCHEM_CONFORMER_RMSD>
0.8

> <PUBCHEM_CONFORMER_DIVERSEORDER>
1
144
142
90
122
13
105
160
157
51
129
46
89
130
100
79
11
72
127
133
126
135
137
74
95
78
34
62
99
17
147
28
66
159
44
22
149
42
111
7
57
47
104
65
125
92
134
45
76
14
20
87
140
84
59
88
110
27
61
55
120
36
97
70
71
82
112
148
141
128
15
119
132
56
75
121
25
138
150
64
154
136
8
40
3
145
81
85
80
98
107
146
48
50
24
73
30
23
106
63
86
152
123
6
114
38
108
19
77
49
52
109
115
37
68
93
94
58
4
43
151
158
101
139
155
33
69
153
103
29
53
96
16
117
10
21
91
35
67
118
26
18
5
116
32
9
113
2
143
12
131
31
102
39
54
41
60
83
124
156

> <PUBCHEM_MMFF94_PARTIAL_CHARGES>
27
1 -0.57
10 0.14
13 0.57
14 0.57
15 -0.14
16 -0.15
17 -0.15
18 -0.15
19 -0.15
2 -0.57
20 0.08
24 0.37
3 -0.53
33 0.36
34 0.36
35 0.15
36 0.15
37 0.37
38 0.37
39 0.15
4 -0.73
40 0.15
41 0.45
5 -0.99
6 -0.8
8 0.36
9 0.33

> <PUBCHEM_EFFECTIVE_ROTOR_COUNT>
7

> <PUBCHEM_PHARMACOPHORE_FEATURES>
9
1 1 acceptor
1 2 acceptor
1 3 donor
1 4 donor
1 5 cation
1 5 donor
1 6 donor
3 7 11 12 hydrophobe
6 15 16 17 18 19 20 rings

> <PUBCHEM_HEAVY_ATOM_COUNT>
20

> <PUBCHEM_ATOM_DEF_STEREO_COUNT>
2

> <PUBCHEM_ATOM_UDEF_STEREO_COUNT>
0

> <PUBCHEM_BOND_DEF_STEREO_COUNT>
0

> <PUBCHEM_BOND_UDEF_STEREO_COUNT>
0

> <PUBCHEM_ISOTOPIC_ATOM_COUNT>
0

> <PUBCHEM_COMPONENT_COUNT>
1

> <PUBCHEM_CACTVS_TAUTO_COUNT>
24

> <PUBCHEM_CONFORMER_ID>
07B5E62800000001

> <PUBCHEM_MMFF94_ENERGY>
40.8616

> <PUBCHEM_FEATURE_SELFOVERLAP>
45.671

> <PUBCHEM_SHAPE_FINGERPRINT>
10382601 240 18190463753151303419
104564 63 18119809114776598876
11370993 70 18272079530624034864
11640471 11 18272090466027326385
12422481 6 17975390457475740930
12633257 1 17385439912527234025
128993 33 18044391632126239517
13140716 1 18334576888275431296
13583140 156 17385717015554135723
14713325 29 16306299186420269364
15442244 35 18265329693719294244
18186145 218 18130240331939402450
18219364 16 18333450950109138501
192875 21 18196356229470328157
21475661 188 17606681323666917853
21524375 3 18335136544141917127
22094290 62 18335419110166479850
22749437 52 18340766060665919984
23557571 272 16986874785689391991
23559900 14 17775287184252797122
238 59 17682636759043500293
350125 39 18265904742216033683
474 4 18336827490378322457
5262128 65 15482665818888935891
6328613 192 18337955692826044304
6992083 37 18262795314811041220
7164475 11 17981320411125937486
7832392 63 18410853278643815906

> <PUBCHEM_SHAPE_MULTIPOLES>
379.04
7.33
3.39
1.23
0.84
0.85
0.01
-4.08
-0.39
-0.05
0.75
-0.01
-0.16
-0.68

> <PUBCHEM_SHAPE_SELFOVERLAP>
772.217

> <PUBCHEM_SHAPE_VOLUME>
218.8

> <PUBCHEM_COORDINATE_TYPE>
2
5
10

$$$$
