REMARK  Name = 12932
REMARK  10 active torsions:
REMARK  status: ('A' for Active; 'I' for Inactive)
REMARK    1  A    between atoms: C_1  and  N_2
REMARK    2  A    between atoms: C_1  and  C_13
REMARK    3  A    between atoms: N_2  and  S_4
REMARK    4  A    between atoms: S_4  and  C_7
REMARK    5  A    between atoms: C_13  and  S_14
REMARK    6  A    between atoms: S_14  and  P_16
REMARK    7  A    between atoms: P_16  and  O_17
REMARK    8  A    between atoms: P_16  and  O_21
REMARK    9  A    between atoms: O_17  and  C_18
REMARK   10  A    between atoms: O_21  and  C_22
REMARK                            x       y       z     vdW  Elec       q    Type
REMARK                         _______ _______ _______ _____ _____    ______ ____
ROOT
ATOM      1  C   UNL     1      -0.939  -0.486   0.274  0.00  0.00    +0.104 C 
ENDROOT
BRANCH   1   2
ATOM      2  N   UNL     1      -1.442   0.843  -0.141  0.00  0.00    -0.178 NA
ATOM      3  H   UNL     1      -1.672   1.351   0.713  0.00  0.00    +0.149 HD
BRANCH   2   4
ATOM      4  S   UNL     1      -2.797   0.956  -1.160  0.00  0.00    +0.060 S 
ATOM      5  O   UNL     1      -2.570   0.162  -2.353  0.00  0.00    -0.153 OA
ATOM      6  O   UNL     1      -3.184   2.349  -1.273  0.00  0.00    -0.153 OA
BRANCH   4   7
ATOM      7  C   UNL     1      -4.043   0.151  -0.199  0.00  0.00    +0.122 C 
ATOM      8  C   UNL     1      -4.828   0.891   0.686  0.00  0.00    +0.020 C 
ATOM      9  C   UNL     1      -4.242  -1.224  -0.325  0.00  0.00    +0.020 C 
ATOM     10  C   UNL     1      -5.811   0.256   1.445  0.00  0.00    +0.001 C 
ATOM     11  C   UNL     1      -5.226  -1.859   0.434  0.00  0.00    +0.001 C 
ATOM     12  C   UNL     1      -6.010  -1.119   1.319  0.00  0.00    +0.000 C 
ENDBRANCH   4   7
ENDBRANCH   2   4
ENDBRANCH   1   2
BRANCH   1  13
ATOM     13  C   UNL     1       0.562  -0.441   0.524  0.00  0.00    +0.085 C 
BRANCH  13  14
ATOM     14  S   UNL     1       1.488   0.006  -0.958  0.00  0.00    -0.062 S 
BRANCH  14  16
ATOM     15  S   UNL     1       4.910   0.206  -1.752  0.00  0.00    +0.003 S 
ATOM     16  P   UNL     1       3.533   0.003  -0.369  0.00  0.00    +0.231 P 
BRANCH  16  17
ATOM     17  O   UNL     1       3.766  -1.338   0.537  0.00  0.00    -0.313 OA
BRANCH  17  18
ATOM     18  C   UNL     1       4.149  -2.559  -0.075  0.00  0.00    +0.122 C 
ATOM     19  C   UNL     1       2.933  -3.193  -0.732  0.00  0.00    +0.033 C 
ATOM     20  C   UNL     1       4.767  -3.472   0.973  0.00  0.00    +0.033 C 
ENDBRANCH  17  18
ENDBRANCH  16  17
BRANCH  16  21
ATOM     21  O   UNL     1       3.684   1.111   0.824  0.00  0.00    -0.313 OA
BRANCH  21  22
ATOM     22  C   UNL     1       3.982   2.462   0.514  0.00  0.00    +0.122 C 
ATOM     23  C   UNL     1       4.607   3.129   1.730  0.00  0.00    +0.033 C 
ATOM     24  C   UNL     1       2.708   3.167   0.074  0.00  0.00    +0.033 C 
ENDBRANCH  21  22
ENDBRANCH  16  21
ENDBRANCH  14  16
ENDBRANCH  13  14
ENDBRANCH   1  13
TORSDOF 10
