REMARK  Name = 129317018
REMARK  4 active torsions:
REMARK  status: ('A' for Active; 'I' for Inactive)
REMARK    1  A    between atoms: C_8  and  O_30
REMARK    2  A    between atoms: C_9  and  O_32
REMARK    3  A    between atoms: C_16  and  C_26
REMARK    4  A    between atoms: C_17  and  O_34
REMARK                            x       y       z     vdW  Elec       q    Type
REMARK                         _______ _______ _______ _____ _____    ______ ____
ROOT
ATOM      1  O   UNL     1      -0.837   3.079  -0.293  0.00  0.00    -0.288 OA
ATOM      2  O   UNL     1      -5.023  -1.751   2.011  0.00  0.00    -0.291 OA
ATOM      3  C   UNL     1      -0.057   0.809  -0.506  0.00  0.00    +0.067 C 
ATOM      4  C   UNL     1       1.150   1.028   0.525  0.00  0.00    +0.047 C 
ATOM      5  C   UNL     1      -0.665  -0.621  -0.255  0.00  0.00    +0.042 C 
ATOM      6  C   UNL     1      -2.136  -0.826  -0.807  0.00  0.00    +0.040 C 
ATOM      7  C   UNL     1       2.160  -0.105   0.375  0.00  0.00    -0.044 C 
ATOM      8  C   UNL     1       0.392  -1.727  -0.544  0.00  0.00    +0.115 C 
ATOM      9  C   UNL     1       2.067   2.292   0.344  0.00  0.00    +0.118 C 
ATOM     10  C   UNL     1       1.683  -1.526   0.272  0.00  0.00    +0.051 C 
ATOM     11  C   UNL     1      -1.120   1.879  -0.253  0.00  0.00    +0.205 C 
ATOM     12  C   UNL     1      -3.034   0.264  -0.144  0.00  0.00    +0.002 C 
ATOM     13  C   UNL     1       0.416   0.994  -1.976  0.00  0.00    +0.008 C 
ATOM     14  C   UNL     1       3.499   1.824   0.631  0.00  0.00    +0.055 C 
ATOM     15  C   UNL     1       0.684   1.037   2.012  0.00  0.00    +0.007 C 
ATOM     16  C   UNL     1       3.428   0.341   0.422  0.00  0.00    -0.024 C 
ATOM     17  C   UNL     1      -2.529   1.502   0.076  0.00  0.00    +0.161 C 
ATOM     18  C   UNL     1      -4.484  -0.159   0.235  0.00  0.00    +0.074 C 
ATOM     19  C   UNL     1      -2.291  -0.728  -2.337  0.00  0.00    +0.009 C 
ATOM     20  C   UNL     1      -2.575  -2.237  -0.434  0.00  0.00    -0.020 C 
ATOM     21  C   UNL     1      -4.389  -1.499   0.987  0.00  0.00    +0.176 C 
ATOM     22  C   UNL     1      -3.557  -2.567   0.405  0.00  0.00    +0.033 C 
ATOM     23  C   UNL     1      -5.263   0.809   1.162  0.00  0.00    +0.012 C 
ATOM     24  C   UNL     1      -5.365  -0.355  -1.016  0.00  0.00    +0.012 C 
ENDROOT
BRANCH  16  26
ATOM     25  O   UNL     1       6.796  -1.003  -0.077  0.00  0.00    -0.447 OA
ATOM     26  C   UNL     1       4.660  -0.451   0.352  0.00  0.00    +0.036 C 
ATOM     27  C   UNL     1       4.873  -1.781   0.787  0.00  0.00    +0.043 C 
ATOM     28  C   UNL     1       5.860  -0.022  -0.166  0.00  0.00    +0.179 C 
ATOM     29  C   UNL     1       6.187  -2.070   0.503  0.00  0.00    +0.180 C 
ENDBRANCH  16  26
BRANCH   8  30
ATOM     30  O   UNL     1       0.705  -1.828  -1.926  0.00  0.00    -0.384 OA
ATOM     31  H   UNL     1      -0.111  -1.955  -2.434  0.00  0.00    +0.210 HD
ENDBRANCH   8  30
BRANCH   9  32
ATOM     32  O   UNL     1       2.053   2.863  -0.954  0.00  0.00    -0.384 OA
ATOM     33  H   UNL     1       1.156   3.169  -1.164  0.00  0.00    +0.210 HD
ENDBRANCH   9  32
BRANCH  17  34
ATOM     34  O   UNL     1      -3.287   2.534   0.588  0.00  0.00    -0.503 OA
ATOM     35  H   UNL     1      -2.900   3.377   0.726  0.00  0.00    +0.292 HD
ENDBRANCH  17  34
TORSDOF 4
