REMARK  Name = 129317578
REMARK  6 active torsions:
REMARK  status: ('A' for Active; 'I' for Inactive)
REMARK    1  A    between atoms: C_16  and  O_20
REMARK    2  A    between atoms: O_20  and  C_22
REMARK    3  A    between atoms: C_22  and  C_23
REMARK    4  A    between atoms: C_23  and  C_24
REMARK    5  A    between atoms: C_24  and  C_26
REMARK    6  A    between atoms: C_26  and  O_27
REMARK                            x       y       z     vdW  Elec       q    Type
REMARK                         _______ _______ _______ _____ _____    ______ ____
ROOT
ATOM      1  O   UNL     1       2.758   0.060  -0.869  0.00  0.00    -0.218 OA
ATOM      2  O   UNL     1       1.280   2.138   0.520  0.00  0.00    -0.306 OA
ATOM      3  O   UNL     1      -0.011   1.042  -1.088  0.00  0.00    -0.293 OA
ATOM      4  O   UNL     1       2.731   1.477  -1.219  0.00  0.00    -0.197 OA
ATOM      5  C   UNL     1       1.727  -0.243   0.092  0.00  0.00    +0.178 C 
ATOM      6  C   UNL     1       2.442  -0.476   1.456  0.00  0.00    +0.033 C 
ATOM      7  C   UNL     1       1.024  -1.552  -0.364  0.00  0.00    +0.039 C 
ATOM      8  C   UNL     1       3.409  -1.700   1.454  0.00  0.00    +0.003 C 
ATOM      9  C   UNL     1       0.675   0.890   0.161  0.00  0.00    +0.268 C 
ATOM     10  C   UNL     1       2.019  -2.721  -0.440  0.00  0.00    +0.003 C 
ATOM     11  C   UNL     1       0.267  -1.310  -1.693  0.00  0.00    +0.073 C 
ATOM     12  C   UNL     1       3.110   0.783   2.048  0.00  0.00    +0.008 C 
ATOM     13  C   UNL     1       2.703  -2.949   0.907  0.00  0.00    +0.000 C 
ATOM     14  C   UNL     1       2.602   2.237  -0.014  0.00  0.00    +0.221 C 
ATOM     15  C   UNL     1       3.638   1.819   1.048  0.00  0.00    +0.059 C 
ATOM     16  C   UNL     1      -0.704  -0.126  -1.523  0.00  0.00    +0.292 C 
ATOM     17  C   UNL     1       4.757  -1.494   0.754  0.00  0.00    +0.000 C 
ATOM     18  C   UNL     1      -0.484  -2.551  -2.185  0.00  0.00    +0.007 C 
ATOM     19  C   UNL     1       2.819   3.696  -0.411  0.00  0.00    +0.064 C 
ENDROOT
BRANCH  16  20
ATOM     20  O   UNL     1      -1.774  -0.469  -0.646  0.00  0.00    -0.424 OA
BRANCH  20  22
ATOM     21  O   UNL     1      -3.064   1.216  -1.549  0.00  0.00    -0.250 OA
ATOM     22  C   UNL     1      -2.908   0.290  -0.766  0.00  0.00    +0.319 C 
BRANCH  22  23
ATOM     23  C   UNL     1      -3.936  -0.201   0.230  0.00  0.00    +0.121 C 
BRANCH  23  24
ATOM     24  C   UNL     1      -5.271   0.525   0.118  0.00  0.00    +0.121 C 
BRANCH  24  26
ATOM     25  O   UNL     1      -6.045  -0.941   1.876  0.00  0.00    -0.250 OA
ATOM     26  C   UNL     1      -6.282  -0.034   1.089  0.00  0.00    +0.314 C 
BRANCH  26  27
ATOM     27  O   UNL     1      -7.482   0.593   1.014  0.00  0.00    -0.480 OA
ATOM     28  H   UNL     1      -7.612   1.283   0.393  0.00  0.00    +0.295 HD
ENDBRANCH  26  27
ENDBRANCH  24  26
ENDBRANCH  23  24
ENDBRANCH  22  23
ENDBRANCH  20  22
ENDBRANCH  16  20
TORSDOF 6
