REMARK  Name = 129317354
REMARK  11 active torsions:
REMARK  status: ('A' for Active; 'I' for Inactive)
REMARK    1  A    between atoms: C_6  and  O_12
REMARK    2  A    between atoms: C_9  and  O_16
REMARK    3  A    between atoms: C_10  and  C_23
REMARK    4  A    between atoms: O_12  and  C_14
REMARK    5  A    between atoms: O_16  and  C_18
REMARK    6  A    between atoms: C_18  and  C_19
REMARK    7  A    between atoms: C_19  and  C_20
REMARK    8  A    between atoms: C_23  and  O_24
REMARK    9  A    between atoms: O_24  and  C_26
REMARK   10  A    between atoms: C_26  and  C_27
REMARK   11  A    between atoms: C_27  and  C_28
REMARK                            x       y       z     vdW  Elec       q    Type
REMARK                         _______ _______ _______ _____ _____    ______ ____
ROOT
ATOM      1  O   UNL     1       2.029   2.376   0.004  0.00  0.00    -0.350 OA
ATOM      2  O   UNL     1       1.717  -1.877   0.347  0.00  0.00    -0.440 OA
ATOM      3  C   UNL     1       0.757   1.767  -0.255  0.00  0.00    +0.164 C 
ATOM      4  C   UNL     1       0.741   0.263  -0.428  0.00  0.00    +0.119 C 
ATOM      5  C   UNL     1      -0.619  -0.131   0.204  0.00  0.00    +0.038 C 
ATOM      6  C   UNL     1      -0.351   2.224   0.645  0.00  0.00    +0.196 C 
ATOM      7  C   UNL     1       1.423   2.683  -1.256  0.00  0.00    +0.173 C 
ATOM      8  C   UNL     1      -0.839   0.929   1.299  0.00  0.00    +0.051 C 
ATOM      9  C   UNL     1       1.905  -0.459   0.269  0.00  0.00    +0.345 C 
ATOM     10  C   UNL     1      -0.647  -1.541   0.714  0.00  0.00    +0.036 C 
ATOM     11  C   UNL     1       0.468  -2.285   0.718  0.00  0.00    +0.171 C 
ENDROOT
BRANCH   6  12
ATOM     12  O   UNL     1      -1.392   2.790  -0.143  0.00  0.00    -0.450 OA
BRANCH  12  14
ATOM     13  O   UNL     1      -2.080   4.068   1.654  0.00  0.00    -0.250 OA
ATOM     14  C   UNL     1      -2.187   3.703   0.490  0.00  0.00    +0.318 C 
ATOM     15  C   UNL     1      -3.232   4.210  -0.456  0.00  0.00    +0.121 C 
ENDBRANCH  12  14
ENDBRANCH   6  12
BRANCH   9  16
ATOM     16  O   UNL     1       3.096  -0.200  -0.478  0.00  0.00    -0.414 OA
BRANCH  16  18
ATOM     17  O   UNL     1       4.374  -0.755   1.360  0.00  0.00    -0.250 OA
ATOM     18  C   UNL     1       4.269  -0.390   0.197  0.00  0.00    +0.319 C 
BRANCH  18  19
ATOM     19  C   UNL     1       5.427  -0.039  -0.714  0.00  0.00    +0.110 C 
BRANCH  19  20
ATOM     20  C   UNL     1       6.725  -0.779  -0.354  0.00  0.00    +0.011 C 
ATOM     21  C   UNL     1       7.856  -0.336  -1.284  0.00  0.00    +0.001 C 
ATOM     22  C   UNL     1       6.547  -2.296  -0.443  0.00  0.00    +0.001 C 
ENDBRANCH  19  20
ENDBRANCH  18  19
ENDBRANCH  16  18
ENDBRANCH   9  16
BRANCH  10  23
ATOM     23  C   UNL     1      -1.971  -2.093   1.149  0.00  0.00    +0.234 C 
BRANCH  23  24
ATOM     24  O   UNL     1      -2.895  -2.018   0.079  0.00  0.00    -0.444 OA
BRANCH  24  26
ATOM     25  O   UNL     1      -4.530  -2.963   1.403  0.00  0.00    -0.250 OA
ATOM     26  C   UNL     1      -4.157  -2.492   0.337  0.00  0.00    +0.317 C 
BRANCH  26  27
ATOM     27  C   UNL     1      -5.007  -2.378  -0.910  0.00  0.00    +0.110 C 
BRANCH  27  28
ATOM     28  C   UNL     1      -5.822  -1.076  -0.969  0.00  0.00    +0.011 C 
ATOM     29  C   UNL     1      -6.689  -1.057  -2.230  0.00  0.00    +0.001 C 
ATOM     30  C   UNL     1      -4.912   0.155  -0.948  0.00  0.00    +0.001 C 
ENDBRANCH  27  28
ENDBRANCH  26  27
ENDBRANCH  24  26
ENDBRANCH  23  24
ENDBRANCH  10  23
TORSDOF 11
