REMARK  Name = 129316864
REMARK  8 active torsions:
REMARK  status: ('A' for Active; 'I' for Inactive)
REMARK    1  A    between atoms: C_3  and  O_29
REMARK    2  A    between atoms: C_8  and  C_20
REMARK    3  A    between atoms: C_15  and  C_17
REMARK    4  A    between atoms: C_17  and  O_18
REMARK    5  A    between atoms: C_21  and  C_22
REMARK    6  A    between atoms: C_23  and  C_26
REMARK    7  A    between atoms: C_26  and  O_27
REMARK    8  A    between atoms: O_29  and  C_31
REMARK                            x       y       z     vdW  Elec       q    Type
REMARK                         _______ _______ _______ _____ _____    ______ ____
ROOT
ATOM      1  O   UNL     1      -0.934  -0.538  -0.825  0.00  0.00    -0.451 OA
ATOM      2  O   UNL     1      -0.239  -2.217   0.500  0.00  0.00    -0.250 OA
ATOM      3  C   UNL     1       1.140   1.113   0.109  0.00  0.00    +0.149 C 
ATOM      4  C   UNL     1       0.597   0.006   1.028  0.00  0.00    +0.127 C 
ATOM      5  C   UNL     1      -0.203   1.787  -0.267  0.00  0.00    +0.078 C 
ATOM      6  C   UNL     1      -0.419   0.747   1.935  0.00  0.00    +0.015 C 
ATOM      7  C   UNL     1      -0.811   1.997   1.146  0.00  0.00    +0.008 C 
ATOM      8  C   UNL     1      -1.094   0.873  -1.149  0.00  0.00    +0.158 C 
ATOM      9  C   UNL     1       2.041   0.630  -1.034  0.00  0.00    +0.046 C 
ATOM     10  C   UNL     1       1.667  -0.681   1.900  0.00  0.00    +0.040 C 
ATOM     11  C   UNL     1      -0.210  -1.021   0.220  0.00  0.00    +0.320 C 
ATOM     12  C   UNL     1       3.431   0.149  -0.596  0.00  0.00    +0.036 C 
ATOM     13  C   UNL     1      -0.783   1.032  -2.647  0.00  0.00    +0.048 C 
ATOM     14  C   UNL     1       2.700  -1.514   1.193  0.00  0.00    -0.023 C 
ATOM     15  C   UNL     1       3.445  -1.160   0.135  0.00  0.00    +0.049 C 
ENDROOT
BRANCH  15  17
ATOM     16  O   UNL     1       4.046  -3.284  -0.727  0.00  0.00    -0.245 OA
ATOM     17  C   UNL     1       4.391  -2.184  -0.337  0.00  0.00    +0.337 C 
BRANCH  17  18
ATOM     18  O   UNL     1       5.645  -1.679  -0.253  0.00  0.00    -0.442 OA
ATOM     19  C   UNL     1       6.686  -2.564  -0.681  0.00  0.00    +0.256 C 
ENDBRANCH  17  18
ENDBRANCH  15  17
BRANCH   8  20
ATOM     20  C   UNL     1      -2.564   1.180  -1.016  0.00  0.00    +0.013 C 
ATOM     21  C   UNL     1      -3.475   0.291  -0.590  0.00  0.00    -0.001 C 
BRANCH  21  22
ATOM     22  C   UNL     1      -4.886   0.605  -0.472  0.00  0.00    +0.002 C 
ATOM     23  C   UNL     1      -5.863  -0.224  -0.054  0.00  0.00    +0.054 C 
ATOM     24  C   UNL     1      -7.322   0.117   0.078  0.00  0.00    +0.038 C 
BRANCH  23  26
ATOM     25  O   UNL     1      -4.760  -1.908   1.250  0.00  0.00    -0.245 OA
ATOM     26  C   UNL     1      -5.530  -1.626   0.343  0.00  0.00    +0.334 C 
BRANCH  26  27
ATOM     27  O   UNL     1      -6.194  -2.555  -0.383  0.00  0.00    -0.477 OA
ATOM     28  H   UNL     1      -6.774  -2.287  -1.069  0.00  0.00    +0.295 HD
ENDBRANCH  26  27
ENDBRANCH  23  26
ENDBRANCH  21  22
ENDBRANCH   8  20
BRANCH   3  29
ATOM     29  O   UNL     1       1.907   2.054   0.878  0.00  0.00    -0.455 OA
BRANCH  29  31
ATOM     30  O   UNL     1       2.136   3.394  -0.990  0.00  0.00    -0.250 OA
ATOM     31  C   UNL     1       2.337   3.147   0.192  0.00  0.00    +0.317 C 
ATOM     32  C   UNL     1       3.117   4.033   1.114  0.00  0.00    +0.121 C 
ENDBRANCH  29  31
ENDBRANCH   3  29
TORSDOF 8
