REMARK  Name = 129317076
REMARK  10 active torsions:
REMARK  status: ('A' for Active; 'I' for Inactive)
REMARK    1  A    between atoms: C_2  and  O_16
REMARK    2  A    between atoms: C_2  and  C_18
REMARK    3  A    between atoms: C_3  and  C_29
REMARK    4  A    between atoms: C_4  and  C_6
REMARK    5  A    between atoms: C_9  and  O_12
REMARK    6  A    between atoms: C_11  and  O_14
REMARK    7  A    between atoms: C_18  and  C_19
REMARK    8  A    between atoms: C_22  and  O_25
REMARK    9  A    between atoms: C_24  and  O_27
REMARK   10  A    between atoms: C_29  and  O_30
REMARK                            x       y       z     vdW  Elec       q    Type
REMARK                         _______ _______ _______ _____ _____    ______ ____
ROOT
ATOM      1  O   UNL     1       0.732   1.167  -1.912  0.00  0.00    -0.349 OA
ATOM      2  C   UNL     1      -0.513   0.940   0.085  0.00  0.00    +0.124 C 
ATOM      3  C   UNL     1       0.837   1.554   0.459  0.00  0.00    +0.088 C 
ATOM      4  C   UNL     1       1.664   1.353  -0.829  0.00  0.00    +0.142 C 
ATOM      5  C   UNL     1      -0.609   1.230  -1.402  0.00  0.00    +0.170 C 
ENDROOT
BRANCH   4   6
ATOM      6  C   UNL     1       2.644   0.200  -0.736  0.00  0.00    +0.008 C 
ATOM      7  C   UNL     1       3.669   0.230   0.209  0.00  0.00    +0.038 C 
ATOM      8  C   UNL     1       2.520  -0.892  -1.595  0.00  0.00    +0.001 C 
ATOM      9  C   UNL     1       4.570  -0.831   0.295  0.00  0.00    +0.172 C 
ATOM     10  C   UNL     1       3.421  -1.953  -1.510  0.00  0.00    +0.040 C 
ATOM     11  C   UNL     1       4.446  -1.923  -0.564  0.00  0.00    +0.168 C 
BRANCH   9  12
ATOM     12  O   UNL     1       5.566  -0.790   1.224  0.00  0.00    -0.468 OA
ATOM     13  C   UNL     1       5.622   0.361   2.063  0.00  0.00    +0.253 C 
ENDBRANCH   9  12
BRANCH  11  14
ATOM     14  O   UNL     1       5.320  -2.965  -0.489  0.00  0.00    -0.503 OA
ATOM     15  H   UNL     1       6.011  -2.952   0.143  0.00  0.00    +0.292 HD
ENDBRANCH  11  14
ENDBRANCH   4   6
BRANCH   2  16
ATOM     16  O   UNL     1      -0.431  -0.482   0.243  0.00  0.00    -0.384 OA
ATOM     17  H   UNL     1       0.338  -0.817  -0.243  0.00  0.00    +0.210 HD
ENDBRANCH   2  16
BRANCH   2  18
ATOM     18  C   UNL     1      -1.731   1.418   0.861  0.00  0.00    +0.056 C 
BRANCH  18  19
ATOM     19  C   UNL     1      -2.990   0.757   0.375  0.00  0.00    -0.017 C 
ATOM     20  C   UNL     1      -3.415  -0.441   0.949  0.00  0.00    +0.036 C 
ATOM     21  C   UNL     1      -3.735   1.342  -0.649  0.00  0.00    -0.001 C 
ATOM     22  C   UNL     1      -4.584  -1.054   0.499  0.00  0.00    +0.172 C 
ATOM     23  C   UNL     1      -4.904   0.729  -1.099  0.00  0.00    +0.039 C 
ATOM     24  C   UNL     1      -5.329  -0.469  -0.525  0.00  0.00    +0.168 C 
BRANCH  22  25
ATOM     25  O   UNL     1      -4.990  -2.223   1.070  0.00  0.00    -0.468 OA
ATOM     26  C   UNL     1      -4.172  -2.754   2.111  0.00  0.00    +0.253 C 
ENDBRANCH  22  25
BRANCH  24  27
ATOM     27  O   UNL     1      -6.472  -1.058  -0.973  0.00  0.00    -0.503 OA
ATOM     28  H   UNL     1      -6.764  -1.863  -0.593  0.00  0.00    +0.292 HD
ENDBRANCH  24  27
ENDBRANCH  18  19
ENDBRANCH   2  18
BRANCH   3  29
ATOM     29  C   UNL     1       0.773   3.042   0.814  0.00  0.00    +0.142 C 
BRANCH  29  30
ATOM     30  O   UNL     1       2.091   3.514   1.028  0.00  0.00    -0.382 OA
ATOM     31  H   UNL     1       2.065   4.457   1.254  0.00  0.00    +0.210 HD
ENDBRANCH  29  30
ENDBRANCH   3  29
TORSDOF 10
