REMARK  Name = 129389
REMARK  7 active torsions:
REMARK  status: ('A' for Active; 'I' for Inactive)
REMARK    1  A    between atoms: C_5  and  C_21
REMARK    2  A    between atoms: C_11  and  O_17
REMARK    3  A    between atoms: C_13  and  O_19
REMARK    4  A    between atoms: C_21  and  N_22
REMARK    5  A    between atoms: N_22  and  C_25
REMARK    6  A    between atoms: C_25  and  C_26
REMARK    7  A    between atoms: C_26  and  O_27
REMARK                            x       y       z     vdW  Elec       q    Type
REMARK                         _______ _______ _______ _____ _____    ______ ____
ROOT
ATOM      1  O   UNL     1      -0.676  -2.692   0.507  0.00  0.00    -0.287 OA
ATOM      2  O   UNL     1      -2.290   2.342  -0.270  0.00  0.00    -0.286 OA
ATOM      3  C   UNL     1      -0.078  -0.424   0.386  0.00  0.00    +0.045 C 
ATOM      4  C   UNL     1      -0.500   0.892   0.183  0.00  0.00    +0.076 C 
ATOM      5  C   UNL     1       2.192   0.355   0.704  0.00  0.00    -0.041 C 
ATOM      6  C   UNL     1      -2.887   0.074  -0.153  0.00  0.00    +0.076 C 
ATOM      7  C   UNL     1      -2.465  -1.242   0.050  0.00  0.00    +0.045 C 
ATOM      8  C   UNL     1       1.272  -0.692   0.647  0.00  0.00    -0.003 C 
ATOM      9  C   UNL     1      -1.045  -1.539   0.327  0.00  0.00    +0.196 C 
ATOM     10  C   UNL     1      -1.920   1.189  -0.094  0.00  0.00    +0.202 C 
ATOM     11  C   UNL     1       0.427   1.939   0.242  0.00  0.00    +0.136 C 
ATOM     12  C   UNL     1       1.771   1.668   0.502  0.00  0.00    +0.030 C 
ATOM     13  C   UNL     1      -4.236   0.342  -0.415  0.00  0.00    +0.137 C 
ATOM     14  C   UNL     1      -3.392  -2.289  -0.010  0.00  0.00    +0.003 C 
ATOM     15  C   UNL     1      -5.156  -0.705  -0.474  0.00  0.00    +0.037 C 
ATOM     16  C   UNL     1      -4.735  -2.018  -0.272  0.00  0.00    +0.003 C 
ENDROOT
BRANCH  11  17
ATOM     17  O   UNL     1       0.085   3.246   0.056  0.00  0.00    -0.505 OA
ATOM     18  H   UNL     1      -0.806   3.476  -0.121  0.00  0.00    +0.292 HD
ENDBRANCH  11  17
BRANCH  13  19
ATOM     19  O   UNL     1      -4.717   1.601  -0.624  0.00  0.00    -0.505 OA
ATOM     20  H   UNL     1      -4.136   2.335  -0.594  0.00  0.00    +0.292 HD
ENDBRANCH  13  19
BRANCH   5  21
ATOM     21  C   UNL     1       3.629   0.069   0.982  0.00  0.00    -0.054 C 
BRANCH  21  22
ATOM     22  N   UNL     1       4.397  -0.169  -0.241  0.00  0.00    +0.388 N 
ATOM     23  H   UNL     1       4.339   0.655  -0.839  0.00  0.00    -0.084 HD
ATOM     24  H   UNL     1       4.008  -0.982  -0.720  0.00  0.00    -0.084 HD
BRANCH  22  25
ATOM     25  C   UNL     1       5.792  -0.434   0.071  0.00  0.00    -0.049 C 
BRANCH  25  26
ATOM     26  C   UNL     1       6.581  -0.644  -1.210  0.00  0.00    +0.114 C 
BRANCH  26  27
ATOM     27  O   UNL     1       7.950  -0.866  -0.892  0.00  0.00    -0.384 OA
ATOM     28  H   UNL     1       8.454  -1.001  -1.710  0.00  0.00    +0.210 HD
ENDBRANCH  26  27
ENDBRANCH  25  26
ENDBRANCH  22  25
ENDBRANCH  21  22
ENDBRANCH   5  21
TORSDOF 7
