129316869
  -OEChem-03292013293D

 53 58  0     1  0  0  0  0  0999 V2000
   -0.6304   -0.2580   -1.5731 O   0  0  0  0  0  0  0  0  0  0  0  0
   -0.0706    2.7162   -0.0703 O   0  0  0  0  0  0  0  0  0  0  0  0
    1.3820   -1.5063   -2.0077 O   0  0  0  0  0  0  0  0  0  0  0  0
   -3.1725   -1.3311    1.5504 O   0  0  0  0  0  0  0  0  0  0  0  0
   -2.8866    1.3106    0.8874 O   0  0  0  0  0  0  0  0  0  0  0  0
    2.3805   -1.7696    1.3935 O   0  0  0  0  0  0  0  0  0  0  0  0
   -1.4098    2.5876   -1.9271 O   0  0  0  0  0  0  0  0  0  0  0  0
    2.7695   -3.1034   -1.1195 O   0  0  0  0  0  0  0  0  0  0  0  0
   -5.2737   -1.6461    0.6452 O   0  0  0  0  0  0  0  0  0  0  0  0
   -0.0634    0.4583    0.6249 C   0  0  2  0  0  0  0  0  0  0  0  0
    1.1971   -0.1498   -0.0416 C   0  0  2  0  0  0  0  0  0  0  0  0
   -1.0570    0.6207   -0.5411 C   0  0  2  0  0  0  0  0  0  0  0  0
    0.2863    1.8744    1.0377 C   0  0  1  0  0  0  0  0  0  0  0  0
    2.3027    0.9416    0.1171 C   0  0  1  0  0  0  0  0  0  0  0  0
   -2.3978    0.2417    0.0638 C   0  0  1  0  0  0  0  0  0  0  0  0
   -0.8166   -0.3319    1.7364 C   0  0  0  0  0  0  0  0  0  0  0  0
    0.8012   -0.2931   -1.5199 C   0  0  2  0  0  0  0  0  0  0  0  0
    1.7925    1.8382    1.2510 C   0  0  0  0  0  0  0  0  0  0  0  0
   -1.9697   -0.9205    0.9432 C   0  0  1  0  0  0  0  0  0  0  0  0
    1.5047   -1.6016    0.3160 C   0  0  1  0  0  0  0  0  0  0  0  0
   -0.8999    2.0682   -0.9460 C   0  0  0  0  0  0  0  0  0  0  0  0
    3.7461    0.5080    0.3273 C   0  0  0  0  0  0  0  0  0  0  0  0
   -3.5501   -0.4425   -0.6404 C   0  0  1  0  0  0  0  0  0  0  0  0
    1.9979   -2.1679   -0.9841 C   0  0  0  0  0  0  0  0  0  0  0  0
   -4.1374   -1.2073    0.5571 C   0  0  0  0  0  0  0  0  0  0  0  0
    4.7036    1.5636   -0.2571 C   0  0  0  0  0  0  0  0  0  0  0  0
    4.0344    0.3497    1.8323 C   0  0  0  0  0  0  0  0  0  0  0  0
    3.9986   -0.8396   -0.3746 C   0  0  0  0  0  0  0  0  0  0  0  0
   -4.5616    0.4899   -1.2807 C   0  0  0  0  0  0  0  0  0  0  0  0
   -0.2381    2.2472    1.9229 H   0  0  0  0  0  0  0  0  0  0  0  0
    2.2820    1.5673   -0.7869 H   0  0  0  0  0  0  0  0  0  0  0  0
   -1.1949    0.3185    2.5340 H   0  0  0  0  0  0  0  0  0  0  0  0
   -0.2174   -1.0942    2.2393 H   0  0  0  0  0  0  0  0  0  0  0  0
    1.1681    0.5150   -2.1615 H   0  0  0  0  0  0  0  0  0  0  0  0
    1.9494    1.4402    2.2555 H   0  0  0  0  0  0  0  0  0  0  0  0
    2.2325    2.8391    1.1926 H   0  0  0  0  0  0  0  0  0  0  0  0
   -1.5945   -1.7777    0.3643 H   0  0  0  0  0  0  0  0  0  0  0  0
    0.5977   -2.1739    0.5319 H   0  0  0  0  0  0  0  0  0  0  0  0
   -3.1989   -1.1799   -1.3720 H   0  0  0  0  0  0  0  0  0  0  0  0
   -3.1364    2.0470    0.3043 H   0  0  0  0  0  0  0  0  0  0  0  0
    5.7505    1.3086   -0.0560 H   0  0  0  0  0  0  0  0  0  0  0  0
    4.5205    2.5528    0.1773 H   0  0  0  0  0  0  0  0  0  0  0  0
    4.9597   -0.2228    1.9784 H   0  0  0  0  0  0  0  0  0  0  0  0
    4.5845    1.6500   -1.3432 H   0  0  0  0  0  0  0  0  0  0  0  0
    5.0884   -0.8247   -0.5779 H   0  0  0  0  0  0  0  0  0  0  0  0
    4.0464   -1.7538    0.2092 H   0  0  0  0  0  0  0  0  0  0  0  0
    3.6768   -0.8318   -1.4174 H   0  0  0  0  0  0  0  0  0  0  0  0
    3.2707   -0.1307    2.4415 H   0  0  0  0  0  0  0  0  0  0  0  0
    4.2257    1.3270    2.2952 H   0  0  0  0  0  0  0  0  0  0  0  0
   -5.0809    1.1084   -0.5410 H   0  0  0  0  0  0  0  0  0  0  0  0
   -4.0792    1.1478   -2.0100 H   0  0  0  0  0  0  0  0  0  0  0  0
   -5.3310   -0.0887   -1.8037 H   0  0  0  0  0  0  0  0  0  0  0  0
    2.4413   -2.7219    1.5812 H   0  0  0  0  0  0  0  0  0  0  0  0
  1 12  1  0  0  0  0
  1 17  1  0  0  0  0
  2 13  1  0  0  0  0
  2 21  1  0  0  0  0
  3 17  1  0  0  0  0
  3 24  1  0  0  0  0
  4 19  1  0  0  0  0
  4 25  1  0  0  0  0
  5 15  1  0  0  0  0
  5 40  1  0  0  0  0
  6 20  1  0  0  0  0
  6 53  1  0  0  0  0
  7 21  2  0  0  0  0
  8 24  2  0  0  0  0
  9 25  2  0  0  0  0
 10 11  1  0  0  0  0
 10 12  1  0  0  0  0
 10 13  1  0  0  0  0
 10 16  1  0  0  0  0
 11 14  1  0  0  0  0
 11 17  1  0  0  0  0
 11 20  1  0  0  0  0
 12 15  1  0  0  0  0
 12 21  1  0  0  0  0
 13 18  1  0  0  0  0
 13 30  1  0  0  0  0
 14 18  1  0  0  0  0
 14 22  1  0  0  0  0
 14 31  1  0  0  0  0
 15 19  1  0  0  0  0
 15 23  1  0  0  0  0
 16 19  1  0  0  0  0
 16 32  1  0  0  0  0
 16 33  1  0  0  0  0
 17 34  1  0  0  0  0
 18 35  1  0  0  0  0
 18 36  1  0  0  0  0
 19 37  1  0  0  0  0
 20 24  1  0  0  0  0
 20 38  1  0  0  0  0
 22 26  1  0  0  0  0
 22 27  1  0  0  0  0
 22 28  1  0  0  0  0
 23 25  1  0  0  0  0
 23 29  1  0  0  0  0
 23 39  1  0  0  0  0
 26 41  1  0  0  0  0
 26 42  1  0  0  0  0
 26 44  1  0  0  0  0
 27 43  1  0  0  0  0
 27 48  1  0  0  0  0
 27 49  1  0  0  0  0
 28 45  1  0  0  0  0
 28 46  1  0  0  0  0
 28 47  1  0  0  0  0
 29 50  1  0  0  0  0
 29 51  1  0  0  0  0
 29 52  1  0  0  0  0
M  END
> <PUBCHEM_COMPOUND_CID>
129316869

> <PUBCHEM_CONFORMER_RMSD>
0.8

> <PUBCHEM_CONFORMER_DIVERSEORDER>
1
2
3

> <PUBCHEM_MMFF94_PARTIAL_CHARGES>
21
1 -0.56
12 0.34
13 0.28
15 0.28
17 0.56
19 0.28
2 -0.43
20 0.34
21 0.66
23 0.06
24 0.66
25 0.66
3 -0.43
4 -0.43
40 0.4
5 -0.68
53 0.4
6 -0.68
7 -0.57
8 -0.57
9 -0.57

> <PUBCHEM_EFFECTIVE_ROTOR_COUNT>
2.8

> <PUBCHEM_PHARMACOPHORE_FEATURES>
15
1 1 acceptor
1 5 acceptor
1 5 donor
1 6 acceptor
1 6 donor
1 7 acceptor
1 8 acceptor
1 9 acceptor
4 22 26 27 28 hydrophobe
5 1 10 11 12 17 rings
5 10 11 13 14 18 rings
5 10 12 15 16 19 rings
5 2 10 12 13 21 rings
5 3 11 17 20 24 rings
5 4 15 19 23 25 rings

> <PUBCHEM_HEAVY_ATOM_COUNT>
29

> <PUBCHEM_ATOM_DEF_STEREO_COUNT>
5

> <PUBCHEM_ATOM_UDEF_STEREO_COUNT>
5

> <PUBCHEM_BOND_DEF_STEREO_COUNT>
0

> <PUBCHEM_BOND_UDEF_STEREO_COUNT>
0

> <PUBCHEM_ISOTOPIC_ATOM_COUNT>
0

> <PUBCHEM_COMPONENT_COUNT>
1

> <PUBCHEM_CACTVS_TAUTO_COUNT>
4

> <PUBCHEM_CONFORMER_ID>
07B5380500000001

> <PUBCHEM_MMFF94_ENERGY>
176.844

> <PUBCHEM_FEATURE_SELFOVERLAP>
79.163

> <PUBCHEM_SHAPE_FINGERPRINT>
10366900 7 18408882936526537520
10863032 1 18130509608903070017
10906281 52 18042707133030974977
10948715 1 18200594812604477584
1100329 8 13722348132469191835
11578080 2 18265628579982409012
11582403 64 16462963907509346812
11963148 33 18265890435665166378
12011746 2 18337954592248292998
12236239 1 16271932652812275913
12592029 89 18131351946705845562
12633257 1 18267305317991979402
13140716 1 17771340065371695443
13224815 77 18341336625759582206
13544653 18 18272936007553957695
13911987 19 18270682103407407372
13965767 371 16124485863147781523
14223421 5 18339082571262224238
14659021 117 16251939842006640806
14787075 74 18264210377807418946
14790565 3 18055071227480398864
14955137 171 17702116952254595272
16945 1 18130513040666192617
17349148 13 16298390136544528466
17357779 13 18408595968455616469
17980427 23 16443347619452479486
1813 80 17968674773428770829
19862831 5 13840262593725241963
20600515 1 17312823809584485277
20691752 17 17968112888257701305
21033650 10 16951133846279367981
21285901 2 18334570214301961381
21421861 104 17751071423206849689
22182313 1 18129086845800418300
23402539 116 17604137194644214820
23557571 272 18114185228758990111
23559900 14 18188486857473613186
2748010 2 18127686029120903412
2818148 4 17484836760600882502
296302 2 18334013912625656305
4340502 62 17489028270524592483
465052 167 18261676003247069218
469060 322 18054478526066245014
474 4 16270216379976315456
70251023 43 17984707718519676799
81228 2 18043263352913120109
9709674 26 18265610987806290174
9999458 23 17631456837406049360

> <PUBCHEM_SHAPE_MULTIPOLES>
543.98
7.91
2.54
1.71
3.01
0.07
-0.1
1.62
0.91
-1
-0.59
0.08
0.09
1.36

> <PUBCHEM_SHAPE_SELFOVERLAP>
1253.476

> <PUBCHEM_SHAPE_VOLUME>
282.7

> <PUBCHEM_COORDINATE_TYPE>
2
5
10

$$$$
