129317076
  -OEChem-03292013293D

 51 53  0     1  0  0  0  0  0999 V2000
    0.7316    1.1670   -1.9119 O   0  0  0  0  0  0  0  0  0  0  0  0
   -0.4312   -0.4816    0.2428 O   0  0  0  0  0  0  0  0  0  0  0  0
    2.0915    3.5138    1.0277 O   0  0  0  0  0  0  0  0  0  0  0  0
    5.5660   -0.7904    1.2242 O   0  0  0  0  0  0  0  0  0  0  0  0
   -4.9900   -2.2230    1.0697 O   0  0  0  0  0  0  0  0  0  0  0  0
    5.3200   -2.9652   -0.4890 O   0  0  0  0  0  0  0  0  0  0  0  0
   -6.4722   -1.0585   -0.9729 O   0  0  0  0  0  0  0  0  0  0  0  0
   -0.5132    0.9396    0.0847 C   0  0  1  0  0  0  0  0  0  0  0  0
    0.8366    1.5538    0.4587 C   0  0  1  0  0  0  0  0  0  0  0  0
    1.6637    1.3528   -0.8293 C   0  0  1  0  0  0  0  0  0  0  0  0
   -0.6089    1.2296   -1.4024 C   0  0  0  0  0  0  0  0  0  0  0  0
   -1.7311    1.4184    0.8614 C   0  0  0  0  0  0  0  0  0  0  0  0
    0.7729    3.0424    0.8137 C   0  0  0  0  0  0  0  0  0  0  0  0
    2.6439    0.1996   -0.7364 C   0  0  0  0  0  0  0  0  0  0  0  0
   -2.9903    0.7571    0.3754 C   0  0  0  0  0  0  0  0  0  0  0  0
    3.6692    0.2302    0.2089 C   0  0  0  0  0  0  0  0  0  0  0  0
    2.5199   -0.8922   -1.5955 C   0  0  0  0  0  0  0  0  0  0  0  0
   -3.4151   -0.4410    0.9494 C   0  0  0  0  0  0  0  0  0  0  0  0
   -3.7346    1.3422   -0.6490 C   0  0  0  0  0  0  0  0  0  0  0  0
    4.5704   -0.8311    0.2951 C   0  0  0  0  0  0  0  0  0  0  0  0
    3.4211   -1.9534   -1.5095 C   0  0  0  0  0  0  0  0  0  0  0  0
    4.4463   -1.9229   -0.5641 C   0  0  0  0  0  0  0  0  0  0  0  0
   -4.5844   -1.0542    0.4993 C   0  0  0  0  0  0  0  0  0  0  0  0
   -4.9037    0.7289   -1.0994 C   0  0  0  0  0  0  0  0  0  0  0  0
   -5.3286   -0.4693   -0.5252 C   0  0  0  0  0  0  0  0  0  0  0  0
    5.6223    0.3615    2.0633 C   0  0  0  0  0  0  0  0  0  0  0  0
   -4.1721   -2.7540    2.1106 C   0  0  0  0  0  0  0  0  0  0  0  0
    1.2878    1.0268    1.3086 H   0  0  0  0  0  0  0  0  0  0  0  0
    2.2520    2.2401   -1.0916 H   0  0  0  0  0  0  0  0  0  0  0  0
   -1.2068    0.5011   -1.9584 H   0  0  0  0  0  0  0  0  0  0  0  0
   -0.9803    2.2385   -1.6107 H   0  0  0  0  0  0  0  0  0  0  0  0
   -1.8555    2.5057    0.7876 H   0  0  0  0  0  0  0  0  0  0  0  0
   -1.6038    1.2001    1.9300 H   0  0  0  0  0  0  0  0  0  0  0  0
    0.2052    3.1994    1.7361 H   0  0  0  0  0  0  0  0  0  0  0  0
    0.3188    3.6343    0.0124 H   0  0  0  0  0  0  0  0  0  0  0  0
    0.1357   -0.8481   -0.4541 H   0  0  0  0  0  0  0  0  0  0  0  0
    3.7228    1.1078    0.8437 H   0  0  0  0  0  0  0  0  0  0  0  0
    1.7351   -0.9517   -2.3437 H   0  0  0  0  0  0  0  0  0  0  0  0
    2.0258    4.4570    1.2547 H   0  0  0  0  0  0  0  0  0  0  0  0
   -2.7992   -0.8478    1.7444 H   0  0  0  0  0  0  0  0  0  0  0  0
   -3.4221    2.2797   -1.1007 H   0  0  0  0  0  0  0  0  0  0  0  0
    3.3131   -2.7980   -2.1848 H   0  0  0  0  0  0  0  0  0  0  0  0
   -5.4749    1.1964   -1.8969 H   0  0  0  0  0  0  0  0  0  0  0  0
    5.0801   -3.6284   -1.1589 H   0  0  0  0  0  0  0  0  0  0  0  0
   -6.8524   -0.5132   -1.6829 H   0  0  0  0  0  0  0  0  0  0  0  0
    6.4714    0.2247    2.7411 H   0  0  0  0  0  0  0  0  0  0  0  0
    5.8204    1.2717    1.4870 H   0  0  0  0  0  0  0  0  0  0  0  0
    4.7279    0.4496    2.6895 H   0  0  0  0  0  0  0  0  0  0  0  0
   -4.6422   -3.6843    2.4464 H   0  0  0  0  0  0  0  0  0  0  0  0
   -4.1373   -2.0856    2.9778 H   0  0  0  0  0  0  0  0  0  0  0  0
   -3.1735   -3.0174    1.7453 H   0  0  0  0  0  0  0  0  0  0  0  0
  1 10  1  0  0  0  0
  1 11  1  0  0  0  0
  2  8  1  0  0  0  0
  2 36  1  0  0  0  0
  3 13  1  0  0  0  0
  3 39  1  0  0  0  0
  4 20  1  0  0  0  0
  4 26  1  0  0  0  0
  5 23  1  0  0  0  0
  5 27  1  0  0  0  0
  6 22  1  0  0  0  0
  6 44  1  0  0  0  0
  7 25  1  0  0  0  0
  7 45  1  0  0  0  0
  8  9  1  0  0  0  0
  8 11  1  0  0  0  0
  8 12  1  0  0  0  0
  9 10  1  0  0  0  0
  9 13  1  0  0  0  0
  9 28  1  0  0  0  0
 10 14  1  0  0  0  0
 10 29  1  0  0  0  0
 11 30  1  0  0  0  0
 11 31  1  0  0  0  0
 12 15  1  0  0  0  0
 12 32  1  0  0  0  0
 12 33  1  0  0  0  0
 13 34  1  0  0  0  0
 13 35  1  0  0  0  0
 14 16  2  0  0  0  0
 14 17  1  0  0  0  0
 15 18  2  0  0  0  0
 15 19  1  0  0  0  0
 16 20  1  0  0  0  0
 16 37  1  0  0  0  0
 17 21  2  0  0  0  0
 17 38  1  0  0  0  0
 18 23  1  0  0  0  0
 18 40  1  0  0  0  0
 19 24  2  0  0  0  0
 19 41  1  0  0  0  0
 20 22  2  0  0  0  0
 21 22  1  0  0  0  0
 21 42  1  0  0  0  0
 23 25  2  0  0  0  0
 24 25  1  0  0  0  0
 24 43  1  0  0  0  0
 26 46  1  0  0  0  0
 26 47  1  0  0  0  0
 26 48  1  0  0  0  0
 27 49  1  0  0  0  0
 27 50  1  0  0  0  0
 27 51  1  0  0  0  0
M  END
> <PUBCHEM_COMPOUND_CID>
129317076

> <PUBCHEM_CONFORMER_RMSD>
0.8

> <PUBCHEM_CONFORMER_DIVERSEORDER>
6
227
75
143
302
290
105
68
103
60
111
126
109
276
259
47
274
196
66
132
50
160
92
176
144
3
164
1
108
293
286
40
2
52
225
236
82
28
298
128
130
100
282
251
192
213
281
131
201
22
284
157
238
78
254
70
12
177
154
250
16
71
152
226
15
243
231
285
277
25
122
30
228
65
116
11
27
270
42
120
23
94
72
248
74
198
91
125
292
174
190
252
234
39
18
61
184
117
54
24
162
34
179
51
56
8
168
63
211
35
246
141
303
14
205
294
194
102
7
17
242
257
26
249
235
266
210
104
183
97
62
161
217
48
280
182
133
123
84
149
287
110
278
121
219
138
253
244
261
13
31
44
155
220
178
305
58
19
221
255
89
142
21
158
4
173
85
9
140
45
151
300
247
200
73
76
43
98
87
55
239
134
279
129
214
267
268
188
79
147
96
86
260
163
146
195
137
93
169
20
233
208
222
204
153
80
38
206
171
10
172
5
295
118
264
256
170
112
230
67
29
124
269
245
150
304
301
148
46
299
191
229
64
232
175
273
193
216
197
218
189
36
275
90
81
106
203
136
272
207
186
33
181
265
95
69
297
262
306
107
37
165
283
77
308
159
241
202
127
115
240
167
114
119
88
145
258
185
199
223
271
166
59
101
291
307
263
113
135
49
99
209
41
288
237
296
212
289
139
83
215
32
156
180
224
187
53
57

> <PUBCHEM_MMFF94_PARTIAL_CHARGES>
36
1 -0.56
10 0.42
11 0.28
12 0.14
13 0.28
14 -0.14
15 -0.14
16 -0.15
17 -0.15
18 -0.15
19 -0.15
2 -0.68
20 0.08
21 -0.15
22 0.08
23 0.08
24 -0.15
25 0.08
26 0.28
27 0.28
3 -0.68
36 0.4
37 0.15
38 0.15
39 0.4
4 -0.36
40 0.15
41 0.15
42 0.15
43 0.15
44 0.45
45 0.45
5 -0.36
6 -0.53
7 -0.53
8 0.28

> <PUBCHEM_EFFECTIVE_ROTOR_COUNT>
7

> <PUBCHEM_PHARMACOPHORE_FEATURES>
12
1 1 acceptor
1 2 acceptor
1 2 donor
1 3 acceptor
1 3 donor
1 4 acceptor
1 5 acceptor
1 6 donor
1 7 donor
5 1 8 9 10 11 rings
6 14 16 17 20 21 22 rings
6 15 18 19 23 24 25 rings

> <PUBCHEM_HEAVY_ATOM_COUNT>
27

> <PUBCHEM_ATOM_DEF_STEREO_COUNT>
1

> <PUBCHEM_ATOM_UDEF_STEREO_COUNT>
2

> <PUBCHEM_BOND_DEF_STEREO_COUNT>
0

> <PUBCHEM_BOND_UDEF_STEREO_COUNT>
0

> <PUBCHEM_ISOTOPIC_ATOM_COUNT>
0

> <PUBCHEM_COMPONENT_COUNT>
1

> <PUBCHEM_CACTVS_TAUTO_COUNT>
21

> <PUBCHEM_CONFORMER_ID>
07B538D400000006

> <PUBCHEM_MMFF94_ENERGY>
102.9555

> <PUBCHEM_FEATURE_SELFOVERLAP>
60.901

> <PUBCHEM_SHAPE_FINGERPRINT>
10369192 42 9799396841614834506
11595378 159 14404912353584726899
11796584 16 18040712550081120963
12390115 104 10591770904526163871
12403259 415 9295285049524812570
12516196 113 18272084976732217240
12596602 18 15985104115463576863
12633257 1 15841541960240212438
12892183 10 17346318142313100256
12895837 130 10085906482755372346
131258 43 18127719079606384076
13544653 18 18343306928984843140
13782708 43 18263652917487483451
14251751 18 18113337543785429795
14341114 328 14979952566850596374
14848160 23 18341889658438533231
14848178 5 18335144176066576639
14910302 57 17894903079691840845
15183329 4 16805322167385600607
15510800 12 18409459085004916223
15961568 22 11887959860632376371
17492 89 17460604868734093235
1813 80 18187649072563012332
18186145 218 12107800622041822484
18222031 100 17917718980702292628
19377110 9 16128376003895487523
19438510 23 14115793684561809322
20626108 58 17895199921666007876
21065201 7 17822003264068760505
21315759 227 18333739034909240039
21315763 87 17918272073616332191
21756936 100 11167358580103857548
22393880 68 17967525788283526867
23559900 14 18114461275224547541
23572383 38 18410575054683334079
25122255 55 18411428280159691839
3004659 81 17822017488826215910
312425 54 18270403759139524330
314194 84 18202002144132026766
339767 52 18260543420329247019
392239 28 16487247755837855970
439807 62 17241055417734481891
44062 13 17821736056978746867
463206 1 17022903419736774938
5104073 3 17702949123637595002
633830 44 12107797336280876368
960060 61 16008754602071129766

> <PUBCHEM_SHAPE_MULTIPOLES>
514.56
14.1
3
1.72
3.69
0.19
-0.19
-10.07
-1.99
-0.92
-0.88
-0.48
-0.34
2.51

> <PUBCHEM_SHAPE_SELFOVERLAP>
1107.397

> <PUBCHEM_SHAPE_VOLUME>
284

> <PUBCHEM_COORDINATE_TYPE>
2
5
10

$$$$
