REMARK  Name = 129472
REMARK  6 active torsions:
REMARK  status: ('A' for Active; 'I' for Inactive)
REMARK    1  A    between atoms: C_5  and  C_23
REMARK    2  A    between atoms: C_7  and  O_20
REMARK    3  A    between atoms: C_9  and  C_24
REMARK    4  A    between atoms: C_24  and  C_25
REMARK    5  A    between atoms: C_25  and  O_26
REMARK    6  A    between atoms: O_26  and  S_27
REMARK                            x       y       z     vdW  Elec       q    Type
REMARK                         _______ _______ _______ _____ _____    ______ ____
ROOT
ATOM      1  O   UNL     1      -7.402  -0.564   1.548  0.00  0.00    -0.296 OA
ATOM      2  C   UNL     1      -1.421   1.020  -0.228  0.00  0.00    +0.003 C 
ATOM      3  C   UNL     1      -2.049  -0.342   0.221  0.00  0.00    +0.027 C 
ATOM      4  C   UNL     1       0.026   1.079   0.284  0.00  0.00    +0.007 C 
ATOM      5  C   UNL     1       0.900  -0.061  -0.256  0.00  0.00    +0.061 C 
ATOM      6  C   UNL     1      -3.585  -0.436  -0.144  0.00  0.00    +0.003 C 
ATOM      7  C   UNL     1      -1.169  -1.557  -0.203  0.00  0.00    +0.111 C 
ATOM      8  C   UNL     1      -4.293   0.799   0.507  0.00  0.00    +0.007 C 
ATOM      9  C   UNL     1       2.257   0.329   0.363  0.00  0.00    +0.010 C 
ATOM     10  C   UNL     1       0.316  -1.403   0.203  0.00  0.00    +0.037 C 
ATOM     11  C   UNL     1      -2.223   2.219   0.303  0.00  0.00    +0.000 C 
ATOM     12  C   UNL     1       0.859   2.335   0.029  0.00  0.00    +0.000 C 
ATOM     13  C   UNL     1      -3.713   2.123   0.001  0.00  0.00    +0.000 C 
ATOM     14  C   UNL     1       2.318   1.860   0.161  0.00  0.00    +0.001 C 
ATOM     15  C   UNL     1      -4.206  -1.712   0.493  0.00  0.00    +0.008 C 
ATOM     16  C   UNL     1      -3.824  -0.479  -1.674  0.00  0.00    +0.000 C 
ATOM     17  C   UNL     1      -5.818   0.782   0.359  0.00  0.00    +0.064 C 
ATOM     18  C   UNL     1      -5.725  -1.791   0.362  0.00  0.00    +0.065 C 
ATOM     19  C   UNL     1      -6.384  -0.527   0.858  0.00  0.00    +0.151 C 
ENDROOT
BRANCH   7  20
ATOM     20  O   UNL     1      -1.243  -1.768  -1.608  0.00  0.00    -0.384 OA
ATOM     21  H   UNL     1      -2.171  -1.865  -1.872  0.00  0.00    +0.210 HD
ENDBRANCH   7  20
BRANCH   5  23
ATOM     22  O   UNL     1       0.452   0.751  -2.491  0.00  0.00    -0.288 OA
ATOM     23  C   UNL     1       1.023  -0.058  -1.768  0.00  0.00    +0.207 C 
ENDBRANCH   5  23
BRANCH   9  24
ATOM     24  C   UNL     1       3.484  -0.395  -0.174  0.00  0.00    +0.035 C 
BRANCH  24  25
ATOM     25  C   UNL     1       4.752   0.043   0.540  0.00  0.00    +0.177 C 
BRANCH  25  26
ATOM     26  O   UNL     1       5.855  -0.657  -0.019  0.00  0.00    -0.200 OA
BRANCH  26  27
ATOM     27  S   UNL     1       7.362  -0.389   0.555  0.00  0.00    +0.239 S 
ATOM     28  O   UNL     1       8.315  -1.240  -0.459  0.00  0.00    -0.116 OA
ATOM     29  O   UNL     1       7.661   1.018   0.358  0.00  0.00    -0.116 OA
ATOM     30  O   UNL     1       7.475  -0.980   1.875  0.00  0.00    -0.022 OA
ENDBRANCH  26  27
ENDBRANCH  25  26
ENDBRANCH  24  25
ENDBRANCH   9  24
TORSDOF 6
