REMARK  Name = 129409
REMARK  4 active torsions:
REMARK  status: ('A' for Active; 'I' for Inactive)
REMARK    1  A    between atoms: N_2  and  C_18
REMARK    2  A    between atoms: C_3  and  N_8
REMARK    3  A    between atoms: C_9  and  C_12
REMARK    4  A    between atoms: C_18  and  C_21
REMARK                            x       y       z     vdW  Elec       q    Type
REMARK                         _______ _______ _______ _____ _____    ______ ____
ROOT
ATOM      1  O   UNL     1       1.097  -1.558   0.447  0.00  0.00    -0.273 OA
ATOM      2  N   UNL     1       2.497   0.332   0.526  0.00  0.00    -0.270 N 
ATOM      3  C   UNL     1       0.281   0.668  -0.127  0.00  0.00    +0.150 C 
ATOM      4  C   UNL     1       0.883   1.990   0.341  0.00  0.00    +0.050 C 
ATOM      5  C   UNL     1       2.377   1.747   0.255  0.00  0.00    +0.096 C 
ATOM      6  C   UNL     1       1.300  -0.358   0.331  0.00  0.00    +0.244 C 
ENDROOT
BRANCH   3   8
ATOM      7  O   UNL     1      -2.329   1.228  -1.269  0.00  0.00    -0.277 OA
ATOM      8  N   UNL     1      -0.998   0.390   0.450  0.00  0.00    -0.300 N 
ATOM      9  C   UNL     1      -2.207   0.693  -0.170  0.00  0.00    +0.203 C 
ATOM     10  H   UNL     1      -1.025  -0.041   1.335  0.00  0.00    +0.150 HD
BRANCH   9  12
ATOM     11  N   UNL     1      -4.604   0.603  -0.114  0.00  0.00    +0.391 N 
ATOM     12  C   UNL     1      -3.395   0.272   0.639  0.00  0.00    +0.017 C 
ATOM     13  C   UNL     1      -3.436  -1.239   0.841  0.00  0.00    -0.015 C 
ATOM     14  C   UNL     1      -4.633  -1.718   0.029  0.00  0.00    -0.025 C 
ATOM     15  C   UNL     1      -4.930  -0.572  -0.916  0.00  0.00    -0.081 C 
ATOM     16  H   UNL     1      -4.434   1.406  -0.719  0.00  0.00    -0.084 HD
ATOM     17  H   UNL     1      -5.373   0.845   0.512  0.00  0.00    -0.084 HD
ENDBRANCH   9  12
ENDBRANCH   3   8
BRANCH   2  18
ATOM     18  C   UNL     1       3.769  -0.271   0.857  0.00  0.00    +0.179 C 
BRANCH  18  21
ATOM     19  O   UNL     1       3.950  -0.944  -1.463  0.00  0.00    -0.273 OA
ATOM     20  N   UNL     1       5.873  -0.630  -0.243  0.00  0.00    -0.327 N 
ATOM     21  C   UNL     1       4.505  -0.634  -0.412  0.00  0.00    +0.240 C 
ATOM     22  H   UNL     1       6.464  -0.851  -1.000  0.00  0.00    +0.145 HD
ATOM     23  H   UNL     1       6.260  -0.406   0.634  0.00  0.00    +0.145 HD
ENDBRANCH  18  21
ENDBRANCH   2  18
TORSDOF 4
