REMARK  Name = 129419
REMARK  9 active torsions:
REMARK  status: ('A' for Active; 'I' for Inactive)
REMARK    1  A    between atoms: C_1  and  C_2
REMARK    2  A    between atoms: C_1  and  C_17
REMARK    3  A    between atoms: C_2  and  C_3
REMARK    4  A    between atoms: C_3  and  O_4
REMARK    5  A    between atoms: O_4  and  C_5
REMARK    6  A    between atoms: C_8  and  C_13
REMARK    7  A    between atoms: C_17  and  O_18
REMARK    8  A    between atoms: O_18  and  C_19
REMARK    9  A    between atoms: C_22  and  C_27
REMARK                            x       y       z     vdW  Elec       q    Type
REMARK                         _______ _______ _______ _____ _____    ______ ____
ROOT
ATOM      1  C   UNL     1      -0.537   0.532   0.089  0.00  0.00    +0.051 C 
ENDROOT
BRANCH   1   2
ATOM      2  C   UNL     1       0.536  -0.513  -0.195  0.00  0.00    +0.051 C 
BRANCH   2   3
ATOM      3  C   UNL     1       1.869   0.132  -0.548  0.00  0.00    +0.206 C 
BRANCH   3   4
ATOM      4  O   UNL     1       2.826  -0.891  -0.786  0.00  0.00    -0.475 OA
BRANCH   4   5
ATOM      5  C   UNL     1       4.135  -0.589  -0.513  0.00  0.00    +0.139 C 
ATOM      6  C   UNL     1       4.579   0.722  -0.641  0.00  0.00    +0.037 C 
ATOM      7  C   UNL     1       5.004  -1.597  -0.114  0.00  0.00    +0.037 C 
ATOM      8  C   UNL     1       6.790   0.022   0.036  0.00  0.00    +0.031 C 
ATOM      9  C   UNL     1       5.912   1.029  -0.365  0.00  0.00    +0.006 C 
ATOM     10  C   UNL     1       6.337  -1.290   0.162  0.00  0.00    +0.006 C 
BRANCH   8  13
ATOM     11  N   UNL     1       8.663   1.645   0.205  0.00  0.00    -0.343 N 
ATOM     12  N   UNL     1       9.011  -0.612   0.698  0.00  0.00    -0.285 NA
ATOM     13  C   UNL     1       8.180   0.343   0.323  0.00  0.00    +0.117 C 
ATOM     14  H   UNL     1       9.607   1.840   0.404  0.00  0.00    +0.144 HD
ATOM     15  H   UNL     1       8.059   2.370  -0.077  0.00  0.00    +0.144 HD
ATOM     16  H   UNL     1       9.952  -0.398   0.893  0.00  0.00    +0.188 HD
ENDBRANCH   8  13
ENDBRANCH   4   5
ENDBRANCH   3   4
ENDBRANCH   2   3
ENDBRANCH   1   2
BRANCH   1  17
ATOM     17  C   UNL     1      -1.858  -0.113   0.484  0.00  0.00    +0.206 C 
BRANCH  17  18
ATOM     18  O   UNL     1      -2.816   0.910   0.720  0.00  0.00    -0.475 OA
BRANCH  18  19
ATOM     19  C   UNL     1      -4.129   0.596   0.481  0.00  0.00    +0.139 C 
ATOM     20  C   UNL     1      -5.012   1.590   0.076  0.00  0.00    +0.037 C 
ATOM     21  C   UNL     1      -4.563  -0.714   0.647  0.00  0.00    +0.037 C 
ATOM     22  C   UNL     1      -6.792  -0.042   0.000  0.00  0.00    +0.031 C 
ATOM     23  C   UNL     1      -6.348   1.270  -0.165  0.00  0.00    +0.006 C 
ATOM     24  C   UNL     1      -5.899  -1.034   0.406  0.00  0.00    +0.006 C 
BRANCH  22  27
ATOM     25  N   UNL     1      -9.100   0.595  -0.657  0.00  0.00    -0.343 N 
ATOM     26  N   UNL     1      -8.604  -1.617  -0.090  0.00  0.00    -0.285 NA
ATOM     27  C   UNL     1      -8.185  -0.375  -0.251  0.00  0.00    +0.117 C 
ATOM     28  H   UNL     1     -10.039   0.348  -0.822  0.00  0.00    +0.144 HD
ATOM     29  H   UNL     1      -8.808   1.527  -0.779  0.00  0.00    +0.144 HD
ATOM     30  H   UNL     1      -9.547  -1.845  -0.260  0.00  0.00    +0.188 HD
ENDBRANCH  22  27
ENDBRANCH  18  19
ENDBRANCH  17  18
ENDBRANCH   1  17
TORSDOF 9
