REMARK  Name = 129439
REMARK  8 active torsions:
REMARK  status: ('A' for Active; 'I' for Inactive)
REMARK    1  A    between atoms: N_2  and  CA_16
REMARK    2  A    between atoms: C_3  and  CA_5
REMARK    3  A    between atoms: CA_5  and  N_8
REMARK    4  A    between atoms: C_9  and  CA_11
REMARK    5  A    between atoms: CA_11  and  N_12
REMARK    6  A    between atoms: CA_16  and  CB_17
REMARK    7  A    between atoms: CA_16  and  C_21
REMARK    8  A    between atoms: C_21  and  O_22
REMARK                            x       y       z     vdW  Elec       q    Type
REMARK                         _______ _______ _______ _____ _____    ______ ____
ROOT
ATOM      1  O   ALA A   2      -0.408   0.347   1.733  0.00  0.00    -0.273 OA
ATOM      2  N   VAL A   3       0.910   0.550  -0.166  0.00  0.00    -0.295 N 
ATOM      3  C   ALA A   2      -0.256   0.709   0.568  0.00  0.00    +0.241 C 
ATOM      4  H   VAL A   3       0.932   0.875  -1.095  0.00  0.00    +0.150 HD
ENDROOT
BRANCH   3   5
ATOM      5  CA  ALA A   2      -1.335   1.437  -0.223  0.00  0.00    +0.149 C 
ATOM      6  CB  ALA A   2      -1.239   2.941  -0.016  0.00  0.00    +0.031 C 
BRANCH   5   8
ATOM      7  O   GLY A   1      -2.747  -0.857  -1.278  0.00  0.00    -0.277 OA
ATOM      8  N   ALA A   2      -2.614   0.931   0.200  0.00  0.00    -0.300 N 
ATOM      9  C   GLY A   1      -3.223  -0.184  -0.366  0.00  0.00    +0.201 C 
ATOM     10  H   ALA A   2      -3.083   1.398   0.928  0.00  0.00    +0.150 HD
BRANCH   9  11
ATOM     11  CA  GLY A   1      -4.576  -0.470   0.252  0.00  0.00    +0.001 C 
BRANCH  11  12
ATOM     12  N   GLY A   1      -4.838  -1.900   0.165  0.00  0.00    +0.386 N 
ATOM     13  H1  GLY A   1      -5.747  -2.105   0.578  0.00  0.00    -0.089 HD
ATOM     14  H2  GLY A   1      -4.112  -2.410   0.669  0.00  0.00    -0.089 HD
ATOM     15  H3  GLY A   1      -4.837  -2.187  -0.814  0.00  0.00    -0.089 HD
ENDBRANCH  11  12
ENDBRANCH   9  11
ENDBRANCH   5   8
ENDBRANCH   3   5
BRANCH   2  16
ATOM     16  CA  VAL A   3       2.095  -0.073   0.379  0.00  0.00    +0.171 C 
BRANCH  16  17
ATOM     17  CB  VAL A   3       2.044  -1.600   0.158  0.00  0.00    +0.029 C 
ATOM     18  CG1 VAL A   3       3.160  -2.332   0.908  0.00  0.00    +0.002 C 
ATOM     19  CG2 VAL A   3       2.052  -1.996  -1.321  0.00  0.00    +0.002 C 
ENDBRANCH  16  17
BRANCH  16  21
ATOM     20  OXT VAL A   3       4.486   0.336   0.244  0.00  0.00    -0.248 OA
ATOM     21  C   VAL A   3       3.357   0.599  -0.155  0.00  0.00    +0.332 C 
BRANCH  21  22
ATOM     22  O   VAL A   3       3.133   1.563  -1.082  0.00  0.00    -0.479 OA
ATOM     23  H   VAL A   3       2.259   1.743  -1.368  0.00  0.00    +0.295 HD
ENDBRANCH  21  22
ENDBRANCH  16  21
ENDBRANCH   2  16
TORSDOF 8
