REMARK  Name = 129458
REMARK  11 active torsions:
REMARK  status: ('A' for Active; 'I' for Inactive)
REMARK    1  A    between atoms: C_6  and  C_26
REMARK    2  A    between atoms: C_7  and  O_20
REMARK    3  A    between atoms: C_11  and  O_22
REMARK    4  A    between atoms: C_19  and  O_24
REMARK    5  A    between atoms: C_26  and  C_28
REMARK    6  A    between atoms: C_28  and  O_29
REMARK    7  A    between atoms: C_28  and  C_31
REMARK    8  A    between atoms: C_31  and  C_32
REMARK    9  A    between atoms: C_32  and  C_33
REMARK   10  A    between atoms: C_33  and  C_36
REMARK   11  A    between atoms: C_36  and  O_37
REMARK                            x       y       z     vdW  Elec       q    Type
REMARK                         _______ _______ _______ _____ _____    ______ ____
ROOT
ATOM      1  C   UNL     1       0.052  -1.521   0.016  0.00  0.00    +0.025 C 
ATOM      2  C   UNL     1      -0.607  -0.594  -1.032  0.00  0.00    +0.005 C 
ATOM      3  C   UNL     1      -2.135  -0.743  -1.094  0.00  0.00    +0.027 C 
ATOM      4  C   UNL     1      -2.735  -0.406   0.313  0.00  0.00    +0.005 C 
ATOM      5  C   UNL     1      -4.307  -0.540   0.325  0.00  0.00    +0.000 C 
ATOM      6  C   UNL     1       1.539  -1.169  -0.254  0.00  0.00    +0.005 C 
ATOM      7  C   UNL     1      -0.488  -1.157   1.414  0.00  0.00    +0.110 C 
ATOM      8  C   UNL     1      -2.030  -1.198   1.455  0.00  0.00    +0.029 C 
ATOM      9  C   UNL     1      -4.912   0.372  -0.794  0.00  0.00    +0.005 C 
ATOM     10  C   UNL     1       0.201  -0.854  -2.303  0.00  0.00    +0.000 C 
ATOM     11  C   UNL     1      -2.761   0.118  -2.208  0.00  0.00    +0.110 C 
ATOM     12  C   UNL     1       1.630  -1.117  -1.797  0.00  0.00    +0.000 C 
ATOM     13  C   UNL     1      -4.292   0.094  -2.178  0.00  0.00    +0.029 C 
ATOM     14  C   UNL     1      -4.934  -0.135   1.692  0.00  0.00    +0.002 C 
ATOM     15  C   UNL     1      -0.213  -3.030  -0.241  0.00  0.00    +0.002 C 
ATOM     16  C   UNL     1      -4.845   1.874  -0.445  0.00  0.00    +0.029 C 
ATOM     17  C   UNL     1      -4.747  -2.009   0.078  0.00  0.00    +0.000 C 
ATOM     18  C   UNL     1      -4.823   1.349   2.011  0.00  0.00    +0.029 C 
ATOM     19  C   UNL     1      -5.466   2.186   0.913  0.00  0.00    +0.111 C 
ENDROOT
BRANCH   7  20
ATOM     20  O   UNL     1      -0.038   0.128   1.845  0.00  0.00    -0.384 OA
ATOM     21  H   UNL     1       0.931   0.156   1.820  0.00  0.00    +0.210 HD
ENDBRANCH   7  20
BRANCH  11  22
ATOM     22  O   UNL     1      -2.289   1.459  -2.123  0.00  0.00    -0.384 OA
ATOM     23  H   UNL     1      -1.319   1.463  -2.143  0.00  0.00    +0.210 HD
ENDBRANCH  11  22
BRANCH  19  24
ATOM     24  O   UNL     1      -5.277   3.563   1.222  0.00  0.00    -0.384 OA
ATOM     25  H   UNL     1      -5.682   4.108   0.530  0.00  0.00    +0.210 HD
ENDBRANCH  19  24
BRANCH   6  26
ATOM     26  C   UNL     1       2.576  -2.091   0.370  0.00  0.00    +0.027 C 
ATOM     27  C   UNL     1       2.365  -2.150   1.890  0.00  0.00    +0.002 C 
BRANCH  26  28
ATOM     28  C   UNL     1       4.013  -1.652  -0.014  0.00  0.00    +0.110 C 
BRANCH  28  29
ATOM     29  O   UNL     1       4.936  -2.607   0.515  0.00  0.00    -0.384 OA
ATOM     30  H   UNL     1       4.683  -3.497   0.224  0.00  0.00    +0.210 HD
ENDBRANCH  28  29
BRANCH  28  31
ATOM     31  C   UNL     1       4.443  -0.257   0.467  0.00  0.00    +0.030 C 
BRANCH  31  32
ATOM     32  C   UNL     1       5.890   0.100   0.109  0.00  0.00    +0.014 C 
BRANCH  32  33
ATOM     33  C   UNL     1       6.256   1.539   0.514  0.00  0.00    +0.099 C 
ATOM     34  C   UNL     1       7.704   1.850   0.144  0.00  0.00    +0.012 C 
BRANCH  33  36
ATOM     35  O   UNL     1       5.265   2.718  -1.376  0.00  0.00    -0.250 OA
ATOM     36  C   UNL     1       5.358   2.561  -0.165  0.00  0.00    +0.313 C 
BRANCH  36  37
ATOM     37  O   UNL     1       4.672   3.317   0.731  0.00  0.00    -0.480 OA
ATOM     38  H   UNL     1       4.773   3.162   1.650  0.00  0.00    +0.295 HD
ENDBRANCH  36  37
ENDBRANCH  33  36
ENDBRANCH  32  33
ENDBRANCH  31  32
ENDBRANCH  28  31
ENDBRANCH  26  28
ENDBRANCH   6  26
TORSDOF 11
