REMARK  Name = 129468
REMARK  7 active torsions:
REMARK  status: ('A' for Active; 'I' for Inactive)
REMARK    1  A    between atoms: C_1  and  C_6
REMARK    2  A    between atoms: C_1  and  N_14
REMARK    3  A    between atoms: C_1  and  C_24
REMARK    4  A    between atoms: N_2  and  C_7
REMARK    5  A    between atoms: C_7  and  C_10
REMARK    6  A    between atoms: C_15  and  C_18
REMARK    7  A    between atoms: C_24  and  C_25
REMARK                            x       y       z     vdW  Elec       q    Type
REMARK                         _______ _______ _______ _____ _____    ______ ____
ROOT
ATOM      1  C   UNL     1       0.589  -0.953   0.420  0.00  0.00    +0.132 C 
ENDROOT
BRANCH   1   6
ATOM      2  N   UNL     1       2.360   0.772   0.759  0.00  0.00    -0.206 N 
ATOM      3  N   UNL     1       0.705   0.843   2.158  0.00  0.00    -0.111 NA
ATOM      4  N   UNL     1       2.636   1.796   1.579  0.00  0.00    -0.043 NA
ATOM      5  N   UNL     1       1.620   1.835   2.433  0.00  0.00    -0.023 NA
ATOM      6  C   UNL     1       1.200   0.232   1.139  0.00  0.00    +0.179 A 
BRANCH   2   7
ATOM      7  C   UNL     1       3.252   0.421  -0.315  0.00  0.00    +0.215 C 
BRANCH   7  10
ATOM      8  O   UNL     1       2.021   1.960  -1.726  0.00  0.00    -0.273 OA
ATOM      9  N   UNL     1       3.784   0.789  -2.625  0.00  0.00    -0.327 N 
ATOM     10  C   UNL     1       2.931   1.146  -1.602  0.00  0.00    +0.244 C 
ATOM     11  H   UNL     1       3.678   1.193  -3.517  0.00  0.00    +0.145 HD
ATOM     12  H   UNL     1       4.498   0.131  -2.464  0.00  0.00    +0.145 HD
ENDBRANCH   7  10
ENDBRANCH   2   7
ENDBRANCH   1   6
BRANCH   1  14
ATOM     13  O   UNL     1      -1.013   0.532  -1.492  0.00  0.00    -0.277 OA
ATOM     14  N   UNL     1      -0.849  -0.793   0.415  0.00  0.00    -0.301 N 
ATOM     15  C   UNL     1      -1.524  -0.061  -0.545  0.00  0.00    +0.203 C 
ATOM     16  H   UNL     1      -1.371  -1.225   1.129  0.00  0.00    +0.150 HD
BRANCH  15  18
ATOM     17  N   UNL     1      -3.590   0.715  -1.410  0.00  0.00    +0.391 N 
ATOM     18  C   UNL     1      -3.001  -0.078  -0.331  0.00  0.00    +0.017 C 
ATOM     19  C   UNL     1      -3.405   0.604   0.972  0.00  0.00    -0.015 C 
ATOM     20  C   UNL     1      -4.205   1.822   0.536  0.00  0.00    -0.025 C 
ATOM     21  C   UNL     1      -4.726   1.425  -0.830  0.00  0.00    -0.081 C 
ATOM     22  H   UNL     1      -3.903   0.105  -2.165  0.00  0.00    -0.084 HD
ATOM     23  H   UNL     1      -2.909   1.366  -1.803  0.00  0.00    -0.084 HD
ENDBRANCH  15  18
ENDBRANCH   1  14
BRANCH   1  24
ATOM     24  C   UNL     1       0.974  -2.312   1.030  0.00  0.00    +0.027 C 
BRANCH  24  25
ATOM     25  C   UNL     1       0.435  -3.548   0.280  0.00  0.00    +0.002 C 
ATOM     26  C   UNL     1       0.895  -3.506  -1.180  0.00  0.00    +0.000 C 
ATOM     27  C   UNL     1      -1.091  -3.643   0.335  0.00  0.00    +0.000 C 
ENDBRANCH  24  25
ENDBRANCH   1  24
TORSDOF 7
