129445
  -OEChem-03292013323D

 43 43  0     0  0  0  0  0  0999 V2000
    3.6301   -3.3757   -1.8706 Cl  0  0  0  0  0  0  0  0  0  0  0  0
    3.4023    3.2756   -2.1413 Cl  0  0  0  0  0  0  0  0  0  0  0  0
   -2.5160    1.5299   -0.7713 P   0  0  0  0  0  0  0  0  0  0  0  0
   -2.4861   -1.6438   -0.6353 P   0  0  0  0  0  0  0  0  0  0  0  0
   -3.2893    0.0304    1.1218 O   0  0  0  0  0  0  0  0  0  0  0  0
   -4.0229    1.3479   -1.3274 O   0  0  0  0  0  0  0  0  0  0  0  0
   -2.6641    2.6675    0.3669 O   0  0  0  0  0  0  0  0  0  0  0  0
   -3.9919   -1.5125   -1.2121 O   0  0  0  0  0  0  0  0  0  0  0  0
   -2.6461   -2.6764    0.5987 O   0  0  0  0  0  0  0  0  0  0  0  0
   -1.4798    1.8167   -1.8179 O   0  0  0  0  0  0  0  0  0  0  0  0
   -1.4573   -2.0189   -1.6599 O   0  0  0  0  0  0  0  0  0  0  0  0
    2.7209    0.0098    0.1331 N   0  0  0  0  0  0  0  0  0  0  0  0
   -2.2002   -0.0133    0.1908 C   0  0  0  0  0  0  0  0  0  0  0  0
   -0.8634    0.0361    0.9321 C   0  0  0  0  0  0  0  0  0  0  0  0
    1.5191    0.0461    0.8740 C   0  0  0  0  0  0  0  0  0  0  0  0
    0.3000    0.0022    0.1977 C   0  0  0  0  0  0  0  0  0  0  0  0
    1.5415    0.1226    2.2667 C   0  0  0  0  0  0  0  0  0  0  0  0
   -0.8740    0.1114    2.3064 C   0  0  0  0  0  0  0  0  0  0  0  0
    0.3449    0.1552    2.9828 C   0  0  0  0  0  0  0  0  0  0  0  0
    3.3568   -1.2561   -0.1684 C   0  0  0  0  0  0  0  0  0  0  0  0
    3.3379    1.2387   -0.3214 C   0  0  0  0  0  0  0  0  0  0  0  0
    2.8328    0.1715    3.0170 C   0  0  0  0  0  0  0  0  0  0  0  0
    2.8469   -1.8231   -1.4840 C   0  0  0  0  0  0  0  0  0  0  0  0
    2.6580    1.7581   -1.5786 C   0  0  0  0  0  0  0  0  0  0  0  0
    0.2760   -0.0605   -0.8855 H   0  0  0  0  0  0  0  0  0  0  0  0
   -1.7815    0.1429    2.8990 H   0  0  0  0  0  0  0  0  0  0  0  0
    0.3445    0.2159    4.0680 H   0  0  0  0  0  0  0  0  0  0  0  0
    3.1741   -1.9757    0.6403 H   0  0  0  0  0  0  0  0  0  0  0  0
    4.4458   -1.1309   -0.2151 H   0  0  0  0  0  0  0  0  0  0  0  0
    3.2905    1.9987    0.4688 H   0  0  0  0  0  0  0  0  0  0  0  0
    4.4049    1.0802   -0.5216 H   0  0  0  0  0  0  0  0  0  0  0  0
   -3.3646   -0.8408    1.5472 H   0  0  0  0  0  0  0  0  0  0  0  0
    3.4030    1.0660    2.7480 H   0  0  0  0  0  0  0  0  0  0  0  0
    2.6708    0.2060    4.1001 H   0  0  0  0  0  0  0  0  0  0  0  0
    3.4353   -0.7189    2.8118 H   0  0  0  0  0  0  0  0  0  0  0  0
    3.0539   -1.1503   -2.3192 H   0  0  0  0  0  0  0  0  0  0  0  0
    1.7691   -2.0055   -1.4535 H   0  0  0  0  0  0  0  0  0  0  0  0
    1.6017    1.9780   -1.4043 H   0  0  0  0  0  0  0  0  0  0  0  0
    2.7226    1.0439   -2.4025 H   0  0  0  0  0  0  0  0  0  0  0  0
   -4.4000    2.0396   -1.9118 H   0  0  0  0  0  0  0  0  0  0  0  0
   -2.7928    3.6002    0.0922 H   0  0  0  0  0  0  0  0  0  0  0  0
   -4.3656   -2.2537   -1.7348 H   0  0  0  0  0  0  0  0  0  0  0  0
   -2.7760   -3.6294    0.4062 H   0  0  0  0  0  0  0  0  0  0  0  0
  1 23  1  0  0  0  0
  2 24  1  0  0  0  0
  3  6  1  0  0  0  0
  3  7  1  0  0  0  0
  3 10  2  0  0  0  0
  3 13  1  0  0  0  0
  4  8  1  0  0  0  0
  4  9  1  0  0  0  0
  4 11  2  0  0  0  0
  4 13  1  0  0  0  0
  5 13  1  0  0  0  0
  5 32  1  0  0  0  0
  6 40  1  0  0  0  0
  7 41  1  0  0  0  0
  8 42  1  0  0  0  0
  9 43  1  0  0  0  0
 12 15  1  0  0  0  0
 12 20  1  0  0  0  0
 12 21  1  0  0  0  0
 13 14  1  0  0  0  0
 14 16  2  0  0  0  0
 14 18  1  0  0  0  0
 15 16  1  0  0  0  0
 15 17  2  0  0  0  0
 16 25  1  0  0  0  0
 17 19  1  0  0  0  0
 17 22  1  0  0  0  0
 18 19  2  0  0  0  0
 18 26  1  0  0  0  0
 19 27  1  0  0  0  0
 20 23  1  0  0  0  0
 20 28  1  0  0  0  0
 20 29  1  0  0  0  0
 21 24  1  0  0  0  0
 21 30  1  0  0  0  0
 21 31  1  0  0  0  0
 22 33  1  0  0  0  0
 22 34  1  0  0  0  0
 22 35  1  0  0  0  0
 23 36  1  0  0  0  0
 23 37  1  0  0  0  0
 24 38  1  0  0  0  0
 24 39  1  0  0  0  0
M  END
> <PUBCHEM_COMPOUND_CID>
129445

> <PUBCHEM_CONFORMER_RMSD>
0.8

> <PUBCHEM_CONFORMER_DIVERSEORDER>
1
39
35
11
27
8
21
5
41
44
45
30
13
22
53
14
16
29
31
38
3
51
43
24
9
32
23
10
15
37
26
18
19
2
46
6
42
36
50
49
28
7
20
48
12
4
33
25
52
34
17
54
47
40

> <PUBCHEM_MMFF94_PARTIAL_CHARGES>
32
1 -0.29
10 -0.7
11 -0.7
12 -0.84
13 0.42
14 -0.14
15 0.1
16 -0.15
17 -0.14
18 -0.15
19 -0.15
2 -0.29
20 0.37
21 0.37
22 0.14
23 0.29
24 0.29
25 0.15
26 0.15
27 0.15
3 1.24
32 0.4
4 1.24
40 0.5
41 0.5
42 0.5
43 0.5
5 -0.68
6 -0.77
7 -0.77
8 -0.77
9 -0.77

> <PUBCHEM_EFFECTIVE_ROTOR_COUNT>
8

> <PUBCHEM_PHARMACOPHORE_FEATURES>
12
1 10 acceptor
1 11 acceptor
1 12 cation
1 5 acceptor
1 5 donor
1 6 acceptor
1 7 acceptor
1 8 acceptor
1 9 acceptor
4 3 6 7 10 anion
4 4 8 9 11 anion
6 14 15 16 17 18 19 rings

> <PUBCHEM_HEAVY_ATOM_COUNT>
24

> <PUBCHEM_ATOM_DEF_STEREO_COUNT>
0

> <PUBCHEM_ATOM_UDEF_STEREO_COUNT>
0

> <PUBCHEM_BOND_DEF_STEREO_COUNT>
0

> <PUBCHEM_BOND_UDEF_STEREO_COUNT>
0

> <PUBCHEM_ISOTOPIC_ATOM_COUNT>
0

> <PUBCHEM_COMPONENT_COUNT>
1

> <PUBCHEM_CACTVS_TAUTO_COUNT>
1

> <PUBCHEM_CONFORMER_ID>
0001F9A500000001

> <PUBCHEM_MMFF94_ENERGY>
7.5723

> <PUBCHEM_FEATURE_SELFOVERLAP>
60.983

> <PUBCHEM_SHAPE_FINGERPRINT>
11221954 11 17605574325631400972
11578080 2 18060133224432650888
12596599 1 18187645769237243796
12788726 201 18262224643007542451
13134695 92 16589959721500019738
13994607 96 16739196679430275564
14115302 16 17988088781235825514
14787075 74 16881893471567249251
17492 54 17468477461660803102
17980427 23 17972282309871671608
20600515 1 17905290019673605360
20645477 70 15410315750173265193
229495 10 17979678698594609184
23557571 272 18267842021463889625
23559900 14 18271799099413891998
238 59 17900554680943642924
46194498 28 18262255373108324606
474 4 17023739164485578324
5262128 65 18259990374812698172
5895379 119 18262781978917130964
9981440 41 16663171991478559112

> <PUBCHEM_SHAPE_MULTIPOLES>
459.28
7.2
3.2
2.96
0.85
0.42
2.03
0.51
-3.73
-1.95
-3.14
-1.68
-0.45
0.06

> <PUBCHEM_SHAPE_SELFOVERLAP>
885.28

> <PUBCHEM_SHAPE_VOLUME>
284.3

> <PUBCHEM_COORDINATE_TYPE>
2
5
10

$$$$
