REMARK  Name = 129452
REMARK  7 active torsions:
REMARK  status: ('A' for Active; 'I' for Inactive)
REMARK    1  A    between atoms: C_1  and  N_16
REMARK    2  A    between atoms: C_2  and  C_12
REMARK    3  A    between atoms: C_3  and  O_7
REMARK    4  A    between atoms: C_4  and  O_9
REMARK    5  A    between atoms: C_12  and  O_13
REMARK    6  A    between atoms: N_15  and  N_16
REMARK    7  A    between atoms: N_15  and  C_21
REMARK                            x       y       z     vdW  Elec       q    Type
REMARK                         _______ _______ _______ _____ _____    ______ ____
ROOT
ATOM      1  C   UNL     1       1.450  -0.701   0.354  0.00  0.00    +0.119 C 
ATOM      2  C   UNL     1       3.658   0.217   0.045  0.00  0.00    +0.144 C 
ATOM      3  C   UNL     1       2.299   0.402   0.297  0.00  0.00    +0.159 C 
ATOM      4  C   UNL     1       4.164  -1.069  -0.147  0.00  0.00    +0.143 C 
ATOM      5  C   UNL     1       1.950  -1.986   0.162  0.00  0.00    +0.024 C 
ATOM      6  C   UNL     1       3.310  -2.170  -0.089  0.00  0.00    +0.038 C 
ENDROOT
BRANCH   3   7
ATOM      7  O   UNL     1       1.800   1.657   0.487  0.00  0.00    -0.504 OA
ATOM      8  H   UNL     1       0.886   1.778   0.655  0.00  0.00    +0.292 HD
ENDBRANCH   3   7
BRANCH   4   9
ATOM      9  O   UNL     1       5.489  -1.271  -0.395  0.00  0.00    -0.505 OA
ATOM     10  H   UNL     1       6.075  -0.541  -0.437  0.00  0.00    +0.292 HD
ENDBRANCH   4   9
BRANCH   2  12
ATOM     11  O   UNL     1       5.160   1.847   0.946  0.00  0.00    -0.245 OA
ATOM     12  C   UNL     1       4.554   1.367  -0.014  0.00  0.00    +0.344 C 
BRANCH  12  13
ATOM     13  O   UNL     1       4.659   1.875  -1.271  0.00  0.00    -0.477 OA
ATOM     14  H   UNL     1       4.182   1.483  -1.976  0.00  0.00    +0.295 HD
ENDBRANCH  12  13
ENDBRANCH   2  12
BRANCH   1  15
ATOM     15  N   UNL     1       0.077  -0.531   0.606  0.00  0.00    -0.142 NA
BRANCH  15  16
ATOM     16  N   UNL     1      -0.588  -0.380  -0.465  0.00  0.00    -0.071 NA
BRANCH  16  21
ATOM     17  N   UNL     1      -2.753  -0.043  -1.283  0.00  0.00    -0.303 N 
ATOM     18  N   UNL     1      -2.548  -0.199   0.925  0.00  0.00    -0.303 N 
ATOM     19  C   UNL     1      -4.023   0.099  -0.786  0.00  0.00    +0.060 C 
ATOM     20  C   UNL     1      -3.869  -0.003   0.593  0.00  0.00    +0.060 C 
ATOM     21  C   UNL     1      -1.907  -0.218  -0.222  0.00  0.00    +0.245 C 
ATOM     22  C   UNL     1      -5.256   0.300  -1.407  0.00  0.00    +0.016 C 
ATOM     23  C   UNL     1      -5.002   0.101   1.418  0.00  0.00    +0.016 C 
ATOM     24  C   UNL     1      -6.373   0.401  -0.571  0.00  0.00    +0.001 C 
ATOM     25  C   UNL     1      -6.250   0.303   0.817  0.00  0.00    +0.001 C 
ATOM     26  H   UNL     1      -2.495  -0.022  -2.233  0.00  0.00    +0.150 HD
ATOM     27  H   UNL     1      -2.166  -0.303   1.826  0.00  0.00    +0.150 HD
ENDBRANCH  16  21
ENDBRANCH  15  16
ENDBRANCH   1  15
TORSDOF 7
