REMARK  Name = 129445
REMARK  13 active torsions:
REMARK  status: ('A' for Active; 'I' for Inactive)
REMARK    1  A    between atoms: C_1  and  C_2
REMARK    2  A    between atoms: C_1  and  P_16
REMARK    3  A    between atoms: C_1  and  P_22
REMARK    4  A    between atoms: C_1  and  O_28
REMARK    5  A    between atoms: C_3  and  N_9
REMARK    6  A    between atoms: N_9  and  C_10
REMARK    7  A    between atoms: N_9  and  C_13
REMARK    8  A    between atoms: C_10  and  C_12
REMARK    9  A    between atoms: C_13  and  C_15
REMARK   10  A    between atoms: P_16  and  O_18
REMARK   11  A    between atoms: P_16  and  O_20
REMARK   12  A    between atoms: P_22  and  O_24
REMARK   13  A    between atoms: P_22  and  O_26
REMARK                            x       y       z     vdW  Elec       q    Type
REMARK                         _______ _______ _______ _____ _____    ______ ____
ROOT
ATOM      1  C   UNL     1      -2.200  -0.013   0.191  0.00  0.00    +0.294 C 
ENDROOT
BRANCH   1   2
ATOM      2  C   UNL     1      -0.863   0.036   0.932  0.00  0.00    +0.026 C 
ATOM      3  C   UNL     1       1.519   0.046   0.874  0.00  0.00    +0.044 C 
ATOM      4  C   UNL     1       0.300   0.002   0.198  0.00  0.00    +0.013 C 
ATOM      5  C   UNL     1       1.542   0.123   2.267  0.00  0.00    -0.009 C 
ATOM      6  C   UNL     1      -0.874   0.111   2.306  0.00  0.00    -0.001 C 
ATOM      7  C   UNL     1       0.345   0.155   2.983  0.00  0.00    -0.003 C 
ATOM      8  C   UNL     1       2.833   0.172   3.017  0.00  0.00    +0.032 C 
BRANCH   3   9
ATOM      9  N   UNL     1       2.721   0.010   0.133  0.00  0.00    -0.305 N 
BRANCH   9  10
ATOM     10  C   UNL     1       3.357  -1.256  -0.168  0.00  0.00    +0.108 C 
BRANCH  10  12
ATOM     11 CL   UNL     1       3.630  -3.376  -1.871  0.00  0.00    -0.112 Cl
ATOM     12  C   UNL     1       2.847  -1.823  -1.484  0.00  0.00    +0.116 C 
ENDBRANCH  10  12
ENDBRANCH   9  10
BRANCH   9  13
ATOM     13  C   UNL     1       3.338   1.239  -0.321  0.00  0.00    +0.108 C 
BRANCH  13  15
ATOM     14 CL   UNL     1       3.402   3.276  -2.141  0.00  0.00    -0.112 Cl
ATOM     15  C   UNL     1       2.658   1.758  -1.579  0.00  0.00    +0.116 C 
ENDBRANCH  13  15
ENDBRANCH   9  13
ENDBRANCH   3   9
ENDBRANCH   1   2
BRANCH   1  16
ATOM     16  P   UNL     1      -2.516   1.530  -0.771  0.00  0.00    +0.376 P 
ATOM     17  O   UNL     1      -1.480   1.817  -1.818  0.00  0.00    -0.255 OA
BRANCH  16  18
ATOM     18  O   UNL     1      -4.023   1.348  -1.327  0.00  0.00    -0.321 OA
ATOM     19  H   UNL     1      -4.271   2.126  -1.851  0.00  0.00    +0.220 HD
ENDBRANCH  16  18
BRANCH  16  20
ATOM     20  O   UNL     1      -2.664   2.667   0.367  0.00  0.00    -0.321 OA
ATOM     21  H   UNL     1      -2.834   3.525  -0.053  0.00  0.00    +0.220 HD
ENDBRANCH  16  20
ENDBRANCH   1  16
BRANCH   1  22
ATOM     22  P   UNL     1      -2.486  -1.644  -0.635  0.00  0.00    +0.376 P 
ATOM     23  O   UNL     1      -1.457  -2.019  -1.660  0.00  0.00    -0.255 OA
BRANCH  22  24
ATOM     24  O   UNL     1      -3.992  -1.512  -1.212  0.00  0.00    -0.321 OA
ATOM     25  H   UNL     1      -4.236  -2.332  -1.670  0.00  0.00    +0.220 HD
ENDBRANCH  22  24
BRANCH  22  26
ATOM     26  O   UNL     1      -2.646  -2.676   0.599  0.00  0.00    -0.321 OA
ATOM     27  H   UNL     1      -2.801  -3.570   0.255  0.00  0.00    +0.220 HD
ENDBRANCH  22  26
ENDBRANCH   1  22
BRANCH   1  28
ATOM     28  O   UNL     1      -3.289   0.030   1.122  0.00  0.00    -0.364 OA
ATOM     29  H   UNL     1      -4.130  -0.002   0.638  0.00  0.00    +0.212 HD
ENDBRANCH   1  28
TORSDOF 13
