REMARK  Name = 129407224
REMARK  12 active torsions:
REMARK  status: ('A' for Active; 'I' for Inactive)
REMARK    1  A    between atoms: P_1  and  N_3
REMARK    2  A    between atoms: P_1  and  O_13
REMARK    3  A    between atoms: P_1  and  C_20
REMARK    4  A    between atoms: N_3  and  C_5
REMARK    5  A    between atoms: C_5  and  C_8
REMARK    6  A    between atoms: C_8  and  O_9
REMARK    7  A    between atoms: O_9  and  C_10
REMARK    8  A    between atoms: O_13  and  C_14
REMARK    9  A    between atoms: C_20  and  O_21
REMARK   10  A    between atoms: O_21  and  C_22
REMARK   11  A    between atoms: C_22  and  C_24
REMARK   12  A    between atoms: C_24  and  N_25
REMARK                            x       y       z     vdW  Elec       q    Type
REMARK                         _______ _______ _______ _____ _____    ______ ____
ROOT
ATOM      1  P   UNL     1      -2.092   0.916   0.279  0.00  0.00    +0.358 P 
ATOM      2  O   UNL     1      -2.082   0.423   1.703  0.00  0.00    -0.256 OA
ENDROOT
BRANCH   1   3
ATOM      3  N   UNL     1      -1.443  -0.065  -0.887  0.00  0.00    -0.215 NA
ATOM      4  H   UNL     1      -1.415   0.478  -1.750  0.00  0.00    +0.134 HD
BRANCH   3   5
ATOM      5  C   UNL     1      -0.114  -0.620  -0.692  0.00  0.00    +0.162 C 
ATOM      6  C   UNL     1       0.551  -0.850  -2.042  0.00  0.00    +0.030 C 
BRANCH   5   8
ATOM      7  O   UNL     1      -1.313  -2.438   0.409  0.00  0.00    -0.249 OA
ATOM      8  C   UNL     1      -0.255  -1.927   0.066  0.00  0.00    +0.332 C 
BRANCH   8   9
ATOM      9  O   UNL     1       0.989  -2.447   0.299  0.00  0.00    -0.451 OA
BRANCH   9  10
ATOM     10  C   UNL     1       1.016  -3.691   1.005  0.00  0.00    +0.169 C 
ATOM     11  C   UNL     1       2.219  -4.502   0.546  0.00  0.00    +0.047 C 
ATOM     12  C   UNL     1       1.055  -3.417   2.501  0.00  0.00    +0.047 C 
ENDBRANCH   9  10
ENDBRANCH   8   9
ENDBRANCH   5   8
ENDBRANCH   3   5
ENDBRANCH   1   3
BRANCH   1  13
ATOM     13  O   UNL     1      -3.568   1.365  -0.216  0.00  0.00    -0.429 OA
BRANCH  13  14
ATOM     14  C   UNL     1      -4.651   0.533  -0.319  0.00  0.00    +0.146 C 
ATOM     15  C   UNL     1      -4.528  -0.815   0.016  0.00  0.00    +0.037 C 
ATOM     16  C   UNL     1      -5.876   1.035  -0.758  0.00  0.00    +0.037 C 
ATOM     17  C   UNL     1      -5.631  -1.663  -0.089  0.00  0.00    +0.003 C 
ATOM     18  C   UNL     1      -6.979   0.187  -0.863  0.00  0.00    +0.003 C 
ATOM     19  C   UNL     1      -6.856  -1.162  -0.529  0.00  0.00    +0.000 C 
ENDBRANCH  13  14
ENDBRANCH   1  13
BRANCH   1  20
ATOM     20  C   UNL     1      -1.210   2.482   0.165  0.00  0.00    +0.258 C 
BRANCH  20  21
ATOM     21  O   UNL     1       0.017   2.282   0.856  0.00  0.00    -0.343 OA
BRANCH  21  22
ATOM     22  C   UNL     1       0.814   3.457   0.853  0.00  0.00    +0.136 C 
ATOM     23  C   UNL     1       0.291   4.395   1.934  0.00  0.00    +0.034 C 
BRANCH  22  24
ATOM     24  C   UNL     1       2.283   3.092   1.096  0.00  0.00    +0.123 C 
BRANCH  24  25
ATOM     25  N   UNL     1       2.829   2.181   0.023  0.00  0.00    -0.269 N 
ATOM     26  N   UNL     1       3.403   1.463  -2.008  0.00  0.00    -0.242 NA
ATOM     27  N   UNL     1       3.538   0.277   1.354  0.00  0.00    -0.228 NA
ATOM     28  N   UNL     1       4.506  -1.472  -0.047  0.00  0.00    -0.229 NA
ATOM     29  C   UNL     1       3.374   0.941   0.200  0.00  0.00    +0.151 C 
ATOM     30  C   UNL     1       2.868   2.450  -1.320  0.00  0.00    +0.221 C 
ATOM     31  C   UNL     1       3.723   0.513  -1.071  0.00  0.00    +0.140 C 
ATOM     32  C   UNL     1       4.310  -0.744  -1.172  0.00  0.00    +0.143 C 
ATOM     33  C   UNL     1       4.114  -0.924   1.129  0.00  0.00    +0.253 C 
ATOM     34  N   UNL     1       4.696  -1.257  -2.422  0.00  0.00    -0.342 N 
ATOM     35  H   UNL     1       5.111  -2.148  -2.482  0.00  0.00    +0.144 HD
ATOM     36  H   UNL     1       4.553  -0.726  -3.239  0.00  0.00    +0.144 HD
ENDBRANCH  24  25
ENDBRANCH  22  24
ENDBRANCH  21  22
ENDBRANCH  20  21
ENDBRANCH   1  20
TORSDOF 12
