129452
  -OEChem-03292013323D

 32 34  0     0  0  0  0  0  0999 V2000
    1.7999    1.6573    0.4867 O   0  0  0  0  0  0  0  0  0  0  0  0
    5.4888   -1.2713   -0.3949 O   0  0  0  0  0  0  0  0  0  0  0  0
    4.6590    1.8752   -1.2706 O   0  0  0  0  0  0  0  0  0  0  0  0
    5.1604    1.8471    0.9463 O   0  0  0  0  0  0  0  0  0  0  0  0
   -2.7526   -0.0425   -1.2827 N   0  0  0  0  0  0  0  0  0  0  0  0
   -2.5481   -0.1988    0.9250 N   0  0  0  0  0  0  0  0  0  0  0  0
   -0.5879   -0.3800   -0.4654 N   0  0  0  0  0  0  0  0  0  0  0  0
    0.0775   -0.5315    0.6060 N   0  0  0  0  0  0  0  0  0  0  0  0
   -4.0232    0.0987   -0.7864 C   0  0  0  0  0  0  0  0  0  0  0  0
   -3.8691   -0.0025    0.5933 C   0  0  0  0  0  0  0  0  0  0  0  0
   -1.9075   -0.2176   -0.2224 C   0  0  0  0  0  0  0  0  0  0  0  0
   -5.2564    0.2999   -1.4072 C   0  0  0  0  0  0  0  0  0  0  0  0
    1.4498   -0.7006    0.3536 C   0  0  0  0  0  0  0  0  0  0  0  0
    3.6584    0.2171    0.0455 C   0  0  0  0  0  0  0  0  0  0  0  0
   -5.0017    0.1010    1.4183 C   0  0  0  0  0  0  0  0  0  0  0  0
    2.2987    0.4015    0.2966 C   0  0  0  0  0  0  0  0  0  0  0  0
    4.1640   -1.0686   -0.1472 C   0  0  0  0  0  0  0  0  0  0  0  0
    1.9503   -1.9856    0.1620 C   0  0  0  0  0  0  0  0  0  0  0  0
   -6.3732    0.4006   -0.5709 C   0  0  0  0  0  0  0  0  0  0  0  0
   -6.2503    0.3032    0.8170 C   0  0  0  0  0  0  0  0  0  0  0  0
    3.3099   -2.1699   -0.0890 C   0  0  0  0  0  0  0  0  0  0  0  0
    4.5536    1.3673   -0.0138 C   0  0  0  0  0  0  0  0  0  0  0  0
   -2.4872   -0.0212   -2.2582 H   0  0  0  0  0  0  0  0  0  0  0  0
   -5.3493    0.3752   -2.4846 H   0  0  0  0  0  0  0  0  0  0  0  0
   -4.9168    0.0265    2.4977 H   0  0  0  0  0  0  0  0  0  0  0  0
    1.2928   -2.8498    0.2063 H   0  0  0  0  0  0  0  0  0  0  0  0
   -7.3551    0.5576   -1.0105 H   0  0  0  0  0  0  0  0  0  0  0  0
   -7.1366    0.3855    1.4409 H   0  0  0  0  0  0  0  0  0  0  0  0
    3.6972   -3.1741   -0.2383 H   0  0  0  0  0  0  0  0  0  0  0  0
    2.5032    2.3224    0.4161 H   0  0  0  0  0  0  0  0  0  0  0  0
    5.9664   -0.4264   -0.4114 H   0  0  0  0  0  0  0  0  0  0  0  0
    5.2628    2.6477   -1.3028 H   0  0  0  0  0  0  0  0  0  0  0  0
  1 16  1  0  0  0  0
  1 30  1  0  0  0  0
  2 17  1  0  0  0  0
  2 31  1  0  0  0  0
  3 22  1  0  0  0  0
  3 32  1  0  0  0  0
  4 22  2  0  0  0  0
  5  9  1  0  0  0  0
  5 11  1  0  0  0  0
  5 23  1  0  0  0  0
  6 10  1  0  0  0  0
  6 11  2  0  0  0  0
  7  8  2  0  0  0  0
  7 11  1  0  0  0  0
  8 13  1  0  0  0  0
  9 10  1  0  0  0  0
  9 12  2  0  0  0  0
 10 15  2  0  0  0  0
 12 19  1  0  0  0  0
 12 24  1  0  0  0  0
 13 16  2  0  0  0  0
 13 18  1  0  0  0  0
 14 16  1  0  0  0  0
 14 17  2  0  0  0  0
 14 22  1  0  0  0  0
 15 20  1  0  0  0  0
 15 25  1  0  0  0  0
 17 21  1  0  0  0  0
 18 21  2  0  0  0  0
 18 26  1  0  0  0  0
 19 20  2  0  0  0  0
 19 27  1  0  0  0  0
 20 28  1  0  0  0  0
 21 29  1  0  0  0  0
M  END
> <PUBCHEM_COMPOUND_CID>
129452

> <PUBCHEM_CONFORMER_RMSD>
0.6

> <PUBCHEM_CONFORMER_DIVERSEORDER>
1
7
2
4
3
5
6

> <PUBCHEM_MMFF94_PARTIAL_CHARGES>
32
1 -0.53
10 0.23
11 0.31
12 -0.15
13 0.18
14 0.09
15 -0.15
16 0.08
17 0.08
18 -0.15
19 -0.15
2 -0.53
20 -0.15
21 -0.15
22 0.63
23 0.27
24 0.15
25 0.15
26 0.15
27 0.15
28 0.15
29 0.15
3 -0.65
30 0.45
31 0.45
32 0.5
4 -0.57
5 0.03
6 -0.57
7 -0.13
8 -0.18
9 -0.15

> <PUBCHEM_EFFECTIVE_ROTOR_COUNT>
3

> <PUBCHEM_PHARMACOPHORE_FEATURES>
10
1 1 donor
1 2 donor
1 3 acceptor
1 4 acceptor
1 5 donor
3 3 4 22 anion
4 5 6 7 11 cation
5 5 6 9 10 11 rings
6 13 14 16 17 18 21 rings
6 9 10 12 15 19 20 rings

> <PUBCHEM_HEAVY_ATOM_COUNT>
22

> <PUBCHEM_ATOM_DEF_STEREO_COUNT>
0

> <PUBCHEM_ATOM_UDEF_STEREO_COUNT>
0

> <PUBCHEM_BOND_DEF_STEREO_COUNT>
0

> <PUBCHEM_BOND_UDEF_STEREO_COUNT>
0

> <PUBCHEM_ISOTOPIC_ATOM_COUNT>
0

> <PUBCHEM_COMPONENT_COUNT>
1

> <PUBCHEM_CACTVS_TAUTO_COUNT>
34

> <PUBCHEM_CONFORMER_ID>
0001F9AC00000001

> <PUBCHEM_MMFF94_ENERGY>
57.1066

> <PUBCHEM_FEATURE_SELFOVERLAP>
50.91

> <PUBCHEM_SHAPE_FINGERPRINT>
10 15 17385724746083973824
10411042 1 17979637837009860934
10554248 39 17488459660131284421
10595046 47 18131066035317977331
10638233 991 17989488537164277353
10912923 1 17846494816689130611
11287383 113 18040719173142380259
12107183 9 17338167299507951187
12236239 1 17775565338750269715
12403259 415 17822290158998500847
12516196 113 17676489454352674229
12596602 18 18272936033682646307
12616971 3 18201993305094957238
12730499 353 18187369813525773042
13167372 99 18201160940812859145
13533116 47 18272090461379178082
13760787 5 18273494555071013483
13836976 161 18201719531601458318
13955234 65 18336541625908827210
14251764 75 17609792142504164748
14341114 176 18335990809094961641
14386348 63 17748829601034845275
14528608 73 18060135466014623461
15081414 286 18407762547163547380
15183329 4 17132121233870280237
16079462 125 17676478437555721365
17834072 33 18131347518694803055
17844677 252 18262241019359354037
20612939 158 18412829075432370070
20645477 70 18340486668912157694
21033648 29 18114166528783055141
21033650 10 16199335146861959547
21267235 1 18270688567316992998
21641784 216 18264225654864653948
220451 1 17632578249815801023
221357 26 18410007698045767100
22289505 5 18336256851885159716
23081809 10 17846777391314398203
23402539 116 15267052624117294009
23522609 53 17488764353558896121
23557571 272 16733265634136166399
23559900 14 16516530984532945667
239999 70 17967535653744472938
29717793 49 17489591134525556934
300161 21 18202558497089560179
3004659 81 16486982748087505566
335352 9 18412829084671502246
34797466 226 16878240691892159599
3545911 37 18260551121147287459
4073 2 18187089485700995555
42630746 31 18413105057357068178
4340502 62 17458059361386267178
5104073 3 18338792416088576562
542803 24 17704072889278052211
543368 44 17917426579481670577
57091435 61 17058631079703921952
7164475 11 17702956807867194632
8272917 22 18201160962082045142
90127 26 18188210892987143253

> <PUBCHEM_SHAPE_MULTIPOLES>
409.35
16.14
1.64
1.12
10.52
0.04
-0.07
-3.42
-0.63
-3.71
-0.02
1.25
-0.2
0.24

> <PUBCHEM_SHAPE_SELFOVERLAP>
912.748

> <PUBCHEM_SHAPE_VOLUME>
218.5

> <PUBCHEM_COORDINATE_TYPE>
2
5
10

$$$$
