REMARK  Name = 129596
REMARK  6 active torsions:
REMARK  status: ('A' for Active; 'I' for Inactive)
REMARK    1  A    between atoms: C_3  and  C_9
REMARK    2  A    between atoms: C_7  and  C_12
REMARK    3  A    between atoms: C_9  and  O_10
REMARK    4  A    between atoms: C_12  and  C_14
REMARK    5  A    between atoms: C_14  and  S_15
REMARK    6  A    between atoms: S_15  and  N_17
REMARK                            x       y       z     vdW  Elec       q    Type
REMARK                         _______ _______ _______ _____ _____    ______ ____
ROOT
ATOM      1  O   UNL     1      -0.488  -1.042   0.893  0.00  0.00    -0.275 OA
ATOM      2  N   UNL     1       0.947   0.334  -0.291  0.00  0.00    -0.271 N 
ATOM      3  C   UNL     1       1.910  -0.699  -0.650  0.00  0.00    +0.174 C 
ATOM      4  C   UNL     1       2.756  -0.073  -1.753  0.00  0.00    +0.033 C 
ATOM      5  C   UNL     1       2.710   1.419  -1.433  0.00  0.00    +0.024 C 
ATOM      6  C   UNL     1       1.302   1.617  -0.892  0.00  0.00    +0.094 C 
ATOM      7  C   UNL     1      -0.222   0.055   0.399  0.00  0.00    +0.226 C 
ENDROOT
BRANCH   3   9
ATOM      8  O   UNL     1       2.973  -0.186   1.460  0.00  0.00    -0.248 OA
ATOM      9  C   UNL     1       2.722  -0.991   0.576  0.00  0.00    +0.332 C 
BRANCH   9  10
ATOM     10  O   UNL     1       3.147  -2.278   0.572  0.00  0.00    -0.479 OA
ATOM     11  H   UNL     1       2.919  -2.845  -0.138  0.00  0.00    +0.295 HD
ENDBRANCH   9  10
ENDBRANCH   3   9
BRANCH   7  12
ATOM     12  C   UNL     1      -1.188   1.205   0.533  0.00  0.00    +0.089 C 
ATOM     13  C   UNL     1      -0.787   2.000   1.770  0.00  0.00    +0.011 C 
BRANCH  12  14
ATOM     14  C   UNL     1      -2.623   0.698   0.652  0.00  0.00    +0.087 C 
BRANCH  14  15
ATOM     15  S   UNL     1      -3.120  -0.284  -0.798  0.00  0.00    -0.015 S 
BRANCH  15  17
ATOM     16  O   UNL     1      -5.362  -1.231  -0.899  0.00  0.00    -0.088 OA
ATOM     17  N   UNL     1      -4.675  -0.545  -0.136  0.00  0.00    +0.012 NA
ENDBRANCH  15  17
ENDBRANCH  14  15
ENDBRANCH  12  14
ENDBRANCH   7  12
TORSDOF 6
