129561
  -OEChem-03292013323D

 36 38  0     1  0  0  0  0  0999 V2000
    4.0073   -2.0658   -0.7441 S   0  0  0  0  0  0  0  0  0  0  0  0
    1.8066    0.0316   -1.0034 O   0  0  0  0  0  0  0  0  0  0  0  0
    0.6224    2.5813    1.2365 O   0  0  0  0  0  0  0  0  0  0  0  0
    2.7875    2.8515   -0.3835 O   0  0  0  0  0  0  0  0  0  0  0  0
   -0.4095   -0.0830   -0.1633 N   0  0  0  0  0  0  0  0  0  0  0  0
   -1.5456   -1.9368    0.3136 N   0  0  0  0  0  0  0  0  0  0  0  0
   -4.4747    0.2827   -0.1525 N   0  0  0  0  0  0  0  0  0  0  0  0
   -4.5444   -2.0382    0.4108 N   0  0  0  0  0  0  0  0  0  0  0  0
    1.3179    1.4107    0.8589 C   0  0  1  0  0  0  0  0  0  0  0  0
    0.7385    0.7886   -0.4025 C   0  0  1  0  0  0  0  0  0  0  0  0
    2.7475    1.6809    0.4326 C   0  0  1  0  0  0  0  0  0  0  0  0
    3.0634    0.4660   -0.4341 C   0  0  1  0  0  0  0  0  0  0  0  0
    3.6565   -0.6904    0.3585 C   0  0  0  0  0  0  0  0  0  0  0  0
   -1.7349    0.2710   -0.2163 C   0  0  0  0  0  0  0  0  0  0  0  0
   -0.3504   -1.4129    0.1572 C   0  0  0  0  0  0  0  0  0  0  0  0
   -2.4210   -0.9013    0.0843 C   0  0  0  0  0  0  0  0  0  0  0  0
   -2.3721    1.4729   -0.4915 C   0  0  0  0  0  0  0  0  0  0  0  0
   -3.8157   -0.8729    0.1112 C   0  0  0  0  0  0  0  0  0  0  0  0
   -3.7565    1.3968   -0.4394 C   0  0  0  0  0  0  0  0  0  0  0  0
    4.6770   -3.2326    0.4670 C   0  0  0  0  0  0  0  0  0  0  0  0
    1.2971    0.7047    1.6971 H   0  0  0  0  0  0  0  0  0  0  0  0
    0.4213    1.5438   -1.1315 H   0  0  0  0  0  0  0  0  0  0  0  0
    3.4294    1.8354    1.2736 H   0  0  0  0  0  0  0  0  0  0  0  0
    3.7241    0.7421   -1.2653 H   0  0  0  0  0  0  0  0  0  0  0  0
    2.9537   -1.0381    1.1224 H   0  0  0  0  0  0  0  0  0  0  0  0
    4.5827   -0.3745    0.8490 H   0  0  0  0  0  0  0  0  0  0  0  0
    0.6864    3.2185    0.5048 H   0  0  0  0  0  0  0  0  0  0  0  0
    3.7088    2.9741   -0.6698 H   0  0  0  0  0  0  0  0  0  0  0  0
    0.5827   -1.9474    0.2697 H   0  0  0  0  0  0  0  0  0  0  0  0
   -1.8461    2.3886   -0.7242 H   0  0  0  0  0  0  0  0  0  0  0  0
   -4.3569    2.2802   -0.6379 H   0  0  0  0  0  0  0  0  0  0  0  0
    3.9261   -3.4652    1.2264 H   0  0  0  0  0  0  0  0  0  0  0  0
    5.5680   -2.8162    0.9442 H   0  0  0  0  0  0  0  0  0  0  0  0
    4.9556   -4.1590   -0.0420 H   0  0  0  0  0  0  0  0  0  0  0  0
   -5.5545   -1.9980    0.4263 H   0  0  0  0  0  0  0  0  0  0  0  0
   -4.0630   -2.9047    0.6095 H   0  0  0  0  0  0  0  0  0  0  0  0
  1 13  1  0  0  0  0
  1 20  1  0  0  0  0
  2 10  1  0  0  0  0
  2 12  1  0  0  0  0
  3  9  1  0  0  0  0
  3 27  1  0  0  0  0
  4 11  1  0  0  0  0
  4 28  1  0  0  0  0
  5 10  1  0  0  0  0
  5 14  1  0  0  0  0
  5 15  1  0  0  0  0
  6 15  2  0  0  0  0
  6 16  1  0  0  0  0
  7 18  2  0  0  0  0
  7 19  1  0  0  0  0
  8 18  1  0  0  0  0
  8 35  1  0  0  0  0
  8 36  1  0  0  0  0
  9 10  1  0  0  0  0
  9 11  1  0  0  0  0
  9 21  1  0  0  0  0
 10 22  1  0  0  0  0
 11 12  1  0  0  0  0
 11 23  1  0  0  0  0
 12 13  1  0  0  0  0
 12 24  1  0  0  0  0
 13 25  1  0  0  0  0
 13 26  1  0  0  0  0
 14 16  2  0  0  0  0
 14 17  1  0  0  0  0
 15 29  1  0  0  0  0
 16 18  1  0  0  0  0
 17 19  2  0  0  0  0
 17 30  1  0  0  0  0
 19 31  1  0  0  0  0
 20 32  1  0  0  0  0
 20 33  1  0  0  0  0
 20 34  1  0  0  0  0
M  END
> <PUBCHEM_COMPOUND_CID>
129561

> <PUBCHEM_CONFORMER_RMSD>
0.6

> <PUBCHEM_CONFORMER_DIVERSEORDER>
2
32
44
43
22
27
42
25
16
30
34
36
45
46
47
31
49
14
48
6
29
17
15
20
38
21
26
40
35
18
24
4
37
1
10
39
23
7
41
9
3
8
28
12
33
13
11
19
5

> <PUBCHEM_MMFF94_PARTIAL_CHARGES>
27
1 -0.46
10 0.54
11 0.28
12 0.28
13 0.23
14 -0.15
15 0.04
16 0.23
17 -0.15
18 0.41
19 0.16
2 -0.56
20 0.23
27 0.4
28 0.4
29 0.15
3 -0.68
30 0.15
31 0.15
35 0.4
36 0.4
4 -0.68
5 0.05
6 -0.57
7 -0.62
8 -0.9
9 0.28

> <PUBCHEM_EFFECTIVE_ROTOR_COUNT>
4

> <PUBCHEM_PHARMACOPHORE_FEATURES>
12
1 2 acceptor
1 20 hydrophobe
1 3 acceptor
1 3 donor
1 4 acceptor
1 4 donor
1 8 donor
3 5 6 15 cation
3 7 8 18 cation
5 2 9 10 11 12 rings
5 5 6 14 15 16 rings
6 7 14 16 17 18 19 rings

> <PUBCHEM_HEAVY_ATOM_COUNT>
20

> <PUBCHEM_ATOM_DEF_STEREO_COUNT>
4

> <PUBCHEM_ATOM_UDEF_STEREO_COUNT>
0

> <PUBCHEM_BOND_DEF_STEREO_COUNT>
0

> <PUBCHEM_BOND_UDEF_STEREO_COUNT>
0

> <PUBCHEM_ISOTOPIC_ATOM_COUNT>
0

> <PUBCHEM_COMPONENT_COUNT>
1

> <PUBCHEM_CACTVS_TAUTO_COUNT>
2

> <PUBCHEM_CONFORMER_ID>
0001FA1900000002

> <PUBCHEM_MMFF94_ENERGY>
49.1714

> <PUBCHEM_FEATURE_SELFOVERLAP>
61.022

> <PUBCHEM_SHAPE_FINGERPRINT>
10062212 137 18271518706953855055
10608611 8 18339640165270510901
1100329 8 16682882459371005818
11405975 8 18413111641251704769
11578080 2 14188460218171023914
12403259 226 18410570699902578333
12403260 363 18343015580300065349
12507560 14 18130504158821666998
13134695 92 17774990272510068352
13140716 1 18270966743236652721
13533116 47 18339079393034398243
13675066 3 18271798012839855034
14866123 147 17333657076893297266
15196674 1 18409729555936914391
15219456 202 18342457101138878989
15442244 35 18411702050001684640
15536298 74 18410290319868280002
17349148 13 17203611479744693519
17492 89 18337390538610446871
17804303 29 18335706009349450807
1813 80 17095520661246296318
18186145 218 18341901787679546981
19049666 15 18411981403005984464
19591789 44 18409166619232989539
20510252 161 18339081609501085353
20645477 70 18412829118181849526
20832881 197 18263927644278982554
21065198 57 18410011048367885365
21250096 35 18269834233865771054
21279426 13 18121496851949884398
221490 88 18408891762584214426
23419403 2 17485331549492460152
23559900 14 18412259532646282980
296302 2 8502657013008466525
3004659 81 18042129752837057558
3286 77 18411699893801248567
335352 9 18265895757365899509
3421961 26 18412259515814612594
350125 39 18263366898055052077
474 4 16083626013768652204
5104073 3 18341618122459179827
633830 44 15936700297725021277
6443956 14 18338520721005527934
69090 78 18200873006305412511
7364860 26 18340206396989993756
9709674 26 18335704991426715050
9981440 41 17759238888079506848

> <PUBCHEM_SHAPE_MULTIPOLES>
377.91
9.19
3.07
0.86
0.69
0.07
0.03
5.51
-0.28
-2.62
0.53
-0.35
-0.16
0.5

> <PUBCHEM_SHAPE_SELFOVERLAP>
799.623

> <PUBCHEM_SHAPE_VOLUME>
216

> <PUBCHEM_COORDINATE_TYPE>
2
5
10

$$$$
