129562
  -OEChem-03292013323D

 62 64  0     0  0  0  0  0  0999 V2000
    0.5886    1.9295   -1.0424 O   0  0  0  0  0  0  0  0  0  0  0  0
    4.1645    0.5352    1.8299 O   0  0  0  0  0  0  0  0  0  0  0  0
    6.2193   -0.5849    0.5480 O   0  0  0  0  0  0  0  0  0  0  0  0
   -4.8013   -0.2637    0.6870 N   0  0  0  0  0  0  0  0  0  0  0  0
   -4.2791   -0.2509   -0.5475 N   0  0  0  0  0  0  0  0  0  0  0  0
   -5.1936    1.7208    0.0880 N   0  0  0  0  0  0  0  0  0  0  0  0
   -5.3537    0.8834    1.1054 N   0  0  0  0  0  0  0  0  0  0  0  0
    0.2803   -1.6435   -0.0516 N   0  0  0  0  0  0  0  0  0  0  0  0
   -0.7572   -3.6405    0.1994 N   0  0  0  0  0  0  0  0  0  0  0  0
    0.4147   -2.4647   -1.1025 N   0  0  0  0  0  0  0  0  0  0  0  0
   -0.1836   -3.6594   -0.9975 N   0  0  0  0  0  0  0  0  0  0  0  0
   -2.7484    1.2433   -2.6267 C   0  0  0  0  0  0  0  0  0  0  0  0
   -1.7284    1.7910   -1.6309 C   0  0  0  0  0  0  0  0  0  0  0  0
   -3.4149   -2.1544    1.5239 C   0  0  0  0  0  0  0  0  0  0  0  0
   -4.1791    1.5999   -2.2123 C   0  0  0  0  0  0  0  0  0  0  0  0
   -2.2869   -1.2869    2.0953 C   0  0  0  0  0  0  0  0  0  0  0  0
   -4.7699   -1.4408    1.5159 C   0  0  0  0  0  0  0  0  0  0  0  0
   -0.3066    1.4043   -2.0128 C   0  0  0  0  0  0  0  0  0  0  0  0
    2.3748    1.2426    0.4144 C   0  0  0  0  0  0  0  0  0  0  0  0
    1.7729    2.0159    1.5436 C   0  0  0  0  0  0  0  0  0  0  0  0
    1.7518    1.2347   -0.8336 C   0  0  0  0  0  0  0  0  0  0  0  0
   -4.5489    1.0133   -0.8827 C   0  0  0  0  0  0  0  0  0  0  0  0
   -0.9275   -1.9975    2.0998 C   0  0  0  0  0  0  0  0  0  0  0  0
    2.2918    3.4581    1.5974 C   0  0  0  0  0  0  0  0  0  0  0  0
    3.5573    0.5285    0.6079 C   0  0  0  0  0  0  0  0  0  0  0  0
    4.1166   -0.1935   -0.4465 C   0  0  0  0  0  0  0  0  0  0  0  0
    2.3112    0.5129   -1.8879 C   0  0  0  0  0  0  0  0  0  0  0  0
    3.4936   -0.2012   -1.6944 C   0  0  0  0  0  0  0  0  0  0  0  0
    1.6507    4.2479    2.7274 C   0  0  0  0  0  0  0  0  0  0  0  0
   -0.4616   -2.4237    0.7385 C   0  0  0  0  0  0  0  0  0  0  0  0
    5.3498   -0.9475   -0.2676 C   0  0  0  0  0  0  0  0  0  0  0  0
    5.6027   -2.2083   -1.0851 C   0  0  0  0  0  0  0  0  0  0  0  0
   -2.6380    0.1554   -2.7162 H   0  0  0  0  0  0  0  0  0  0  0  0
   -2.5525    1.6646   -3.6202 H   0  0  0  0  0  0  0  0  0  0  0  0
   -1.8048    2.8840   -1.5728 H   0  0  0  0  0  0  0  0  0  0  0  0
   -1.9204    1.4253   -0.6153 H   0  0  0  0  0  0  0  0  0  0  0  0
   -3.5052   -3.0666    2.1263 H   0  0  0  0  0  0  0  0  0  0  0  0
   -3.1748   -2.4736    0.5037 H   0  0  0  0  0  0  0  0  0  0  0  0
   -4.2953    2.6895   -2.1752 H   0  0  0  0  0  0  0  0  0  0  0  0
   -4.8803    1.2261   -2.9675 H   0  0  0  0  0  0  0  0  0  0  0  0
   -2.1954   -0.3605    1.5157 H   0  0  0  0  0  0  0  0  0  0  0  0
   -2.5365   -0.9960    3.1228 H   0  0  0  0  0  0  0  0  0  0  0  0
   -5.0489   -1.1488    2.5348 H   0  0  0  0  0  0  0  0  0  0  0  0
   -5.5463   -2.1133    1.1346 H   0  0  0  0  0  0  0  0  0  0  0  0
   -0.0574    1.8257   -2.9938 H   0  0  0  0  0  0  0  0  0  0  0  0
   -0.2596    0.3105   -2.0671 H   0  0  0  0  0  0  0  0  0  0  0  0
    1.9713    1.5132    2.4989 H   0  0  0  0  0  0  0  0  0  0  0  0
    0.6783    2.0178    1.4582 H   0  0  0  0  0  0  0  0  0  0  0  0
   -0.9810   -2.8827    2.7454 H   0  0  0  0  0  0  0  0  0  0  0  0
   -0.1777   -1.3316    2.5445 H   0  0  0  0  0  0  0  0  0  0  0  0
    3.3805    3.4611    1.7305 H   0  0  0  0  0  0  0  0  0  0  0  0
    2.0883    3.9670    0.6474 H   0  0  0  0  0  0  0  0  0  0  0  0
    1.8783    0.5045   -2.8838 H   0  0  0  0  0  0  0  0  0  0  0  0
    3.9155   -0.7378   -2.5396 H   0  0  0  0  0  0  0  0  0  0  0  0
    0.5643    4.2984    2.6026 H   0  0  0  0  0  0  0  0  0  0  0  0
    1.8648    3.7878    3.6973 H   0  0  0  0  0  0  0  0  0  0  0  0
    2.0390    5.2710    2.7431 H   0  0  0  0  0  0  0  0  0  0  0  0
    4.9119   -0.0827    1.8493 H   0  0  0  0  0  0  0  0  0  0  0  0
    6.1002   -1.9448   -2.0215 H   0  0  0  0  0  0  0  0  0  0  0  0
    4.6663   -2.7362   -1.2855 H   0  0  0  0  0  0  0  0  0  0  0  0
    6.2427   -2.8838   -0.5092 H   0  0  0  0  0  0  0  0  0  0  0  0
    0.9375   -2.1977   -1.9296 H   0  0  0  0  0  0  0  0  0  0  0  0
  1 18  1  0  0  0  0
  1 21  1  0  0  0  0
  2 25  1  0  0  0  0
  2 58  1  0  0  0  0
  3 31  2  0  0  0  0
  4  5  1  0  0  0  0
  4  7  1  0  0  0  0
  4 17  1  0  0  0  0
  5 22  2  0  0  0  0
  6  7  2  0  0  0  0
  6 22  1  0  0  0  0
  8 10  1  0  0  0  0
  8 30  2  0  0  0  0
  9 11  2  0  0  0  0
  9 30  1  0  0  0  0
 10 11  1  0  0  0  0
 10 62  1  0  0  0  0
 12 13  1  0  0  0  0
 12 15  1  0  0  0  0
 12 33  1  0  0  0  0
 12 34  1  0  0  0  0
 13 18  1  0  0  0  0
 13 35  1  0  0  0  0
 13 36  1  0  0  0  0
 14 16  1  0  0  0  0
 14 17  1  0  0  0  0
 14 37  1  0  0  0  0
 14 38  1  0  0  0  0
 15 22  1  0  0  0  0
 15 39  1  0  0  0  0
 15 40  1  0  0  0  0
 16 23  1  0  0  0  0
 16 41  1  0  0  0  0
 16 42  1  0  0  0  0
 17 43  1  0  0  0  0
 17 44  1  0  0  0  0
 18 45  1  0  0  0  0
 18 46  1  0  0  0  0
 19 20  1  0  0  0  0
 19 21  2  0  0  0  0
 19 25  1  0  0  0  0
 20 24  1  0  0  0  0
 20 47  1  0  0  0  0
 20 48  1  0  0  0  0
 21 27  1  0  0  0  0
 23 30  1  0  0  0  0
 23 49  1  0  0  0  0
 23 50  1  0  0  0  0
 24 29  1  0  0  0  0
 24 51  1  0  0  0  0
 24 52  1  0  0  0  0
 25 26  2  0  0  0  0
 26 28  1  0  0  0  0
 26 31  1  0  0  0  0
 27 28  2  0  0  0  0
 27 53  1  0  0  0  0
 28 54  1  0  0  0  0
 29 55  1  0  0  0  0
 29 56  1  0  0  0  0
 29 57  1  0  0  0  0
 31 32  1  0  0  0  0
 32 59  1  0  0  0  0
 32 60  1  0  0  0  0
 32 61  1  0  0  0  0
M  END
> <PUBCHEM_COMPOUND_CID>
129562

> <PUBCHEM_CONFORMER_RMSD>
1.4

> <PUBCHEM_CONFORMER_DIVERSEORDER>
3
116
65
159
47
22
113
139
131
35
164
181
43
103
80
129
154
136
10
77
70
140
87
165
9
44
119
141
58
98
142
125
122
15
117
46
173
61
130
115
167
74
76
94
168
157
97
120
106
79
14
39
93
180
42
148
100
143
59
178
90
5
73
38
176
29
99
147
81
124
153
152
174
24
112
91
21
128
101
85
75
146
28
20
133
92
110
96
137
31
66
27
62
30
118
107
17
161
12
82
150
166
84
25
132
49
127
57
108
55
171
37
71
151
45
89
135
2
162
7
18
114
68
26
8
60
104
52
86
172
88
51
121
102
67
72
170
11
50
23
109
105
175
144
160
1
63
169
123
41
163
6
177
179
36
111
33
78
156
16
158
126
19
48
83
138
56
4
95
155
53
40
149
54
32
69
64
145
134
34
13

> <PUBCHEM_MMFF94_PARTIAL_CHARGES>
30
1 -0.36
10 0.57
11 -0.42
15 0.18
17 0.26
18 0.28
19 -0.14
2 -0.53
20 0.14
21 0.08
22 0.34
23 0.18
25 0.08
26 0.09
27 -0.15
28 -0.15
3 -0.57
30 0.34
31 0.42
32 0.06
4 0.58
5 -0.71
53 0.15
54 0.15
58 0.45
6 -0.23
62 0.27
7 -0.42
8 -0.71
9 -0.23

> <PUBCHEM_EFFECTIVE_ROTOR_COUNT>
14

> <PUBCHEM_PHARMACOPHORE_FEATURES>
9
1 1 acceptor
1 2 donor
1 29 hydrophobe
1 3 acceptor
3 5 6 22 cation
3 8 9 30 cation
5 4 5 6 7 22 rings
5 8 9 10 11 30 rings
6 19 21 25 26 27 28 rings

> <PUBCHEM_HEAVY_ATOM_COUNT>
32

> <PUBCHEM_ATOM_DEF_STEREO_COUNT>
0

> <PUBCHEM_ATOM_UDEF_STEREO_COUNT>
0

> <PUBCHEM_BOND_DEF_STEREO_COUNT>
0

> <PUBCHEM_BOND_UDEF_STEREO_COUNT>
0

> <PUBCHEM_ISOTOPIC_ATOM_COUNT>
0

> <PUBCHEM_COMPONENT_COUNT>
1

> <PUBCHEM_CACTVS_TAUTO_COUNT>
18

> <PUBCHEM_CONFORMER_ID>
0001FA1A00000003

> <PUBCHEM_MMFF94_ENERGY>
50.9737

> <PUBCHEM_FEATURE_SELFOVERLAP>
45.671

> <PUBCHEM_SHAPE_FINGERPRINT>
11488393 25 17975972059898017898
11578080 2 18194406821451723536
12422481 6 18260834773825566855
12467345 10 15841550739010733022
13165053 103 16977608819821409238
13383668 90 15288451151892864086
13402501 40 18187934936901191303
13726171 33 17533532051530913109
14251764 3 18412257350623470625
15001296 14 16951136212743317165
16067690 210 16660656184282602149
21033648 29 18412541050145282458
238918 7 18335422339792606311
3052486 1 17313110717505194031
354706 132 11527408012232173170
508706 21 18040154011650365559
552612 73 18192995057296346508
563151 74 17558257989475643288
77296 10 13757807962412361558

> <PUBCHEM_SHAPE_MULTIPOLES>
601.09
11.91
4.18
2.68
0.45
0.14
0.22
1.15
0.12
-0.44
1.91
0.76
-1.65
4

> <PUBCHEM_SHAPE_SELFOVERLAP>
1245.161

> <PUBCHEM_SHAPE_VOLUME>
343.7

> <PUBCHEM_COORDINATE_TYPE>
2
5
10

$$$$
