REMARK  Name = 129538
REMARK  7 active torsions:
REMARK  status: ('A' for Active; 'I' for Inactive)
REMARK    1  A    between atoms: C_1  and  C_3
REMARK    2  A    between atoms: C_1  and  C_12
REMARK    3  A    between atoms: C_3  and  O_4
REMARK    4  A    between atoms: O_4  and  N_7
REMARK    5  A    between atoms: C_12  and  S_14
REMARK    6  A    between atoms: S_14  and  S_15
REMARK    7  A    between atoms: S_15  and  C_17
REMARK                            x       y       z     vdW  Elec       q    Type
REMARK                         _______ _______ _______ _____ _____    ______ ____
ROOT
ATOM      1  C   UNL     1       0.818  -2.852  -0.186  0.00  0.00    +0.123 C 
ENDROOT
BRANCH   1   3
ATOM      2  O   UNL     1       2.228  -1.605   1.356  0.00  0.00    -0.248 OA
ATOM      3  C   UNL     1       1.626  -1.662   0.292  0.00  0.00    +0.341 C 
BRANCH   3   4
ATOM      4  O   UNL     1       1.599  -0.692  -0.670  0.00  0.00    -0.336 OA
BRANCH   4   7
ATOM      5  O   UNL     1       0.570   1.655   0.627  0.00  0.00    -0.267 OA
ATOM      6  O   UNL     1       4.386  -0.208  -1.166  0.00  0.00    -0.267 OA
ATOM      7  N   UNL     1       2.339   0.445  -0.277  0.00  0.00    -0.054 N 
ATOM      8  C   UNL     1       2.842   2.491   0.634  0.00  0.00    +0.066 C 
ATOM      9  C   UNL     1       4.108   1.873   0.039  0.00  0.00    +0.066 C 
ATOM     10  C   UNL     1       1.747   1.501   0.340  0.00  0.00    +0.287 C 
ATOM     11  C   UNL     1       3.662   0.567  -0.560  0.00  0.00    +0.287 C 
ENDBRANCH   4   7
ENDBRANCH   3   4
ENDBRANCH   1   3
BRANCH   1  12
ATOM     12  C   UNL     1      -0.676  -2.550  -0.354  0.00  0.00    +0.069 C 
ATOM     13  C   UNL     1      -1.432  -3.790  -0.823  0.00  0.00    +0.013 C 
BRANCH  12  14
ATOM     14  S   UNL     1      -1.400  -1.979   1.227  0.00  0.00    -0.077 S 
BRANCH  14  15
ATOM     15  S   UNL     1      -3.337  -1.600   0.662  0.00  0.00    -0.036 S 
BRANCH  15  17
ATOM     16  N   UNL     1      -2.859   0.995   1.113  0.00  0.00    -0.237 NA
ATOM     17  C   UNL     1      -3.249   0.111   0.167  0.00  0.00    +0.116 C 
ATOM     18  C   UNL     1      -3.577   0.462  -1.133  0.00  0.00    +0.026 C 
ATOM     19  C   UNL     1      -3.499   1.805  -1.484  0.00  0.00    +0.004 C 
ATOM     20  C   UNL     1      -3.101   2.743  -0.538  0.00  0.00    +0.021 C 
ATOM     21  C   UNL     1      -2.795   2.291   0.735  0.00  0.00    +0.099 C 
ENDBRANCH  15  17
ENDBRANCH  14  15
ENDBRANCH  12  14
ENDBRANCH   1  12
TORSDOF 7
