REMARK  Name = 129561
REMARK  5 active torsions:
REMARK  status: ('A' for Active; 'I' for Inactive)
REMARK    1  A    between atoms: N_1  and  C_15
REMARK    2  A    between atoms: C_14  and  O_18
REMARK    3  A    between atoms: C_16  and  O_20
REMARK    4  A    between atoms: C_17  and  C_22
REMARK    5  A    between atoms: C_22  and  S_23
REMARK                            x       y       z     vdW  Elec       q    Type
REMARK                         _______ _______ _______ _____ _____    ______ ____
ROOT
ATOM      1  N   UNL     1      -0.409  -0.083  -0.163  0.00  0.00    -0.220 NA
ATOM      2  N   UNL     1      -1.546  -1.937   0.314  0.00  0.00    -0.252 NA
ATOM      3  N   UNL     1      -4.475   0.283  -0.152  0.00  0.00    -0.229 NA
ATOM      4  N   UNL     1      -4.544  -2.038   0.411  0.00  0.00    -0.342 N 
ATOM      5  C   UNL     1      -1.735   0.271  -0.216  0.00  0.00    +0.128 C 
ATOM      6  C   UNL     1      -0.350  -1.413   0.157  0.00  0.00    +0.203 C 
ATOM      7  C   UNL     1      -2.421  -0.901   0.084  0.00  0.00    +0.105 C 
ATOM      8  C   UNL     1      -2.372   1.473  -0.491  0.00  0.00    +0.016 C 
ATOM      9  C   UNL     1      -3.816  -0.873   0.111  0.00  0.00    +0.140 C 
ATOM     10  C   UNL     1      -3.756   1.397  -0.439  0.00  0.00    +0.097 C 
ATOM     11  H   UNL     1      -5.528  -2.013   0.428  0.00  0.00    +0.144 HD
ATOM     12  H   UNL     1      -4.070  -2.879   0.603  0.00  0.00    +0.144 HD
ENDROOT
BRANCH   1  15
ATOM     13  O   UNL     1       1.807   0.032  -1.003  0.00  0.00    -0.337 OA
ATOM     14  C   UNL     1       1.318   1.411   0.859  0.00  0.00    +0.183 C 
ATOM     15  C   UNL     1       0.739   0.789  -0.403  0.00  0.00    +0.208 C 
ATOM     16  C   UNL     1       2.748   1.681   0.433  0.00  0.00    +0.169 C 
ATOM     17  C   UNL     1       3.063   0.466  -0.434  0.00  0.00    +0.157 C 
BRANCH  14  18
ATOM     18  O   UNL     1       0.622   2.581   1.236  0.00  0.00    -0.378 OA
ATOM     19  H   UNL     1      -0.282   2.350   1.498  0.00  0.00    +0.211 HD
ENDBRANCH  14  18
BRANCH  16  20
ATOM     20  O   UNL     1       2.788   2.852  -0.384  0.00  0.00    -0.379 OA
ATOM     21  H   UNL     1       2.588   3.631   0.159  0.00  0.00    +0.211 HD
ENDBRANCH  16  20
BRANCH  17  22
ATOM     22  C   UNL     1       3.656  -0.690   0.358  0.00  0.00    +0.090 C 
BRANCH  22  23
ATOM     23  S   UNL     1       4.007  -2.066  -0.744  0.00  0.00    -0.137 S 
ATOM     24  C   UNL     1       4.677  -3.233   0.467  0.00  0.00    +0.069 C 
ENDBRANCH  22  23
ENDBRANCH  17  22
ENDBRANCH   1  15
TORSDOF 5
