REMARK  Name = 129533
REMARK  6 active torsions:
REMARK  status: ('A' for Active; 'I' for Inactive)
REMARK    1  A    between atoms: C_2  and  O_17
REMARK    2  A    between atoms: C_3  and  O_19
REMARK    3  A    between atoms: C_4  and  C_7
REMARK    4  A    between atoms: C_5  and  C_21
REMARK    5  A    between atoms: C_10  and  C_14
REMARK    6  A    between atoms: C_21  and  O_22
REMARK                            x       y       z     vdW  Elec       q    Type
REMARK                         _______ _______ _______ _____ _____    ______ ____
ROOT
ATOM      1  O   UNL     1      -1.563   0.512  -1.076  0.00  0.00    -0.347 OA
ATOM      2  C   UNL     1      -1.949  -0.862   0.815  0.00  0.00    +0.171 C 
ATOM      3  C   UNL     1      -3.199  -0.044   0.553  0.00  0.00    +0.169 C 
ATOM      4  C   UNL     1      -1.215  -0.771  -0.518  0.00  0.00    +0.168 C 
ATOM      5  C   UNL     1      -2.677   1.070  -0.344  0.00  0.00    +0.174 C 
ENDROOT
BRANCH   4   7
ATOM      6  N   UNL     1       2.212  -2.382  -0.403  0.00  0.00    -0.242 NA
ATOM      7  C   UNL     1       0.281  -0.931  -0.379  0.00  0.00    +0.026 C 
ATOM      8  C   UNL     1       1.095   0.164  -0.111  0.00  0.00    +0.006 C 
ATOM      9  C   UNL     1       0.882  -2.171  -0.514  0.00  0.00    +0.097 C 
ATOM     10  C   UNL     1       2.468  -0.014   0.012  0.00  0.00    +0.072 C 
ATOM     11  C   UNL     1       2.973  -1.295  -0.142  0.00  0.00    +0.103 C 
BRANCH  10  14
ATOM     12  O   UNL     1       2.928   2.263   0.454  0.00  0.00    -0.270 OA
ATOM     13  N   UNL     1       4.704   0.836   0.396  0.00  0.00    -0.325 N 
ATOM     14  C   UNL     1       3.347   1.109   0.291  0.00  0.00    +0.244 C 
ATOM     15  H   UNL     1       5.339   1.564   0.584  0.00  0.00    +0.145 HD
ATOM     16  H   UNL     1       5.031  -0.086   0.282  0.00  0.00    +0.145 HD
ENDBRANCH  10  14
ENDBRANCH   4   7
BRANCH   2  17
ATOM     17  O   UNL     1      -2.234  -2.200   1.173  0.00  0.00    -0.379 OA
ATOM     18  H   UNL     1      -2.700  -2.214   2.024  0.00  0.00    +0.211 HD
ENDBRANCH   2  17
BRANCH   3  19
ATOM     19  O   UNL     1      -4.167  -0.812  -0.162  0.00  0.00    -0.379 OA
ATOM     20  H   UNL     1      -4.501  -1.523   0.408  0.00  0.00    +0.211 HD
ENDBRANCH   3  19
BRANCH   5  21
ATOM     21  C   UNL     1      -2.179   2.279   0.436  0.00  0.00    +0.169 C 
BRANCH  21  22
ATOM     22  O   UNL     1      -1.707   3.248  -0.483  0.00  0.00    -0.379 OA
ATOM     23  H   UNL     1      -1.386   4.025   0.003  0.00  0.00    +0.211 HD
ENDBRANCH  21  22
ENDBRANCH   5  21
TORSDOF 6
