REMARK  Name = 129556
REMARK  7 active torsions:
REMARK  status: ('A' for Active; 'I' for Inactive)
REMARK    1  A    between atoms: C_2  and  O_8
REMARK    2  A    between atoms: C_3  and  O_10
REMARK    3  A    between atoms: C_4  and  O_12
REMARK    4  A    between atoms: C_6  and  O_14
REMARK    5  A    between atoms: O_14  and  C_15
REMARK    6  A    between atoms: C_18  and  C_21
REMARK    7  A    between atoms: C_21  and  C_23
REMARK                            x       y       z     vdW  Elec       q    Type
REMARK                         _______ _______ _______ _____ _____    ______ ____
ROOT
ATOM      1  O   UNL     1      -1.704  -0.742   1.036  0.00  0.00    -0.319 OA
ATOM      2  C   UNL     1      -3.442   0.687  -0.748  0.00  0.00    +0.173 C 
ATOM      3  C   UNL     1      -3.745  -0.747  -0.311  0.00  0.00    +0.167 C 
ATOM      4  C   UNL     1      -2.577   1.404   0.291  0.00  0.00    +0.210 C 
ATOM      5  C   UNL     1      -2.444  -1.474   0.053  0.00  0.00    +0.148 C 
ATOM      6  C   UNL     1      -1.336   0.580   0.630  0.00  0.00    +0.318 C 
ATOM      7  C   UNL     1      -2.707  -2.861   0.634  0.00  0.00    +0.035 C 
ENDROOT
BRANCH   2   8
ATOM      8  O   UNL     1      -4.668   1.393  -0.928  0.00  0.00    -0.379 OA
ATOM      9  H   UNL     1      -5.211   0.933  -1.588  0.00  0.00    +0.211 HD
ENDBRANCH   2   8
BRANCH   3  10
ATOM     10  O   UNL     1      -4.396  -1.411  -1.392  0.00  0.00    -0.379 OA
ATOM     11  H   UNL     1      -5.217  -0.942  -1.612  0.00  0.00    +0.211 HD
ENDBRANCH   3  10
BRANCH   4  12
ATOM     12  O   UNL     1      -3.319   1.590   1.498  0.00  0.00    -0.377 OA
ATOM     13  H   UNL     1      -4.115   2.112   1.311  0.00  0.00    +0.211 HD
ENDBRANCH   4  12
BRANCH   6  14
ATOM     14  O   UNL     1      -0.442   0.579  -0.478  0.00  0.00    -0.451 OA
BRANCH  14  15
ATOM     15  C   UNL     1       0.894   0.484  -0.192  0.00  0.00    +0.141 C 
ATOM     16  C   UNL     1       1.757   1.500  -0.588  0.00  0.00    +0.037 C 
ATOM     17  C   UNL     1       1.374  -0.628   0.492  0.00  0.00    +0.037 C 
ATOM     18  C   UNL     1       3.607   0.291   0.389  0.00  0.00    -0.007 C 
ATOM     19  C   UNL     1       3.118   1.403  -0.296  0.00  0.00    -0.000 C 
ATOM     20  C   UNL     1       2.735  -0.724   0.783  0.00  0.00    -0.000 C 
BRANCH  18  21
ATOM     21  C   UNL     1       5.061   0.188   0.701  0.00  0.00    +0.132 C 
BRANCH  21  23
ATOM     22  N   UNL     1       6.413  -1.023  -1.208  0.00  0.00    -0.196 NA
ATOM     23  C   UNL     1       5.822  -0.489  -0.365  0.00  0.00    +0.078 C 
ENDBRANCH  21  23
ENDBRANCH  18  21
ENDBRANCH  14  15
ENDBRANCH   6  14
TORSDOF 7
