129692102
  -OEChem-03292013293D

 64 63  0     1  0  0  0  0  0999 V2000
   -3.2380    1.1185    2.0157 O   0  0  0  0  0  0  0  0  0  0  0  0
    3.9891    0.1402   -1.2727 O   0  0  0  0  0  0  0  0  0  0  0  0
   -1.5584    0.6414   -1.6809 O   0  0  0  0  0  0  0  0  0  0  0  0
    3.0716    2.8146    0.4659 O   0  0  0  0  0  0  0  0  0  0  0  0
   -3.8874   -0.6271   -1.9481 O   0  5  0  0  0  0  0  0  0  0  0  0
   -5.2783    1.1842   -1.9298 O   0  0  0  0  0  0  0  0  0  0  0  0
    5.1445    1.0746    1.0992 O   0  5  0  0  0  0  0  0  0  0  0  0
    4.1062   -0.0132    2.8162 O   0  0  0  0  0  0  0  0  0  0  0  0
   -2.6925   -1.9235    1.7796 N   0  3  0  0  0  0  0  0  0  0  0  0
    2.4209   -2.4673   -1.5482 N   0  3  0  0  0  0  0  0  0  0  0  0
   -2.3681   -0.8004    0.8611 C   0  0  0  0  0  0  0  0  0  0  0  0
    2.9404   -1.8177   -0.3159 C   0  0  0  0  0  0  0  0  0  0  0  0
   -3.4858    0.2441    0.9102 C   0  0  2  0  0  0  0  0  0  0  0  0
    2.8810   -0.3014   -0.4883 C   0  0  1  0  0  0  0  0  0  0  0  0
   -3.5118    1.1148   -0.3570 C   0  0  1  0  0  0  0  0  0  0  0  0
    2.8516    0.4384    0.8618 C   0  0  2  0  0  0  0  0  0  0  0  0
   -1.5721   -2.9714    1.7725 C   0  0  0  0  0  0  0  0  0  0  0  0
   -3.9957   -2.6124    1.3547 C   0  0  0  0  0  0  0  0  0  0  0  0
   -2.8651   -1.4165    3.2170 C   0  0  0  0  0  0  0  0  0  0  0  0
    2.5002   -3.9947   -1.4311 C   0  0  0  0  0  0  0  0  0  0  0  0
    0.9561   -2.0806   -1.7891 C   0  0  0  0  0  0  0  0  0  0  0  0
    3.2379   -2.0375   -2.7734 C   0  0  0  0  0  0  0  0  0  0  0  0
   -2.0973    1.3898   -0.8647 C   0  0  0  0  0  0  0  0  0  0  0  0
   -1.4133    2.6318   -0.3059 C   0  0  0  0  0  0  0  0  0  0  0  0
    2.3223    1.8594    0.6513 C   0  0  0  0  0  0  0  0  0  0  0  0
   -4.2980    0.4912   -1.5307 C   0  0  0  0  0  0  0  0  0  0  0  0
    0.0874    2.4904   -0.3190 C   0  0  0  0  0  0  0  0  0  0  0  0
    4.1677    0.5142    1.6672 C   0  0  0  0  0  0  0  0  0  0  0  0
    0.8381    2.0215    0.6948 C   0  0  0  0  0  0  0  0  0  0  0  0
    0.7464    2.8945   -1.6126 C   0  0  0  0  0  0  0  0  0  0  0  0
   -2.2486   -1.2515   -0.1278 H   0  0  0  0  0  0  0  0  0  0  0  0
   -1.4059   -0.3836    1.1828 H   0  0  0  0  0  0  0  0  0  0  0  0
    2.3157   -2.1576    0.5182 H   0  0  0  0  0  0  0  0  0  0  0  0
    3.9690   -2.1636   -0.1582 H   0  0  0  0  0  0  0  0  0  0  0  0
   -4.4880   -0.1638    1.0426 H   0  0  0  0  0  0  0  0  0  0  0  0
    1.9904    0.0161   -1.0292 H   0  0  0  0  0  0  0  0  0  0  0  0
   -3.9703    2.0887   -0.1376 H   0  0  0  0  0  0  0  0  0  0  0  0
    2.1140   -0.0614    1.5071 H   0  0  0  0  0  0  0  0  0  0  0  0
   -4.8615   -2.0083    1.6315 H   0  0  0  0  0  0  0  0  0  0  0  0
   -1.8357   -3.7757    2.4654 H   0  0  0  0  0  0  0  0  0  0  0  0
   -0.6459   -2.4817    2.0877 H   0  0  0  0  0  0  0  0  0  0  0  0
   -2.9254   -2.2888    3.8761 H   0  0  0  0  0  0  0  0  0  0  0  0
   -1.9920   -0.8124    3.4804 H   0  0  0  0  0  0  0  0  0  0  0  0
   -4.0619   -3.5660    1.8890 H   0  0  0  0  0  0  0  0  0  0  0  0
   -3.9592   -2.7941    0.2768 H   0  0  0  0  0  0  0  0  0  0  0  0
   -1.4748   -3.3586    0.7540 H   0  0  0  0  0  0  0  0  0  0  0  0
   -3.7956   -0.8511    3.3062 H   0  0  0  0  0  0  0  0  0  0  0  0
    0.5353   -2.7863   -2.5131 H   0  0  0  0  0  0  0  0  0  0  0  0
    2.1165   -4.4413   -2.3531 H   0  0  0  0  0  0  0  0  0  0  0  0
    2.9852   -1.0134   -3.0575 H   0  0  0  0  0  0  0  0  0  0  0  0
    2.9639   -2.6956   -3.6049 H   0  0  0  0  0  0  0  0  0  0  0  0
    4.3011   -2.1578   -2.5463 H   0  0  0  0  0  0  0  0  0  0  0  0
    1.8931   -4.3011   -0.5742 H   0  0  0  0  0  0  0  0  0  0  0  0
    3.5480   -4.2701   -1.2792 H   0  0  0  0  0  0  0  0  0  0  0  0
    0.8830   -1.0786   -2.2169 H   0  0  0  0  0  0  0  0  0  0  0  0
    0.4136   -2.1553   -0.8423 H   0  0  0  0  0  0  0  0  0  0  0  0
   -1.7459    2.7873    0.7255 H   0  0  0  0  0  0  0  0  0  0  0  0
   -1.7363    3.5035   -0.8847 H   0  0  0  0  0  0  0  0  0  0  0  0
   -3.9832    1.7406    2.0728 H   0  0  0  0  0  0  0  0  0  0  0  0
    3.9152    1.1040   -1.3759 H   0  0  0  0  0  0  0  0  0  0  0  0
    0.3603    1.6750    1.6068 H   0  0  0  0  0  0  0  0  0  0  0  0
    0.2109    2.4652   -2.4661 H   0  0  0  0  0  0  0  0  0  0  0  0
    1.7847    2.5704   -1.7149 H   0  0  0  0  0  0  0  0  0  0  0  0
    0.7214    3.9846   -1.7155 H   0  0  0  0  0  0  0  0  0  0  0  0
  1 13  1  0  0  0  0
  1 59  1  0  0  0  0
  2 14  1  0  0  0  0
  2 60  1  0  0  0  0
  3 23  2  0  0  0  0
  4 25  2  0  0  0  0
  5 26  1  0  0  0  0
  6 26  2  0  0  0  0
  7 28  1  0  0  0  0
  8 28  2  0  0  0  0
  9 11  1  0  0  0  0
  9 17  1  0  0  0  0
  9 18  1  0  0  0  0
  9 19  1  0  0  0  0
 10 12  1  0  0  0  0
 10 20  1  0  0  0  0
 10 21  1  0  0  0  0
 10 22  1  0  0  0  0
 11 13  1  0  0  0  0
 11 31  1  0  0  0  0
 11 32  1  0  0  0  0
 12 14  1  0  0  0  0
 12 33  1  0  0  0  0
 12 34  1  0  0  0  0
 13 15  1  0  0  0  0
 13 35  1  0  0  0  0
 14 16  1  0  0  0  0
 14 36  1  0  0  0  0
 15 23  1  0  0  0  0
 15 26  1  0  0  0  0
 15 37  1  0  0  0  0
 16 25  1  0  0  0  0
 16 28  1  0  0  0  0
 16 38  1  0  0  0  0
 17 40  1  0  0  0  0
 17 41  1  0  0  0  0
 17 46  1  0  0  0  0
 18 39  1  0  0  0  0
 18 44  1  0  0  0  0
 18 45  1  0  0  0  0
 19 42  1  0  0  0  0
 19 43  1  0  0  0  0
 19 47  1  0  0  0  0
 20 49  1  0  0  0  0
 20 53  1  0  0  0  0
 20 54  1  0  0  0  0
 21 48  1  0  0  0  0
 21 55  1  0  0  0  0
 21 56  1  0  0  0  0
 22 50  1  0  0  0  0
 22 51  1  0  0  0  0
 22 52  1  0  0  0  0
 23 24  1  0  0  0  0
 24 27  1  0  0  0  0
 24 57  1  0  0  0  0
 24 58  1  0  0  0  0
 25 29  1  0  0  0  0
 27 29  2  0  0  0  0
 27 30  1  0  0  0  0
 29 61  1  0  0  0  0
 30 62  1  0  0  0  0
 30 63  1  0  0  0  0
 30 64  1  0  0  0  0
M  CHG  4   5  -1   7  -1   9   1  10   1
M  END
> <PUBCHEM_COMPOUND_CID>
129692102

> <PUBCHEM_CONFORMER_RMSD>
1.8

> <PUBCHEM_CONFORMER_DIVERSEORDER>
2
44
14
66
53
23
19
63
73
15
74
86
52
12
36
50
32
56
5
48
28
76
37
72
30
9
68
78
16
6
70
24
84
77
13
57
39
17
10
71
49
55
85
58
40
81
35
7
25
67
34
75
27
51
41
46
45
38
60
31
43
65
20
80
61
22
79
82
26
18
33
59
62
4
83
69
3
8
21
11
47
54
1
29
64
42

> <PUBCHEM_MMFF94_PARTIAL_CHARGES>
33
1 -0.68
10 -1.01
11 0.5
12 0.5
13 0.28
14 0.28
15 -0.04
16 -0.04
17 0.5
18 0.5
19 0.5
2 -0.68
20 0.5
21 0.5
22 0.5
23 0.45
24 0.2
25 0.49
26 0.91
27 -0.28
28 0.91
29 -0.14
3 -0.57
30 0.14
4 -0.57
5 -0.9
59 0.4
6 -0.9
60 0.4
61 0.15
7 -0.9
8 -0.9
9 -1.01

> <PUBCHEM_EFFECTIVE_ROTOR_COUNT>
13

> <PUBCHEM_PHARMACOPHORE_FEATURES>
17
1 1 acceptor
1 1 donor
1 10 cation
1 15 anion
1 16 anion
1 2 acceptor
1 2 donor
1 3 acceptor
1 30 hydrophobe
1 4 acceptor
1 5 acceptor
1 6 acceptor
1 7 acceptor
1 8 acceptor
1 9 cation
3 5 6 26 anion
3 7 8 28 anion

> <PUBCHEM_HEAVY_ATOM_COUNT>
30

> <PUBCHEM_ATOM_DEF_STEREO_COUNT>
0

> <PUBCHEM_ATOM_UDEF_STEREO_COUNT>
4

> <PUBCHEM_BOND_DEF_STEREO_COUNT>
1

> <PUBCHEM_BOND_UDEF_STEREO_COUNT>
0

> <PUBCHEM_ISOTOPIC_ATOM_COUNT>
0

> <PUBCHEM_COMPONENT_COUNT>
1

> <PUBCHEM_CACTVS_TAUTO_COUNT>
30

> <PUBCHEM_CONFORMER_ID>
07BAF1C600000002

> <PUBCHEM_MMFF94_ENERGY>
98.3706

> <PUBCHEM_FEATURE_SELFOVERLAP>
86.94

> <PUBCHEM_SHAPE_FINGERPRINT>
10366900 7 18267877081239858894
108634 29 18261668203486232546
10906281 52 18408602548003135589
12293681 25 18337961086481983554
12553582 1 18335992999059336268
12596599 1 18334870436600253945
12596602 18 15913033369913833720
12633257 1 18260832609161881377
13402501 40 18408598154176972074
13533116 47 17417802916747429093
1361 2 18201143400345686215
13726171 33 17751390406207543124
14725015 67 17904476312275408875
15635459 17 18340481171311359700
15664445 248 16015258428546143949
17809404 112 18408601457160154391
17921350 177 18188491401506717178
17974551 9 17342961251424370080
19315092 285 16772363181161973039
20600515 1 17821723914504912389
20603629 256 17202758199177267190
20764821 26 18334590030891311063
21285901 2 18264190436000542373
21315764 371 17059197306326608948
23559900 14 18188500072971867502
404807 14 16481365171514524855
469060 322 18056465386459315439
508706 21 18263930942544482935
57307002 85 18266747892205802770
6287921 2 17909299053431647683
66674814 147 17693893713517674151
9709674 26 18411415072924045453

> <PUBCHEM_SHAPE_MULTIPOLES>
560.47
9.67
4.09
2.89
0.86
1.67
0.53
0.93
0.7
-1.18
-0.78
0.22
1.51
4.11

> <PUBCHEM_SHAPE_SELFOVERLAP>
1105.548

> <PUBCHEM_SHAPE_VOLUME>
335.4

> <PUBCHEM_COORDINATE_TYPE>
2
5
10

$$$$
