REMARK  Name = 129632191
REMARK  7 active torsions:
REMARK  status: ('A' for Active; 'I' for Inactive)
REMARK    1  A    between atoms: C_1  and  C_13
REMARK    2  A    between atoms: C_1  and  C_19
REMARK    3  A    between atoms: C_7  and  C_16
REMARK    4  A    between atoms: C_16  and  O_17
REMARK    5  A    between atoms: C_20  and  C_22
REMARK    6  A    between atoms: C_23  and  C_27
REMARK    7  A    between atoms: C_27  and  O_33
REMARK                            x       y       z     vdW  Elec       q    Type
REMARK                         _______ _______ _______ _____ _____    ______ ____
ROOT
ATOM      1  C   UNL     1       1.487   2.191   0.340  0.00  0.00    +0.049 C 
ATOM      2  C   UNL     1       1.745   3.695   0.236  0.00  0.00    +0.007 C 
ENDROOT
BRANCH   1  13
ATOM      3  O   UNL     1       4.871  -2.514  -0.521  0.00  0.00    -0.341 OA
ATOM      4  O   UNL     1       4.256  -0.087  -1.631  0.00  0.00    -0.327 OA
ATOM      5  O   UNL     1       2.216   0.025  -0.353  0.00  0.00    -0.334 OA
ATOM      6  O   UNL     1       6.816  -0.150   0.694  0.00  0.00    -0.291 OA
ATOM      7  C   UNL     1       3.652  -1.872  -0.117  0.00  0.00    +0.198 C 
ATOM      8  C   UNL     1       4.963  -1.590   0.575  0.00  0.00    +0.206 C 
ATOM      9  C   UNL     1       3.142  -0.810  -1.068  0.00  0.00    +0.215 C 
ATOM     10  C   UNL     1       4.956   0.653  -0.631  0.00  0.00    +0.179 C 
ATOM     11  C   UNL     1       3.997   1.635   0.082  0.00  0.00    +0.062 C 
ATOM     12  C   UNL     1       5.694  -0.348   0.245  0.00  0.00    +0.207 C 
ATOM     13  C   UNL     1       2.552   1.412  -0.421  0.00  0.00    +0.124 C 
ATOM     14  C   UNL     1       2.392  -1.422  -2.250  0.00  0.00    +0.064 C 
ATOM     15  C   UNL     1       4.129   1.616   1.609  0.00  0.00    +0.005 C 
BRANCH   7  16
ATOM     16  C   UNL     1       2.675  -2.798   0.539  0.00  0.00    +0.172 C 
BRANCH  16  17
ATOM     17  O   UNL     1       1.972  -2.095   1.551  0.00  0.00    -0.379 OA
ATOM     18  H   UNL     1       1.338  -2.692   1.978  0.00  0.00    +0.211 HD
ENDBRANCH  16  17
ENDBRANCH   7  16
ENDBRANCH   1  13
BRANCH   1  19
ATOM     19  C   UNL     1       0.116   1.866  -0.210  0.00  0.00    -0.028 C 
ATOM     20  C   UNL     1      -0.940   1.311   0.424  0.00  0.00    -0.026 C 
ATOM     21  C   UNL     1      -0.937   0.905   1.875  0.00  0.00    +0.031 C 
BRANCH  20  22
ATOM     22  C   UNL     1      -2.173   1.087  -0.339  0.00  0.00    -0.001 C 
ATOM     23  C   UNL     1      -3.316   0.549   0.122  0.00  0.00    +0.037 C 
BRANCH  23  27
ATOM     24  O   UNL     1      -4.940  -0.597   2.129  0.00  0.00    -0.289 OA
ATOM     25  O   UNL     1      -7.118  -0.203  -2.030  0.00  0.00    -0.270 OA
ATOM     26  N   UNL     1      -7.727  -1.018   0.095  0.00  0.00    -0.294 N 
ATOM     27  C   UNL     1      -4.522   0.339  -0.659  0.00  0.00    +0.141 C 
ATOM     28  C   UNL     1      -5.631  -0.204  -0.137  0.00  0.00    +0.123 C 
ATOM     29  C   UNL     1      -5.793  -0.657   1.261  0.00  0.00    +0.200 C 
ATOM     30  C   UNL     1      -6.889  -0.450  -0.861  0.00  0.00    +0.252 C 
ATOM     31  C   UNL     1      -7.185  -1.202   1.435  0.00  0.00    +0.160 C 
ATOM     32  H   UNL     1      -8.649  -1.285  -0.126  0.00  0.00    +0.150 HD
BRANCH  27  33
ATOM     33  O   UNL     1      -4.461   0.734  -1.982  0.00  0.00    -0.505 OA
ATOM     34  H   UNL     1      -3.674   1.111  -2.322  0.00  0.00    +0.292 HD
ENDBRANCH  27  33
ENDBRANCH  23  27
ENDBRANCH  20  22
ENDBRANCH   1  19
TORSDOF 7
