REMARK  Name = 12967404
REMARK  4 active torsions:
REMARK  status: ('A' for Active; 'I' for Inactive)
REMARK    1  A    between atoms: C_9  and  C_25
REMARK    2  A    between atoms: C_15  and  O_35
REMARK    3  A    between atoms: C_23  and  N_29
REMARK    4  A    between atoms: C_26  and  O_33
REMARK                            x       y       z     vdW  Elec       q    Type
REMARK                         _______ _______ _______ _____ _____    ______ ____
ROOT
ATOM      1  O   UNL     1       5.284  -1.497   0.225  0.00  0.00    -0.350 OA
ATOM      2  O   UNL     1       5.028   1.385   0.967  0.00  0.00    -0.445 OA
ATOM      3  O   UNL     1       2.544   2.601  -0.384  0.00  0.00    -0.287 OA
ATOM      4  O   UNL     1       1.252  -2.585  -0.310  0.00  0.00    -0.287 OA
ATOM      5  O   UNL     1       6.890   1.536   2.296  0.00  0.00    -0.250 OA
ATOM      6  C   UNL     1       4.723   0.801  -0.310  0.00  0.00    +0.221 C 
ATOM      7  C   UNL     1       5.728  -0.325  -0.462  0.00  0.00    +0.171 C 
ATOM      8  C   UNL     1       3.291   0.352  -0.331  0.00  0.00    +0.060 C 
ATOM      9  C   UNL     1      -1.847   0.219  -0.513  0.00  0.00    +0.038 C 
ATOM     10  C   UNL     1       2.972  -0.951  -0.333  0.00  0.00    +0.046 C 
ATOM     11  C   UNL     1       4.038  -2.021  -0.262  0.00  0.00    +0.141 C 
ATOM     12  C   UNL     1       6.942   0.217   0.264  0.00  0.00    +0.143 C 
ATOM     13  C   UNL     1       0.502  -0.364  -0.412  0.00  0.00    +0.075 C 
ATOM     14  C   UNL     1       0.837   0.989  -0.427  0.00  0.00    +0.045 C 
ATOM     15  C   UNL     1      -0.844  -0.750  -0.455  0.00  0.00    +0.135 C 
ATOM     16  C   UNL     1       2.248   1.411  -0.380  0.00  0.00    +0.195 C 
ATOM     17  C   UNL     1       1.551  -1.397  -0.349  0.00  0.00    +0.197 C 
ATOM     18  C   UNL     1      -1.512   1.571  -0.528  0.00  0.00    +0.001 C 
ATOM     19  C   UNL     1       6.322   1.103   1.306  0.00  0.00    +0.320 C 
ATOM     20  C   UNL     1      -0.172   1.958  -0.484  0.00  0.00    +0.003 C 
ATOM     21  C   UNL     1       4.247  -2.737  -1.597  0.00  0.00    +0.037 C 
ENDROOT
BRANCH   9  25
ATOM     22  O   UNL     1      -4.022   0.793  -1.337  0.00  0.00    -0.352 OA
ATOM     23  C   UNL     1      -5.399  -0.617   0.765  0.00  0.00    -0.026 C 
ATOM     24  C   UNL     1      -3.909  -0.270   0.846  0.00  0.00    +0.016 C 
ATOM     25  C   UNL     1      -3.307  -0.175  -0.561  0.00  0.00    +0.138 C 
ATOM     26  C   UNL     1      -6.123   0.356  -0.177  0.00  0.00    +0.119 C 
ATOM     27  C   UNL     1      -5.395   0.442  -1.526  0.00  0.00    +0.140 C 
ATOM     28  C   UNL     1      -6.014   1.500  -2.435  0.00  0.00    +0.035 C 
BRANCH  23  29
ATOM     29  N   UNL     1      -5.983  -0.576   2.107  0.00  0.00    +0.387 N 
ATOM     30  C   UNL     1      -5.836   0.758   2.686  0.00  0.00    -0.101 C 
ATOM     31  C   UNL     1      -5.356  -1.579   2.966  0.00  0.00    -0.101 C 
ATOM     32  H   UNL     1      -6.978  -0.789   2.034  0.00  0.00    -0.080 HD
ENDBRANCH  23  29
BRANCH  26  33
ATOM     33  O   UNL     1      -7.456  -0.090  -0.409  0.00  0.00    -0.384 OA
ATOM     34  H   UNL     1      -7.929  -0.149   0.436  0.00  0.00    +0.210 HD
ENDBRANCH  26  33
ENDBRANCH   9  25
BRANCH  15  35
ATOM     35  O   UNL     1      -1.224  -2.061  -0.445  0.00  0.00    -0.506 OA
ATOM     36  H   UNL     1      -2.133  -2.286  -0.474  0.00  0.00    +0.292 HD
ENDBRANCH  15  35
TORSDOF 4
