129651143
  -OEChem-03292013293D

 53 52  0     1  0  0  0  0  0999 V2000
    2.4071   -0.8691    0.1811 O   0  0  0  0  0  0  0  0  0  0  0  0
   -1.1979    1.2557    0.1534 O   0  0  0  0  0  0  0  0  0  0  0  0
   -1.9135   -1.0285    0.0013 O   0  0  0  0  0  0  0  0  0  0  0  0
   -1.8189    0.2905   -1.9825 O   0  0  0  0  0  0  0  0  0  0  0  0
   -0.2747   -1.5375   -3.0507 O   0  0  0  0  0  0  0  0  0  0  0  0
    2.2053    0.1420   -2.3511 O   0  0  0  0  0  0  0  0  0  0  0  0
    2.9703    0.1597    2.1617 O   0  0  0  0  0  0  0  0  0  0  0  0
   -3.9461    0.0456    0.1102 O   0  0  0  0  0  0  0  0  0  0  0  0
   -0.6720    2.7799   -1.4937 O   0  0  0  0  0  0  0  0  0  0  0  0
    0.2609   -0.4025   -0.9221 C   0  0  0  0  0  0  0  0  0  0  0  0
    1.0197   -0.6258    0.4445 C   0  0  1  0  0  0  0  0  0  0  0  0
   -1.2474    0.0640   -0.6911 C   0  0  0  0  0  0  0  0  0  0  0  0
    1.0477    0.6848   -1.7307 C   0  0  0  0  0  0  0  0  0  0  0  0
    0.3127   -1.7139   -1.7674 C   0  0  0  0  0  0  0  0  0  0  0  0
    0.5167   -1.7648    1.3280 C   0  0  0  0  0  0  0  0  0  0  0  0
    3.2737   -0.4204    1.1287 C   0  0  0  0  0  0  0  0  0  0  0  0
   -0.9161    2.4902   -0.3307 C   0  0  0  0  0  0  0  0  0  0  0  0
   -3.2244   -0.9143    0.3345 C   0  0  0  0  0  0  0  0  0  0  0  0
    4.6692   -0.7427    0.7197 C   0  0  0  0  0  0  0  0  0  0  0  0
   -3.6687   -2.1590    1.0213 C   0  0  0  0  0  0  0  0  0  0  0  0
   -0.9149    3.5081    0.7599 C   0  0  0  0  0  0  0  0  0  0  0  0
    4.9330   -1.4582   -0.5696 C   0  0  0  0  0  0  0  0  0  0  0  0
   -0.6094    4.9177    0.3480 C   0  0  0  0  0  0  0  0  0  0  0  0
   -3.0336   -3.4744    0.6893 C   0  0  0  0  0  0  0  0  0  0  0  0
    5.6554   -0.3671    1.5473 C   0  0  0  0  0  0  0  0  0  0  0  0
   -4.6509   -2.0446    1.9269 C   0  0  0  0  0  0  0  0  0  0  0  0
   -1.1833    3.1846    2.0337 C   0  0  0  0  0  0  0  0  0  0  0  0
    0.9266    0.3058    1.0171 H   0  0  0  0  0  0  0  0  0  0  0  0
   -0.2497   -2.5130   -1.2746 H   0  0  0  0  0  0  0  0  0  0  0  0
    1.3356   -2.0809   -1.9032 H   0  0  0  0  0  0  0  0  0  0  0  0
    1.3839    1.5026   -1.0874 H   0  0  0  0  0  0  0  0  0  0  0  0
    0.4478    1.0728   -2.5569 H   0  0  0  0  0  0  0  0  0  0  0  0
    0.4869   -2.7180    0.7934 H   0  0  0  0  0  0  0  0  0  0  0  0
   -0.4640   -1.5555    1.7577 H   0  0  0  0  0  0  0  0  0  0  0  0
    1.1951   -1.9256    2.1740 H   0  0  0  0  0  0  0  0  0  0  0  0
   -2.7206    0.6210   -1.8337 H   0  0  0  0  0  0  0  0  0  0  0  0
    2.6456    0.8683   -2.8245 H   0  0  0  0  0  0  0  0  0  0  0  0
   -0.2166   -2.3916   -3.5118 H   0  0  0  0  0  0  0  0  0  0  0  0
    4.4059   -2.4176   -0.5946 H   0  0  0  0  0  0  0  0  0  0  0  0
    4.6047   -0.8529   -1.4198 H   0  0  0  0  0  0  0  0  0  0  0  0
    5.9991   -1.6679   -0.7088 H   0  0  0  0  0  0  0  0  0  0  0  0
   -1.3419    5.2692   -0.3861 H   0  0  0  0  0  0  0  0  0  0  0  0
   -3.5761   -4.3144    1.1361 H   0  0  0  0  0  0  0  0  0  0  0  0
   -2.0038   -3.5112    1.0562 H   0  0  0  0  0  0  0  0  0  0  0  0
   -0.6335    5.6092    1.1970 H   0  0  0  0  0  0  0  0  0  0  0  0
    0.3886    4.9770   -0.0990 H   0  0  0  0  0  0  0  0  0  0  0  0
   -3.0233   -3.6296   -0.3946 H   0  0  0  0  0  0  0  0  0  0  0  0
    6.6935   -0.5729    1.3051 H   0  0  0  0  0  0  0  0  0  0  0  0
    5.4701    0.1513    2.4820 H   0  0  0  0  0  0  0  0  0  0  0  0
   -5.0223   -2.9134    2.4611 H   0  0  0  0  0  0  0  0  0  0  0  0
   -1.1812    3.9440    2.8099 H   0  0  0  0  0  0  0  0  0  0  0  0
   -5.1082   -1.0902    2.1672 H   0  0  0  0  0  0  0  0  0  0  0  0
   -1.4112    2.1745    2.3551 H   0  0  0  0  0  0  0  0  0  0  0  0
  1 11  1  0  0  0  0
  1 16  1  0  0  0  0
  2 12  1  0  0  0  0
  2 17  1  0  0  0  0
  3 12  1  0  0  0  0
  3 18  1  0  0  0  0
  4 12  1  0  0  0  0
  4 36  1  0  0  0  0
  5 14  1  0  0  0  0
  5 38  1  0  0  0  0
  6 13  1  0  0  0  0
  6 37  1  0  0  0  0
  7 16  2  0  0  0  0
  8 18  2  0  0  0  0
  9 17  2  0  0  0  0
 10 11  1  0  0  0  0
 10 12  1  0  0  0  0
 10 13  1  0  0  0  0
 10 14  1  0  0  0  0
 11 15  1  0  0  0  0
 11 28  1  0  0  0  0
 13 31  1  0  0  0  0
 13 32  1  0  0  0  0
 14 29  1  0  0  0  0
 14 30  1  0  0  0  0
 15 33  1  0  0  0  0
 15 34  1  0  0  0  0
 15 35  1  0  0  0  0
 16 19  1  0  0  0  0
 17 21  1  0  0  0  0
 18 20  1  0  0  0  0
 19 22  1  0  0  0  0
 19 25  2  0  0  0  0
 20 24  1  0  0  0  0
 20 26  2  0  0  0  0
 21 23  1  0  0  0  0
 21 27  2  0  0  0  0
 22 39  1  0  0  0  0
 22 40  1  0  0  0  0
 22 41  1  0  0  0  0
 23 42  1  0  0  0  0
 23 45  1  0  0  0  0
 23 46  1  0  0  0  0
 24 43  1  0  0  0  0
 24 44  1  0  0  0  0
 24 47  1  0  0  0  0
 25 48  1  0  0  0  0
 25 49  1  0  0  0  0
 26 50  1  0  0  0  0
 26 52  1  0  0  0  0
 27 51  1  0  0  0  0
 27 53  1  0  0  0  0
M  END
> <PUBCHEM_COMPOUND_CID>
129651143

> <PUBCHEM_CONFORMER_RMSD>
1

> <PUBCHEM_CONFORMER_DIVERSEORDER>
3
60
81
5
59
64
68
70
54
58
73
82
4
74
61
34
44
40
62
51
84
24
12
78
14
52
76
80
55
45
69
67
25
49
48
75
16
56
38
35
21
7
1
19
63
85
6
28
86
26
9
17
47
11
65
79
41
57
36
71
10
39
53
33
29
20
42
30
27
15
72
22
66
50
43
37
32
83
2
23
77
8
13
18
31
46

> <PUBCHEM_MMFF94_PARTIAL_CHARGES>
34
1 -0.43
11 0.28
12 0.84
13 0.28
14 0.28
16 0.71
17 0.71
18 0.71
19 -0.12
2 -0.43
20 -0.12
21 -0.12
22 0.14
23 0.14
24 0.14
25 -0.3
26 -0.3
27 -0.3
3 -0.43
36 0.4
37 0.4
38 0.4
4 -0.68
48 0.15
49 0.15
5 -0.68
50 0.15
51 0.15
52 0.15
53 0.15
6 -0.68
7 -0.57
8 -0.57
9 -0.57

> <PUBCHEM_EFFECTIVE_ROTOR_COUNT>
13

> <PUBCHEM_PHARMACOPHORE_FEATURES>
9
1 4 acceptor
1 4 donor
1 5 acceptor
1 5 donor
1 6 acceptor
1 6 donor
1 7 acceptor
1 8 acceptor
1 9 acceptor

> <PUBCHEM_HEAVY_ATOM_COUNT>
27

> <PUBCHEM_ATOM_DEF_STEREO_COUNT>
0

> <PUBCHEM_ATOM_UDEF_STEREO_COUNT>
1

> <PUBCHEM_BOND_DEF_STEREO_COUNT>
0

> <PUBCHEM_BOND_UDEF_STEREO_COUNT>
0

> <PUBCHEM_ISOTOPIC_ATOM_COUNT>
0

> <PUBCHEM_COMPONENT_COUNT>
1

> <PUBCHEM_CACTVS_TAUTO_COUNT>
1

> <PUBCHEM_CONFORMER_ID>
07BA51C700000003

> <PUBCHEM_MMFF94_ENERGY>
74.8312

> <PUBCHEM_FEATURE_SELFOVERLAP>
45.702

> <PUBCHEM_SHAPE_FINGERPRINT>
11578080 2 16986337987765235105
12082328 90 18338518535785085014
12156800 1 17057004794083892232
12403814 3 17846202367806981182
12633257 1 18196109926545683699
12788726 201 18190201086184560718
12930653 34 18268709398905115730
133893 2 17693634319157703037
14178342 30 18118130177743149622
14713325 29 18199755730798154898
14787075 74 17825666918100007456
14955137 171 17698185154492561725
15238133 3 18335994090814011593
17980427 23 17845095254520075667
17980427 26 17546451536574051597
20600515 1 18334303033039988085
21452121 71 17168151177603307663
22956985 138 17685488054360306282
23419403 2 17392723232273809919
23557571 272 18340210682855658871
23558518 356 17908146473641305309
23559900 14 17533492598567667467
266924 78 10691552696631636942
392239 28 18334288812345125784
4058900 60 17117771245739982304
469060 322 17676768682792788680
497634 4 17894625908441431806
7288768 16 17483964774275555328
81228 2 18054530027446729025
9981440 41 17484494777713410098
9999458 23 15122136995681662799

> <PUBCHEM_SHAPE_MULTIPOLES>
502.82
8.06
4.45
2.32
7.43
6.31
-0.98
-7.17
4.99
-4.3
1.39
0.47
-0.31
0.74

> <PUBCHEM_SHAPE_SELFOVERLAP>
1006.667

> <PUBCHEM_SHAPE_VOLUME>
288.6

> <PUBCHEM_COORDINATE_TYPE>
2
5
10

$$$$
