129618
  -OEChem-03292013323D

 50 50  0     1  0  0  0  0  0999 V2000
   -5.7351   -1.0545   -0.1745 Cl  0  0  0  0  0  0  0  0  0  0  0  0
    1.0039    1.6403    0.2915 O   0  0  0  0  0  0  0  0  0  0  0  0
   -1.1932   -1.7521   -0.4196 O   0  0  0  0  0  0  0  0  0  0  0  0
    1.2766   -1.9405    1.0537 O   0  0  0  0  0  0  0  0  0  0  0  0
   -0.8102    3.0112   -0.2105 O   0  0  0  0  0  0  0  0  0  0  0  0
    3.3523    0.4448   -0.5454 O   0  0  0  0  0  0  0  0  0  0  0  0
   -3.2943   -0.2739   -1.8640 O   0  0  0  0  0  0  0  0  0  0  0  0
   -2.2413   -2.6417    1.4369 O   0  0  0  0  0  0  0  0  0  0  0  0
    2.2081   -2.8190   -0.8692 O   0  0  0  0  0  0  0  0  0  0  0  0
   -0.0397    4.2755    1.5629 O   0  0  0  0  0  0  0  0  0  0  0  0
    5.6018    0.4929   -0.0213 O   0  0  0  0  0  0  0  0  0  0  0  0
   -2.5859    0.7704    0.0843 N   0  0  0  0  0  0  0  0  0  0  0  0
   -0.6542   -0.6982    0.3810 C   0  0  2  0  0  0  0  0  0  0  0  0
   -1.1650    0.6390   -0.1639 C   0  0  2  0  0  0  0  0  0  0  0  0
    0.8735   -0.7762    0.3375 C   0  0  1  0  0  0  0  0  0  0  0  0
    1.4963    0.4768    0.9587 C   0  0  1  0  0  0  0  0  0  0  0  0
   -0.4025    1.8161    0.4542 C   0  0  1  0  0  0  0  0  0  0  0  0
    3.0160    0.4914    0.8294 C   0  0  0  0  0  0  0  0  0  0  0  0
   -3.5364    0.2952   -0.8010 C   0  0  0  0  0  0  0  0  0  0  0  0
   -1.9714   -2.6555    0.2435 C   0  0  0  0  0  0  0  0  0  0  0  0
    1.9383   -2.8859    0.3224 C   0  0  0  0  0  0  0  0  0  0  0  0
   -0.5662    4.1734    0.4630 C   0  0  0  0  0  0  0  0  0  0  0  0
   -4.9482    0.5244   -0.3253 C   0  0  0  0  0  0  0  0  0  0  0  0
   -2.4643   -3.6957   -0.7162 C   0  0  0  0  0  0  0  0  0  0  0  0
    2.2984   -4.0455    1.2006 C   0  0  0  0  0  0  0  0  0  0  0  0
    4.6909    0.4511   -0.8372 C   0  0  0  0  0  0  0  0  0  0  0  0
   -1.0433    5.3382   -0.3505 C   0  0  0  0  0  0  0  0  0  0  0  0
    4.8948    0.3982   -2.3210 C   0  0  0  0  0  0  0  0  0  0  0  0
   -0.9654   -0.7889    1.4306 H   0  0  0  0  0  0  0  0  0  0  0  0
   -1.0202    0.6535   -1.2529 H   0  0  0  0  0  0  0  0  0  0  0  0
    1.1534   -0.8254   -0.7231 H   0  0  0  0  0  0  0  0  0  0  0  0
    1.2520    0.5380    2.0274 H   0  0  0  0  0  0  0  0  0  0  0  0
   -0.6402    1.8893    1.5252 H   0  0  0  0  0  0  0  0  0  0  0  0
    3.4092    1.4221    1.2558 H   0  0  0  0  0  0  0  0  0  0  0  0
    3.4592   -0.3612    1.3561 H   0  0  0  0  0  0  0  0  0  0  0  0
   -2.8809    1.1706    0.9701 H   0  0  0  0  0  0  0  0  0  0  0  0
   -5.4863    1.1238   -1.0646 H   0  0  0  0  0  0  0  0  0  0  0  0
   -4.9906    1.0269    0.6441 H   0  0  0  0  0  0  0  0  0  0  0  0
   -1.6156   -4.2305   -1.1498 H   0  0  0  0  0  0  0  0  0  0  0  0
   -3.0927   -4.4136   -0.1813 H   0  0  0  0  0  0  0  0  0  0  0  0
   -3.0640   -3.2250   -1.4991 H   0  0  0  0  0  0  0  0  0  0  0  0
    1.3902   -4.4970    1.6079 H   0  0  0  0  0  0  0  0  0  0  0  0
    2.8271   -4.7984    0.6090 H   0  0  0  0  0  0  0  0  0  0  0  0
    2.9567   -3.7096    2.0057 H   0  0  0  0  0  0  0  0  0  0  0  0
   -0.5021    5.3737   -1.2993 H   0  0  0  0  0  0  0  0  0  0  0  0
   -0.8502    6.2657    0.1961 H   0  0  0  0  0  0  0  0  0  0  0  0
   -2.1191    5.2536   -0.5232 H   0  0  0  0  0  0  0  0  0  0  0  0
    4.4417    1.2761   -2.7881 H   0  0  0  0  0  0  0  0  0  0  0  0
    5.9663    0.3994   -2.5406 H   0  0  0  0  0  0  0  0  0  0  0  0
    4.4579   -0.5200   -2.7215 H   0  0  0  0  0  0  0  0  0  0  0  0
  1 23  1  0  0  0  0
  2 16  1  0  0  0  0
  2 17  1  0  0  0  0
  3 13  1  0  0  0  0
  3 20  1  0  0  0  0
  4 15  1  0  0  0  0
  4 21  1  0  0  0  0
  5 17  1  0  0  0  0
  5 22  1  0  0  0  0
  6 18  1  0  0  0  0
  6 26  1  0  0  0  0
  7 19  2  0  0  0  0
  8 20  2  0  0  0  0
  9 21  2  0  0  0  0
 10 22  2  0  0  0  0
 11 26  2  0  0  0  0
 12 14  1  0  0  0  0
 12 19  1  0  0  0  0
 12 36  1  0  0  0  0
 13 14  1  0  0  0  0
 13 15  1  0  0  0  0
 13 29  1  0  0  0  0
 14 17  1  0  0  0  0
 14 30  1  0  0  0  0
 15 16  1  0  0  0  0
 15 31  1  0  0  0  0
 16 18  1  0  0  0  0
 16 32  1  0  0  0  0
 17 33  1  0  0  0  0
 18 34  1  0  0  0  0
 18 35  1  0  0  0  0
 19 23  1  0  0  0  0
 20 24  1  0  0  0  0
 21 25  1  0  0  0  0
 22 27  1  0  0  0  0
 23 37  1  0  0  0  0
 23 38  1  0  0  0  0
 24 39  1  0  0  0  0
 24 40  1  0  0  0  0
 24 41  1  0  0  0  0
 25 42  1  0  0  0  0
 25 43  1  0  0  0  0
 25 44  1  0  0  0  0
 26 28  1  0  0  0  0
 27 45  1  0  0  0  0
 27 46  1  0  0  0  0
 27 47  1  0  0  0  0
 28 48  1  0  0  0  0
 28 49  1  0  0  0  0
 28 50  1  0  0  0  0
M  END
> <PUBCHEM_COMPOUND_CID>
129618

> <PUBCHEM_CONFORMER_RMSD>
1.2

> <PUBCHEM_CONFORMER_DIVERSEORDER>
1
12
5
9
11
14
8
13
3
7
10
4
2
6

> <PUBCHEM_MMFF94_PARTIAL_CHARGES>
29
1 -0.29
10 -0.57
11 -0.57
12 -0.73
13 0.28
14 0.3
15 0.28
16 0.28
17 0.56
18 0.28
19 0.57
2 -0.56
20 0.66
21 0.66
22 0.66
23 0.35
24 0.06
25 0.06
26 0.66
27 0.06
28 0.06
3 -0.43
36 0.37
4 -0.43
5 -0.43
6 -0.43
7 -0.57
8 -0.57
9 -0.57

> <PUBCHEM_EFFECTIVE_ROTOR_COUNT>
13.2

> <PUBCHEM_PHARMACOPHORE_FEATURES>
8
1 10 acceptor
1 11 acceptor
1 12 donor
1 2 acceptor
1 7 acceptor
1 8 acceptor
1 9 acceptor
6 2 13 14 15 16 17 rings

> <PUBCHEM_HEAVY_ATOM_COUNT>
28

> <PUBCHEM_ATOM_DEF_STEREO_COUNT>
5

> <PUBCHEM_ATOM_UDEF_STEREO_COUNT>
0

> <PUBCHEM_BOND_DEF_STEREO_COUNT>
0

> <PUBCHEM_BOND_UDEF_STEREO_COUNT>
0

> <PUBCHEM_ISOTOPIC_ATOM_COUNT>
0

> <PUBCHEM_COMPONENT_COUNT>
1

> <PUBCHEM_CACTVS_TAUTO_COUNT>
2

> <PUBCHEM_CONFORMER_ID>
0001FA5200000001

> <PUBCHEM_MMFF94_ENERGY>
47.7552

> <PUBCHEM_FEATURE_SELFOVERLAP>
40.601

> <PUBCHEM_SHAPE_FINGERPRINT>
1100329 8 18266740362674179585
12553582 1 18340188761479950841
12788726 201 18339073774810785441
13140716 1 18266726060185255344
13911987 19 18115891730977435340
14790565 3 18196659492995882049
14955137 171 18192451850847791937
20739085 24 18269009600466400609
21285901 2 17917721157971124188
22182313 1 18051121794276030536
2334 1 17977657933429783376
23558518 356 17975130937812781699
23559900 14 18124867117762608513
266924 87 18266170622182596333
2748010 2 18050271858813180496
283562 15 18411141307904566616
3380486 145 18336841873807488171
350125 39 17978510832351541264
59554788 170 18268990895435602127

> <PUBCHEM_SHAPE_MULTIPOLES>
514.42
8.86
6.03
1.34
1.04
4.64
-0.4
-2.16
-3.99
-1.36
1.57
0.93
-0.08
-0.65

> <PUBCHEM_SHAPE_SELFOVERLAP>
1027.451

> <PUBCHEM_SHAPE_VOLUME>
300

> <PUBCHEM_COORDINATE_TYPE>
2
5
10

$$$$
