REMARK  Name = 129670239
REMARK  4 active torsions:
REMARK  status: ('A' for Active; 'I' for Inactive)
REMARK    1  A    between atoms: C_12  and  C_24
REMARK    2  A    between atoms: C_13  and  O_28
REMARK    3  A    between atoms: C_16  and  O_30
REMARK    4  A    between atoms: C_18  and  O_32
REMARK                            x       y       z     vdW  Elec       q    Type
REMARK                         _______ _______ _______ _____ _____    ______ ____
ROOT
ATOM      1  O   UNL     1      -0.487   0.286  -1.724  0.00  0.00    -0.312 OA
ATOM      2  O   UNL     1       0.509   2.659   0.456  0.00  0.00    -0.448 OA
ATOM      3  O   UNL     1      -0.131  -2.041  -1.448  0.00  0.00    -0.423 OA
ATOM      4  O   UNL     1      -3.390  -0.215   1.704  0.00  0.00    -0.450 OA
ATOM      5  O   UNL     1      -0.534   3.134  -1.518  0.00  0.00    -0.247 OA
ATOM      6  O   UNL     1      -0.121  -3.828  -0.012  0.00  0.00    -0.247 OA
ATOM      7  O   UNL     1      -4.988  -1.333   0.504  0.00  0.00    -0.250 OA
ATOM      8  C   UNL     1       0.056   0.317   0.615  0.00  0.00    +0.086 C 
ATOM      9  C   UNL     1       1.119  -0.524  -0.131  0.00  0.00    +0.108 C 
ATOM     10  C   UNL     1      -0.783   0.942  -0.499  0.00  0.00    +0.214 C 
ATOM     11  C   UNL     1       0.781   1.503   1.261  0.00  0.00    +0.198 C 
ATOM     12  C   UNL     1       2.359   0.412  -0.169  0.00  0.00    +0.039 C 
ATOM     13  C   UNL     1      -2.261   0.844  -0.073  0.00  0.00    +0.167 C 
ATOM     14  C   UNL     1      -0.951  -0.345   1.558  0.00  0.00    +0.053 C 
ATOM     15  C   UNL     1       0.486  -0.744  -1.498  0.00  0.00    +0.294 C 
ATOM     16  C   UNL     1       2.261   1.142   1.172  0.00  0.00    +0.151 C 
ATOM     17  C   UNL     1      -2.201   0.518   1.410  0.00  0.00    +0.197 C 
ATOM     18  C   UNL     1       1.387  -1.950   0.328  0.00  0.00    +0.216 C 
ATOM     19  C   UNL     1      -0.278   2.357  -0.610  0.00  0.00    +0.344 C 
ATOM     20  C   UNL     1      -3.083  -0.320  -0.633  0.00  0.00    +0.130 C 
ATOM     21  C   UNL     1       0.302  -2.735  -0.354  0.00  0.00    +0.346 C 
ATOM     22  C   UNL     1      -3.955  -0.682   0.548  0.00  0.00    +0.319 C 
ATOM     23  C   UNL     1      -3.904  -0.002  -1.872  0.00  0.00    +0.014 C 
ENDROOT
BRANCH  12  24
ATOM     24  C   UNL     1       3.723  -0.238  -0.374  0.00  0.00    +0.003 C 
ATOM     25  C   UNL     1       3.770  -0.930  -1.748  0.00  0.00    +0.000 C 
ATOM     26  C   UNL     1       4.827   0.832  -0.311  0.00  0.00    +0.000 C 
ATOM     27  C   UNL     1       3.973  -1.286   0.725  0.00  0.00    +0.000 C 
ENDBRANCH  12  24
BRANCH  13  28
ATOM     28  O   UNL     1      -2.963   2.071  -0.238  0.00  0.00    -0.380 OA
ATOM     29  H   UNL     1      -2.430   2.799   0.120  0.00  0.00    +0.211 HD
ENDBRANCH  13  28
BRANCH  16  30
ATOM     30  O   UNL     1       3.096   2.283   1.215  0.00  0.00    -0.381 OA
ATOM     31  H   UNL     1       3.006   2.718   2.077  0.00  0.00    +0.210 HD
ENDBRANCH  16  30
BRANCH  18  32
ATOM     32  O   UNL     1       1.383  -2.128   1.719  0.00  0.00    -0.374 OA
ATOM     33  H   UNL     1       2.097  -1.604   2.114  0.00  0.00    +0.211 HD
ENDBRANCH  18  32
TORSDOF 4
