REMARK  Name = 129630696
REMARK  0 active torsions:
REMARK  status: ('A' for Active; 'I' for Inactive)
REMARK                            x       y       z     vdW  Elec       q    Type
REMARK                         _______ _______ _______ _____ _____    ______ ____
ROOT
ATOM      1  P   UNL     1      -2.798   0.019   0.320  0.00  0.00    +0.480 P 
ATOM      2  P   UNL     1       2.692   0.126   0.223  0.00  0.00    +0.532 P 
ATOM      3  O   UNL     1      -2.409   0.795  -1.054  0.00  0.00    -0.270 OA
ATOM      4  O   UNL     1      -2.129  -1.388  -0.176  0.00  0.00    -0.270 OA
ATOM      5  O   UNL     1      -1.676   0.637   1.368  0.00  0.00    -0.270 OA
ATOM      6  O   UNL     1       1.713  -0.310   1.450  0.00  0.00    -0.267 OA
ATOM      7  O   UNL     1       0.956   1.550  -1.101  0.00  0.00    -0.209 OA
ATOM      8  O   UNL     1       1.308  -1.950  -0.528  0.00  0.00    -0.209 OA
ATOM      9  O   UNL     1       2.078   1.591  -0.160  0.00  0.00    -0.124 OA
ATOM     10  O   UNL     1       2.219  -0.870  -0.980  0.00  0.00    -0.124 OA
ATOM     11  O   UNL     1      -4.233   0.006   0.737  0.00  0.00    -0.227 OA
ATOM     12  O   UNL     1       4.156   0.108   0.546  0.00  0.00    -0.222 OA
ATOM     13  C   UNL     1      -1.037   0.398  -1.222  0.00  0.00    +0.189 C 
ATOM     14  C   UNL     1      -0.887  -1.004  -0.869  0.00  0.00    +0.189 C 
ATOM     15  C   UNL     1      -0.298   0.792   0.884  0.00  0.00    +0.189 C 
ATOM     16  C   UNL     1       0.397  -0.406   1.027  0.00  0.00    +0.189 C 
ATOM     17  C   UNL     1      -0.239   1.226  -0.444  0.00  0.00    +0.213 C 
ATOM     18  C   UNL     1       0.186  -1.318  -0.021  0.00  0.00    +0.213 C 
ENDROOT
TORSDOF 0
