REMARK  Name = 129651688
REMARK  5 active torsions:
REMARK  status: ('A' for Active; 'I' for Inactive)
REMARK    1  A    between atoms: N_3  and  C1*_10
REMARK    2  A    between atoms: C_5  and  O_19
REMARK    3  A    between atoms: C3*_12  and  O3*_14
REMARK    4  A    between atoms: C4*_13  and  C5*_16
REMARK    5  A    between atoms: C5*_16  and  O5*_17
REMARK                            x       y       z     vdW  Elec       q    Type
REMARK                         _______ _______ _______ _____ _____    ______ ____
ROOT
ATOM      1  O   UNL     1      -1.902  -2.414   0.171  0.00  0.00    -0.265 OA
ATOM      2  O   UNL     1      -4.070  -0.817  -0.645  0.00  0.00    -0.265 OA
ATOM      3  N   UNL     1      -0.734  -0.351   0.199  0.00  0.00    -0.211 N 
ATOM      4  N   UNL     1      -2.500   0.936  -0.477  0.00  0.00    -0.259 N 
ATOM      5  C   UNL     1      -1.121   1.016  -0.082  0.00  0.00    +0.283 C 
ATOM      6  C   UNL     1      -1.805  -1.213   0.033  0.00  0.00    +0.307 C 
ATOM      7  C   UNL     1      -2.973  -0.356  -0.411  0.00  0.00    +0.303 C 
ATOM      8  H   UNL     1      -3.040   1.709  -0.760  0.00  0.00    +0.154 HD
ENDROOT
BRANCH   3  10
ATOM      9  O4* UNL     1       1.420   0.400   0.717  0.00  0.00    -0.335 OA
ATOM     10  C1* UNL     1       0.582  -0.758   0.596  0.00  0.00    +0.200 C 
ATOM     11  C2* UNL     1       1.239  -1.691  -0.408  0.00  0.00    +0.083 C 
ATOM     12  C3* UNL     1       2.700  -1.326  -0.285  0.00  0.00    +0.144 C 
ATOM     13  C4* UNL     1       2.659   0.165   0.020  0.00  0.00    +0.173 C 
BRANCH  12  14
ATOM     14  O3* UNL     1       3.281  -2.030   0.811  0.00  0.00    -0.382 OA
ATOM     15  H3* UNL     1       3.304  -2.979   0.610  0.00  0.00    +0.210 HD
ENDBRANCH  12  14
BRANCH  13  16
ATOM     16  C5* UNL     1       2.661   1.027  -1.235  0.00  0.00    +0.169 C 
BRANCH  16  17
ATOM     17  O5* UNL     1       2.610   2.392  -0.853  0.00  0.00    -0.379 OA
ATOM     18  H5* UNL     1       2.611   2.950  -1.647  0.00  0.00    +0.211 HD
ENDBRANCH  16  17
ENDBRANCH  13  16
ENDBRANCH   3  10
BRANCH   5  19
ATOM     19  O   UNL     1      -1.018   1.816   1.081  0.00  0.00    -0.319 OA
ATOM     20  C   UNL     1      -1.029   3.205   0.769  0.00  0.00    +0.178 C 
ENDBRANCH   5  19
TORSDOF 5
