12967404
  -OEChem-03292013303D

 60 64  0     1  0  0  0  0  0999 V2000
   -4.0217    0.7933   -1.3370 O   0  0  0  0  0  0  0  0  0  0  0  0
    5.2836   -1.4969    0.2253 O   0  0  0  0  0  0  0  0  0  0  0  0
    5.0279    1.3851    0.9672 O   0  0  0  0  0  0  0  0  0  0  0  0
   -7.4563   -0.0899   -0.4092 O   0  0  0  0  0  0  0  0  0  0  0  0
   -1.2238   -2.0608   -0.4446 O   0  0  0  0  0  0  0  0  0  0  0  0
    2.5442    2.6010   -0.3844 O   0  0  0  0  0  0  0  0  0  0  0  0
    1.2521   -2.5850   -0.3101 O   0  0  0  0  0  0  0  0  0  0  0  0
    6.8903    1.5363    2.2961 O   0  0  0  0  0  0  0  0  0  0  0  0
   -5.9827   -0.5761    2.1066 N   0  0  0  0  0  0  0  0  0  0  0  0
   -5.3987   -0.6172    0.7649 C   0  0  2  0  0  0  0  0  0  0  0  0
   -3.9092   -0.2695    0.8457 C   0  0  0  0  0  0  0  0  0  0  0  0
   -3.3072   -0.1747   -0.5608 C   0  0  2  0  0  0  0  0  0  0  0  0
   -6.1235    0.3564   -0.1768 C   0  0  1  0  0  0  0  0  0  0  0  0
   -5.3948    0.4422   -1.5262 C   0  0  1  0  0  0  0  0  0  0  0  0
    4.7235    0.8012   -0.3105 C   0  0  1  0  0  0  0  0  0  0  0  0
    5.7284   -0.3251   -0.4615 C   0  0  1  0  0  0  0  0  0  0  0  0
    3.2907    0.3523   -0.3308 C   0  0  0  0  0  0  0  0  0  0  0  0
   -1.8470    0.2186   -0.5129 C   0  0  0  0  0  0  0  0  0  0  0  0
    2.9718   -0.9510   -0.3326 C   0  0  0  0  0  0  0  0  0  0  0  0
    4.0385   -2.0208   -0.2623 C   0  0  1  0  0  0  0  0  0  0  0  0
    6.9420    0.2174    0.2635 C   0  0  0  0  0  0  0  0  0  0  0  0
    0.5016   -0.3639   -0.4121 C   0  0  0  0  0  0  0  0  0  0  0  0
    0.8369    0.9890   -0.4268 C   0  0  0  0  0  0  0  0  0  0  0  0
   -0.8442   -0.7496   -0.4550 C   0  0  0  0  0  0  0  0  0  0  0  0
    2.2477    1.4114   -0.3803 C   0  0  0  0  0  0  0  0  0  0  0  0
    1.5514   -1.3970   -0.3495 C   0  0  0  0  0  0  0  0  0  0  0  0
   -6.0144    1.4997   -2.4352 C   0  0  0  0  0  0  0  0  0  0  0  0
   -1.5115    1.5706   -0.5276 C   0  0  0  0  0  0  0  0  0  0  0  0
    6.3223    1.1032    1.3055 C   0  0  0  0  0  0  0  0  0  0  0  0
   -0.1721    1.9584   -0.4845 C   0  0  0  0  0  0  0  0  0  0  0  0
    4.2467   -2.7375   -1.5965 C   0  0  0  0  0  0  0  0  0  0  0  0
   -5.8362    0.7583    2.6861 C   0  0  0  0  0  0  0  0  0  0  0  0
   -5.3564   -1.5793    2.9665 C   0  0  0  0  0  0  0  0  0  0  0  0
   -5.5186   -1.6322    0.3613 H   0  0  0  0  0  0  0  0  0  0  0  0
   -3.3463   -1.0128    1.4194 H   0  0  0  0  0  0  0  0  0  0  0  0
   -3.7383    0.7047    1.3137 H   0  0  0  0  0  0  0  0  0  0  0  0
   -3.4150   -1.1277   -1.0935 H   0  0  0  0  0  0  0  0  0  0  0  0
   -6.1696    1.3742    0.2158 H   0  0  0  0  0  0  0  0  0  0  0  0
   -5.4494   -0.5192   -2.0542 H   0  0  0  0  0  0  0  0  0  0  0  0
    4.8985    1.5683   -1.0755 H   0  0  0  0  0  0  0  0  0  0  0  0
    5.9573   -0.5734   -1.5024 H   0  0  0  0  0  0  0  0  0  0  0  0
    3.7413   -2.7690    0.4820 H   0  0  0  0  0  0  0  0  0  0  0  0
    7.5606    0.8387   -0.3907 H   0  0  0  0  0  0  0  0  0  0  0  0
    7.5325   -0.5695    0.7396 H   0  0  0  0  0  0  0  0  0  0  0  0
   -5.4616    1.5589   -3.3793 H   0  0  0  0  0  0  0  0  0  0  0  0
   -7.0612    1.2769   -2.6615 H   0  0  0  0  0  0  0  0  0  0  0  0
   -5.9566    2.4932   -1.9770 H   0  0  0  0  0  0  0  0  0  0  0  0
   -2.2724    2.3457   -0.5576 H   0  0  0  0  0  0  0  0  0  0  0  0
    0.0639    3.0192   -0.4935 H   0  0  0  0  0  0  0  0  0  0  0  0
   -7.4120   -0.9787   -0.8009 H   0  0  0  0  0  0  0  0  0  0  0  0
    3.3599   -3.3100   -1.8863 H   0  0  0  0  0  0  0  0  0  0  0  0
    4.4669   -2.0341   -2.4067 H   0  0  0  0  0  0  0  0  0  0  0  0
    5.0967   -3.4254   -1.5313 H   0  0  0  0  0  0  0  0  0  0  0  0
   -6.3545    0.7569    3.6552 H   0  0  0  0  0  0  0  0  0  0  0  0
   -4.8117    1.0616    2.9193 H   0  0  0  0  0  0  0  0  0  0  0  0
   -6.3406    1.5534    2.1345 H   0  0  0  0  0  0  0  0  0  0  0  0
   -4.3328   -1.3342    3.2687 H   0  0  0  0  0  0  0  0  0  0  0  0
   -5.9426   -1.6812    3.8875 H   0  0  0  0  0  0  0  0  0  0  0  0
   -5.3597   -2.5684    2.4944 H   0  0  0  0  0  0  0  0  0  0  0  0
   -2.0839   -2.1646   -0.0084 H   0  0  0  0  0  0  0  0  0  0  0  0
  1 12  1  0  0  0  0
  1 14  1  0  0  0  0
  2 16  1  0  0  0  0
  2 20  1  0  0  0  0
  3 15  1  0  0  0  0
  3 29  1  0  0  0  0
  4 13  1  0  0  0  0
  4 50  1  0  0  0  0
  5 24  1  0  0  0  0
  5 60  1  0  0  0  0
  6 25  2  0  0  0  0
  7 26  2  0  0  0  0
  8 29  2  0  0  0  0
  9 10  1  0  0  0  0
  9 32  1  0  0  0  0
  9 33  1  0  0  0  0
 10 11  1  0  0  0  0
 10 13  1  0  0  0  0
 10 34  1  0  0  0  0
 11 12  1  0  0  0  0
 11 35  1  0  0  0  0
 11 36  1  0  0  0  0
 12 18  1  0  0  0  0
 12 37  1  0  0  0  0
 13 14  1  0  0  0  0
 13 38  1  0  0  0  0
 14 27  1  0  0  0  0
 14 39  1  0  0  0  0
 15 16  1  0  0  0  0
 15 17  1  0  0  0  0
 15 40  1  0  0  0  0
 16 21  1  0  0  0  0
 16 41  1  0  0  0  0
 17 19  2  0  0  0  0
 17 25  1  0  0  0  0
 18 24  2  0  0  0  0
 18 28  1  0  0  0  0
 19 20  1  0  0  0  0
 19 26  1  0  0  0  0
 20 31  1  0  0  0  0
 20 42  1  0  0  0  0
 21 29  1  0  0  0  0
 21 43  1  0  0  0  0
 21 44  1  0  0  0  0
 22 23  2  0  0  0  0
 22 24  1  0  0  0  0
 22 26  1  0  0  0  0
 23 25  1  0  0  0  0
 23 30  1  0  0  0  0
 27 45  1  0  0  0  0
 27 46  1  0  0  0  0
 27 47  1  0  0  0  0
 28 30  2  0  0  0  0
 28 48  1  0  0  0  0
 30 49  1  0  0  0  0
 31 51  1  0  0  0  0
 31 52  1  0  0  0  0
 31 53  1  0  0  0  0
 32 54  1  0  0  0  0
 32 55  1  0  0  0  0
 32 56  1  0  0  0  0
 33 57  1  0  0  0  0
 33 58  1  0  0  0  0
 33 59  1  0  0  0  0
M  END
> <PUBCHEM_COMPOUND_CID>
12967404

> <PUBCHEM_CONFORMER_RMSD>
0.8

> <PUBCHEM_CONFORMER_DIVERSEORDER>
1
8
5
2
3
7
6
4

> <PUBCHEM_MMFF94_PARTIAL_CHARGES>
34
1 -0.56
10 0.27
12 0.42
13 0.28
14 0.28
15 0.42
16 0.28
17 -0.12
18 -0.14
19 -0.12
2 -0.56
20 0.42
21 0.06
22 0.09
23 0.09
24 0.08
25 0.47
26 0.47
28 -0.15
29 0.66
3 -0.43
30 -0.15
32 0.27
33 0.27
4 -0.68
48 0.15
49 0.15
5 -0.53
50 0.4
6 -0.57
60 0.45
7 -0.57
8 -0.57
9 -0.81

> <PUBCHEM_EFFECTIVE_ROTOR_COUNT>
4

> <PUBCHEM_PHARMACOPHORE_FEATURES>
14
1 1 acceptor
1 2 acceptor
1 4 acceptor
1 4 donor
1 5 donor
1 6 acceptor
1 7 acceptor
1 8 acceptor
1 9 cation
5 3 15 16 21 29 rings
6 1 10 11 12 13 14 rings
6 17 19 22 23 25 26 rings
6 18 22 23 24 28 30 rings
6 2 15 16 17 19 20 rings

> <PUBCHEM_HEAVY_ATOM_COUNT>
33

> <PUBCHEM_ATOM_DEF_STEREO_COUNT>
7

> <PUBCHEM_ATOM_UDEF_STEREO_COUNT>
0

> <PUBCHEM_BOND_DEF_STEREO_COUNT>
0

> <PUBCHEM_BOND_UDEF_STEREO_COUNT>
0

> <PUBCHEM_ISOTOPIC_ATOM_COUNT>
0

> <PUBCHEM_COMPONENT_COUNT>
1

> <PUBCHEM_CACTVS_TAUTO_COUNT>
10

> <PUBCHEM_CONFORMER_ID>
00C5DDEC00000001

> <PUBCHEM_MMFF94_ENERGY>
93.6887

> <PUBCHEM_FEATURE_SELFOVERLAP>
71.297

> <PUBCHEM_SHAPE_FINGERPRINT>
10 15 18186797019939682784
10319926 262 17385718136488021121
10554248 39 15266504993716703509
10638233 991 16988838397449915025
10906281 52 18267875050542708086
11456790 92 17989484113933272306
11545043 162 17385729110366683101
11646440 116 18413672426652814048
11719270 70 18260259733787146666
11796584 16 17312819364156164193
12035758 1 18335137631063646224
12120059 9 17968364706802562715
12236239 1 17561083579919104303
12516196 113 18343297067871930365
12596602 18 17203614782727492683
12838862 33 18267561616662003060
13140716 1 18122057874291307316
13533116 47 17846498098212885014
13540713 4 18194393395552391628
13782708 43 17168432648479944507
14170010 4 18411415116237559676
14394314 77 17775013362454914129
14461889 52 18040433287260877482
14849402 71 17417525938105963120
14856354 85 15195275478738657637
15081414 286 18413113853186450468
15131766 46 14619359023598695504
15183329 4 18342462547020085165
1577012 14 17274827930729619579
16994733 274 15625935482976686786
17980427 23 16988567930965578665
19377110 9 17346600751039578193
21033648 29 18187641384666114581
21130935 74 18202004313212655479
21267235 1 18338521846740334942
21623969 137 18408047307452187271
21781051 124 18041293118924638522
21792934 111 18338503141656503272
21792961 116 18188214196154922750
22149856 69 18337972111910634137
22182313 1 18263635187413579972
2303208 19 18041009418584922407
23081809 10 16845289415013216207
23522609 53 16486988305258020650
23559900 14 17748545940120293277
23569914 152 16972499358762212335
23569943 247 17629496193500084198
24771293 8 18059850710385090472
25222932 49 17531524394874786674
3178227 256 18334864939026290272
335352 9 18411416229192947038
3633792 109 18200865194065888901
394071 54 18202848764434128952
397830 11 17823142396215947769
4073 2 17822013073546957877
4093350 32 16845581903061118318
4169191 19 18130502045703487016
4340502 62 18412539921270516158
465052 167 17676488367673323968
5104073 3 18266458715935609832
5758199 1 17917710236338482840
6086070 43 17059759032705585537

> <PUBCHEM_SHAPE_MULTIPOLES>
627.19
19.96
2.26
1.96
4.51
0.49
1.27
-1.18
6.66
-1.6
-0.38
2.91
0.12
3.95

> <PUBCHEM_SHAPE_SELFOVERLAP>
1382.543

> <PUBCHEM_SHAPE_VOLUME>
335.8

> <PUBCHEM_COORDINATE_TYPE>
2
5
10

$$$$
