REMARK  Name = 129692185
REMARK  10 active torsions:
REMARK  status: ('A' for Active; 'I' for Inactive)
REMARK    1  A    between atoms: C_1  and  O_2
REMARK    2  A    between atoms: C_1  and  C_5
REMARK    3  A    between atoms: C_1  and  C_10
REMARK    4  A    between atoms: C_1  and  C_14
REMARK    5  A    between atoms: C_5  and  C_7
REMARK    6  A    between atoms: C_10  and  C_12
REMARK    7  A    between atoms: C_14  and  O_15
REMARK    8  A    between atoms: C_14  and  C_17
REMARK    9  A    between atoms: C_17  and  C_19
REMARK   10  A    between atoms: C_17  and  O_21
REMARK                            x       y       z     vdW  Elec       q    Type
REMARK                         _______ _______ _______ _____ _____    ______ ____
ROOT
ATOM      1  C   UNL     1      -0.394  -0.342  -0.222  0.00  0.00    +0.231 C 
ENDROOT
BRANCH   1   2
ATOM      2  O   UNL     1      -0.357  -1.182  -1.378  0.00  0.00    -0.371 OA
ATOM      3  H   UNL     1       0.328  -0.864  -1.987  0.00  0.00    +0.211 HD
ENDBRANCH   1   2
BRANCH   1   5
ATOM      4  O   UNL     1      -0.802   1.304  -1.980  0.00  0.00    -0.285 OA
ATOM      5  C   UNL     1      -0.739   1.032  -0.788  0.00  0.00    +0.241 C 
BRANCH   5   7
ATOM      6  O   UNL     1      -1.939   2.049   0.941  0.00  0.00    -0.288 OA
ATOM      7  C   UNL     1      -1.003   2.168   0.164  0.00  0.00    +0.211 C 
ATOM      8  C   UNL     1      -0.112   3.368   0.074  0.00  0.00    +0.081 C 
ENDBRANCH   5   7
ENDBRANCH   1   5
BRANCH   1  10
ATOM      9  O   UNL     1      -1.346  -1.207   1.853  0.00  0.00    -0.285 OA
ATOM     10  C   UNL     1      -1.495  -0.918   0.672  0.00  0.00    +0.241 C 
BRANCH  10  12
ATOM     11  O   UNL     1      -3.492  -0.205  -0.387  0.00  0.00    -0.288 OA
ATOM     12  C   UNL     1      -2.870  -1.148   0.078  0.00  0.00    +0.211 C 
ATOM     13  C   UNL     1      -3.367  -2.563   0.073  0.00  0.00    +0.081 C 
ENDBRANCH  10  12
ENDBRANCH   1  10
BRANCH   1  14
ATOM     14  C   UNL     1       1.000  -0.389   0.456  0.00  0.00    +0.183 C 
BRANCH  14  15
ATOM     15  O   UNL     1       0.994   0.484   1.584  0.00  0.00    -0.379 OA
ATOM     16  H   UNL     1       0.249   0.259   2.163  0.00  0.00    +0.211 HD
ENDBRANCH  14  15
BRANCH  14  17
ATOM     17  C   UNL     1       2.186  -0.023  -0.458  0.00  0.00    +0.198 C 
BRANCH  17  19
ATOM     18  O   UNL     1       3.904  -1.675  -0.076  0.00  0.00    -0.293 OA
ATOM     19  C   UNL     1       3.499  -0.530   0.126  0.00  0.00    +0.180 C 
ATOM     20  C   UNL     1       4.275   0.428   0.993  0.00  0.00    +0.075 C 
ENDBRANCH  17  19
BRANCH  17  21
ATOM     21  O   UNL     1       2.057  -0.652  -1.724  0.00  0.00    -0.375 OA
ATOM     22  H   UNL     1       1.232  -0.364  -2.146  0.00  0.00    +0.211 HD
ENDBRANCH  17  21
ENDBRANCH  14  17
ENDBRANCH   1  14
TORSDOF 10
