REMARK  Name = 129684507
REMARK  12 active torsions:
REMARK  status: ('A' for Active; 'I' for Inactive)
REMARK    1  A    between atoms: N_2  and  CA_5
REMARK    2  A    between atoms: C_3  and  C_17
REMARK    3  A    between atoms: CA_5  and  C_7
REMARK    4  A    between atoms: CA_5  and  CB_10
REMARK    5  A    between atoms: C_7  and  O_8
REMARK    6  A    between atoms: CB_10  and  CG_11
REMARK    7  A    between atoms: C_17  and  O_18
REMARK    8  A    between atoms: C_17  and  C_20
REMARK    9  A    between atoms: C_20  and  C_21
REMARK   10  A    between atoms: C_21  and  C_22
REMARK   11  A    between atoms: C_22  and  N_23
REMARK   12  A    between atoms: N_23  and  C_26
REMARK                            x       y       z     vdW  Elec       q    Type
REMARK                         _______ _______ _______ _____ _____    ______ ____
ROOT
ATOM      1  O   UNL     1       0.787   0.323  -2.146  0.00  0.00    -0.272 OA
ATOM      2  N   UNL     1       0.748  -0.542   0.009  0.00  0.00    -0.295 N 
ATOM      3  C   ACE A   0       0.380   0.350  -0.987  0.00  0.00    +0.250 C 
ATOM      4  H   UNL     1       0.360  -0.430   0.907  0.00  0.00    +0.150 HD
ENDROOT
BRANCH   2   5
ATOM      5  CA  UNL     1       1.674  -1.628  -0.212  0.00  0.00    +0.176 C 
BRANCH   5   7
ATOM      6  OXT UNL     1       1.557  -4.044  -0.241  0.00  0.00    -0.248 OA
ATOM      7  C   UNL     1       0.993  -2.976  -0.027  0.00  0.00    +0.332 C 
BRANCH   7   8
ATOM      8  O   UNL     1      -0.292  -2.911   0.398  0.00  0.00    -0.479 OA
ATOM      9  H   UNL     1      -0.692  -2.078   0.552  0.00  0.00    +0.295 HD
ENDBRANCH   7   8
ENDBRANCH   5   7
BRANCH   5  10
ATOM     10  CB  UNL     1       2.885  -1.522   0.724  0.00  0.00    +0.057 C 
BRANCH  10  11
ATOM     11  CG  UNL     1       3.637  -0.222   0.567  0.00  0.00    -0.020 C 
ATOM     12  CD1 UNL     1       4.683  -0.127  -0.351  0.00  0.00    -0.004 C 
ATOM     13  CD2 UNL     1       3.286   0.884   1.341  0.00  0.00    -0.004 C 
ATOM     14  CE1 UNL     1       5.378   1.074  -0.496  0.00  0.00    -0.000 C 
ATOM     15  CE2 UNL     1       3.981   2.085   1.196  0.00  0.00    -0.000 C 
ATOM     16  CZ  UNL     1       5.027   2.180   0.278  0.00  0.00    -0.000 C 
ENDBRANCH  10  11
ENDBRANCH   5  10
ENDBRANCH   2   5
BRANCH   3  17
ATOM     17  C   UNL     1      -0.594   1.409  -0.487  0.00  0.00    +0.187 C 
BRANCH  17  18
ATOM     18  O   UNL     1      -0.865   2.311  -1.549  0.00  0.00    -0.376 OA
ATOM     19  H   UNL     1      -1.485   2.992  -1.245  0.00  0.00    +0.211 HD
ENDBRANCH  17  18
BRANCH  17  20
ATOM     20  C   UNL     1      -1.905   0.766  -0.025  0.00  0.00    +0.041 C 
BRANCH  20  21
ATOM     21  C   UNL     1      -2.900   1.806   0.507  0.00  0.00    +0.029 C 
BRANCH  21  22
ATOM     22  C   UNL     1      -4.200   1.172   0.993  0.00  0.00    +0.129 C 
BRANCH  22  23
ATOM     23  N   UNL     1      -4.864   0.487  -0.117  0.00  0.00    -0.240 NA
BRANCH  23  26
ATOM     24  N   UNL     1      -6.698  -0.727  -0.850  0.00  0.00    -0.370 N 
ATOM     25  N   UNL     1      -6.688  -0.085   1.337  0.00  0.00    -0.370 N 
ATOM     26  C   UNL     1      -6.010  -0.064   0.139  0.00  0.00    +0.189 C 
ATOM     27  H   UNL     1      -6.321  -0.785  -1.758  0.00  0.00    +0.159 HD
ATOM     28  H   UNL     1      -7.567  -1.143  -0.651  0.00  0.00    +0.159 HD
ATOM     29  H   UNL     1      -6.303   0.355   2.129  0.00  0.00    +0.159 HD
ATOM     30  H   UNL     1      -7.559  -0.541   1.401  0.00  0.00    +0.159 HD
ENDBRANCH  23  26
ENDBRANCH  22  23
ENDBRANCH  21  22
ENDBRANCH  20  21
ENDBRANCH  17  20
ENDBRANCH   3  17
TORSDOF 12
