REMARK  Name = 129676541
REMARK  8 active torsions:
REMARK  status: ('A' for Active; 'I' for Inactive)
REMARK    1  A    between atoms: N_1  and  O_3
REMARK    2  A    between atoms: C_2  and  C_5
REMARK    3  A    between atoms: C_2  and  C_14
REMARK    4  A    between atoms: C_5  and  C_7
REMARK    5  A    between atoms: C_6  and  C_12
REMARK    6  A    between atoms: C_7  and  N_11
REMARK    7  A    between atoms: C_14  and  N_16
REMARK    8  A    between atoms: C_17  and  C_20
REMARK                            x       y       z     vdW  Elec       q    Type
REMARK                         _______ _______ _______ _____ _____    ______ ____
ROOT
ATOM      1  N   UNL     1       0.842  -1.607  -1.186  0.00  0.00    -0.089 NA
ATOM      2  C   UNL     1       1.346  -0.809  -0.294  0.00  0.00    +0.114 C 
ENDROOT
BRANCH   1   3
ATOM      3  O   UNL     1       1.594  -1.590  -2.363  0.00  0.00    -0.409 OA
ATOM      4  H   UNL     1       1.338  -2.123  -3.090  0.00  0.00    +0.328 HD
ENDBRANCH   1   3
BRANCH   2   5
ATOM      5  C   UNL     1       2.575   0.042  -0.451  0.00  0.00    +0.019 C 
ATOM      6  C   UNL     1       3.760  -0.477  -0.080  0.00  0.00    -0.027 C 
BRANCH   5   7
ATOM      7  C   UNL     1       2.335   1.451  -0.932  0.00  0.00    +0.189 C 
ATOM      8  C   UNL     1       3.513   2.217  -1.519  0.00  0.00    +0.037 C 
BRANCH   7  11
ATOM      9  O   UNL     1       0.748   2.700   0.225  0.00  0.00    -0.131 OA
ATOM     10  O   UNL     1       2.679   2.296   1.206  0.00  0.00    -0.131 OA
ATOM     11  N   UNL     1       1.887   2.213   0.256  0.00  0.00    +0.037 N 
ENDBRANCH   7  11
ENDBRANCH   5   7
BRANCH   6  12
ATOM     12  C   UNL     1       4.042  -1.852   0.461  0.00  0.00    +0.026 C 
ATOM     13  C   UNL     1       3.941  -1.875   1.979  0.00  0.00    +0.005 C 
ENDBRANCH   6  12
ENDBRANCH   2   5
BRANCH   2  14
ATOM     14  C   UNL     1       0.623  -0.694   1.034  0.00  0.00    +0.139 C 
BRANCH  14  16
ATOM     15  O   UNL     1      -1.711  -2.277   0.493  0.00  0.00    -0.270 OA
ATOM     16  N   UNL     1      -0.699  -0.207   0.768  0.00  0.00    -0.296 N 
ATOM     17  C   UNL     1      -1.777  -1.050   0.515  0.00  0.00    +0.248 C 
ATOM     18  H   UNL     1      -0.851   0.766   0.765  0.00  0.00    +0.150 HD
BRANCH  17  20
ATOM     19  N   UNL     1      -4.524   1.528   0.515  0.00  0.00    -0.242 NA
ATOM     20  C   UNL     1      -3.077  -0.388   0.232  0.00  0.00    +0.072 C 
ATOM     21  C   UNL     1      -4.043  -1.012  -0.549  0.00  0.00    +0.008 C 
ATOM     22  C   UNL     1      -3.363   0.870   0.736  0.00  0.00    +0.103 C 
ATOM     23  C   UNL     1      -5.250  -0.368  -0.799  0.00  0.00    +0.021 C 
ATOM     24  C   UNL     1      -5.439   0.890  -0.248  0.00  0.00    +0.099 C 
ENDBRANCH  17  20
ENDBRANCH  14  16
ENDBRANCH   2  14
TORSDOF 8
