REMARK  Name = 129638074
REMARK  9 active torsions:
REMARK  status: ('A' for Active; 'I' for Inactive)
REMARK    1  A    between atoms: N_1  and  S_2
REMARK    2  A    between atoms: N_1  and  S_11
REMARK    3  A    between atoms: N_1  and  C_20
REMARK    4  A    between atoms: S_2  and  C_5
REMARK    5  A    between atoms: S_11  and  C_14
REMARK    6  A    between atoms: C_20  and  C_23
REMARK    7  A    between atoms: C_20  and  C_27
REMARK    8  A    between atoms: N_22  and  O_25
REMARK    9  A    between atoms: C_27  and  C_28
REMARK                            x       y       z     vdW  Elec       q    Type
REMARK                         _______ _______ _______ _____ _____    ______ ____
ROOT
ATOM      1  N   UNL     1       0.497  -0.306   0.934  0.00  0.00    -0.026 NA
ENDROOT
BRANCH   1   2
ATOM      2  S   UNL     1       1.642   0.750   1.724  0.00  0.00    +0.081 S 
ATOM      3  O   UNL     1       1.066   2.070   1.904  0.00  0.00    -0.151 OA
ATOM      4  O   UNL     1       2.217   0.063   2.866  0.00  0.00    -0.151 OA
BRANCH   2   5
ATOM      5  C   UNL     1       2.908   0.894   0.495  0.00  0.00    +0.124 C 
ATOM      6  C   UNL     1       3.143  -0.159  -0.390  0.00  0.00    +0.020 C 
ATOM      7  C   UNL     1       3.672   2.057   0.414  0.00  0.00    +0.020 C 
ATOM      8  C   UNL     1       4.144  -0.047  -1.355  0.00  0.00    +0.001 C 
ATOM      9  C   UNL     1       4.673   2.169  -0.551  0.00  0.00    +0.001 C 
ATOM     10  C   UNL     1       4.908   1.117  -1.436  0.00  0.00    +0.000 C 
ENDBRANCH   2   5
ENDBRANCH   1   2
BRANCH   1  11
ATOM     11  S   UNL     1       0.006  -1.793   1.710  0.00  0.00    +0.081 S 
ATOM     12  O   UNL     1      -1.190  -1.535   2.489  0.00  0.00    -0.151 OA
ATOM     13  O   UNL     1       1.145  -2.457   2.315  0.00  0.00    -0.151 OA
BRANCH  11  14
ATOM     14  C   UNL     1      -0.448  -2.789   0.321  0.00  0.00    +0.124 C 
ATOM     15  C   UNL     1      -1.788  -3.105   0.098  0.00  0.00    +0.020 C 
ATOM     16  C   UNL     1       0.534  -3.261  -0.550  0.00  0.00    +0.020 C 
ATOM     17  C   UNL     1      -2.146  -3.893  -0.996  0.00  0.00    +0.001 C 
ATOM     18  C   UNL     1       0.177  -4.050  -1.644  0.00  0.00    +0.001 C 
ATOM     19  C   UNL     1      -1.164  -4.366  -1.867  0.00  0.00    +0.000 C 
ENDBRANCH  11  14
ENDBRANCH   1  11
BRANCH   1  20
ATOM     20  C   UNL     1      -0.549   0.365   0.124  0.00  0.00    +0.185 C 
BRANCH  20  23
ATOM     21  O   UNL     1       0.973   2.042  -0.716  0.00  0.00    -0.271 OA
ATOM     22  N   UNL     1      -0.098   0.655  -2.220  0.00  0.00    -0.196 N 
ATOM     23  C   UNL     1       0.199   1.119  -0.962  0.00  0.00    +0.263 C 
ATOM     24  H   UNL     1      -0.726  -0.088  -2.369  0.00  0.00    +0.182 HD
BRANCH  22  25
ATOM     25  O   UNL     1       0.548   1.308  -3.280  0.00  0.00    -0.295 OA
ATOM     26  H   UNL     1       0.273   0.909  -4.120  0.00  0.00    +0.241 HD
ENDBRANCH  22  25
ENDBRANCH  20  23
BRANCH  20  27
ATOM     27  C   UNL     1      -1.345   1.319   1.020  0.00  0.00    +0.055 C 
BRANCH  27  28
ATOM     28  C   UNL     1      -2.701   1.658   0.451  0.00  0.00    -0.020 C 
ATOM     29  C   UNL     1      -2.848   2.760  -0.391  0.00  0.00    -0.004 C 
ATOM     30  C   UNL     1      -3.807   0.871   0.768  0.00  0.00    -0.004 C 
ATOM     31  C   UNL     1      -4.101   3.074  -0.917  0.00  0.00    -0.000 C 
ATOM     32  C   UNL     1      -5.061   1.184   0.243  0.00  0.00    -0.000 C 
ATOM     33  C   UNL     1      -5.208   2.286  -0.600  0.00  0.00    -0.000 C 
ENDBRANCH  27  28
ENDBRANCH  20  27
ENDBRANCH   1  20
TORSDOF 9
