REMARK  Name = 129677
REMARK  8 active torsions:
REMARK  status: ('A' for Active; 'I' for Inactive)
REMARK    1  A    between atoms: C_1  and  N_2
REMARK    2  A    between atoms: C_1  and  C_8
REMARK    3  A    between atoms: C_1  and  C_10
REMARK    4  A    between atoms: C_1  and  C_13
REMARK    5  A    between atoms: C_10  and  O_11
REMARK    6  A    between atoms: C_13  and  C_14
REMARK    7  A    between atoms: C_17  and  O_20
REMARK    8  A    between atoms: C_19  and  O_22
REMARK                            x       y       z     vdW  Elec       q    Type
REMARK                         _______ _______ _______ _____ _____    ______ ____
ROOT
ATOM      1  C   UNL     1      -2.011  -0.080  -0.518  0.00  0.00    +0.109 C 
ENDROOT
BRANCH   1   2
ATOM      2  N   UNL     1      -3.261  -0.005  -1.295  0.00  0.00    +0.394 N 
ATOM      3  H   UNL     1      -3.234  -0.690  -2.050  0.00  0.00    -0.088 HD
ATOM      4  H   UNL     1      -3.362   0.931  -1.688  0.00  0.00    -0.088 HD
ATOM      5  H   UNL     1      -4.053  -0.204  -0.683  0.00  0.00    -0.088 HD
ENDBRANCH   1   2
BRANCH   1   8
ATOM      6  F   UNL     1      -3.029  -1.753   0.825  0.00  0.00    -0.200 F 
ATOM      7  F   UNL     1      -0.866  -1.608   0.913  0.00  0.00    -0.200 F 
ATOM      8  C   UNL     1      -1.926  -1.492   0.075  0.00  0.00    +0.311 C 
ENDBRANCH   1   8
BRANCH   1  10
ATOM      9  O   UNL     1      -2.033   0.729   1.787  0.00  0.00    -0.252 OA
ATOM     10  C   UNL     1      -2.125   0.971   0.590  0.00  0.00    +0.300 C 
BRANCH  10  11
ATOM     11  O   UNL     1      -2.306   2.234   0.120  0.00  0.00    -0.481 OA
ATOM     12  H   UNL     1      -2.373   2.385  -0.803  0.00  0.00    +0.295 HD
ENDBRANCH  10  11
ENDBRANCH   1  10
BRANCH   1  13
ATOM     13  C   UNL     1      -0.837   0.245  -1.476  0.00  0.00    +0.022 C 
BRANCH  13  14
ATOM     14  C   UNL     1       0.539   0.308  -0.854  0.00  0.00    -0.020 C 
ATOM     15  C   UNL     1       1.306  -0.844  -0.791  0.00  0.00    +0.035 C 
ATOM     16  C   UNL     1       1.004   1.514  -0.359  0.00  0.00    -0.001 C 
ATOM     17  C   UNL     1       2.576  -0.786  -0.216  0.00  0.00    +0.167 C 
ATOM     18  C   UNL     1       2.274   1.572   0.215  0.00  0.00    +0.039 C 
ATOM     19  C   UNL     1       3.060   0.422   0.287  0.00  0.00    +0.167 C 
BRANCH  17  20
ATOM     20  O   UNL     1       3.334  -1.916  -0.153  0.00  0.00    -0.503 OA
ATOM     21  H   UNL     1       3.002  -2.723  -0.493  0.00  0.00    +0.292 HD
ENDBRANCH  17  20
BRANCH  19  22
ATOM     22  O   UNL     1       4.299   0.490   0.849  0.00  0.00    -0.503 OA
ATOM     23  H   UNL     1       4.833  -0.278   0.901  0.00  0.00    +0.292 HD
ENDBRANCH  19  22
ENDBRANCH  13  14
ENDBRANCH   1  13
TORSDOF 8
