129631855
  -OEChem-03292013293D

 47 50  0     1  0  0  0  0  0999 V2000
   -1.6952    2.5214   -0.6138 O   0  0  0  0  0  0  0  0  0  0  0  0
    0.5316    0.9588    1.7982 O   0  0  0  0  0  0  0  0  0  0  0  0
   -3.0670   -0.3731   -0.4748 O   0  0  0  0  0  0  0  0  0  0  0  0
   -3.0860    0.9056    1.7441 O   0  0  0  0  0  0  0  0  0  0  0  0
    1.9905    0.3228   -2.3876 O   0  0  0  0  0  0  0  0  0  0  0  0
    2.1872   -2.2957   -0.4393 O   0  0  0  0  0  0  0  0  0  0  0  0
    4.3235   -0.0345   -1.2309 O   0  0  0  0  0  0  0  0  0  0  0  0
   -3.7358   -2.2937    0.6210 O   0  0  0  0  0  0  0  0  0  0  0  0
   -0.6516    0.2438   -0.7151 C   0  0  1  0  0  0  0  0  0  0  0  0
   -0.6949    1.6284   -0.1018 C   0  0  2  0  0  0  0  0  0  0  0  0
    0.7990   -0.3544   -0.3343 C   0  0  2  0  0  0  0  0  0  0  0  0
   -0.7591    1.4061    1.3706 C   0  0  1  0  0  0  0  0  0  0  0  0
   -1.7876   -0.4528    0.1460 C   0  0  1  0  0  0  0  0  0  0  0  0
   -0.3291    2.9391   -0.7540 C   0  0  0  0  0  0  0  0  0  0  0  0
   -1.8205    0.3008    1.5066 C   0  0  2  0  0  0  0  0  0  0  0  0
    0.9789   -0.2850    1.2261 C   0  0  1  0  0  0  0  0  0  0  0  0
   -0.9801    0.2231   -2.2145 C   0  0  0  0  0  0  0  0  0  0  0  0
    1.9736    0.4502   -0.9743 C   0  0  1  0  0  0  0  0  0  0  0  0
    0.9085   -1.8343   -0.8007 C   0  0  0  0  0  0  0  0  0  0  0  0
    2.3915   -0.4689    1.7041 C   0  0  0  0  0  0  0  0  0  0  0  0
    3.3448   -0.0065   -0.4848 C   0  0  0  0  0  0  0  0  0  0  0  0
    3.4946   -0.3729    0.9506 C   0  0  0  0  0  0  0  0  0  0  0  0
   -3.9485   -1.3639   -0.1455 C   0  0  0  0  0  0  0  0  0  0  0  0
    4.8753   -0.6122    1.4734 C   0  0  0  0  0  0  0  0  0  0  0  0
   -5.2437   -1.1522   -0.8692 C   0  0  0  0  0  0  0  0  0  0  0  0
   -1.0138    2.3141    1.9266 H   0  0  0  0  0  0  0  0  0  0  0  0
   -1.5281   -1.5020    0.3061 H   0  0  0  0  0  0  0  0  0  0  0  0
    0.0141    3.7483   -0.1221 H   0  0  0  0  0  0  0  0  0  0  0  0
    0.0928    2.9362   -1.7498 H   0  0  0  0  0  0  0  0  0  0  0  0
   -1.6110   -0.3777    2.3399 H   0  0  0  0  0  0  0  0  0  0  0  0
    0.4027   -1.0948    1.6906 H   0  0  0  0  0  0  0  0  0  0  0  0
   -0.2756    0.8103   -2.8068 H   0  0  0  0  0  0  0  0  0  0  0  0
   -1.9636    0.6608   -2.4202 H   0  0  0  0  0  0  0  0  0  0  0  0
   -0.9982   -0.7977   -2.6068 H   0  0  0  0  0  0  0  0  0  0  0  0
    1.9051    1.5150   -0.7323 H   0  0  0  0  0  0  0  0  0  0  0  0
    0.8018   -1.9324   -1.8846 H   0  0  0  0  0  0  0  0  0  0  0  0
    0.1715   -2.4823   -0.3217 H   0  0  0  0  0  0  0  0  0  0  0  0
    2.5007   -0.7141    2.7590 H   0  0  0  0  0  0  0  0  0  0  0  0
   -3.0325    1.3705    2.5965 H   0  0  0  0  0  0  0  0  0  0  0  0
    2.6452    0.9536   -2.7331 H   0  0  0  0  0  0  0  0  0  0  0  0
    2.2572   -3.2194   -0.7343 H   0  0  0  0  0  0  0  0  0  0  0  0
    5.3449   -1.4481    0.9447 H   0  0  0  0  0  0  0  0  0  0  0  0
    4.8727   -0.8541    2.5414 H   0  0  0  0  0  0  0  0  0  0  0  0
    5.4958    0.2795    1.3366 H   0  0  0  0  0  0  0  0  0  0  0  0
   -5.0739   -1.1828   -1.9484 H   0  0  0  0  0  0  0  0  0  0  0  0
   -5.9427   -1.9502   -0.6033 H   0  0  0  0  0  0  0  0  0  0  0  0
   -5.6796   -0.1943   -0.5747 H   0  0  0  0  0  0  0  0  0  0  0  0
  1 10  1  0  0  0  0
  1 14  1  0  0  0  0
  2 12  1  0  0  0  0
  2 16  1  0  0  0  0
  3 13  1  0  0  0  0
  3 23  1  0  0  0  0
  4 15  1  0  0  0  0
  4 39  1  0  0  0  0
  5 18  1  0  0  0  0
  5 40  1  0  0  0  0
  6 19  1  0  0  0  0
  6 41  1  0  0  0  0
  7 21  2  0  0  0  0
  8 23  2  0  0  0  0
  9 10  1  0  0  0  0
  9 11  1  0  0  0  0
  9 13  1  0  0  0  0
  9 17  1  0  0  0  0
 10 12  1  0  0  0  0
 10 14  1  0  0  0  0
 11 16  1  0  0  0  0
 11 18  1  0  0  0  0
 11 19  1  0  0  0  0
 12 15  1  0  0  0  0
 12 26  1  0  0  0  0
 13 15  1  0  0  0  0
 13 27  1  0  0  0  0
 14 28  1  0  0  0  0
 14 29  1  0  0  0  0
 15 30  1  0  0  0  0
 16 20  1  0  0  0  0
 16 31  1  0  0  0  0
 17 32  1  0  0  0  0
 17 33  1  0  0  0  0
 17 34  1  0  0  0  0
 18 21  1  0  0  0  0
 18 35  1  0  0  0  0
 19 36  1  0  0  0  0
 19 37  1  0  0  0  0
 20 22  2  0  0  0  0
 20 38  1  0  0  0  0
 21 22  1  0  0  0  0
 22 24  1  0  0  0  0
 23 25  1  0  0  0  0
 24 42  1  0  0  0  0
 24 43  1  0  0  0  0
 24 44  1  0  0  0  0
 25 45  1  0  0  0  0
 25 46  1  0  0  0  0
 25 47  1  0  0  0  0
M  END
> <PUBCHEM_COMPOUND_CID>
129631855

> <PUBCHEM_CONFORMER_RMSD>
0.8

> <PUBCHEM_CONFORMER_DIVERSEORDER>
1
2

> <PUBCHEM_MMFF94_PARTIAL_CHARGES>
29
1 -0.3
10 -0.04
12 0.38
13 0.28
14 -0.05
15 0.28
16 0.42
18 0.34
19 0.28
2 -0.56
20 -0.29
21 0.49
22 -0.12
23 0.66
24 0.14
25 0.06
28 0.1
29 0.1
3 -0.43
38 0.15
39 0.4
4 -0.68
40 0.4
41 0.4
5 -0.68
6 -0.68
7 -0.57
8 -0.57
9 0.09

> <PUBCHEM_EFFECTIVE_ROTOR_COUNT>
4.2

> <PUBCHEM_PHARMACOPHORE_FEATURES>
12
1 1 acceptor
1 2 acceptor
1 4 acceptor
1 4 donor
1 5 acceptor
1 5 donor
1 6 acceptor
1 6 donor
1 7 acceptor
1 8 acceptor
6 11 16 18 20 21 22 rings
8 2 9 10 11 12 13 15 16 rings

> <PUBCHEM_HEAVY_ATOM_COUNT>
25

> <PUBCHEM_ATOM_DEF_STEREO_COUNT>
8

> <PUBCHEM_ATOM_UDEF_STEREO_COUNT>
0

> <PUBCHEM_BOND_DEF_STEREO_COUNT>
0

> <PUBCHEM_BOND_UDEF_STEREO_COUNT>
0

> <PUBCHEM_ISOTOPIC_ATOM_COUNT>
0

> <PUBCHEM_COMPONENT_COUNT>
1

> <PUBCHEM_CACTVS_TAUTO_COUNT>
8

> <PUBCHEM_CONFORMER_ID>
07BA066F00000001

> <PUBCHEM_MMFF94_ENERGY>
96.0293

> <PUBCHEM_FEATURE_SELFOVERLAP>
60.92

> <PUBCHEM_SHAPE_FINGERPRINT>
10863032 1 18127971901722112304
11578080 2 18057890134533001640
12011746 2 17060340717073469941
12403814 3 18201424892053813904
12507560 40 15985109600078252795
12553582 1 18336000730406150907
12633257 1 16914273775583942627
12788726 201 18114748140079304929
12892183 10 14620804829011017627
13140716 1 16484416659140280394
13224815 77 17917988339528508666
13583140 156 17771026503438323266
14223421 5 17987799592524517342
14289901 80 18262241002184590682
14787075 74 17274252997395391202
15142383 8 18259989258928062897
15664445 248 18341062894530259596
16945 1 18189638131667185724
17349148 13 17603590699016433642
17357779 13 18130773578167913389
17492 54 18118421762951400436
17980427 23 17967534541342837828
1813 80 18272647999784504869
18186145 218 12757143602172473463
18222031 100 18343018947333061319
18981168 100 18125160425105233292
19010151 120 18334859441267502721
192875 21 16949997028602724764
19862831 5 16298381357757904643
200 152 17603580824786309010
20600515 1 18270965751394287775
20626108 58 18119796152776484659
20691752 17 18339095812361840683
21069387 34 16805319968467911530
22112679 90 18336565862155745649
22182313 1 16630251320293538233
23402539 116 18113890537840901066
23419403 2 17984954181197277481
23557571 272 18336816503240231681
23559900 14 17344933835435065396
2748010 2 16629970906084013977
296302 2 16660366995259706670
3286 77 18114731686460228408
5845 1 18115319873235182333
7495541 125 17896886654619422683

> <PUBCHEM_SHAPE_MULTIPOLES>
467.53
7.49
2.12
1.94
1.11
0.8
0.07
-4.25
-0.37
1.29
0.28
-0.59
0.27
-0.44

> <PUBCHEM_SHAPE_SELFOVERLAP>
1018.973

> <PUBCHEM_SHAPE_VOLUME>
246.5

> <PUBCHEM_COORDINATE_TYPE>
2
5
10

$$$$
