129679
  -OEChem-03292013323D

 40 41  0     1  0  0  0  0  0999 V2000
   -0.3192   -0.2528   -0.8335 O   0  0  0  0  0  0  0  0  0  0  0  0
   -1.9510   -1.3035    0.4647 O   0  0  0  0  0  0  0  0  0  0  0  0
    2.6233    1.2462    0.7165 O   0  0  0  0  0  0  0  0  0  0  0  0
    1.5460   -2.5172   -0.5368 O   0  0  0  0  0  0  0  0  0  0  0  0
   -2.0791    1.9645   -1.1901 O   0  0  0  0  0  0  0  0  0  0  0  0
    4.2723   -1.6226   -0.8602 O   0  0  0  0  0  0  0  0  0  0  0  0
   -4.8572    1.1962   -1.0187 O   0  0  0  0  0  0  0  0  0  0  0  0
    4.8744    0.6295    0.7847 O   0  0  0  0  0  0  0  0  0  0  0  0
   -5.3404   -0.3660    1.4350 O   0  0  0  0  0  0  0  0  0  0  0  0
    0.8789   -0.2445   -0.0658 C   0  0  1  0  0  0  0  0  0  0  0  0
    1.9263   -1.1516   -0.7104 C   0  0  1  0  0  0  0  0  0  0  0  0
   -1.4653   -0.0487   -0.0082 C   0  0  2  0  0  0  0  0  0  0  0  0
   -2.5311    0.6537   -0.8509 C   0  0  1  0  0  0  0  0  0  0  0  0
    3.2962   -0.9536   -0.0620 C   0  0  2  0  0  0  0  0  0  0  0  0
   -3.8522    0.7814   -0.0927 C   0  0  2  0  0  0  0  0  0  0  0  0
    1.3868    1.1883    0.0142 C   0  0  0  0  0  0  0  0  0  0  0  0
   -4.2552   -0.5531    0.5337 C   0  0  1  0  0  0  0  0  0  0  0  0
    3.6578    0.5286    0.0461 C   0  0  1  0  0  0  0  0  0  0  0  0
   -3.0902   -1.1567    1.3053 C   0  0  0  0  0  0  0  0  0  0  0  0
    5.2791    1.9819    0.9293 C   0  0  0  0  0  0  0  0  0  0  0  0
    0.6892   -0.6351    0.9446 H   0  0  0  0  0  0  0  0  0  0  0  0
    1.9719   -0.9759   -1.7924 H   0  0  0  0  0  0  0  0  0  0  0  0
   -1.2101    0.5910    0.8479 H   0  0  0  0  0  0  0  0  0  0  0  0
   -2.6915    0.1169   -1.7945 H   0  0  0  0  0  0  0  0  0  0  0  0
    3.3139   -1.4276    0.9276 H   0  0  0  0  0  0  0  0  0  0  0  0
   -3.7937    1.5633    0.6745 H   0  0  0  0  0  0  0  0  0  0  0  0
    1.5023    1.6302   -0.9838 H   0  0  0  0  0  0  0  0  0  0  0  0
    0.6736    1.8257    0.5465 H   0  0  0  0  0  0  0  0  0  0  0  0
   -4.5853   -1.2460   -0.2499 H   0  0  0  0  0  0  0  0  0  0  0  0
    3.8262    0.9540   -0.9527 H   0  0  0  0  0  0  0  0  0  0  0  0
   -2.8325   -0.5555    2.1864 H   0  0  0  0  0  0  0  0  0  0  0  0
   -3.3665   -2.1479    1.6818 H   0  0  0  0  0  0  0  0  0  0  0  0
    2.2381   -3.0661   -0.9438 H   0  0  0  0  0  0  0  0  0  0  0  0
   -1.2280    1.8679   -1.6508 H   0  0  0  0  0  0  0  0  0  0  0  0
    5.1395   -1.4685   -0.4479 H   0  0  0  0  0  0  0  0  0  0  0  0
   -4.5643    2.0376   -1.4087 H   0  0  0  0  0  0  0  0  0  0  0  0
   -6.0640    0.0504    0.9362 H   0  0  0  0  0  0  0  0  0  0  0  0
    5.3703    2.4699   -0.0462 H   0  0  0  0  0  0  0  0  0  0  0  0
    6.2607    1.9930    1.4116 H   0  0  0  0  0  0  0  0  0  0  0  0
    4.5834    2.5352    1.5671 H   0  0  0  0  0  0  0  0  0  0  0  0
  1 10  1  0  0  0  0
  1 12  1  0  0  0  0
  2 12  1  0  0  0  0
  2 19  1  0  0  0  0
  3 16  1  0  0  0  0
  3 18  1  0  0  0  0
  4 11  1  0  0  0  0
  4 33  1  0  0  0  0
  5 13  1  0  0  0  0
  5 34  1  0  0  0  0
  6 14  1  0  0  0  0
  6 35  1  0  0  0  0
  7 15  1  0  0  0  0
  7 36  1  0  0  0  0
  8 18  1  0  0  0  0
  8 20  1  0  0  0  0
  9 17  1  0  0  0  0
  9 37  1  0  0  0  0
 10 11  1  0  0  0  0
 10 16  1  0  0  0  0
 10 21  1  0  0  0  0
 11 14  1  0  0  0  0
 11 22  1  0  0  0  0
 12 13  1  0  0  0  0
 12 23  1  0  0  0  0
 13 15  1  0  0  0  0
 13 24  1  0  0  0  0
 14 18  1  0  0  0  0
 14 25  1  0  0  0  0
 15 17  1  0  0  0  0
 15 26  1  0  0  0  0
 16 27  1  0  0  0  0
 16 28  1  0  0  0  0
 17 19  1  0  0  0  0
 17 29  1  0  0  0  0
 18 30  1  0  0  0  0
 19 31  1  0  0  0  0
 19 32  1  0  0  0  0
 20 38  1  0  0  0  0
 20 39  1  0  0  0  0
 20 40  1  0  0  0  0
M  END
> <PUBCHEM_COMPOUND_CID>
129679

> <PUBCHEM_CONFORMER_RMSD>
0.8

> <PUBCHEM_CONFORMER_DIVERSEORDER>
1
43
14
42
3
19
35
46
41
23
56
53
51
52
31
59
8
39
9
48
26
28
55
21
13
6
40
33
37
44
63
45
12
58
50
17
18
60
62
29
20
49
10
57
54
61
11
24
38
34
25
47
36
30
16
27
32
22
15
5
7
2
4

> <PUBCHEM_MMFF94_PARTIAL_CHARGES>
25
1 -0.56
10 0.28
11 0.28
12 0.56
13 0.28
14 0.28
15 0.28
16 0.28
17 0.28
18 0.56
19 0.28
2 -0.56
20 0.28
3 -0.56
33 0.4
34 0.4
35 0.4
36 0.4
37 0.4
4 -0.68
5 -0.68
6 -0.68
7 -0.68
8 -0.56
9 -0.68

> <PUBCHEM_EFFECTIVE_ROTOR_COUNT>
5.4

> <PUBCHEM_PHARMACOPHORE_FEATURES>
16
1 1 acceptor
1 2 acceptor
1 3 acceptor
1 4 acceptor
1 4 donor
1 5 acceptor
1 5 donor
1 6 acceptor
1 6 donor
1 7 acceptor
1 7 donor
1 8 acceptor
1 9 acceptor
1 9 donor
6 2 12 13 15 17 19 rings
6 3 10 11 14 16 18 rings

> <PUBCHEM_HEAVY_ATOM_COUNT>
20

> <PUBCHEM_ATOM_DEF_STEREO_COUNT>
8

> <PUBCHEM_ATOM_UDEF_STEREO_COUNT>
0

> <PUBCHEM_BOND_DEF_STEREO_COUNT>
0

> <PUBCHEM_BOND_UDEF_STEREO_COUNT>
0

> <PUBCHEM_ISOTOPIC_ATOM_COUNT>
0

> <PUBCHEM_COMPONENT_COUNT>
1

> <PUBCHEM_CACTVS_TAUTO_COUNT>
1

> <PUBCHEM_CONFORMER_ID>
0001FA8F00000001

> <PUBCHEM_MMFF94_ENERGY>
58.112

> <PUBCHEM_FEATURE_SELFOVERLAP>
81.312

> <PUBCHEM_SHAPE_FINGERPRINT>
10 15 18261384616092838648
10912923 1 16917344831571036887
1100329 8 14302457055320562163
11089746 13 16343699963438927384
11471102 20 18273211980724970046
11615757 297 17775286049548104187
12236239 1 16415481553565675792
12403259 415 18409452461853258580
12507560 40 18410294700660887037
12596602 18 17275111651942759683
13675066 3 18408603677789783884
13760787 5 17489588939449011358
14341114 176 18410581681754081216
14386348 63 18335141989964814993
15081414 286 18273219707598651512
15219456 202 18410293601128179727
15375358 24 18408601452806904887
15653759 3 18186523202403993871
16988056 13 12953422662627969499
18186145 218 17917434246145798582
18785283 64 18118407473558880476
19049666 15 18119247268508193655
19784866 170 18408886265152617580
200 152 17846491526764923701
20279233 1 18335141985939028935
204376 136 18130786802145565646
20645477 56 18409724092844229868
20645477 70 17988076695493416518
21065199 12 18334858298837746659
21065201 7 17604149224858127891
22854114 59 18413108372370025230
23402539 116 17968366931573671727
23557571 272 17968670327725935823
23559900 14 18041567914493929198
3545911 37 18341898519346285944
449060 50 18341896315811824180
474 4 16557319735171286728
5104073 3 18335139735186288497
542803 24 16272210794741351457
573450 72 16298102086284019969
602551 16 17458350766105716026
633830 44 17274837843398035870
9709674 26 18334862705759542063

> <PUBCHEM_SHAPE_MULTIPOLES>
358.77
11.44
1.92
1.12
0.12
0.22
-0.11
-2.8
-2.9
1.41
0.23
-0.67
-0.06
2.16

> <PUBCHEM_SHAPE_SELFOVERLAP>
730.687

> <PUBCHEM_SHAPE_VOLUME>
204.3

> <PUBCHEM_COORDINATE_TYPE>
2
5
10

$$$$
