REMARK  Name = 129668652
REMARK  1 active torsions:
REMARK  status: ('A' for Active; 'I' for Inactive)
REMARK    1  A    between atoms: C_9  and  O_18
REMARK                            x       y       z     vdW  Elec       q    Type
REMARK                         _______ _______ _______ _____ _____    ______ ____
ROOT
ATOM      1  O   UNL     1      -1.129  -0.448   1.685  0.00  0.00    -0.379 OA
ATOM      2  O   UNL     1      -1.383  -1.797  -0.809  0.00  0.00    -0.333 OA
ATOM      3  O   UNL     1       2.693  -0.350  -0.104  0.00  0.00    -0.397 OA
ATOM      4  O   UNL     1      -2.093   1.566   1.696  0.00  0.00    -0.247 OA
ATOM      5  O   UNL     1      -2.826  -0.392  -1.841  0.00  0.00    -0.248 OA
ATOM      6  O   UNL     1       2.848   1.561  -1.304  0.00  0.00    -0.250 OA
ATOM      7  N   UNL     1      -0.236  -1.798  -0.016  0.00  0.00    -0.121 N 
ATOM      8  N   UNL     1       1.105  -1.012   1.561  0.00  0.00    -0.316 NA
ATOM      9  C   UNL     1      -0.397   1.265  -0.038  0.00  0.00    +0.199 C 
ATOM     10  C   UNL     1      -0.648   0.511  -1.366  0.00  0.00    +0.150 C 
ATOM     11  C   UNL     1       1.093   1.541   0.349  0.00  0.00    +0.148 C 
ATOM     12  C   UNL     1      -1.266   0.809   1.182  0.00  0.00    +0.350 C 
ATOM     13  C   UNL     1      -1.715  -0.581  -1.349  0.00  0.00    +0.345 C 
ATOM     14  C   UNL     1       2.260   0.913  -0.437  0.00  0.00    +0.326 C 
ATOM     15  C   UNL     1      -0.144  -1.168   1.195  0.00  0.00    +0.395 C 
ATOM     16  C   UNL     1       1.764  -1.200   0.380  0.00  0.00    +0.291 C 
ATOM     17  C   UNL     1       1.038  -2.002  -0.484  0.00  0.00    +0.249 C 
ENDROOT
BRANCH   9  18
ATOM     18  O   UNL     1      -0.965   2.582  -0.300  0.00  0.00    -0.376 OA
ATOM     19  H   UNL     1      -0.506   2.987  -1.052  0.00  0.00    +0.211 HD
ENDBRANCH   9  18
TORSDOF 1
