REMARK  Name = 129668996
REMARK  7 active torsions:
REMARK  status: ('A' for Active; 'I' for Inactive)
REMARK    1  A    between atoms: C_3  and  N_11
REMARK    2  A    between atoms: C_6  and  O_15
REMARK    3  A    between atoms: C_8  and  C_23
REMARK    4  A    between atoms: C_9  and  O_17
REMARK    5  A    between atoms: C_9  and  C_20
REMARK    6  A    between atoms: C_20  and  O_21
REMARK    7  A    between atoms: C_23  and  O_24
REMARK                            x       y       z     vdW  Elec       q    Type
REMARK                         _______ _______ _______ _____ _____    ______ ____
ROOT
ATOM      1  O   UNL     1       1.388  -0.653   1.162  0.00  0.00    -0.352 OA
ATOM      2  O   UNL     1      -0.252   1.117  -1.188  0.00  0.00    -0.324 OA
ATOM      3  C   UNL     1      -0.645  -1.070  -0.190  0.00  0.00    +0.129 C 
ATOM      4  C   UNL     1       0.032  -0.287  -1.315  0.00  0.00    +0.167 C 
ATOM      5  C   UNL     1      -0.045  -0.552   1.119  0.00  0.00    +0.141 C 
ATOM      6  C   UNL     1       1.549  -0.558  -1.299  0.00  0.00    +0.169 C 
ATOM      7  C   UNL     1      -0.384   0.935   1.283  0.00  0.00    +0.099 C 
ATOM      8  C   UNL     1       2.005  -1.231   0.011  0.00  0.00    +0.173 C 
ATOM      9  C   UNL     1       0.068   1.737   0.055  0.00  0.00    +0.279 C 
ENDROOT
BRANCH   3  11
ATOM     10  O   UNL     1      -2.598  -3.043   0.662  0.00  0.00    -0.275 OA
ATOM     11  N   UNL     1      -2.082  -0.956  -0.232  0.00  0.00    -0.301 N 
ATOM     12  C   UNL     1      -2.938  -1.957   0.200  0.00  0.00    +0.223 C 
ATOM     13  C   UNL     1      -4.387  -1.569   0.069  0.00  0.00    +0.095 C 
ATOM     14  H   UNL     1      -2.475  -0.125  -0.585  0.00  0.00    +0.150 HD
ENDBRANCH   3  11
BRANCH   6  15
ATOM     15  O   UNL     1       1.882  -1.444  -2.370  0.00  0.00    -0.379 OA
ATOM     16  H   UNL     1       1.608  -1.050  -3.213  0.00  0.00    +0.211 HD
ENDBRANCH   6  15
BRANCH   9  17
ATOM     17  O   UNL     1       1.427   2.146   0.149  0.00  0.00    -0.356 OA
ATOM     18  H   UNL     1       1.999   1.363   0.178  0.00  0.00    +0.213 HD
ENDBRANCH   9  17
BRANCH   9  20
ATOM     19  O   UNL     1      -1.380   3.428  -0.881  0.00  0.00    -0.245 OA
ATOM     20  C   UNL     1      -0.650   3.049   0.023  0.00  0.00    +0.366 C 
BRANCH  20  21
ATOM     21  O   UNL     1      -0.379   3.771   1.138  0.00  0.00    -0.477 OA
ATOM     22  H   UNL     1       0.191   3.421   1.795  0.00  0.00    +0.295 HD
ENDBRANCH  20  21
ENDBRANCH   9  20
BRANCH   8  23
ATOM     23  C   UNL     1       3.517  -1.119   0.192  0.00  0.00    +0.169 C 
BRANCH  23  24
ATOM     24  O   UNL     1       3.871  -1.743   1.412  0.00  0.00    -0.379 OA
ATOM     25  H   UNL     1       4.830  -1.679   1.541  0.00  0.00    +0.211 HD
ENDBRANCH  23  24
ENDBRANCH   8  23
TORSDOF 7
