129638
  -OEChem-03292013323D

 33 35  0     1  0  0  0  0  0999 V2000
    2.3292    0.0638    0.8715 O   0  0  0  0  0  0  0  0  0  0  0  0
    2.6252   -1.7626   -1.5181 O   0  0  0  0  0  0  0  0  0  0  0  0
    4.8647    0.9432    1.6941 O   0  0  0  0  0  0  0  0  0  0  0  0
   -4.1235   -1.5632    0.8283 O   0  0  0  0  0  0  0  0  0  0  0  0
    0.0837   -0.1623    0.1248 N   0  0  0  0  0  0  0  0  0  0  0  0
   -1.2659   -1.8846    0.5376 N   0  0  0  0  0  0  0  0  0  0  0  0
   -1.4648    1.6220   -0.1648 N   0  0  0  0  0  0  0  0  0  0  0  0
   -3.9172    1.6733   -0.2098 N   0  0  0  0  0  0  0  0  0  0  0  0
    1.3369    0.5810   -0.0304 C   0  0  2  0  0  0  0  0  0  0  0  0
    1.9123    0.5289   -1.4432 C   0  0  0  0  0  0  0  0  0  0  0  0
    3.0781   -0.4270   -1.3190 C   0  0  1  0  0  0  0  0  0  0  0  0
    3.5170   -0.2656    0.1279 C   0  0  1  0  0  0  0  0  0  0  0  0
    4.5242    0.8616    0.3197 C   0  0  0  0  0  0  0  0  0  0  0  0
   -1.1903    0.3178    0.0287 C   0  0  0  0  0  0  0  0  0  0  0  0
   -0.0133   -1.4910    0.4426 C   0  0  0  0  0  0  0  0  0  0  0  0
   -2.0077   -0.7637    0.2545 C   0  0  0  0  0  0  0  0  0  0  0  0
   -3.4524   -0.7332    0.2205 C   0  0  0  0  0  0  0  0  0  0  0  0
   -4.1022    0.3006   -0.6738 C   0  0  0  0  0  0  0  0  0  0  0  0
   -2.7339    2.1610   -0.0910 C   0  0  0  0  0  0  0  0  0  0  0  0
    1.1451    1.6135    0.2753 H   0  0  0  0  0  0  0  0  0  0  0  0
    2.2863    1.5252   -1.7082 H   0  0  0  0  0  0  0  0  0  0  0  0
    1.1778    0.2303   -2.1979 H   0  0  0  0  0  0  0  0  0  0  0  0
    3.8695   -0.2308   -2.0483 H   0  0  0  0  0  0  0  0  0  0  0  0
    3.9111   -1.1944    0.5552 H   0  0  0  0  0  0  0  0  0  0  0  0
    4.1185    1.8337    0.0215 H   0  0  0  0  0  0  0  0  0  0  0  0
    5.4391    0.6725   -0.2496 H   0  0  0  0  0  0  0  0  0  0  0  0
    0.8495   -2.1237    0.5988 H   0  0  0  0  0  0  0  0  0  0  0  0
    3.3893   -2.3512   -1.3940 H   0  0  0  0  0  0  0  0  0  0  0  0
   -0.7033    2.2918   -0.2331 H   0  0  0  0  0  0  0  0  0  0  0  0
    4.0436    1.1036    2.1899 H   0  0  0  0  0  0  0  0  0  0  0  0
   -3.7364    0.1810   -1.7007 H   0  0  0  0  0  0  0  0  0  0  0  0
   -5.1778    0.0921   -0.7015 H   0  0  0  0  0  0  0  0  0  0  0  0
   -2.6655    3.2363    0.1452 H   0  0  0  0  0  0  0  0  0  0  0  0
  1  9  1  0  0  0  0
  1 12  1  0  0  0  0
  2 11  1  0  0  0  0
  2 28  1  0  0  0  0
  3 13  1  0  0  0  0
  3 30  1  0  0  0  0
  4 17  2  0  0  0  0
  5  9  1  0  0  0  0
  5 14  1  0  0  0  0
  5 15  1  0  0  0  0
  6 15  2  0  0  0  0
  6 16  1  0  0  0  0
  7 14  1  0  0  0  0
  7 19  1  0  0  0  0
  7 29  1  0  0  0  0
  8 18  1  0  0  0  0
  8 19  2  0  0  0  0
  9 10  1  0  0  0  0
  9 20  1  0  0  0  0
 10 11  1  0  0  0  0
 10 21  1  0  0  0  0
 10 22  1  0  0  0  0
 11 12  1  0  0  0  0
 11 23  1  0  0  0  0
 12 13  1  0  0  0  0
 12 24  1  0  0  0  0
 13 25  1  0  0  0  0
 13 26  1  0  0  0  0
 14 16  2  0  0  0  0
 15 27  1  0  0  0  0
 16 17  1  0  0  0  0
 17 18  1  0  0  0  0
 18 31  1  0  0  0  0
 18 32  1  0  0  0  0
 19 33  1  0  0  0  0
M  END
> <PUBCHEM_COMPOUND_CID>
129638

> <PUBCHEM_CONFORMER_RMSD>
0.6

> <PUBCHEM_CONFORMER_DIVERSEORDER>
1
19
22
5
20
4
9
18
11
3
8
14
13
2
17
10
12
16
15
7
6
21

> <PUBCHEM_MMFF94_PARTIAL_CHARGES>
23
1 -0.56
11 0.28
12 0.28
13 0.28
14 -0.07
15 0.04
16 0.14
17 0.6
18 0.31
19 0.44
2 -0.68
27 0.15
28 0.4
29 0.4
3 -0.68
30 0.4
33 0.06
4 -0.57
5 0.05
6 -0.57
7 -0.53
8 -0.7
9 0.54

> <PUBCHEM_EFFECTIVE_ROTOR_COUNT>
3.4

> <PUBCHEM_PHARMACOPHORE_FEATURES>
12
1 1 acceptor
1 2 acceptor
1 2 donor
1 3 acceptor
1 3 donor
1 4 acceptor
1 7 donor
3 5 6 15 cation
3 7 8 19 cation
5 1 9 10 11 12 rings
5 5 6 14 15 16 rings
7 7 8 14 16 17 18 19 rings

> <PUBCHEM_HEAVY_ATOM_COUNT>
19

> <PUBCHEM_ATOM_DEF_STEREO_COUNT>
3

> <PUBCHEM_ATOM_UDEF_STEREO_COUNT>
0

> <PUBCHEM_BOND_DEF_STEREO_COUNT>
0

> <PUBCHEM_BOND_UDEF_STEREO_COUNT>
0

> <PUBCHEM_ISOTOPIC_ATOM_COUNT>
0

> <PUBCHEM_COMPONENT_COUNT>
1

> <PUBCHEM_CACTVS_TAUTO_COUNT>
7

> <PUBCHEM_CONFORMER_ID>
0001FA6600000001

> <PUBCHEM_MMFF94_ENERGY>
43.775

> <PUBCHEM_FEATURE_SELFOVERLAP>
60.94

> <PUBCHEM_SHAPE_FINGERPRINT>
10498660 4 18334294219556307757
10608611 8 18341896277141456644
10646746 165 18410292476100046660
11132069 177 18261115136569148429
12173636 292 18264206924785679557
12236239 1 17312820498613059992
12403259 415 18201445770148107740
12507560 40 18342455937698295570
12788726 201 17099769367197084394
12916748 109 18335144180830782561
13140716 1 18047198732793858515
13675066 3 18410578396130596818
14289901 80 17346312674392256389
14739800 52 18044375165981860084
15219456 202 18131072610596279588
15375358 24 18343580763520435842
15536298 74 18337390422693334954
16752209 62 18260267464733365987
16945 1 18335430088118894579
17980427 23 18262511615300273764
18186145 218 18201171948449664686
19049666 15 18200883855202612050
200 152 16558750087739417662
20112054 60 18409168805349769949
20279233 1 18273218599153652062
20510252 161 18413394228445727177
20645477 56 18411421704427286553
20645477 70 17274826796678879998
21065201 7 18334581200675485558
23402539 116 18337661009769396175
23557571 272 18340497732984853716
23559900 14 18340774745828069790
296302 2 17131834291405190598
43471831 8 18114179696836507691
495365 180 17845923019007997542
5104073 3 18338800017890143970
573450 72 17894904139900033336
69090 78 18131911572154295231
77492 1 17167868564423119444
9709674 26 18412270544673638710

> <PUBCHEM_SHAPE_MULTIPOLES>
347.61
8.97
1.84
1.15
2.32
0.08
-0.17
1.64
1.21
-1.51
0.05
1.34
-0.08
1.12

> <PUBCHEM_SHAPE_SELFOVERLAP>
749.432

> <PUBCHEM_SHAPE_VOLUME>
188.5

> <PUBCHEM_COORDINATE_TYPE>
2
5
10

$$$$
