REMARK  Name = 129619
REMARK  16 active torsions:
REMARK  status: ('A' for Active; 'I' for Inactive)
REMARK    1  A    between atoms: C_2  and  C_20
REMARK    2  A    between atoms: C_3  and  C_10
REMARK    3  A    between atoms: C_4  and  O_7
REMARK    4  A    between atoms: C_10  and  C_11
REMARK    5  A    between atoms: C_11  and  C_12
REMARK    6  A    between atoms: C_12  and  C_13
REMARK    7  A    between atoms: C_13  and  C_14
REMARK    8  A    between atoms: C_14  and  C_15
REMARK    9  A    between atoms: C_15  and  C_17
REMARK   10  A    between atoms: C_17  and  O_18
REMARK   11  A    between atoms: C_21  and  C_22
REMARK   12  A    between atoms: C_22  and  O_24
REMARK   13  A    between atoms: C_22  and  C_26
REMARK   14  A    between atoms: C_26  and  C_27
REMARK   15  A    between atoms: C_27  and  C_28
REMARK   16  A    between atoms: C_28  and  C_29
REMARK                            x       y       z     vdW  Elec       q    Type
REMARK                         _______ _______ _______ _____ _____    ______ ____
ROOT
ATOM      1  O   UNL     1      -0.663   5.034   0.414  0.00  0.00    -0.296 OA
ATOM      2  C   UNL     1      -1.910   1.764  -0.120  0.00  0.00    +0.063 C 
ATOM      3  C   UNL     1      -0.804   2.619   0.515  0.00  0.00    +0.121 C 
ATOM      4  C   UNL     1      -3.193   2.568   0.133  0.00  0.00    +0.123 C 
ATOM      5  C   UNL     1      -2.791   4.024  -0.083  0.00  0.00    +0.094 C 
ATOM      6  C   UNL     1      -1.336   4.017   0.299  0.00  0.00    +0.160 C 
ENDROOT
BRANCH   4   7
ATOM      7  O   UNL     1      -4.197   2.189  -0.795  0.00  0.00    -0.384 OA
ATOM      8  H   UNL     1      -4.442   1.262  -0.646  0.00  0.00    +0.210 HD
ENDBRANCH   4   7
BRANCH   3  10
ATOM      9  O   UNL     1       0.840   2.977  -1.159  0.00  0.00    -0.296 OA
ATOM     10  C   UNL     1       0.524   2.385  -0.129  0.00  0.00    +0.158 C 
BRANCH  10  11
ATOM     11  C   UNL     1       1.423   1.363   0.547  0.00  0.00    +0.065 C 
BRANCH  11  12
ATOM     12  C   UNL     1       2.771   1.173  -0.147  0.00  0.00    +0.008 C 
BRANCH  12  13
ATOM     13  C   UNL     1       3.621   0.084   0.517  0.00  0.00    +0.001 C 
BRANCH  13  14
ATOM     14  C   UNL     1       4.973  -0.067  -0.187  0.00  0.00    +0.012 C 
BRANCH  14  15
ATOM     15  C   UNL     1       5.856  -1.130   0.466  0.00  0.00    +0.110 C 
BRANCH  15  17
ATOM     16  O   UNL     1       7.596  -0.617  -1.155  0.00  0.00    -0.250 OA
ATOM     17  C   UNL     1       7.200  -1.286  -0.210  0.00  0.00    +0.317 C 
BRANCH  17  18
ATOM     18  O   UNL     1       7.881  -2.309   0.386  0.00  0.00    -0.444 OA
ATOM     19  C   UNL     1       9.168  -2.599  -0.168  0.00  0.00    +0.256 C 
ENDBRANCH  17  18
ENDBRANCH  15  17
ENDBRANCH  14  15
ENDBRANCH  13  14
ENDBRANCH  12  13
ENDBRANCH  11  12
ENDBRANCH  10  11
ENDBRANCH   3  10
BRANCH   2  20
ATOM     20  C   UNL     1      -1.978   0.388   0.466  0.00  0.00    -0.025 C 
ATOM     21  C   UNL     1      -1.854  -0.736  -0.258  0.00  0.00    -0.005 C 
BRANCH  21  22
ATOM     22  C   UNL     1      -1.915  -2.157   0.266  0.00  0.00    +0.107 C 
ATOM     23  C   UNL     1      -0.594  -2.872  -0.040  0.00  0.00    +0.034 C 
BRANCH  22  24
ATOM     24  O   UNL     1      -2.061  -2.143   1.693  0.00  0.00    -0.383 OA
ATOM     25  H   UNL     1      -2.889  -1.697   1.929  0.00  0.00    +0.211 HD
ENDBRANCH  22  24
BRANCH  22  26
ATOM     26  C   UNL     1      -3.139  -2.917  -0.298  0.00  0.00    +0.031 C 
BRANCH  26  27
ATOM     27  C   UNL     1      -4.513  -2.363   0.101  0.00  0.00    +0.003 C 
BRANCH  27  28
ATOM     28  C   UNL     1      -5.680  -3.201  -0.435  0.00  0.00    +0.000 C 
BRANCH  28  29
ATOM     29  C   UNL     1      -7.053  -2.640  -0.063  0.00  0.00    +0.000 C 
ATOM     30  C   UNL     1      -8.172  -3.547  -0.553  0.00  0.00    +0.000 C 
ENDBRANCH  28  29
ENDBRANCH  27  28
ENDBRANCH  26  27
ENDBRANCH  22  26
ENDBRANCH  21  22
ENDBRANCH   2  20
TORSDOF 16
