129699880
  -OEChem-03292013293D

 32 32  0     1  0  0  0  0  0999 V2000
    2.3850    0.3572    0.3153 O   0  0  0  0  0  0  0  0  0  0  0  0
    3.9713   -1.8522   -0.5725 O   0  0  0  0  0  0  0  0  0  0  0  0
   -5.9151    1.2152   -0.0557 O   0  0  0  0  0  0  0  0  0  0  0  0
   -6.0886   -1.5319    0.3328 O   0  0  0  0  0  0  0  0  0  0  0  0
    6.1687   -1.3049   -0.7596 O   0  0  0  0  0  0  0  0  0  0  0  0
    1.4471    2.2247   -0.6697 O   0  0  0  0  0  0  0  0  0  0  0  0
    5.9492    0.6745    1.0769 N   0  0  0  0  0  0  0  0  0  0  0  0
    4.7179   -0.0458    0.7572 C   0  0  1  0  0  0  0  0  0  0  0  0
    3.6853    0.9229    0.1875 C   0  0  0  0  0  0  0  0  0  0  0  0
   -2.3831    0.2777   -0.1509 C   0  0  0  0  0  0  0  0  0  0  0  0
    5.0684   -1.1130   -0.2619 C   0  0  0  0  0  0  0  0  0  0  0  0
   -3.5426    1.0522   -0.1835 C   0  0  0  0  0  0  0  0  0  0  0  0
   -2.4703   -1.1008    0.0440 C   0  0  0  0  0  0  0  0  0  0  0  0
   -1.0661    0.9162   -0.3218 C   0  0  0  0  0  0  0  0  0  0  0  0
   -4.7896    0.4483   -0.0217 C   0  0  0  0  0  0  0  0  0  0  0  0
   -4.8769   -0.9301    0.1732 C   0  0  0  0  0  0  0  0  0  0  0  0
   -3.7172   -1.7046    0.2061 C   0  0  0  0  0  0  0  0  0  0  0  0
    0.0986    0.3736    0.0609 C   0  0  0  0  0  0  0  0  0  0  0  0
    1.3581    1.1206   -0.1566 C   0  0  0  0  0  0  0  0  0  0  0  0
    4.3470   -0.5452    1.6596 H   0  0  0  0  0  0  0  0  0  0  0  0
    3.6970    1.8642    0.7518 H   0  0  0  0  0  0  0  0  0  0  0  0
    3.8896    1.1432   -0.8681 H   0  0  0  0  0  0  0  0  0  0  0  0
   -3.4788    2.1278   -0.3338 H   0  0  0  0  0  0  0  0  0  0  0  0
    6.6149    0.0371    1.5128 H   0  0  0  0  0  0  0  0  0  0  0  0
    5.7543    1.3955    1.7707 H   0  0  0  0  0  0  0  0  0  0  0  0
   -1.5967   -1.7457    0.0566 H   0  0  0  0  0  0  0  0  0  0  0  0
   -1.0850    1.9007   -0.7838 H   0  0  0  0  0  0  0  0  0  0  0  0
   -3.7716   -2.7801    0.3528 H   0  0  0  0  0  0  0  0  0  0  0  0
    0.1758   -0.5913    0.5483 H   0  0  0  0  0  0  0  0  0  0  0  0
    4.1742   -2.5471   -1.2344 H   0  0  0  0  0  0  0  0  0  0  0  0
   -5.6625    2.1434   -0.1994 H   0  0  0  0  0  0  0  0  0  0  0  0
   -5.9540   -2.4873    0.4559 H   0  0  0  0  0  0  0  0  0  0  0  0
  1  9  1  0  0  0  0
  1 19  1  0  0  0  0
  2 11  1  0  0  0  0
  2 30  1  0  0  0  0
  3 15  1  0  0  0  0
  3 31  1  0  0  0  0
  4 16  1  0  0  0  0
  4 32  1  0  0  0  0
  5 11  2  0  0  0  0
  6 19  2  0  0  0  0
  7  8  1  0  0  0  0
  7 24  1  0  0  0  0
  7 25  1  0  0  0  0
  8  9  1  0  0  0  0
  8 11  1  0  0  0  0
  8 20  1  0  0  0  0
  9 21  1  0  0  0  0
  9 22  1  0  0  0  0
 10 12  2  0  0  0  0
 10 13  1  0  0  0  0
 10 14  1  0  0  0  0
 12 15  1  0  0  0  0
 12 23  1  0  0  0  0
 13 17  2  0  0  0  0
 13 26  1  0  0  0  0
 14 18  2  0  0  0  0
 14 27  1  0  0  0  0
 15 16  2  0  0  0  0
 16 17  1  0  0  0  0
 17 28  1  0  0  0  0
 18 19  1  0  0  0  0
 18 29  1  0  0  0  0
M  END
> <PUBCHEM_COMPOUND_CID>
129699880

> <PUBCHEM_CONFORMER_RMSD>
0.8

> <PUBCHEM_CONFORMER_DIVERSEORDER>
1
90
45
75
52
73
84
33
5
50
43
27
79
59
56
60
31
68
51
82
34
57
64
77
7
69
72
85
76
36
35
14
65
63
87
49
58
61
42
20
92
24
39
47
32
22
41
81
26
86
67
8
17
93
3
6
80
25
37
30
62
48
19
18
16
10
74
12
53
66
40
89
46
78
2
83
23
9
29
88
71
54
21
70
11
4
28
91
15
38
94
55
44
13

> <PUBCHEM_MMFF94_PARTIAL_CHARGES>
29
1 -0.43
10 0.03
11 0.66
12 -0.15
13 -0.15
14 -0.18
15 0.08
16 0.08
17 -0.15
18 -0.14
19 0.71
2 -0.65
23 0.15
24 0.36
25 0.36
26 0.15
27 0.15
28 0.15
29 0.15
3 -0.53
30 0.5
31 0.45
32 0.45
4 -0.53
5 -0.57
6 -0.57
7 -0.99
8 0.33
9 0.28

> <PUBCHEM_EFFECTIVE_ROTOR_COUNT>
6

> <PUBCHEM_PHARMACOPHORE_FEATURES>
9
1 2 acceptor
1 3 donor
1 4 donor
1 5 acceptor
1 6 acceptor
1 7 cation
1 7 donor
3 2 5 11 anion
6 10 12 13 15 16 17 rings

> <PUBCHEM_HEAVY_ATOM_COUNT>
19

> <PUBCHEM_ATOM_DEF_STEREO_COUNT>
1

> <PUBCHEM_ATOM_UDEF_STEREO_COUNT>
0

> <PUBCHEM_BOND_DEF_STEREO_COUNT>
1

> <PUBCHEM_BOND_UDEF_STEREO_COUNT>
0

> <PUBCHEM_ISOTOPIC_ATOM_COUNT>
0

> <PUBCHEM_COMPONENT_COUNT>
1

> <PUBCHEM_CACTVS_TAUTO_COUNT>
16

> <PUBCHEM_CONFORMER_ID>
07BB102800000001

> <PUBCHEM_MMFF94_ENERGY>
37.51

> <PUBCHEM_FEATURE_SELFOVERLAP>
45.733

> <PUBCHEM_SHAPE_FINGERPRINT>
11128504 68 15502378932819626686
11858739 19 18272933795587732676
12516196 113 18343581854605997320
12596602 18 16558746853766733026
13167823 11 18335700576379150131
13288520 33 18334857238761468277
13402501 40 18411703171183691614
13533116 47 18202003269709026416
13551218 46 18343022190007398783
13685833 64 18410295825953011067
14251731 8 18260827081786754405
14341114 176 18272091608209130232
14420673 8 18336831900798656163
15042514 8 18192153914000706227
15183329 4 18186800258043992751
15537594 2 17603581902712389379
17844677 252 18411987961526962632
1813 80 17530685403046369292
19141452 34 18413386553180874559
193927 3 18114471148863393531
19489759 90 17489587844881412025
19784866 240 18411145731229705609
20374829 77 18186799175364146000
20645477 70 18261673757390642580
21150785 3 12973889247467153987
21267235 1 18260554454875294187
21623969 137 17989772189673582790
220451 1 17203608224549672012
2215653 11 18412257311926443863
2297311 6 18335987497332525533
23016692 55 18409459063882559676
23402539 116 18343013407347670773
23559900 14 18340198678470033209
239999 70 18412827980717057894
26918003 58 18202562877866635401
2767999 5 12031788050107737482
3004659 81 18113903767004902116
335352 9 18335420150134446677
351380 3 17894624855499035970
4214541 1 18408885135834843949
4325135 7 17895194442026340156
465052 167 18202286879822547062
5104073 3 18337678636943342649
542803 24 14779264202579646773
559249 180 18335416859909701763
5924683 9 17559665321414798367
59755656 215 18261387798415139223
9709674 26 18117564135360423875

> <PUBCHEM_SHAPE_MULTIPOLES>
350.81
16.51
1.82
0.75
6.05
0.21
-0.04
5.1
-1.29
-0.13
0.25
0.66
0
0.99

> <PUBCHEM_SHAPE_SELFOVERLAP>
728.043

> <PUBCHEM_SHAPE_VOLUME>
198.6

> <PUBCHEM_COORDINATE_TYPE>
2
5
10

$$$$
