129668996
  -OEChem-03292013293D

 37 38  0     1  0  0  0  0  0999 V2000
    1.3879   -0.6533    1.1620 O   0  0  0  0  0  0  0  0  0  0  0  0
   -0.2522    1.1172   -1.1880 O   0  0  0  0  0  0  0  0  0  0  0  0
    1.8822   -1.4443   -2.3701 O   0  0  0  0  0  0  0  0  0  0  0  0
    1.4273    2.1460    0.1491 O   0  0  0  0  0  0  0  0  0  0  0  0
    3.8710   -1.7427    1.4119 O   0  0  0  0  0  0  0  0  0  0  0  0
   -0.3786    3.7705    1.1380 O   0  0  0  0  0  0  0  0  0  0  0  0
   -1.3802    3.4278   -0.8807 O   0  0  0  0  0  0  0  0  0  0  0  0
   -2.5976   -3.0432    0.6620 O   0  0  0  0  0  0  0  0  0  0  0  0
   -2.0824   -0.9558   -0.2321 N   0  0  0  0  0  0  0  0  0  0  0  0
   -0.6451   -1.0700   -0.1904 C   0  0  1  0  0  0  0  0  0  0  0  0
    0.0319   -0.2867   -1.3147 C   0  0  2  0  0  0  0  0  0  0  0  0
   -0.0452   -0.5521    1.1190 C   0  0  2  0  0  0  0  0  0  0  0  0
    1.5492   -0.5578   -1.2990 C   0  0  1  0  0  0  0  0  0  0  0  0
   -0.3836    0.9347    1.2833 C   0  0  0  0  0  0  0  0  0  0  0  0
    2.0054   -1.2309    0.0112 C   0  0  1  0  0  0  0  0  0  0  0  0
    0.0681    1.7367    0.0549 C   0  0  2  0  0  0  0  0  0  0  0  0
    3.5168   -1.1187    0.1918 C   0  0  0  0  0  0  0  0  0  0  0  0
   -0.6498    3.0492    0.0229 C   0  0  0  0  0  0  0  0  0  0  0  0
   -2.9383   -1.9574    0.1999 C   0  0  0  0  0  0  0  0  0  0  0  0
   -4.3867   -1.5692    0.0688 C   0  0  0  0  0  0  0  0  0  0  0  0
   -0.4120   -2.1357   -0.3075 H   0  0  0  0  0  0  0  0  0  0  0  0
   -0.3950   -0.5885   -2.2785 H   0  0  0  0  0  0  0  0  0  0  0  0
   -0.4401   -1.1088    1.9762 H   0  0  0  0  0  0  0  0  0  0  0  0
    2.1068    0.3680   -1.4738 H   0  0  0  0  0  0  0  0  0  0  0  0
   -1.4665    1.0383    1.4275 H   0  0  0  0  0  0  0  0  0  0  0  0
    0.1036    1.3215    2.1875 H   0  0  0  0  0  0  0  0  0  0  0  0
    1.7635   -2.3024    0.0069 H   0  0  0  0  0  0  0  0  0  0  0  0
   -2.4795   -0.0759   -0.5492 H   0  0  0  0  0  0  0  0  0  0  0  0
    3.8244   -0.0696    0.2544 H   0  0  0  0  0  0  0  0  0  0  0  0
    4.0546   -1.6052   -0.6277 H   0  0  0  0  0  0  0  0  0  0  0  0
    1.6460   -0.9986   -3.2016 H   0  0  0  0  0  0  0  0  0  0  0  0
    1.8829    1.5655    0.7811 H   0  0  0  0  0  0  0  0  0  0  0  0
    4.8347   -1.6572    1.5089 H   0  0  0  0  0  0  0  0  0  0  0  0
   -5.0172   -2.4548    0.1868 H   0  0  0  0  0  0  0  0  0  0  0  0
   -4.6390   -0.8405    0.8439 H   0  0  0  0  0  0  0  0  0  0  0  0
   -4.5766   -1.1340   -0.9165 H   0  0  0  0  0  0  0  0  0  0  0  0
   -0.8404    4.6360    1.1360 H   0  0  0  0  0  0  0  0  0  0  0  0
  1 12  1  0  0  0  0
  1 15  1  0  0  0  0
  2 11  1  0  0  0  0
  2 16  1  0  0  0  0
  3 13  1  0  0  0  0
  3 31  1  0  0  0  0
  4 16  1  0  0  0  0
  4 32  1  0  0  0  0
  5 17  1  0  0  0  0
  5 33  1  0  0  0  0
  6 18  1  0  0  0  0
  6 37  1  0  0  0  0
  7 18  2  0  0  0  0
  8 19  2  0  0  0  0
  9 10  1  0  0  0  0
  9 19  1  0  0  0  0
  9 28  1  0  0  0  0
 10 11  1  0  0  0  0
 10 12  1  0  0  0  0
 10 21  1  0  0  0  0
 11 13  1  0  0  0  0
 11 22  1  0  0  0  0
 12 14  1  0  0  0  0
 12 23  1  0  0  0  0
 13 15  1  0  0  0  0
 13 24  1  0  0  0  0
 14 16  1  0  0  0  0
 14 25  1  0  0  0  0
 14 26  1  0  0  0  0
 15 17  1  0  0  0  0
 15 27  1  0  0  0  0
 16 18  1  0  0  0  0
 17 29  1  0  0  0  0
 17 30  1  0  0  0  0
 19 20  1  0  0  0  0
 20 34  1  0  0  0  0
 20 35  1  0  0  0  0
 20 36  1  0  0  0  0
M  END
> <PUBCHEM_COMPOUND_CID>
129668996

> <PUBCHEM_CONFORMER_RMSD>
0.8

> <PUBCHEM_CONFORMER_DIVERSEORDER>
1
10
6
11
7
9
8
5
3
2
4

> <PUBCHEM_MMFF94_PARTIAL_CHARGES>
24
1 -0.56
10 0.3
11 0.28
12 0.28
13 0.28
15 0.28
16 0.62
17 0.28
18 0.66
19 0.57
2 -0.56
20 0.06
28 0.37
3 -0.68
31 0.4
32 0.4
33 0.4
37 0.5
4 -0.68
5 -0.68
6 -0.65
7 -0.57
8 -0.57
9 -0.73

> <PUBCHEM_EFFECTIVE_ROTOR_COUNT>
5.4

> <PUBCHEM_PHARMACOPHORE_FEATURES>
15
1 1 acceptor
1 2 acceptor
1 3 acceptor
1 3 donor
1 4 acceptor
1 4 donor
1 5 acceptor
1 5 donor
1 6 acceptor
1 7 acceptor
1 8 acceptor
1 9 donor
3 6 7 18 anion
6 1 10 11 12 13 15 rings
6 2 10 11 12 14 16 rings

> <PUBCHEM_HEAVY_ATOM_COUNT>
20

> <PUBCHEM_ATOM_DEF_STEREO_COUNT>
5

> <PUBCHEM_ATOM_UDEF_STEREO_COUNT>
1

> <PUBCHEM_BOND_DEF_STEREO_COUNT>
0

> <PUBCHEM_BOND_UDEF_STEREO_COUNT>
0

> <PUBCHEM_ISOTOPIC_ATOM_COUNT>
0

> <PUBCHEM_COMPONENT_COUNT>
1

> <PUBCHEM_CACTVS_TAUTO_COUNT>
2

> <PUBCHEM_CONFORMER_ID>
07BA978400000001

> <PUBCHEM_MMFF94_ENERGY>
56.5257

> <PUBCHEM_FEATURE_SELFOVERLAP>
77.73

> <PUBCHEM_SHAPE_FINGERPRINT>
1 1 17547573038117838881
10948715 1 17045144654349504033
11578080 2 17532065315640104204
12423570 1 17917981763901858766
12532896 13 17621875392460142124
12592029 89 17689721182732814256
12788726 201 18334584499194960562
13134695 92 18266448987723888431
13464514 151 17976556210210178873
13681431 1 18125741198977721735
14004458 79 18265628601620093645
14181834 199 17844243162629961943
14617773 55 17749971954782128886
14787075 74 17897721196666094290
14817 1 18122318225832859810
14863182 85 16342593914486357535
16945 1 18195542393038672316
20600515 1 18335139786799917679
21041028 32 18411417345430892713
21524375 3 17191480332154174192
22112679 90 18124346923564936787
23419403 2 18118092948718520156
23557571 272 18342178809023020166
23559900 14 17479743711436859214
305870 269 17547851214844509321
394222 165 17551805041209195419
5845 1 17843714142765049274
6442390 28 17335927594116644457
68419 9 17825698584809796878
7364860 26 18050851323242928339
81228 2 18198361562564678739
9999458 23 17472421422754504741

> <PUBCHEM_SHAPE_MULTIPOLES>
359.66
4.77
3.89
1.47
2.37
4.56
0.41
-5.59
-0.87
0.96
-0.47
-0.83
-0.28
0.17

> <PUBCHEM_SHAPE_SELFOVERLAP>
752.113

> <PUBCHEM_SHAPE_VOLUME>
200.2

> <PUBCHEM_COORDINATE_TYPE>
2
5
10

$$$$
