129630527
  -OEChem-03292013293D

 54 59  0     1  0  0  0  0  0999 V2000
   -0.3386    0.5751    1.7168 O   0  0  0  0  0  0  0  0  0  0  0  0
    0.4309    2.6993   -0.7963 O   0  0  0  0  0  0  0  0  0  0  0  0
    0.1506   -1.7458    1.7173 O   0  0  0  0  0  0  0  0  0  0  0  0
   -3.3240   -0.5640   -1.4609 O   0  0  0  0  0  0  0  0  0  0  0  0
   -2.9578    2.0181    0.0877 O   0  0  0  0  0  0  0  0  0  0  0  0
   -0.4967   -0.8062   -2.7406 O   0  0  0  0  0  0  0  0  0  0  0  0
    1.6730   -2.1211   -1.4425 O   0  0  0  0  0  0  0  0  0  0  0  0
   -0.5650    3.3652    1.1467 O   0  0  0  0  0  0  0  0  0  0  0  0
    0.2715   -3.7015    0.5252 O   0  0  0  0  0  0  0  0  0  0  0  0
   -4.8154   -1.5604   -0.0382 O   0  0  0  0  0  0  0  0  0  0  0  0
    0.1318    0.3277   -0.6295 C   0  0  1  0  0  0  0  0  0  0  0  0
    1.2724   -0.3346    0.1859 C   0  0  1  0  0  0  0  0  0  0  0  0
   -0.7105    1.0466    0.4297 C   0  0  1  0  0  0  0  0  0  0  0  0
    0.7643    1.4624   -1.4440 C   0  0  2  0  0  0  0  0  0  0  0  0
    2.4421    0.6806    0.0693 C   0  0  2  0  0  0  0  0  0  0  0  0
   -2.1970    0.8152    0.0831 C   0  0  2  0  0  0  0  0  0  0  0  0
   -0.8774   -0.5409   -1.4008 C   0  0  1  0  0  0  0  0  0  0  0  0
    0.6874   -0.4181    1.5890 C   0  0  1  0  0  0  0  0  0  0  0  0
   -2.1706    0.2721   -1.3358 C   0  0  1  0  0  0  0  0  0  0  0  0
    2.2680    1.2460   -1.3409 C   0  0  0  0  0  0  0  0  0  0  0  0
    1.6434   -1.7873   -0.0831 C   0  0  1  0  0  0  0  0  0  0  0  0
   -0.2933    2.4921    0.3358 C   0  0  0  0  0  0  0  0  0  0  0  0
    3.8551    0.1612    0.2984 C   0  0  0  0  0  0  0  0  0  0  0  0
   -2.9351   -0.2870    0.8484 C   0  0  2  0  0  0  0  0  0  0  0  0
    0.6210   -2.5476    0.7160 C   0  0  0  0  0  0  0  0  0  0  0  0
   -3.8231   -0.8729   -0.2246 C   0  0  0  0  0  0  0  0  0  0  0  0
    4.8731    1.2937    0.0725 C   0  0  0  0  0  0  0  0  0  0  0  0
    4.1566   -0.9876   -0.6813 C   0  0  0  0  0  0  0  0  0  0  0  0
    3.9950   -0.3593    1.7407 C   0  0  0  0  0  0  0  0  0  0  0  0
   -3.7319    0.1794    2.0559 C   0  0  0  0  0  0  0  0  0  0  0  0
    0.4342    1.5285   -2.4844 H   0  0  0  0  0  0  0  0  0  0  0  0
    2.2693    1.4986    0.7849 H   0  0  0  0  0  0  0  0  0  0  0  0
   -1.0417   -1.5124   -0.9280 H   0  0  0  0  0  0  0  0  0  0  0  0
    1.3986   -0.2687    2.4035 H   0  0  0  0  0  0  0  0  0  0  0  0
   -2.2218    1.0475   -2.1084 H   0  0  0  0  0  0  0  0  0  0  0  0
    2.8019    2.1934   -1.4671 H   0  0  0  0  0  0  0  0  0  0  0  0
    2.5720    0.5695   -2.1410 H   0  0  0  0  0  0  0  0  0  0  0  0
    2.5275   -2.1538    0.4207 H   0  0  0  0  0  0  0  0  0  0  0  0
   -2.2582   -1.0930    1.1470 H   0  0  0  0  0  0  0  0  0  0  0  0
   -3.8267    1.8354   -0.3085 H   0  0  0  0  0  0  0  0  0  0  0  0
    0.3792   -1.2266   -2.7188 H   0  0  0  0  0  0  0  0  0  0  0  0
    4.2253   -1.9844   -0.2373 H   0  0  0  0  0  0  0  0  0  0  0  0
    4.6252    2.1752    0.6747 H   0  0  0  0  0  0  0  0  0  0  0  0
    3.7605    0.4323    2.4621 H   0  0  0  0  0  0  0  0  0  0  0  0
    3.3768   -1.2227    1.9861 H   0  0  0  0  0  0  0  0  0  0  0  0
    3.6208   -0.9983   -1.6258 H   0  0  0  0  0  0  0  0  0  0  0  0
    5.1977   -0.8612   -1.0212 H   0  0  0  0  0  0  0  0  0  0  0  0
    4.9267    1.6025   -0.9767 H   0  0  0  0  0  0  0  0  0  0  0  0
    5.8827    0.9774    0.3610 H   0  0  0  0  0  0  0  0  0  0  0  0
    5.0312   -0.6648    1.9327 H   0  0  0  0  0  0  0  0  0  0  0  0
   -4.5597    0.8384    1.7730 H   0  0  0  0  0  0  0  0  0  0  0  0
   -3.0905    0.7107    2.7659 H   0  0  0  0  0  0  0  0  0  0  0  0
   -4.1726   -0.6782    2.5762 H   0  0  0  0  0  0  0  0  0  0  0  0
    1.9116   -3.0611   -1.5125 H   0  0  0  0  0  0  0  0  0  0  0  0
  1 13  1  0  0  0  0
  1 18  1  0  0  0  0
  2 14  1  0  0  0  0
  2 22  1  0  0  0  0
  3 18  1  0  0  0  0
  3 25  1  0  0  0  0
  4 19  1  0  0  0  0
  4 26  1  0  0  0  0
  5 16  1  0  0  0  0
  5 40  1  0  0  0  0
  6 17  1  0  0  0  0
  6 41  1  0  0  0  0
  7 21  1  0  0  0  0
  7 54  1  0  0  0  0
  8 22  2  0  0  0  0
  9 25  2  0  0  0  0
 10 26  2  0  0  0  0
 11 12  1  0  0  0  0
 11 13  1  0  0  0  0
 11 14  1  0  0  0  0
 11 17  1  0  0  0  0
 12 15  1  0  0  0  0
 12 18  1  0  0  0  0
 12 21  1  0  0  0  0
 13 16  1  0  0  0  0
 13 22  1  0  0  0  0
 14 20  1  0  0  0  0
 14 31  1  0  0  0  0
 15 20  1  0  0  0  0
 15 23  1  0  0  0  0
 15 32  1  0  0  0  0
 16 19  1  0  0  0  0
 16 24  1  0  0  0  0
 17 19  1  0  0  0  0
 17 33  1  0  0  0  0
 18 34  1  0  0  0  0
 19 35  1  0  0  0  0
 20 36  1  0  0  0  0
 20 37  1  0  0  0  0
 21 25  1  0  0  0  0
 21 38  1  0  0  0  0
 23 27  1  0  0  0  0
 23 28  1  0  0  0  0
 23 29  1  0  0  0  0
 24 26  1  0  0  0  0
 24 30  1  0  0  0  0
 24 39  1  0  0  0  0
 27 43  1  0  0  0  0
 27 48  1  0  0  0  0
 27 49  1  0  0  0  0
 28 42  1  0  0  0  0
 28 46  1  0  0  0  0
 28 47  1  0  0  0  0
 29 44  1  0  0  0  0
 29 45  1  0  0  0  0
 29 50  1  0  0  0  0
 30 51  1  0  0  0  0
 30 52  1  0  0  0  0
 30 53  1  0  0  0  0
M  END
> <PUBCHEM_COMPOUND_CID>
129630527

> <PUBCHEM_CONFORMER_RMSD>
0.8

> <PUBCHEM_CONFORMER_DIVERSEORDER>
1
2

> <PUBCHEM_MMFF94_PARTIAL_CHARGES>
24
1 -0.56
10 -0.57
13 0.34
14 0.28
16 0.28
17 0.28
18 0.56
19 0.28
2 -0.43
21 0.34
22 0.66
24 0.06
25 0.66
26 0.66
3 -0.43
4 -0.43
40 0.4
41 0.4
5 -0.68
54 0.4
6 -0.68
7 -0.68
8 -0.57
9 -0.57

> <PUBCHEM_EFFECTIVE_ROTOR_COUNT>
2.8

> <PUBCHEM_PHARMACOPHORE_FEATURES>
17
1 1 acceptor
1 10 acceptor
1 5 acceptor
1 5 donor
1 6 acceptor
1 6 donor
1 7 acceptor
1 7 donor
1 8 acceptor
1 9 acceptor
4 23 27 28 29 hydrophobe
5 1 11 12 13 18 rings
5 11 12 14 15 20 rings
5 11 13 16 17 19 rings
5 2 11 13 14 22 rings
5 3 12 18 21 25 rings
5 4 16 19 24 26 rings

> <PUBCHEM_HEAVY_ATOM_COUNT>
30

> <PUBCHEM_ATOM_DEF_STEREO_COUNT>
10

> <PUBCHEM_ATOM_UDEF_STEREO_COUNT>
1

> <PUBCHEM_BOND_DEF_STEREO_COUNT>
0

> <PUBCHEM_BOND_UDEF_STEREO_COUNT>
0

> <PUBCHEM_ISOTOPIC_ATOM_COUNT>
0

> <PUBCHEM_COMPONENT_COUNT>
1

> <PUBCHEM_CACTVS_TAUTO_COUNT>
4

> <PUBCHEM_CONFORMER_ID>
07BA013F00000001

> <PUBCHEM_MMFF94_ENERGY>
138.5962

> <PUBCHEM_FEATURE_SELFOVERLAP>
89.63

> <PUBCHEM_SHAPE_FINGERPRINT>
10863032 1 18267582399291057133
10948715 1 18341613668335447980
1100329 8 18193273228682953714
11578080 2 16736924688763945646
12035758 1 18192709170854609784
12236239 1 18202284731626670741
12403814 3 17988918955438316300
12788726 201 18413389847938131960
13140716 1 18049166871107149432
13224815 77 18409726231911873672
13911987 19 18187929520931321244
13965767 371 17413623595661720321
14223421 5 18119524328327011168
14787075 74 18339360884990225752
14955137 171 18130513057745789517
15209289 33 18411697733306110818
16945 1 18202561765702292228
17349148 13 18259991457255077106
17492 54 17969508284477439998
20028762 73 18196935680678577511
20691752 17 18338250283561680422
23402539 116 18408882915278502392
23419403 2 17183027763643471222
23559900 14 18050842226502221450
23566358 27 18048883991924455410
238 59 17898826171455406367
3383291 50 18261949653801806066
34934 24 18341331076905046017
392239 28 18340195397341489600
57527452 28 16685897629714579438
5845 1 16808154388990029244
6287921 2 18268156348983095814
70251023 43 17982159029365929815

> <PUBCHEM_SHAPE_MULTIPOLES>
558.69
6.84
2.81
1.84
0.54
0.24
0.18
0.64
-0.9
0.17
-0.34
-0.4
0.17
-0.37

> <PUBCHEM_SHAPE_SELFOVERLAP>
1279.551

> <PUBCHEM_SHAPE_VOLUME>
291.8

> <PUBCHEM_COORDINATE_TYPE>
2
5
10

$$$$
