129638074
  -OEChem-03292013293D

 51 53  0     1  0  0  0  0  0999 V2000
    1.6417    0.7500    1.7242 S   0  0  0  0  0  0  0  0  0  0  0  0
    0.0065   -1.7934    1.7097 S   0  0  0  0  0  0  0  0  0  0  0  0
    1.0661    2.0695    1.9042 O   0  0  0  0  0  0  0  0  0  0  0  0
    2.2174    0.0634    2.8659 O   0  0  0  0  0  0  0  0  0  0  0  0
   -1.1896   -1.5350    2.4889 O   0  0  0  0  0  0  0  0  0  0  0  0
    1.1454   -2.4569    2.3147 O   0  0  0  0  0  0  0  0  0  0  0  0
    0.9734    2.0418   -0.7164 O   0  0  0  0  0  0  0  0  0  0  0  0
    0.5477    1.3076   -3.2796 O   0  0  0  0  0  0  0  0  0  0  0  0
    0.4966   -0.3057    0.9339 N   0  0  0  0  0  0  0  0  0  0  0  0
   -0.0980    0.6554   -2.2205 N   0  0  0  0  0  0  0  0  0  0  0  0
   -0.5494    0.3651    0.1245 C   0  0  1  0  0  0  0  0  0  0  0  0
   -1.3449    1.3185    1.0198 C   0  0  0  0  0  0  0  0  0  0  0  0
    0.1992    1.1186   -0.9617 C   0  0  0  0  0  0  0  0  0  0  0  0
   -2.7009    1.6584    0.4511 C   0  0  0  0  0  0  0  0  0  0  0  0
   -0.4477   -2.7889    0.3205 C   0  0  0  0  0  0  0  0  0  0  0  0
    2.9078    0.8937    0.4953 C   0  0  0  0  0  0  0  0  0  0  0  0
   -2.8479    2.7604   -0.3914 C   0  0  0  0  0  0  0  0  0  0  0  0
   -3.8073    0.8705    0.7682 C   0  0  0  0  0  0  0  0  0  0  0  0
   -1.7877   -3.1050    0.0975 C   0  0  0  0  0  0  0  0  0  0  0  0
    3.1432   -0.1586   -0.3895 C   0  0  0  0  0  0  0  0  0  0  0  0
    0.5345   -3.2612   -0.5500 C   0  0  0  0  0  0  0  0  0  0  0  0
    3.6725    2.0574    0.4143 C   0  0  0  0  0  0  0  0  0  0  0  0
   -4.1014    3.0744   -0.9168 C   0  0  0  0  0  0  0  0  0  0  0  0
   -5.0607    1.1844    0.2428 C   0  0  0  0  0  0  0  0  0  0  0  0
    4.1435   -0.0472   -1.3555 C   0  0  0  0  0  0  0  0  0  0  0  0
   -2.1458   -3.8935   -0.9961 C   0  0  0  0  0  0  0  0  0  0  0  0
    0.1766   -4.0496   -1.6436 C   0  0  0  0  0  0  0  0  0  0  0  0
    4.6726    2.1689   -0.5515 C   0  0  0  0  0  0  0  0  0  0  0  0
   -5.2077    2.2864   -0.5997 C   0  0  0  0  0  0  0  0  0  0  0  0
    4.9081    1.1165   -1.4364 C   0  0  0  0  0  0  0  0  0  0  0  0
   -1.1636   -4.3658   -1.8666 C   0  0  0  0  0  0  0  0  0  0  0  0
   -1.2130   -0.3691   -0.3384 H   0  0  0  0  0  0  0  0  0  0  0  0
   -1.4810    0.9296    2.0351 H   0  0  0  0  0  0  0  0  0  0  0  0
   -0.8784    2.2993    1.1294 H   0  0  0  0  0  0  0  0  0  0  0  0
   -1.9954    3.3831   -0.6491 H   0  0  0  0  0  0  0  0  0  0  0  0
   -3.7044    0.0079    1.4212 H   0  0  0  0  0  0  0  0  0  0  0  0
   -2.5724   -2.7480    0.7580 H   0  0  0  0  0  0  0  0  0  0  0  0
    2.5819   -1.0815   -0.3369 H   0  0  0  0  0  0  0  0  0  0  0  0
    1.5841   -3.0450   -0.3823 H   0  0  0  0  0  0  0  0  0  0  0  0
    3.5067    2.8841    1.0994 H   0  0  0  0  0  0  0  0  0  0  0  0
   -0.8194   -0.0131   -2.4652 H   0  0  0  0  0  0  0  0  0  0  0  0
   -4.2158    3.9320   -1.5733 H   0  0  0  0  0  0  0  0  0  0  0  0
   -5.9220    0.5703    0.4889 H   0  0  0  0  0  0  0  0  0  0  0  0
    4.3298   -0.8683   -2.0415 H   0  0  0  0  0  0  0  0  0  0  0  0
   -3.1893   -4.1392   -1.1703 H   0  0  0  0  0  0  0  0  0  0  0  0
    5.2690    3.0744   -0.6138 H   0  0  0  0  0  0  0  0  0  0  0  0
    0.9418   -4.4212   -2.3189 H   0  0  0  0  0  0  0  0  0  0  0  0
   -6.1836    2.5306   -1.0090 H   0  0  0  0  0  0  0  0  0  0  0  0
    5.6877    1.2029   -2.1877 H   0  0  0  0  0  0  0  0  0  0  0  0
   -1.4422   -4.9803   -2.7176 H   0  0  0  0  0  0  0  0  0  0  0  0
    1.3225    0.7305   -3.3897 H   0  0  0  0  0  0  0  0  0  0  0  0
  1  3  2  0  0  0  0
  1  4  2  0  0  0  0
  1  9  1  0  0  0  0
  1 16  1  0  0  0  0
  2  5  2  0  0  0  0
  2  6  2  0  0  0  0
  2  9  1  0  0  0  0
  2 15  1  0  0  0  0
  7 13  2  0  0  0  0
  8 10  1  0  0  0  0
  8 51  1  0  0  0  0
  9 11  1  0  0  0  0
 10 13  1  0  0  0  0
 10 41  1  0  0  0  0
 11 12  1  0  0  0  0
 11 13  1  0  0  0  0
 11 32  1  0  0  0  0
 12 14  1  0  0  0  0
 12 33  1  0  0  0  0
 12 34  1  0  0  0  0
 14 17  2  0  0  0  0
 14 18  1  0  0  0  0
 15 19  2  0  0  0  0
 15 21  1  0  0  0  0
 16 20  2  0  0  0  0
 16 22  1  0  0  0  0
 17 23  1  0  0  0  0
 17 35  1  0  0  0  0
 18 24  2  0  0  0  0
 18 36  1  0  0  0  0
 19 26  1  0  0  0  0
 19 37  1  0  0  0  0
 20 25  1  0  0  0  0
 20 38  1  0  0  0  0
 21 27  2  0  0  0  0
 21 39  1  0  0  0  0
 22 28  2  0  0  0  0
 22 40  1  0  0  0  0
 23 29  2  0  0  0  0
 23 42  1  0  0  0  0
 24 29  1  0  0  0  0
 24 43  1  0  0  0  0
 25 30  2  0  0  0  0
 25 44  1  0  0  0  0
 26 31  2  0  0  0  0
 26 45  1  0  0  0  0
 27 31  1  0  0  0  0
 27 47  1  0  0  0  0
 28 30  1  0  0  0  0
 28 46  1  0  0  0  0
 29 48  1  0  0  0  0
 30 49  1  0  0  0  0
 31 50  1  0  0  0  0
M  END
> <PUBCHEM_COMPOUND_CID>
129638074

> <PUBCHEM_CONFORMER_RMSD>
1

> <PUBCHEM_CONFORMER_DIVERSEORDER>
1
18
3
6
14
9
7
11
12
20
10
2
5
13
22
8
19
4
17
15
16
21

> <PUBCHEM_MMFF94_PARTIAL_CHARGES>
48
1 1.45
10 -0.39
11 0.42
12 0.14
13 0.57
14 -0.14
15 -0.01
16 -0.01
17 -0.15
18 -0.15
19 -0.15
2 1.45
20 -0.15
21 -0.15
22 -0.15
23 -0.15
24 -0.15
25 -0.15
26 -0.15
27 -0.15
28 -0.15
29 -0.15
3 -0.65
30 -0.15
31 -0.15
35 0.15
36 0.15
37 0.15
38 0.15
39 0.15
4 -0.65
40 0.15
41 0.37
42 0.15
43 0.15
44 0.15
45 0.15
46 0.15
47 0.15
48 0.15
49 0.15
5 -0.65
50 0.15
51 0.4
6 -0.65
7 -0.57
8 -0.44
9 -0.63

> <PUBCHEM_EFFECTIVE_ROTOR_COUNT>
9

> <PUBCHEM_PHARMACOPHORE_FEATURES>
9
1 10 donor
1 3 acceptor
1 4 acceptor
1 5 acceptor
1 6 acceptor
1 7 acceptor
6 14 17 18 23 24 29 rings
6 15 19 21 26 27 31 rings
6 16 20 22 25 28 30 rings

> <PUBCHEM_HEAVY_ATOM_COUNT>
31

> <PUBCHEM_ATOM_DEF_STEREO_COUNT>
1

> <PUBCHEM_ATOM_UDEF_STEREO_COUNT>
0

> <PUBCHEM_BOND_DEF_STEREO_COUNT>
0

> <PUBCHEM_BOND_UDEF_STEREO_COUNT>
0

> <PUBCHEM_ISOTOPIC_ATOM_COUNT>
0

> <PUBCHEM_COMPONENT_COUNT>
1

> <PUBCHEM_CACTVS_TAUTO_COUNT>
16

> <PUBCHEM_CONFORMER_ID>
07BA1EBA00000001

> <PUBCHEM_MMFF94_ENERGY>
81.6183

> <PUBCHEM_FEATURE_SELFOVERLAP>
45.724

> <PUBCHEM_SHAPE_FINGERPRINT>
107951 10 17968676972330934802
10930396 42 15751469258781964233
11115154 58 17544742891447741767
11488393 25 18123769560102931203
11578080 2 17486498371573191400
12156800 1 17915714622217676246
12788726 201 17975964676901301746
13150687 139 18337957792436824390
13681431 1 17476074627394538667
14955137 171 16395245820121377017
15664445 248 17327741700014443219
15775530 1 17627494270614488784
19930381 70 17549560517350184390
20197701 30 18334581221897302901
20600515 1 16672428874219121712
20602899 9 18059305296102117898
21033648 29 18341888589251055617
21344244 181 17988374701683347751
22620623 9 18196666300571267420
23419403 2 17471345752316719970
23559900 14 17763171446092877673
238 59 18196099841149751610
25222932 49 16050625079168584565
26353 1 17476640253022966451
35225 105 18340195397114505557
38695281 34 18338802212992873973
46194498 28 17903638480658153245
6669772 16 17845916473340513312

> <PUBCHEM_SHAPE_MULTIPOLES>
600.49
8.03
5.34
2.4
1.03
7.16
0.29
-9.34
-2.36
3.53
-2.23
-1.09
0.51
-0.01

> <PUBCHEM_SHAPE_SELFOVERLAP>
1263.039

> <PUBCHEM_SHAPE_VOLUME>
333.3

> <PUBCHEM_COORDINATE_TYPE>
2
5
10

$$$$
