REMARK  Name = 129661
REMARK  6 active torsions:
REMARK  status: ('A' for Active; 'I' for Inactive)
REMARK    1  A    between atoms: C_1  and  C_2
REMARK    2  A    between atoms: C_1  and  CA_12
REMARK    3  A    between atoms: C_2  and  N_5
REMARK    4  A    between atoms: CA_12  and  N_13
REMARK    5  A    between atoms: CA_12  and  C_18
REMARK    6  A    between atoms: C_18  and  O_19
REMARK                            x       y       z     vdW  Elec       q    Type
REMARK                         _______ _______ _______ _____ _____    ______ ____
ROOT
ATOM      1  C   UNL     1       1.330  -0.546  -0.873  0.00  0.00    +0.011 C 
ENDROOT
BRANCH   1   2
ATOM      2  C   UNL     1       0.601  -0.430   0.464  0.00  0.00    +0.098 C 
BRANCH   2   5
ATOM      3  O   UNL     1      -0.706   2.061   0.200  0.00  0.00    -0.252 OA
ATOM      4  O   UNL     1      -4.833   0.056  -0.236  0.00  0.00    -0.270 OA
ATOM      5  N   UNL     1      -0.816  -0.272   0.280  0.00  0.00    -0.242 N 
ATOM      6  N   UNL     1      -2.760   1.060  -0.016  0.00  0.00    -0.236 N 
ATOM      7  C   UNL     1      -1.371   1.023   0.159  0.00  0.00    +0.314 C 
ATOM      8  C   UNL     1      -1.635  -1.392   0.221  0.00  0.00    +0.074 C 
ATOM      9  C   UNL     1      -2.958  -1.341   0.053  0.00  0.00    +0.074 C 
ATOM     10  C   UNL     1      -3.619  -0.026  -0.081  0.00  0.00    +0.254 C 
ATOM     11  H   UNL     1      -3.170   1.951  -0.102  0.00  0.00    +0.159 HD
ENDBRANCH   2   5
ENDBRANCH   1   2
BRANCH   1  12
ATOM     12  CA  UNL     1       2.843  -0.733  -0.710  0.00  0.00    +0.037 C 
BRANCH  12  13
ATOM     13  N   UNL     1       3.104  -1.913   0.118  0.00  0.00    +0.389 N 
ATOM     14  H1  UNL     1       2.700  -2.737  -0.327  0.00  0.00    -0.088 HD
ATOM     15  H2  UNL     1       2.685  -1.783   1.038  0.00  0.00    -0.088 HD
ATOM     16  H3  UNL     1       4.111  -2.041   0.218  0.00  0.00    -0.088 HD
ENDBRANCH  12  13
BRANCH  12  18
ATOM     17  OXT UNL     1       4.022   0.396   1.099  0.00  0.00    -0.253 OA
ATOM     18  C   UNL     1       3.469   0.449   0.008  0.00  0.00    +0.293 C 
BRANCH  18  19
ATOM     19  O   UNL     1       3.328   1.607  -0.687  0.00  0.00    -0.482 OA
ATOM     20  H   UNL     1       2.898   1.605  -1.520  0.00  0.00    +0.295 HD
ENDBRANCH  18  19
ENDBRANCH  12  18
ENDBRANCH   1  12
TORSDOF 6
