REMARK  Name = 129626605
REMARK  3 active torsions:
REMARK  status: ('A' for Active; 'I' for Inactive)
REMARK    1  A    between atoms: C_6  and  O_17
REMARK    2  A    between atoms: O_17  and  C_18
REMARK    3  A    between atoms: C_19  and  N_26
REMARK                            x       y       z     vdW  Elec       q    Type
REMARK                         _______ _______ _______ _____ _____    ______ ____
ROOT
ATOM      1 CL   UNL     1       5.765  -1.688   0.001  0.00  0.00    -0.051 Cl
ATOM      2  N   UNL     1       1.506  -0.422   0.000  0.00  0.00    -0.300 NA
ATOM      3  N   UNL     1       3.211  -2.126   0.001  0.00  0.00    -0.303 NA
ATOM      4  C   UNL     1       2.486   0.506  -0.001  0.00  0.00    +0.185 C 
ATOM      5  C   UNL     1       3.832   0.200   0.000  0.00  0.00    +0.148 C 
ATOM      6  C   UNL     1       1.934  -1.699   0.000  0.00  0.00    +0.316 C 
ATOM      7  C   UNL     1       4.138  -1.145   0.000  0.00  0.00    +0.190 C 
ATOM      8  N   UNL     1       2.128   1.876  -0.002  0.00  0.00    -0.275 N 
ATOM      9  N   UNL     1      -1.164   2.981   0.002  0.00  0.00    -0.239 N 
ATOM     10  N   UNL     1      -0.312   1.942   0.001  0.00  0.00    -0.166 NA
ATOM     11  C   UNL     1       0.886   2.532  -0.001  0.00  0.00    +0.152 C 
ATOM     12  C   UNL     1      -0.548   4.199   0.001  0.00  0.00    +0.046 C 
ATOM     13  C   UNL     1       0.800   3.937  -0.002  0.00  0.00    +0.048 C 
ATOM     14  C   UNL     1      -1.306   5.460   0.000  0.00  0.00    +0.049 C 
ATOM     15  H   UNL     1       2.900   2.488  -0.002  0.00  0.00    +0.156 HD
ATOM     16  H   UNL     1      -2.143   2.874   0.004  0.00  0.00    +0.174 HD
ENDROOT
BRANCH   6  17
ATOM     17  O   UNL     1       0.955  -2.679   0.000  0.00  0.00    -0.375 OA
BRANCH  17  18
ATOM     18  C   UNL     1      -0.345  -2.275   0.000  0.00  0.00    +0.161 C 
ATOM     19  C   UNL     1      -3.008  -1.446   0.000  0.00  0.00    +0.143 C 
ATOM     20  C   UNL     1      -1.011  -2.068  -1.208  0.00  0.00    +0.040 C 
ATOM     21  C   UNL     1      -1.011  -2.067   1.208  0.00  0.00    +0.040 C 
ATOM     22  C   UNL     1      -2.342  -1.654  -1.208  0.00  0.00    +0.027 C 
ATOM     23  C   UNL     1      -2.342  -1.652   1.208  0.00  0.00    +0.027 C 
BRANCH  19  26
ATOM     24  O   UNL     1      -4.945  -0.844  -1.097  0.00  0.00    -0.126 OA
ATOM     25  O   UNL     1      -4.944  -0.843   1.098  0.00  0.00    -0.126 OA
ATOM     26  N   UNL     1      -4.364  -1.024   0.000  0.00  0.00    +0.058 N 
ENDBRANCH  19  26
ENDBRANCH  17  18
ENDBRANCH   6  17
TORSDOF 3
