129631779
  -OEChem-03292013293D

 42 42  0     1  0  0  0  0  0999 V2000
    4.2108   -0.7512    0.5572 S   0  0  2  0  0  0  0  0  0  0  0  0
    6.2211   -2.8895   -0.0399 S   0  0  0  0  0  0  0  0  0  0  0  0
    2.8686    3.3916   -1.2747 O   0  0  0  0  0  0  0  0  0  0  0  0
    3.0421   -1.6002    0.1669 O   0  0  0  0  0  0  0  0  0  0  0  0
    0.4271    1.6812    1.9844 O   0  0  0  0  0  0  0  0  0  0  0  0
   -3.2867   -1.5602    2.0503 O   0  0  0  0  0  0  0  0  0  0  0  0
   -6.5565   -1.6373   -1.1737 O   0  0  0  0  0  0  0  0  0  0  0  0
    1.5526    1.1620    0.0206 N   0  0  0  0  0  0  0  0  0  0  0  0
   -4.8788   -0.0768   -1.3145 N   0  0  0  0  0  0  0  0  0  0  0  0
   -4.9204   -1.6045    0.4428 N   0  0  0  0  0  0  0  0  0  0  0  0
    2.8439    1.6631    0.4309 C   0  0  1  0  0  0  0  0  0  0  0  0
    3.9708    0.8736   -0.2374 C   0  0  0  0  0  0  0  0  0  0  0  0
    2.9432    3.1600    0.1265 C   0  0  0  0  0  0  0  0  0  0  0  0
    0.4443    1.2179    0.8485 C   0  0  0  0  0  0  0  0  0  0  0  0
    5.6262   -1.2338   -0.4792 C   0  0  0  0  0  0  0  0  0  0  0  0
   -3.1312    0.0579    0.2932 C   0  0  0  0  0  0  0  0  0  0  0  0
   -0.7630    0.6354    0.2001 C   0  0  0  0  0  0  0  0  0  0  0  0
   -3.7242    0.5069   -0.8341 C   0  0  0  0  0  0  0  0  0  0  0  0
   -1.9215    0.6090    0.8612 C   0  0  0  0  0  0  0  0  0  0  0  0
   -3.7662   -1.0984    1.0165 C   0  0  0  0  0  0  0  0  0  0  0  0
   -3.2463    1.6500   -1.6916 C   0  0  0  0  0  0  0  0  0  0  0  0
   -5.5263   -1.1404   -0.7172 C   0  0  0  0  0  0  0  0  0  0  0  0
    7.5704   -3.0162   -1.2368 C   0  0  0  0  0  0  0  0  0  0  0  0
    2.9185    1.5529    1.5206 H   0  0  0  0  0  0  0  0  0  0  0  0
    3.7812    0.7153   -1.3046 H   0  0  0  0  0  0  0  0  0  0  0  0
    4.9188    1.4116   -0.1281 H   0  0  0  0  0  0  0  0  0  0  0  0
    2.1276    3.7118    0.6062 H   0  0  0  0  0  0  0  0  0  0  0  0
    3.8936    3.5635    0.4918 H   0  0  0  0  0  0  0  0  0  0  0  0
    1.4583    0.8036   -0.9256 H   0  0  0  0  0  0  0  0  0  0  0  0
    6.4272   -0.5064   -0.3221 H   0  0  0  0  0  0  0  0  0  0  0  0
    5.3111   -1.2206   -1.5263 H   0  0  0  0  0  0  0  0  0  0  0  0
   -0.6710    0.2479   -0.8096 H   0  0  0  0  0  0  0  0  0  0  0  0
   -2.0006    0.9688    1.8834 H   0  0  0  0  0  0  0  0  0  0  0  0
    2.9406    4.3519   -1.4093 H   0  0  0  0  0  0  0  0  0  0  0  0
   -5.2792    0.3020   -2.1684 H   0  0  0  0  0  0  0  0  0  0  0  0
   -2.8257    1.2697   -2.6284 H   0  0  0  0  0  0  0  0  0  0  0  0
   -2.4898    2.2696   -1.2029 H   0  0  0  0  0  0  0  0  0  0  0  0
   -4.0795    2.3191   -1.9363 H   0  0  0  0  0  0  0  0  0  0  0  0
   -5.3658   -2.3866    0.9143 H   0  0  0  0  0  0  0  0  0  0  0  0
    8.0665   -3.9833   -1.1196 H   0  0  0  0  0  0  0  0  0  0  0  0
    8.3058   -2.2255   -1.0667 H   0  0  0  0  0  0  0  0  0  0  0  0
    7.1827   -2.9458   -2.2564 H   0  0  0  0  0  0  0  0  0  0  0  0
  1  4  2  0  0  0  0
  1 12  1  0  0  0  0
  1 15  1  0  0  0  0
  2 15  1  0  0  0  0
  2 23  1  0  0  0  0
  3 13  1  0  0  0  0
  3 34  1  0  0  0  0
  5 14  2  0  0  0  0
  6 20  2  0  0  0  0
  7 22  2  0  0  0  0
  8 11  1  0  0  0  0
  8 14  1  0  0  0  0
  8 29  1  0  0  0  0
  9 18  1  0  0  0  0
  9 22  1  0  0  0  0
  9 35  1  0  0  0  0
 10 20  1  0  0  0  0
 10 22  1  0  0  0  0
 10 39  1  0  0  0  0
 11 12  1  0  0  0  0
 11 13  1  0  0  0  0
 11 24  1  0  0  0  0
 12 25  1  0  0  0  0
 12 26  1  0  0  0  0
 13 27  1  0  0  0  0
 13 28  1  0  0  0  0
 14 17  1  0  0  0  0
 15 30  1  0  0  0  0
 15 31  1  0  0  0  0
 16 18  2  0  0  0  0
 16 19  1  0  0  0  0
 16 20  1  0  0  0  0
 17 19  2  0  0  0  0
 17 32  1  0  0  0  0
 18 21  1  0  0  0  0
 19 33  1  0  0  0  0
 21 36  1  0  0  0  0
 21 37  1  0  0  0  0
 21 38  1  0  0  0  0
 23 40  1  0  0  0  0
 23 41  1  0  0  0  0
 23 42  1  0  0  0  0
M  END
> <PUBCHEM_COMPOUND_CID>
129631779

> <PUBCHEM_CONFORMER_RMSD>
1

> <PUBCHEM_CONFORMER_DIVERSEORDER>
1
34
41
55
49
47
27
92
10
89
16
11
35
94
76
69
71
29
79
75
43
48
60
51
37
91
22
46
73
36
57
19
88
26
87
6
85
14
20
13
96
33
52
84
12
97
39
30
90
45
74
86
83
67
98
21
44
56
9
18
8
61
72
62
15
23
66
65
42
93
70
58
17
5
32
24
95
59
40
63
77
4
80
28
50
82
68
64
31
25
38
81
53
7
54
3
2
78

> <PUBCHEM_MMFF94_PARTIAL_CHARGES>
29
1 0.11
10 -0.49
11 0.3
12 0.19
13 0.28
14 0.62
15 0.42
16 0.01
17 -0.14
18 -0.03
19 -0.15
2 -0.46
20 0.62
21 0.14
22 0.69
23 0.23
29 0.37
3 -0.68
32 0.15
33 0.15
34 0.4
35 0.37
39 0.37
4 -0.5
5 -0.57
6 -0.57
7 -0.57
8 -0.73
9 -0.54

> <PUBCHEM_EFFECTIVE_ROTOR_COUNT>
9

> <PUBCHEM_PHARMACOPHORE_FEATURES>
11
1 10 donor
1 23 hydrophobe
1 3 acceptor
1 3 donor
1 4 acceptor
1 5 acceptor
1 6 acceptor
1 7 acceptor
1 8 donor
1 9 donor
6 9 10 16 18 20 22 rings

> <PUBCHEM_HEAVY_ATOM_COUNT>
23

> <PUBCHEM_ATOM_DEF_STEREO_COUNT>
1

> <PUBCHEM_ATOM_UDEF_STEREO_COUNT>
1

> <PUBCHEM_BOND_DEF_STEREO_COUNT>
1

> <PUBCHEM_BOND_UDEF_STEREO_COUNT>
0

> <PUBCHEM_ISOTOPIC_ATOM_COUNT>
0

> <PUBCHEM_COMPONENT_COUNT>
1

> <PUBCHEM_CACTVS_TAUTO_COUNT>
58

> <PUBCHEM_CONFORMER_ID>
07BA062300000001

> <PUBCHEM_MMFF94_ENERGY>
42.4928

> <PUBCHEM_FEATURE_SELFOVERLAP>
55.87

> <PUBCHEM_SHAPE_FINGERPRINT>
10670039 82 15430306988995354372
12166972 35 18272367568753593050
12596602 18 16415479384686761451
12760667 363 18271248231303850666
13533116 47 18271804678476390672
13540713 5 18129120982148629816
13668630 136 18342453729457864902
13955234 65 18128533967493176216
14123256 34 18342460305522345318
14251764 75 8286186259149606922
14910302 57 18114451349211838933
15183329 4 16950563238652724962
15961568 22 16661766768257681092
17870717 6 17749390373577075699
1813 80 16916237713905158161
18222031 100 18338232666565772066
20028762 73 17988642965726388534
20645477 70 18410570725593325848
21033650 10 16732980869162103484
21307412 95 18260546754031243351
21682296 61 18343023259427745166
22061861 79 18335699472620053903
22849339 104 17023469763068216819
23559900 14 18187643651892265241
270888 7 7853558107780745142
2748736 6 11170209695670990718
3004659 81 18409161121299726328
34797466 226 17604989394029849965
46194498 28 18040711523948467068
5281201 14 18187643638960182956
543368 44 12035737508965624735
7970288 3 18271806770769496766
9841814 1 16486692592692012288

> <PUBCHEM_SHAPE_MULTIPOLES>
436.74
17.58
3.45
1.46
8.92
1.1
0.12
-18.88
-6.56
5.59
-0.64
-1.29
0.08
1.23

> <PUBCHEM_SHAPE_SELFOVERLAP>
850.286

> <PUBCHEM_SHAPE_VOLUME>
263.8

> <PUBCHEM_COORDINATE_TYPE>
2
5
10

$$$$
