129626605
  -OEChem-03292013293D

 35 37  0     0  0  0  0  0  0999 V2000
    5.7654   -1.6881    0.0010 Cl  0  0  0  0  0  0  0  0  0  0  0  0
    0.9550   -2.6790    0.0004 O   0  0  0  0  0  0  0  0  0  0  0  0
   -4.9453   -0.8440   -1.0975 O   0  5  0  0  0  0  0  0  0  0  0  0
   -4.9444   -0.8432    1.0978 O   0  0  0  0  0  0  0  0  0  0  0  0
    2.1281    1.8764   -0.0015 N   0  0  0  0  0  0  0  0  0  0  0  0
   -1.1639    2.9814    0.0023 N   0  0  0  0  0  0  0  0  0  0  0  0
   -0.3120    1.9419    0.0011 N   0  0  0  0  0  0  0  0  0  0  0  0
    1.5065   -0.4221   -0.0004 N   0  0  0  0  0  0  0  0  0  0  0  0
    3.2112   -2.1255    0.0007 N   0  0  0  0  0  0  0  0  0  0  0  0
   -4.3644   -1.0241    0.0000 N   0  3  0  0  0  0  0  0  0  0  0  0
    0.8863    2.5319   -0.0014 C   0  0  0  0  0  0  0  0  0  0  0  0
   -0.5481    4.1985    0.0005 C   0  0  0  0  0  0  0  0  0  0  0  0
    0.8002    3.9369   -0.0016 C   0  0  0  0  0  0  0  0  0  0  0  0
    2.4859    0.5058   -0.0007 C   0  0  0  0  0  0  0  0  0  0  0  0
   -0.3447   -2.2750    0.0000 C   0  0  0  0  0  0  0  0  0  0  0  0
   -1.3055    5.4604    0.0002 C   0  0  0  0  0  0  0  0  0  0  0  0
    3.8316    0.2002   -0.0004 C   0  0  0  0  0  0  0  0  0  0  0  0
   -3.0084   -1.4460   -0.0004 C   0  0  0  0  0  0  0  0  0  0  0  0
   -1.0106   -2.0684   -1.2082 C   0  0  0  0  0  0  0  0  0  0  0  0
   -1.0106   -2.0670    1.2080 C   0  0  0  0  0  0  0  0  0  0  0  0
    1.9337   -1.6993    0.0002 C   0  0  0  0  0  0  0  0  0  0  0  0
   -2.3424   -1.6539   -1.2083 C   0  0  0  0  0  0  0  0  0  0  0  0
   -2.3424   -1.6524    1.2077 C   0  0  0  0  0  0  0  0  0  0  0  0
    4.1384   -1.1452    0.0004 C   0  0  0  0  0  0  0  0  0  0  0  0
    1.6010    4.6631   -0.0032 H   0  0  0  0  0  0  0  0  0  0  0  0
    2.9507    2.4782   -0.0026 H   0  0  0  0  0  0  0  0  0  0  0  0
   -2.1573    2.7855    0.0041 H   0  0  0  0  0  0  0  0  0  0  0  0
   -1.9429    5.5300   -0.8872 H   0  0  0  0  0  0  0  0  0  0  0  0
   -0.6330    6.3243   -0.0003 H   0  0  0  0  0  0  0  0  0  0  0  0
   -1.9423    5.5308    0.8879 H   0  0  0  0  0  0  0  0  0  0  0  0
   -0.4979   -2.2291   -2.1528 H   0  0  0  0  0  0  0  0  0  0  0  0
   -0.4979   -2.2266    2.1528 H   0  0  0  0  0  0  0  0  0  0  0  0
    4.6024    0.9620   -0.0006 H   0  0  0  0  0  0  0  0  0  0  0  0
   -2.8291   -1.5026   -2.1684 H   0  0  0  0  0  0  0  0  0  0  0  0
   -2.8289   -1.5001    2.1677 H   0  0  0  0  0  0  0  0  0  0  0  0
  1 24  1  0  0  0  0
  2 15  1  0  0  0  0
  2 21  1  0  0  0  0
  3 10  1  0  0  0  0
  4 10  2  0  0  0  0
  5 11  1  0  0  0  0
  5 14  1  0  0  0  0
  5 26  1  0  0  0  0
  6  7  1  0  0  0  0
  6 12  1  0  0  0  0
  6 27  1  0  0  0  0
  7 11  2  0  0  0  0
  8 14  1  0  0  0  0
  8 21  2  0  0  0  0
  9 21  1  0  0  0  0
  9 24  2  0  0  0  0
 10 18  1  0  0  0  0
 11 13  1  0  0  0  0
 12 13  2  0  0  0  0
 12 16  1  0  0  0  0
 13 25  1  0  0  0  0
 14 17  2  0  0  0  0
 15 19  2  0  0  0  0
 15 20  1  0  0  0  0
 16 28  1  0  0  0  0
 16 29  1  0  0  0  0
 16 30  1  0  0  0  0
 17 24  1  0  0  0  0
 17 33  1  0  0  0  0
 18 22  2  0  0  0  0
 18 23  1  0  0  0  0
 19 22  1  0  0  0  0
 19 31  1  0  0  0  0
 20 23  2  0  0  0  0
 20 32  1  0  0  0  0
 22 34  1  0  0  0  0
 23 35  1  0  0  0  0
M  CHG  2   3  -1  10   1
M  END
> <PUBCHEM_COMPOUND_CID>
129626605

> <PUBCHEM_CONFORMER_RMSD>
0.8

> <PUBCHEM_CONFORMER_DIVERSEORDER>
1
49
9
90
50
60
46
68
72
32
58
76
74
41
20
18
24
73
13
87
6
30
3
62
85
10
4
64
82
40
29
69
93
83
8
28
45
91
39
11
25
38
51
59
81
17
86
48
61
70
14
15
23
65
33
12
66
67
19
52
5
42
63
71
84
77
21
16
35
94
34
88
37
55
43
75
31
27
26
7
54
92
47
53
89
22
56
78
80
36
79
2
57
44

> <PUBCHEM_MMFF94_PARTIAL_CHARGES>
32
1 -0.18
10 0.91
11 0.37
12 -0.33
13 -0.15
14 0.41
15 0.08
16 0.18
17 -0.15
18 0.13
19 -0.15
2 -0.17
20 -0.15
21 0.7
22 -0.15
23 -0.15
24 0.49
25 0.15
26 0.4
27 0.27
3 -0.52
31 0.15
32 0.15
33 0.15
34 0.15
35 0.15
4 -0.52
5 -0.58
6 0.3
7 -0.71
8 -0.62
9 -0.62

> <PUBCHEM_EFFECTIVE_ROTOR_COUNT>
5

> <PUBCHEM_PHARMACOPHORE_FEATURES>
11
1 3 acceptor
1 3 anion
1 4 acceptor
1 5 donor
1 6 donor
1 9 acceptor
3 5 7 11 cation
3 8 9 21 cation
5 6 7 11 12 13 rings
6 15 18 19 20 22 23 rings
6 8 9 14 17 21 24 rings

> <PUBCHEM_HEAVY_ATOM_COUNT>
24

> <PUBCHEM_ATOM_DEF_STEREO_COUNT>
0

> <PUBCHEM_ATOM_UDEF_STEREO_COUNT>
0

> <PUBCHEM_BOND_DEF_STEREO_COUNT>
0

> <PUBCHEM_BOND_UDEF_STEREO_COUNT>
0

> <PUBCHEM_ISOTOPIC_ATOM_COUNT>
0

> <PUBCHEM_COMPONENT_COUNT>
1

> <PUBCHEM_CACTVS_TAUTO_COUNT>
28

> <PUBCHEM_CONFORMER_ID>
07B9F1ED00000001

> <PUBCHEM_MMFF94_ENERGY>
66.3927

> <PUBCHEM_FEATURE_SELFOVERLAP>
55.902

> <PUBCHEM_SHAPE_FINGERPRINT>
10006869 2 17976531720554564059
104564 63 18338517431028709630
10688039 33 18187086135156544701
11578080 2 17487871477113059146
12156800 1 17907330695937225740
12293681 4 18260557701164195362
12553582 1 18339079397260430004
12788726 201 18262514793538954426
13134695 92 18337952415090394286
13590594 115 18411697681740077433
138480 1 15167982936450300928
14028597 1 17677038041714087858
14363568 33 17902815276401827408
14466204 15 17690270934753557360
14790565 3 17472421431720050796
14866123 147 17470440738721143858
15042514 8 18193837038463258034
15081414 286 18339648969916362592
15338160 23 17616204215523645738
15927050 60 17545882629559609990
16087824 20 18266742381678632317
17138139 8 17477438116392673565
18335252 114 18339347631538782895
18785283 64 17975428111454212931
19930381 70 17545316840674672779
20621476 13 18193550297345075973
21041028 32 18409167692911107414
21197605 99 17835248840125498761
21236236 1 18339924789117580522
21285901 2 17988377970380430558
21641784 216 18115326500860337748
21860390 5 18199192969264113054
22113638 7 18269835474768149047
23419403 2 11125592406941665742
23558518 356 17974858272067501294
3014063 31 18410569565820235109
3524813 1 17967799566267679279
3886686 26 16183236437628892488
474 4 18051969522146867123
5939293 188 18194680595240076058
653340 110 18268700624492541696

> <PUBCHEM_SHAPE_MULTIPOLES>
448.28
8.27
6.14
0.93
2.63
11.84
0
-6.95
0
-2.89
0
-0.81
-0.6
0

> <PUBCHEM_SHAPE_SELFOVERLAP>
966.627

> <PUBCHEM_SHAPE_VOLUME>
246.8

> <PUBCHEM_COORDINATE_TYPE>
2
5
10

$$$$
