129661
  -OEChem-03292013323D

 26 26  0     1  0  0  0  0  0999 V2000
    3.3279    1.6075   -0.6871 O   0  0  0  0  0  0  0  0  0  0  0  0
   -0.7057    2.0606    0.2001 O   0  0  0  0  0  0  0  0  0  0  0  0
    4.0224    0.3963    1.0994 O   0  0  0  0  0  0  0  0  0  0  0  0
   -4.8332    0.0557   -0.2357 O   0  0  0  0  0  0  0  0  0  0  0  0
   -0.8161   -0.2716    0.2797 N   0  0  0  0  0  0  0  0  0  0  0  0
    3.1044   -1.9130    0.1176 N   0  0  0  0  0  0  0  0  0  0  0  0
   -2.7604    1.0604   -0.0160 N   0  0  0  0  0  0  0  0  0  0  0  0
    1.3304   -0.5464   -0.8726 C   0  0  0  0  0  0  0  0  0  0  0  0
    0.6013   -0.4296    0.4641 C   0  0  0  0  0  0  0  0  0  0  0  0
    2.8427   -0.7330   -0.7097 C   0  0  1  0  0  0  0  0  0  0  0  0
   -1.3706    1.0232    0.1591 C   0  0  0  0  0  0  0  0  0  0  0  0
   -1.6353   -1.3920    0.2207 C   0  0  0  0  0  0  0  0  0  0  0  0
    3.4692    0.4490    0.0082 C   0  0  0  0  0  0  0  0  0  0  0  0
   -2.9585   -1.3405    0.0532 C   0  0  0  0  0  0  0  0  0  0  0  0
   -3.6185   -0.0264   -0.0808 C   0  0  0  0  0  0  0  0  0  0  0  0
    1.1306    0.3476   -1.4770 H   0  0  0  0  0  0  0  0  0  0  0  0
    0.9216   -1.3927   -1.4407 H   0  0  0  0  0  0  0  0  0  0  0  0
    0.7737   -1.3063    1.0995 H   0  0  0  0  0  0  0  0  0  0  0  0
    0.9769    0.4369    1.0207 H   0  0  0  0  0  0  0  0  0  0  0  0
    3.3307   -0.8533   -1.6826 H   0  0  0  0  0  0  0  0  0  0  0  0
   -1.1361   -2.3506    0.3171 H   0  0  0  0  0  0  0  0  0  0  0  0
    4.1084   -2.0856    0.1580 H   0  0  0  0  0  0  0  0  0  0  0  0
    2.6935   -2.7355   -0.3226 H   0  0  0  0  0  0  0  0  0  0  0  0
   -3.1817    1.9808   -0.1051 H   0  0  0  0  0  0  0  0  0  0  0  0
   -3.5663   -2.2359    0.0106 H   0  0  0  0  0  0  0  0  0  0  0  0
    3.7228    2.3694   -0.2118 H   0  0  0  0  0  0  0  0  0  0  0  0
  1 13  1  0  0  0  0
  1 26  1  0  0  0  0
  2 11  2  0  0  0  0
  3 13  2  0  0  0  0
  4 15  2  0  0  0  0
  5  9  1  0  0  0  0
  5 11  1  0  0  0  0
  5 12  1  0  0  0  0
  6 10  1  0  0  0  0
  6 22  1  0  0  0  0
  6 23  1  0  0  0  0
  7 11  1  0  0  0  0
  7 15  1  0  0  0  0
  7 24  1  0  0  0  0
  8  9  1  0  0  0  0
  8 10  1  0  0  0  0
  8 16  1  0  0  0  0
  8 17  1  0  0  0  0
  9 18  1  0  0  0  0
  9 19  1  0  0  0  0
 10 13  1  0  0  0  0
 10 20  1  0  0  0  0
 12 14  2  0  0  0  0
 12 21  1  0  0  0  0
 14 15  1  0  0  0  0
 14 25  1  0  0  0  0
M  END
> <PUBCHEM_COMPOUND_CID>
129661

> <PUBCHEM_CONFORMER_RMSD>
0.6

> <PUBCHEM_CONFORMER_DIVERSEORDER>
3
32
30
21
9
13
14
31
2
27
18
22
8
7
25
24
29
1
10
15
5
12
23
19
28
20
16
11
17
6
26
4

> <PUBCHEM_MMFF94_PARTIAL_CHARGES>
20
1 -0.65
10 0.33
11 0.69
12 -0.04
13 0.66
14 -0.14
15 0.62
2 -0.57
21 0.15
22 0.36
23 0.36
24 0.37
25 0.15
26 0.5
3 -0.57
4 -0.57
5 -0.47
6 -0.99
7 -0.49
9 0.3

> <PUBCHEM_EFFECTIVE_ROTOR_COUNT>
4

> <PUBCHEM_PHARMACOPHORE_FEATURES>
9
1 1 acceptor
1 2 acceptor
1 3 acceptor
1 4 acceptor
1 6 cation
1 6 donor
1 7 donor
3 1 3 13 anion
6 5 7 11 12 14 15 rings

> <PUBCHEM_HEAVY_ATOM_COUNT>
15

> <PUBCHEM_ATOM_DEF_STEREO_COUNT>
1

> <PUBCHEM_ATOM_UDEF_STEREO_COUNT>
0

> <PUBCHEM_BOND_DEF_STEREO_COUNT>
0

> <PUBCHEM_BOND_UDEF_STEREO_COUNT>
0

> <PUBCHEM_ISOTOPIC_ATOM_COUNT>
0

> <PUBCHEM_COMPONENT_COUNT>
1

> <PUBCHEM_CACTVS_TAUTO_COUNT>
3

> <PUBCHEM_CONFORMER_ID>
0001FA7D00000003

> <PUBCHEM_MMFF94_ENERGY>
21.814

> <PUBCHEM_FEATURE_SELFOVERLAP>
45.73

> <PUBCHEM_SHAPE_FINGERPRINT>
10608611 8 18341331106716317064
11132069 177 18411980273503289073
12162725 195 18408325484326381844
13296908 3 18411991264277477598
15375358 24 18343019999663365175
15375462 6 18341898467775218446
17846911 113 18411697694730467923
18186145 218 18339649927540868022
200 152 17489587835663690678
20279233 1 18273498978760935690
20528008 55 18343301470107686151
20645477 70 18272654506575965230
22213442 358 18270400628271823743
22485316 2 18272649056520571831
23402539 116 18411690010933995647
23557571 272 18130514045783751668
23559900 14 18411699851200053190
265663 24 13623532376833855873
449060 62 18343026618292318788
5374978 207 18412259519423719346
537710 114 18412549837764738757
69090 78 18412542102649906119
7364860 26 18268429045131341874
9709674 26 18340212903238466438

> <PUBCHEM_SHAPE_MULTIPOLES>
270.27
8.09
1.68
0.79
0.45
0.17
0
0.16
0.09
-0.29
-0.01
-0.51
-0.01
0.04

> <PUBCHEM_SHAPE_SELFOVERLAP>
550.717

> <PUBCHEM_SHAPE_VOLUME>
154.8

> <PUBCHEM_COORDINATE_TYPE>
2
5
10

$$$$
