REMARK  Name = 129630527
REMARK  4 active torsions:
REMARK  status: ('A' for Active; 'I' for Inactive)
REMARK    1  A    between atoms: C_12  and  C_24
REMARK    2  A    between atoms: C_13  and  O_28
REMARK    3  A    between atoms: C_14  and  O_30
REMARK    4  A    between atoms: C_18  and  O_32
REMARK                            x       y       z     vdW  Elec       q    Type
REMARK                         _______ _______ _______ _____ _____    ______ ____
ROOT
ATOM      1  O   UNL     1      -0.339   0.575   1.717  0.00  0.00    -0.312 OA
ATOM      2  O   UNL     1       0.431   2.699  -0.796  0.00  0.00    -0.450 OA
ATOM      3  O   UNL     1       0.151  -1.746   1.717  0.00  0.00    -0.423 OA
ATOM      4  O   UNL     1      -3.324  -0.564  -1.461  0.00  0.00    -0.447 OA
ATOM      5  O   UNL     1      -0.565   3.365   1.147  0.00  0.00    -0.247 OA
ATOM      6  O   UNL     1       0.272  -3.701   0.525  0.00  0.00    -0.247 OA
ATOM      7  O   UNL     1      -4.815  -1.560  -0.038  0.00  0.00    -0.250 OA
ATOM      8  C   UNL     1       0.132   0.328  -0.629  0.00  0.00    +0.109 C 
ATOM      9  C   UNL     1       1.272  -0.335   0.186  0.00  0.00    +0.108 C 
ATOM     10  C   UNL     1      -0.711   1.047   0.430  0.00  0.00    +0.216 C 
ATOM     11  C   UNL     1       0.764   1.462  -1.444  0.00  0.00    +0.174 C 
ATOM     12  C   UNL     1       2.442   0.681   0.069  0.00  0.00    +0.013 C 
ATOM     13  C   UNL     1      -2.197   0.815   0.083  0.00  0.00    +0.170 C 
ATOM     14  C   UNL     1      -0.877  -0.541  -1.401  0.00  0.00    +0.159 C 
ATOM     15  C   UNL     1       0.687  -0.418   1.589  0.00  0.00    +0.294 C 
ATOM     16  C   UNL     1      -2.171   0.272  -1.336  0.00  0.00    +0.223 C 
ATOM     17  C   UNL     1       2.268   1.246  -1.341  0.00  0.00    +0.044 C 
ATOM     18  C   UNL     1       1.643  -1.787  -0.083  0.00  0.00    +0.216 C 
ATOM     19  C   UNL     1      -0.293   2.492   0.336  0.00  0.00    +0.344 C 
ATOM     20  C   UNL     1      -2.935  -0.287   0.848  0.00  0.00    +0.130 C 
ATOM     21  C   UNL     1       0.621  -2.548   0.716  0.00  0.00    +0.346 C 
ATOM     22  C   UNL     1      -3.823  -0.873  -0.225  0.00  0.00    +0.319 C 
ATOM     23  C   UNL     1      -3.732   0.179   2.056  0.00  0.00    +0.014 C 
ENDROOT
BRANCH  12  24
ATOM     24  C   UNL     1       3.855   0.161   0.298  0.00  0.00    +0.000 C 
ATOM     25  C   UNL     1       4.873   1.294   0.072  0.00  0.00    +0.000 C 
ATOM     26  C   UNL     1       4.157  -0.988  -0.681  0.00  0.00    +0.000 C 
ATOM     27  C   UNL     1       3.995  -0.359   1.741  0.00  0.00    +0.000 C 
ENDBRANCH  12  24
BRANCH  13  28
ATOM     28  O   UNL     1      -2.958   2.018   0.088  0.00  0.00    -0.380 OA
ATOM     29  H   UNL     1      -2.478   2.706  -0.400  0.00  0.00    +0.211 HD
ENDBRANCH  13  28
BRANCH  14  30
ATOM     30  O   UNL     1      -0.497  -0.806  -2.741  0.00  0.00    -0.380 OA
ATOM     31  H   UNL     1       0.325  -1.322  -2.747  0.00  0.00    +0.210 HD
ENDBRANCH  14  30
BRANCH  18  32
ATOM     32  O   UNL     1       1.673  -2.121  -1.442  0.00  0.00    -0.374 OA
ATOM     33  H   UNL     1       2.353  -1.593  -1.890  0.00  0.00    +0.211 HD
ENDBRANCH  18  32
TORSDOF 4
