REMARK  Name = 129638
REMARK  4 active torsions:
REMARK  status: ('A' for Active; 'I' for Inactive)
REMARK    1  A    between atoms: N_2  and  C1*_14
REMARK    2  A    between atoms: C3*_16  and  O3*_18
REMARK    3  A    between atoms: C4*_17  and  C5*_20
REMARK    4  A    between atoms: C5*_20  and  O5*_21
REMARK                            x       y       z     vdW  Elec       q    Type
REMARK                         _______ _______ _______ _____ _____    ______ ____
ROOT
ATOM      1  O   UNL     1      -4.123  -1.563   0.828  0.00  0.00    -0.288 OA
ATOM      2  N   UNL     1       0.084  -0.162   0.125  0.00  0.00    -0.210 NA
ATOM      3  N   UNL     1      -1.266  -1.885   0.538  0.00  0.00    -0.251 NA
ATOM      4  N   UNL     1      -1.465   1.622  -0.165  0.00  0.00    -0.300 N 
ATOM      5  N   UNL     1      -3.917   1.673  -0.210  0.00  0.00    -0.246 NA
ATOM      6  C   UNL     1      -1.190   0.318   0.029  0.00  0.00    +0.180 C 
ATOM      7  C   UNL     1      -0.013  -1.491   0.443  0.00  0.00    +0.204 C 
ATOM      8  C   UNL     1      -2.008  -0.764   0.255  0.00  0.00    +0.125 C 
ATOM      9  C   UNL     1      -3.452  -0.733   0.221  0.00  0.00    +0.214 C 
ATOM     10  C   UNL     1      -4.102   0.301  -0.674  0.00  0.00    +0.197 C 
ATOM     11  C   UNL     1      -2.734   2.161  -0.091  0.00  0.00    +0.157 C 
ATOM     12  H   UNL     1      -0.716   2.227  -0.371  0.00  0.00    +0.150 HD
ENDROOT
BRANCH   2  14
ATOM     13  O4* UNL     1       2.329   0.064   0.872  0.00  0.00    -0.338 OA
ATOM     14  C1* UNL     1       1.337   0.581  -0.030  0.00  0.00    +0.182 C 
ATOM     15  C2* UNL     1       1.912   0.529  -1.443  0.00  0.00    +0.079 C 
ATOM     16  C3* UNL     1       3.078  -0.427  -1.319  0.00  0.00    +0.144 C 
ATOM     17  C4* UNL     1       3.517  -0.266   0.128  0.00  0.00    +0.173 C 
BRANCH  16  18
ATOM     18  O3* UNL     1       2.625  -1.763  -1.518  0.00  0.00    -0.382 OA
ATOM     19  H3* UNL     1       2.343  -1.874  -2.439  0.00  0.00    +0.210 HD
ENDBRANCH  16  18
BRANCH  17  20
ATOM     20  C5* UNL     1       4.524   0.862   0.320  0.00  0.00    +0.169 C 
BRANCH  20  21
ATOM     21  O5* UNL     1       4.865   0.943   1.694  0.00  0.00    -0.379 OA
ATOM     22  H5* UNL     1       5.506   1.659   1.826  0.00  0.00    +0.211 HD
ENDBRANCH  20  21
ENDBRANCH  17  20
ENDBRANCH   2  14
TORSDOF 4
