129684507
  -OEChem-03292013293D

 45 45  0     1  0  0  0  0  0999 V2000
   -0.8653    2.3106   -1.5488 O   0  0  0  0  0  0  0  0  0  0  0  0
    0.7875    0.3233   -2.1458 O   0  0  0  0  0  0  0  0  0  0  0  0
   -0.2916   -2.9107    0.3983 O   0  0  0  0  0  0  0  0  0  0  0  0
    1.5569   -4.0441   -0.2409 O   0  0  0  0  0  0  0  0  0  0  0  0
    0.7478   -0.5418    0.0090 N   0  0  0  0  0  0  0  0  0  0  0  0
   -4.8639    0.4867   -0.1173 N   0  0  0  0  0  0  0  0  0  0  0  0
   -6.6977   -0.7267   -0.8504 N   0  0  0  0  0  0  0  0  0  0  0  0
   -6.6884   -0.0852    1.3368 N   0  0  0  0  0  0  0  0  0  0  0  0
    1.6741   -1.6283   -0.2120 C   0  0  1  0  0  0  0  0  0  0  0  0
   -1.9053    0.7659   -0.0248 C   0  0  0  0  0  0  0  0  0  0  0  0
   -0.5943    1.4094   -0.4870 C   0  0  1  0  0  0  0  0  0  0  0  0
    2.8853   -1.5215    0.7236 C   0  0  0  0  0  0  0  0  0  0  0  0
   -2.9002    1.8056    0.5071 C   0  0  0  0  0  0  0  0  0  0  0  0
    0.3799    0.3501   -0.9867 C   0  0  0  0  0  0  0  0  0  0  0  0
    3.6373   -0.2218    0.5669 C   0  0  0  0  0  0  0  0  0  0  0  0
   -4.1999    1.1722    0.9926 C   0  0  0  0  0  0  0  0  0  0  0  0
    0.9928   -2.9761   -0.0269 C   0  0  0  0  0  0  0  0  0  0  0  0
    4.6829   -0.1271   -0.3514 C   0  0  0  0  0  0  0  0  0  0  0  0
    3.2863    0.8843    1.3407 C   0  0  0  0  0  0  0  0  0  0  0  0
    5.3777    1.0738   -0.4959 C   0  0  0  0  0  0  0  0  0  0  0  0
    3.9810    2.0853    1.1962 C   0  0  0  0  0  0  0  0  0  0  0  0
    5.0268    2.1800    0.2779 C   0  0  0  0  0  0  0  0  0  0  0  0
   -6.0097   -0.0639    0.1387 C   0  0  0  0  0  0  0  0  0  0  0  0
    2.0062   -1.5941   -1.2567 H   0  0  0  0  0  0  0  0  0  0  0  0
   -2.3571    0.2287   -0.8686 H   0  0  0  0  0  0  0  0  0  0  0  0
   -1.7225    0.0229    0.7595 H   0  0  0  0  0  0  0  0  0  0  0  0
   -0.1196    1.9690    0.3262 H   0  0  0  0  0  0  0  0  0  0  0  0
    2.5647   -1.6268    1.7695 H   0  0  0  0  0  0  0  0  0  0  0  0
    3.5727   -2.3602    0.5506 H   0  0  0  0  0  0  0  0  0  0  0  0
   -2.4420    2.3577    1.3363 H   0  0  0  0  0  0  0  0  0  0  0  0
   -3.1299    2.5347   -0.2793 H   0  0  0  0  0  0  0  0  0  0  0  0
    0.3585   -0.4407    0.9415 H   0  0  0  0  0  0  0  0  0  0  0  0
   -3.9784    0.4663    1.8023 H   0  0  0  0  0  0  0  0  0  0  0  0
   -4.8426    1.9673    1.3896 H   0  0  0  0  0  0  0  0  0  0  0  0
    4.9638   -0.9815   -0.9614 H   0  0  0  0  0  0  0  0  0  0  0  0
    2.4755    0.8243    2.0618 H   0  0  0  0  0  0  0  0  0  0  0  0
   -1.3440    1.8258   -2.2428 H   0  0  0  0  0  0  0  0  0  0  0  0
    6.1915    1.1478   -1.2114 H   0  0  0  0  0  0  0  0  0  0  0  0
    3.7078    2.9465    1.7988 H   0  0  0  0  0  0  0  0  0  0  0  0
    5.5675    3.1151    0.1653 H   0  0  0  0  0  0  0  0  0  0  0  0
   -0.6887   -3.8013    0.5049 H   0  0  0  0  0  0  0  0  0  0  0  0
   -6.3245   -0.7968   -1.7908 H   0  0  0  0  0  0  0  0  0  0  0  0
   -7.5949   -1.1638   -0.6708 H   0  0  0  0  0  0  0  0  0  0  0  0
   -6.3228    0.3548    2.1737 H   0  0  0  0  0  0  0  0  0  0  0  0
   -7.5860   -0.5501    1.4206 H   0  0  0  0  0  0  0  0  0  0  0  0
  1 11  1  0  0  0  0
  1 37  1  0  0  0  0
  2 14  2  0  0  0  0
  3 17  1  0  0  0  0
  3 41  1  0  0  0  0
  4 17  2  0  0  0  0
  5  9  1  0  0  0  0
  5 14  1  0  0  0  0
  5 32  1  0  0  0  0
  6 16  1  0  0  0  0
  6 23  2  0  0  0  0
  7 23  1  0  0  0  0
  7 42  1  0  0  0  0
  7 43  1  0  0  0  0
  8 23  1  0  0  0  0
  8 44  1  0  0  0  0
  8 45  1  0  0  0  0
  9 12  1  0  0  0  0
  9 17  1  0  0  0  0
  9 24  1  0  0  0  0
 10 11  1  0  0  0  0
 10 13  1  0  0  0  0
 10 25  1  0  0  0  0
 10 26  1  0  0  0  0
 11 14  1  0  0  0  0
 11 27  1  0  0  0  0
 12 15  1  0  0  0  0
 12 28  1  0  0  0  0
 12 29  1  0  0  0  0
 13 16  1  0  0  0  0
 13 30  1  0  0  0  0
 13 31  1  0  0  0  0
 15 18  2  0  0  0  0
 15 19  1  0  0  0  0
 16 33  1  0  0  0  0
 16 34  1  0  0  0  0
 18 20  1  0  0  0  0
 18 35  1  0  0  0  0
 19 21  2  0  0  0  0
 19 36  1  0  0  0  0
 20 22  2  0  0  0  0
 20 38  1  0  0  0  0
 21 22  1  0  0  0  0
 21 39  1  0  0  0  0
 22 40  1  0  0  0  0
M  END
> <PUBCHEM_COMPOUND_CID>
129684507

> <PUBCHEM_CONFORMER_RMSD>
1

> <PUBCHEM_CONFORMER_DIVERSEORDER>
1
199
19
115
131
113
47
86
218
136
9
178
76
39
7
165
21
174
212
61
170
26
215
44
175
96
188
220
154
192
40
84
159
146
143
48
193
89
145
2
216
36
219
60
35
198
194
42
200
85
147
102
214
66
3
51
213
217
183
133
117
181
153
4
184
12
74
23
54
142
176
203
134
27
25
49
20
46
208
34
121
105
210
55
151
52
37
92
14
110
22
149
163
182
67
171
187
16
65
43
185
155
57
119
164
109
128
179
211
201
53
207
58
118
167
168
124
30
59
156
191
180
5
82
70
100
204
77
197
104
45
173
160
6
101
177
205
103
15
97
10
186
132
144
195
93
91
83
71
33
81
141
28
130
122
94
78
17
169
139
158
41
123
107
11
79
172
206
190
135
38
116
62
150
161
125
63
126
112
13
138
209
64
106
32
189
73
152
108
56
29
72
50
114
140
98
69
157
18
31
120
166
90
148
202
87
24
162
8
127
80
196
88
129
75
99
95
137
111
68

> <PUBCHEM_MMFF94_PARTIAL_CHARGES>
33
1 -0.68
11 0.34
12 0.14
14 0.57
15 -0.14
16 0.25
17 0.66
18 -0.15
19 -0.15
2 -0.57
20 -0.15
21 -0.15
22 -0.15
23 0.55
3 -0.65
32 0.37
35 0.15
36 0.15
37 0.4
38 0.15
39 0.15
4 -0.57
40 0.15
41 0.5
42 0.4
43 0.4
44 0.4
45 0.4
5 -0.73
6 -0.7
7 -0.85
8 -0.85
9 0.36

> <PUBCHEM_EFFECTIVE_ROTOR_COUNT>
10

> <PUBCHEM_PHARMACOPHORE_FEATURES>
11
1 1 acceptor
1 1 donor
1 2 acceptor
1 3 acceptor
1 4 acceptor
1 5 donor
1 7 donor
1 8 donor
3 3 4 17 anion
4 6 7 8 23 cation
6 15 18 19 20 21 22 rings

> <PUBCHEM_HEAVY_ATOM_COUNT>
23

> <PUBCHEM_ATOM_DEF_STEREO_COUNT>
1

> <PUBCHEM_ATOM_UDEF_STEREO_COUNT>
1

> <PUBCHEM_BOND_DEF_STEREO_COUNT>
0

> <PUBCHEM_BOND_UDEF_STEREO_COUNT>
0

> <PUBCHEM_ISOTOPIC_ATOM_COUNT>
0

> <PUBCHEM_COMPONENT_COUNT>
1

> <PUBCHEM_CACTVS_TAUTO_COUNT>
8

> <PUBCHEM_CONFORMER_ID>
07BAD41B00000001

> <PUBCHEM_MMFF94_ENERGY>
47.3855

> <PUBCHEM_FEATURE_SELFOVERLAP>
55.947

> <PUBCHEM_SHAPE_FINGERPRINT>
10165383 225 18409171030781366628
10613725 11 11891330959309857937
11796584 16 14129068005926810377
12596602 18 17846501431207512643
12730499 353 18412268324423278218
128238 76 18059567040320687517
13583140 156 18198612238547655541
1361 2 18337952397552335776
14341114 328 17917993858730276529
1454969 45 18334297595257989349
146900 427 18202001027704495089
14787075 74 18202561791625051033
14840074 17 18333449871956335509
14863182 85 18261405416097129191
15183329 4 7925914794402819249
18785283 64 18265049146730274586
20465049 17 18270970051236968966
20626108 58 11098436887734107360
21315763 178 18342741802537732135
22079108 93 18343014523585467352
22224240 67 18341326781504921664
22956985 138 17534894196298657138
23559900 14 17831570985913297908
3009799 131 17385716994501545509
347723 3 11671788169266120860
350125 39 18408599254601664746
4340502 62 18412829096390209364
458136 41 18339362955533746870
5486654 2 18411983597718454812
57527585 21 16834290184806159268
621550 34 18334853866357806684
6442390 28 18411699907129476058
81228 2 17899963126845406266
8988823 20 13839985538665667292
9862260 156 9295297109914545997

> <PUBCHEM_SHAPE_MULTIPOLES>
429.93
14.12
3.2
1.26
21.64
3.3
-0.26
-4.77
2.68
-2.5
0.14
0.07
-0.46
0.12

> <PUBCHEM_SHAPE_SELFOVERLAP>
869.803

> <PUBCHEM_SHAPE_VOLUME>
247.3

> <PUBCHEM_COORDINATE_TYPE>
2
5
10

$$$$
