REMARK  Name = 129699880
REMARK  10 active torsions:
REMARK  status: ('A' for Active; 'I' for Inactive)
REMARK    1  A    between atoms: C_2  and  C_4
REMARK    2  A    between atoms: C_2  and  O_15
REMARK    3  A    between atoms: C_3  and  C_5
REMARK    4  A    between atoms: C_8  and  O_11
REMARK    5  A    between atoms: C_9  and  O_13
REMARK    6  A    between atoms: O_15  and  C_16
REMARK    7  A    between atoms: C_16  and  C_17
REMARK    8  A    between atoms: C_17  and  N_18
REMARK    9  A    between atoms: C_17  and  C_23
REMARK   10  A    between atoms: C_23  and  O_24
REMARK                            x       y       z     vdW  Elec       q    Type
REMARK                         _______ _______ _______ _____ _____    ______ ____
ROOT
ATOM      1  O   UNK     1       1.447   2.225  -0.670  0.00  0.00    -0.245 OA
ATOM      2  C   UNK     1       1.358   1.121  -0.157  0.00  0.00    +0.341 C 
ENDROOT
BRANCH   2   4
ATOM      3  C   UNK     1      -1.066   0.916  -0.322  0.00  0.00    +0.007 C 
ATOM      4  C   UNK     1       0.099   0.374   0.061  0.00  0.00    +0.082 C 
BRANCH   3   5
ATOM      5  C   UNK     1      -2.383   0.278  -0.151  0.00  0.00    +0.003 C 
ATOM      6  C   UNK     1      -3.543   1.052  -0.183  0.00  0.00    +0.040 C 
ATOM      7  C   UNK     1      -2.470  -1.101   0.044  0.00  0.00    +0.003 C 
ATOM      8  C   UNK     1      -4.790   0.448  -0.022  0.00  0.00    +0.167 C 
ATOM      9  C   UNK     1      -4.877  -0.930   0.173  0.00  0.00    +0.167 C 
ATOM     10  C   UNK     1      -3.717  -1.705   0.206  0.00  0.00    +0.040 C 
BRANCH   8  11
ATOM     11  O   UNK     1      -5.915   1.215  -0.056  0.00  0.00    -0.503 OA
ATOM     12  H   UNK     1      -5.848   2.140  -0.187  0.00  0.00    +0.292 HD
ENDBRANCH   8  11
BRANCH   9  13
ATOM     13  O   UNK     1      -6.089  -1.532   0.333  0.00  0.00    -0.503 OA
ATOM     14  H   UNK     1      -6.873  -1.019   0.312  0.00  0.00    +0.292 HD
ENDBRANCH   9  13
ENDBRANCH   3   5
ENDBRANCH   2   4
BRANCH   2  15
ATOM     15  O   UNK     1       2.385   0.357   0.315  0.00  0.00    -0.447 OA
BRANCH  15  16
ATOM     16  C   UNK     1       3.685   0.923   0.188  0.00  0.00    +0.198 C 
BRANCH  16  17
ATOM     17  C   UNK     1       4.718  -0.046   0.757  0.00  0.00    +0.080 C 
BRANCH  17  18
ATOM     18  N   UNK     1       5.949   0.674   1.077  0.00  0.00    +0.391 N 
ATOM     19  H   UNK     1       5.749   1.403   1.763  0.00  0.00    -0.088 HD
ATOM     20  H   UNK     1       6.324   1.100   0.229  0.00  0.00    -0.088 HD
ATOM     21  H   UNK     1       6.634   0.024   1.462  0.00  0.00    -0.088 HD
ENDBRANCH  17  18
BRANCH  17  23
ATOM     22  O   UNK     1       6.169  -1.305  -0.760  0.00  0.00    -0.252 OA
ATOM     23  C   UNK     1       5.068  -1.113  -0.262  0.00  0.00    +0.297 C 
BRANCH  23  24
ATOM     24  O   UNK     1       3.971  -1.852  -0.573  0.00  0.00    -0.482 OA
ATOM     25  H   UNK     1       3.149  -1.666  -0.163  0.00  0.00    +0.295 HD
ENDBRANCH  23  24
ENDBRANCH  17  23
ENDBRANCH  16  17
ENDBRANCH  15  16
ENDBRANCH   2  15
TORSDOF 10
