REMARK  Name = 129632332
REMARK  9 active torsions:
REMARK  status: ('A' for Active; 'I' for Inactive)
REMARK    1  A    between atoms: C_1  and  N_2
REMARK    2  A    between atoms: C_1  and  C_15
REMARK    3  A    between atoms: N_2  and  S_3
REMARK    4  A    between atoms: N_2  and  N_14
REMARK    5  A    between atoms: S_3  and  C_6
REMARK    6  A    between atoms: C_15  and  N_16
REMARK    7  A    between atoms: N_16  and  S_17
REMARK    8  A    between atoms: N_16  and  N_28
REMARK    9  A    between atoms: S_17  and  C_20
REMARK                            x       y       z     vdW  Elec       q    Type
REMARK                         _______ _______ _______ _____ _____    ______ ____
ROOT
ATOM      1  C   UNL     1      -0.182   0.514   0.553  0.00  0.00    +0.167 C 
ENDROOT
BRANCH   1   2
ATOM      2  N   UNL     1      -0.943   1.658  -0.035  0.00  0.00    -0.060 N 
BRANCH   2   3
ATOM      3  S   UNL     1      -2.575   1.882   0.527  0.00  0.00    +0.094 S 
ATOM      4  O   UNL     1      -3.167   2.962  -0.255  0.00  0.00    -0.148 OA
ATOM      5  O   UNL     1      -2.616   1.947   1.982  0.00  0.00    -0.148 OA
BRANCH   3   6
ATOM      6  C   UNL     1      -3.347   0.379   0.090  0.00  0.00    +0.127 C 
ATOM      7  C   UNL     1      -3.725  -0.525   1.083  0.00  0.00    +0.020 C 
ATOM      8  C   UNL     1      -3.583   0.080  -1.252  0.00  0.00    +0.020 C 
ATOM      9  C   UNL     1      -4.338  -1.728   0.734  0.00  0.00    +0.001 C 
ATOM     10  C   UNL     1      -4.196  -1.123  -1.601  0.00  0.00    +0.001 C 
ATOM     11  C   UNL     1      -4.574  -2.027  -0.608  0.00  0.00    +0.000 C 
ENDBRANCH   3   6
ENDBRANCH   2   3
BRANCH   2  14
ATOM     12  O   UNL     1       0.957   2.538  -0.882  0.00  0.00    -0.108 OA
ATOM     13  O   UNL     1      -0.723   3.893  -0.415  0.00  0.00    -0.108 OA
ATOM     14  N   UNL     1      -0.185   2.786  -0.482  0.00  0.00    +0.142 N 
ENDBRANCH   2  14
ENDBRANCH   1   2
BRANCH   1  15
ATOM     15  C   UNL     1       0.185  -0.481  -0.534  0.00  0.00    +0.167 C 
BRANCH  15  16
ATOM     16  N   UNL     1       0.923  -1.623   0.050  0.00  0.00    -0.060 N 
BRANCH  16  17
ATOM     17  S   UNL     1       2.542  -1.911  -0.524  0.00  0.00    +0.094 S 
ATOM     18  O   UNL     1       2.497  -2.008  -1.971  0.00  0.00    -0.148 OA
ATOM     19  O   UNL     1       3.218  -2.929   0.259  0.00  0.00    -0.148 OA
BRANCH  17  20
ATOM     20  C   UNL     1       3.353  -0.394  -0.103  0.00  0.00    +0.127 C 
ATOM     21  C   UNL     1       3.743   0.490  -1.109  0.00  0.00    +0.020 C 
ATOM     22  C   UNL     1       3.604  -0.084   1.233  0.00  0.00    +0.020 C 
ATOM     23  C   UNL     1       4.385   1.684  -0.779  0.00  0.00    +0.001 C 
ATOM     24  C   UNL     1       4.246   1.109   1.563  0.00  0.00    +0.001 C 
ATOM     25  C   UNL     1       4.636   1.993   0.557  0.00  0.00    +0.000 C 
ENDBRANCH  17  20
ENDBRANCH  16  17
BRANCH  16  28
ATOM     26  O   UNL     1      -0.977  -2.475   0.924  0.00  0.00    -0.108 OA
ATOM     27  O   UNL     1       0.687  -3.859   0.480  0.00  0.00    -0.108 OA
ATOM     28  N   UNL     1       0.157  -2.746   0.515  0.00  0.00    +0.142 N 
ENDBRANCH  16  28
ENDBRANCH  15  16
ENDBRANCH   1  15
TORSDOF 9
