129681278
  -OEChem-03292013293D

 37 38  0     1  0  0  0  0  0999 V2000
   -0.0081   -0.4742   -1.0583 O   0  0  0  0  0  0  0  0  0  0  0  0
   -1.4098   -0.3847    0.7868 O   0  0  0  0  0  0  0  0  0  0  0  0
    0.7070   -0.9327    2.6574 O   0  0  0  0  0  0  0  0  0  0  0  0
   -1.2733    3.1339   -0.1104 O   0  0  0  0  0  0  0  0  0  0  0  0
   -2.5057   -2.8213   -0.0589 O   0  0  0  0  0  0  0  0  0  0  0  0
   -1.9469   -1.9821   -2.1034 O   0  0  0  0  0  0  0  0  0  0  0  0
   -4.0106    2.5837   -0.2983 O   0  0  0  0  0  0  0  0  0  0  0  0
    3.7153    1.8924   -0.0710 O   0  0  0  0  0  0  0  0  0  0  0  0
    2.7834   -0.2363   -0.2043 N   0  0  0  0  0  0  0  0  0  0  0  0
    0.4756    0.5761   -0.2099 C   0  0  2  0  0  0  0  0  0  0  0  0
    1.6316    0.0002    0.6406 C   0  0  1  0  0  0  0  0  0  0  0  0
   -0.7791    0.8956    0.5967 C   0  0  1  0  0  0  0  0  0  0  0  0
   -0.7554   -1.2614   -0.1321 C   0  0  2  0  0  0  0  0  0  0  0  0
    1.2567   -1.2971    1.3880 C   0  0  2  0  0  0  0  0  0  0  0  0
    0.2357   -2.1534    0.6179 C   0  0  0  0  0  0  0  0  0  0  0  0
   -1.7527    1.7919   -0.1597 C   0  0  1  0  0  0  0  0  0  0  0  0
   -1.7793   -2.0390   -0.8942 C   0  0  0  0  0  0  0  0  0  0  0  0
   -3.1406    1.7543    0.4646 C   0  0  0  0  0  0  0  0  0  0  0  0
    3.7256    0.7361   -0.4850 C   0  0  0  0  0  0  0  0  0  0  0  0
    4.8304    0.2179   -1.3664 C   0  0  0  0  0  0  0  0  0  0  0  0
    0.8231    1.4137   -0.8224 H   0  0  0  0  0  0  0  0  0  0  0  0
    1.9209    0.7697    1.3682 H   0  0  0  0  0  0  0  0  0  0  0  0
   -0.5350    1.3387    1.5689 H   0  0  0  0  0  0  0  0  0  0  0  0
    2.1432   -1.9045    1.6058 H   0  0  0  0  0  0  0  0  0  0  0  0
    0.7741   -2.7781   -0.1059 H   0  0  0  0  0  0  0  0  0  0  0  0
   -0.2866   -2.8140    1.3197 H   0  0  0  0  0  0  0  0  0  0  0  0
   -1.8376    1.5080   -1.2156 H   0  0  0  0  0  0  0  0  0  0  0  0
    2.8655   -1.1438   -0.6543 H   0  0  0  0  0  0  0  0  0  0  0  0
   -3.5649    0.7462    0.4689 H   0  0  0  0  0  0  0  0  0  0  0  0
   -3.1218    2.1462    1.4871 H   0  0  0  0  0  0  0  0  0  0  0  0
    1.4009   -0.4680    3.1557 H   0  0  0  0  0  0  0  0  0  0  0  0
   -0.4346    3.1713   -0.5996 H   0  0  0  0  0  0  0  0  0  0  0  0
   -3.1847   -3.3400   -0.5407 H   0  0  0  0  0  0  0  0  0  0  0  0
   -4.8846    2.5470    0.1266 H   0  0  0  0  0  0  0  0  0  0  0  0
    4.4100   -0.2223   -2.2752 H   0  0  0  0  0  0  0  0  0  0  0  0
    5.4067   -0.5388   -0.8268 H   0  0  0  0  0  0  0  0  0  0  0  0
    5.4940    1.0399   -1.6483 H   0  0  0  0  0  0  0  0  0  0  0  0
  1 10  1  0  0  0  0
  1 13  1  0  0  0  0
  2 12  1  0  0  0  0
  2 13  1  0  0  0  0
  3 14  1  0  0  0  0
  3 31  1  0  0  0  0
  4 16  1  0  0  0  0
  4 32  1  0  0  0  0
  5 17  1  0  0  0  0
  5 33  1  0  0  0  0
  6 17  2  0  0  0  0
  7 18  1  0  0  0  0
  7 34  1  0  0  0  0
  8 19  2  0  0  0  0
  9 11  1  0  0  0  0
  9 19  1  0  0  0  0
  9 28  1  0  0  0  0
 10 11  1  0  0  0  0
 10 12  1  0  0  0  0
 10 21  1  0  0  0  0
 11 14  1  0  0  0  0
 11 22  1  0  0  0  0
 12 16  1  0  0  0  0
 12 23  1  0  0  0  0
 13 15  1  0  0  0  0
 13 17  1  0  0  0  0
 14 15  1  0  0  0  0
 14 24  1  0  0  0  0
 15 25  1  0  0  0  0
 15 26  1  0  0  0  0
 16 18  1  0  0  0  0
 16 27  1  0  0  0  0
 18 29  1  0  0  0  0
 18 30  1  0  0  0  0
 19 20  1  0  0  0  0
 20 35  1  0  0  0  0
 20 36  1  0  0  0  0
 20 37  1  0  0  0  0
M  END
> <PUBCHEM_COMPOUND_CID>
129681278

> <PUBCHEM_CONFORMER_RMSD>
0.8

> <PUBCHEM_CONFORMER_DIVERSEORDER>
1
11
15
12
14
8
6
16
3
9
17
10
4
13
7
5
2

> <PUBCHEM_MMFF94_PARTIAL_CHARGES>
24
1 -0.56
10 0.28
11 0.3
12 0.28
13 0.62
14 0.28
16 0.28
17 0.66
18 0.28
19 0.57
2 -0.56
20 0.06
28 0.37
3 -0.68
31 0.4
32 0.4
33 0.5
34 0.4
4 -0.68
5 -0.65
6 -0.57
7 -0.68
8 -0.57
9 -0.73

> <PUBCHEM_EFFECTIVE_ROTOR_COUNT>
6.2

> <PUBCHEM_PHARMACOPHORE_FEATURES>
14
1 1 acceptor
1 2 acceptor
1 3 acceptor
1 3 donor
1 4 acceptor
1 4 donor
1 5 acceptor
1 6 acceptor
1 7 acceptor
1 7 donor
1 8 acceptor
1 9 donor
3 5 6 17 anion
8 1 2 10 11 12 13 14 15 rings

> <PUBCHEM_HEAVY_ATOM_COUNT>
20

> <PUBCHEM_ATOM_DEF_STEREO_COUNT>
5

> <PUBCHEM_ATOM_UDEF_STEREO_COUNT>
1

> <PUBCHEM_BOND_DEF_STEREO_COUNT>
0

> <PUBCHEM_BOND_UDEF_STEREO_COUNT>
0

> <PUBCHEM_ISOTOPIC_ATOM_COUNT>
0

> <PUBCHEM_COMPONENT_COUNT>
1

> <PUBCHEM_CACTVS_TAUTO_COUNT>
2

> <PUBCHEM_CONFORMER_ID>
07BAC77E00000001

> <PUBCHEM_MMFF94_ENERGY>
50.7597

> <PUBCHEM_FEATURE_SELFOVERLAP>
71.178

> <PUBCHEM_SHAPE_FINGERPRINT>
10756046 70 17974550417206525210
10922049 32 18265629705353023712
10948715 1 18261962833931790736
11315181 36 17823697667870390332
12035759 4 18337090346339554509
12138202 97 18059580161002795079
12173636 292 17752228286139583428
12423570 1 17914361157900376227
13024252 1 17604440728921182442
13538477 17 18335970991804569624
14142880 1 17822290236060187380
15342168 16 16806188621551127828
15502708 8 18272933859706306471
15534591 1 18333457538367385474
16752209 62 18200293499047473239
16945 1 18340189830810613811
17134986 127 18266178318726638724
19868273 293 18271807895749455220
19873495 37 18261122833060547208
20602899 9 17346041069377122735
20711985 344 18199169836786832631
21041028 32 17977111485257586763
21524375 3 18117566132562485824
21756936 100 17749405784130840484
22112679 90 18191279672589291498
22620623 9 17988926716338485415
229495 10 17097195152556330821
23227448 37 18339365261615083308
23236772 104 18187364354416150179
23402539 116 18335700598492400652
23419403 2 12169228111850222275
23557571 272 18129669724302113068
23558518 356 18116718615345610464
23559900 14 18059579058303917116
25147074 1 18187912955343109386
266924 78 17169250564635152523
2748010 2 17910368895772930729
298252 57 18339651014373309400
3060560 45 17979351958614771892
394222 165 17971478390414059920
4340502 62 17023194777802634921
458136 41 17842568336175302233
5845 1 16839621604560269479
68419 9 18118656912347435690
7832392 63 18410293605924586340
81228 2 18268982270851004753
81539 233 17823706260818041844
9999458 23 17827364276058778731

> <PUBCHEM_SHAPE_MULTIPOLES>
359.66
6.08
3.08
1.48
5.45
0.32
0.35
3.82
-2.3
-3.27
-0.36
0.27
-0.89
-0.89

> <PUBCHEM_SHAPE_SELFOVERLAP>
752.792

> <PUBCHEM_SHAPE_VOLUME>
202.6

> <PUBCHEM_COORDINATE_TYPE>
2
5
10

$$$$
