REMARK  Name = 129631779
REMARK  9 active torsions:
REMARK  status: ('A' for Active; 'I' for Inactive)
REMARK    1  A    between atoms: N_2  and  C_18
REMARK    2  A    between atoms: C_3  and  C_5
REMARK    3  A    between atoms: C_6  and  C_11
REMARK    4  A    between atoms: C_18  and  C_19
REMARK    5  A    between atoms: C_18  and  C_25
REMARK    6  A    between atoms: C_19  and  S_20
REMARK    7  A    between atoms: S_20  and  C_22
REMARK    8  A    between atoms: C_22  and  S_23
REMARK    9  A    between atoms: C_25  and  O_26
REMARK                            x       y       z     vdW  Elec       q    Type
REMARK                         _______ _______ _______ _____ _____    ______ ____
ROOT
ATOM      1  O   UNK A   0       0.427   1.681   1.984  0.00  0.00    -0.270 OA
ATOM      2  N   UNK A   1       1.553   1.162   0.021  0.00  0.00    -0.299 N 
ATOM      3  C   UNK A   0       0.444   1.218   0.849  0.00  0.00    +0.246 C 
ATOM      4  H   UNK A   1       1.458   0.768  -0.877  0.00  0.00    +0.150 HD
ENDROOT
BRANCH   3   5
ATOM      5  C   UNK A   0      -0.763   0.635   0.200  0.00  0.00    +0.058 C 
ATOM      6  C   UNK A   0      -1.921   0.609   0.861  0.00  0.00    +0.011 C 
BRANCH   6  11
ATOM      7  O   UNK A   0      -3.287  -1.560   2.050  0.00  0.00    -0.267 OA
ATOM      8  O   UNK A   0      -6.556  -1.637  -1.174  0.00  0.00    -0.247 OA
ATOM      9  N   UNK A   0      -4.879  -0.077  -1.315  0.00  0.00    -0.310 N 
ATOM     10  N   UNK A   0      -4.920  -1.605   0.443  0.00  0.00    -0.275 N 
ATOM     11  C   UNK A   0      -3.131   0.058   0.293  0.00  0.00    +0.068 A 
ATOM     12  C   UNK A   0      -3.724   0.507  -0.834  0.00  0.00    +0.042 A 
ATOM     13  C   UNK A   0      -3.766  -1.098   1.016  0.00  0.00    +0.262 A 
ATOM     14  C   UNK A   0      -3.246   1.650  -1.692  0.00  0.00    +0.050 C 
ATOM     15  C   UNK A   0      -5.526  -1.140  -0.717  0.00  0.00    +0.327 A 
ATOM     16  H   UNK A   0      -5.268   0.291  -2.141  0.00  0.00    +0.170 HD
ATOM     17  H   UNK A   0      -5.351  -2.363   0.899  0.00  0.00    +0.173 HD
ENDBRANCH   6  11
ENDBRANCH   3   5
BRANCH   2  18
ATOM     18  C   UNK A   1       2.844   1.663   0.431  0.00  0.00    +0.114 C 
BRANCH  18  19
ATOM     19  C   UNK A   1       3.971   0.874  -0.237  0.00  0.00    +0.115 C 
BRANCH  19  20
ATOM     20  S   UNK A   1       4.211  -0.751   0.557  0.00  0.00    +0.055 S 
ATOM     21  O   UNK A   1       3.042  -1.600   0.167  0.00  0.00    -0.255 OA
BRANCH  20  22
ATOM     22  C   UNK A   1       5.626  -1.234  -0.479  0.00  0.00    +0.149 C 
BRANCH  22  23
ATOM     23  S   UNK A   1       6.221  -2.889  -0.040  0.00  0.00    -0.125 S 
ATOM     24  C   UNK A   1       7.570  -3.016  -1.237  0.00  0.00    +0.070 C 
ENDBRANCH  22  23
ENDBRANCH  20  22
ENDBRANCH  19  20
ENDBRANCH  18  19
BRANCH  18  25
ATOM     25  C   UNK A   1       2.943   3.160   0.127  0.00  0.00    +0.158 C 
BRANCH  25  26
ATOM     26  O   UNK A   1       2.869   3.392  -1.275  0.00  0.00    -0.380 OA
ATOM     27  H   UNK A   1       2.933   4.344  -1.449  0.00  0.00    +0.211 HD
ENDBRANCH  25  26
ENDBRANCH  18  25
ENDBRANCH   2  18
TORSDOF 9
