REMARK  Name = 129632190
REMARK  5 active torsions:
REMARK  status: ('A' for Active; 'I' for Inactive)
REMARK    1  A    between atoms: C_1  and  C_13
REMARK    2  A    between atoms: C_1  and  C_17
REMARK    3  A    between atoms: C_18  and  C_20
REMARK    4  A    between atoms: C_21  and  C_25
REMARK    5  A    between atoms: C_25  and  O_31
REMARK                            x       y       z     vdW  Elec       q    Type
REMARK                         _______ _______ _______ _____ _____    ______ ____
ROOT
ATOM      1  C   UNL     1       1.567   2.143   0.127  0.00  0.00    +0.049 C 
ATOM      2  C   UNL     1       1.837   3.620  -0.168  0.00  0.00    +0.007 C 
ENDROOT
BRANCH   1  13
ATOM      3  O   UNL     1       4.919  -2.658  -0.103  0.00  0.00    -0.343 OA
ATOM      4  O   UNL     1       4.329  -0.388  -1.519  0.00  0.00    -0.327 OA
ATOM      5  O   UNL     1       2.283  -0.099  -0.279  0.00  0.00    -0.334 OA
ATOM      6  O   UNL     1       6.876  -0.170   0.811  0.00  0.00    -0.291 OA
ATOM      7  C   UNL     1       3.703  -1.960   0.208  0.00  0.00    +0.171 C 
ATOM      8  C   UNL     1       5.012  -1.600   0.866  0.00  0.00    +0.204 C 
ATOM      9  C   UNL     1       3.207  -1.025  -0.875  0.00  0.00    +0.213 C 
ATOM     10  C   UNL     1       5.029   0.469  -0.617  0.00  0.00    +0.179 C 
ATOM     11  C   UNL     1       4.074   1.542  -0.042  0.00  0.00    +0.062 C 
ATOM     12  C   UNL     1       5.754  -0.417   0.385  0.00  0.00    +0.207 C 
ATOM     13  C   UNL     1       2.630   1.265  -0.521  0.00  0.00    +0.124 C 
ATOM     14  C   UNL     1       2.715  -2.787   0.971  0.00  0.00    +0.038 C 
ATOM     15  C   UNL     1       2.458  -1.778  -1.973  0.00  0.00    +0.064 C 
ATOM     16  C   UNL     1       4.198   1.717   1.475  0.00  0.00    +0.005 C 
ENDBRANCH   1  13
BRANCH   1  17
ATOM     17  C   UNL     1       0.196   1.760  -0.386  0.00  0.00    -0.028 C 
ATOM     18  C   UNL     1      -0.867   1.298   0.307  0.00  0.00    -0.026 C 
ATOM     19  C   UNL     1      -0.875   1.082   1.798  0.00  0.00    +0.031 C 
BRANCH  18  20
ATOM     20  C   UNL     1      -2.098   0.986  -0.429  0.00  0.00    -0.001 C 
ATOM     21  C   UNL     1      -3.247   0.520   0.090  0.00  0.00    +0.037 C 
BRANCH  21  25
ATOM     22  O   UNL     1      -4.891  -0.348   2.217  0.00  0.00    -0.289 OA
ATOM     23  O   UNL     1      -7.044  -0.475  -1.972  0.00  0.00    -0.270 OA
ATOM     24  N   UNL     1      -7.670  -1.007   0.236  0.00  0.00    -0.294 N 
ATOM     25  C   UNL     1      -4.451   0.220  -0.665  0.00  0.00    +0.141 C 
ATOM     26  C   UNL     1      -5.566  -0.244  -0.085  0.00  0.00    +0.123 C 
ATOM     27  C   UNL     1      -5.740  -0.512   1.358  0.00  0.00    +0.200 C 
ATOM     28  C   UNL     1      -6.823  -0.572  -0.779  0.00  0.00    +0.252 C 
ATOM     29  C   UNL     1      -7.136  -1.022   1.592  0.00  0.00    +0.160 C 
ATOM     30  H   UNL     1      -8.593  -1.293   0.046  0.00  0.00    +0.150 HD
BRANCH  25  31
ATOM     31  O   UNL     1      -4.380   0.441  -2.027  0.00  0.00    -0.505 OA
ATOM     32  H   UNL     1      -3.588   0.766  -2.408  0.00  0.00    +0.292 HD
ENDBRANCH  25  31
ENDBRANCH  21  25
ENDBRANCH  18  20
ENDBRANCH   1  17
TORSDOF 5
