REMARK  Name = 129618
REMARK  11 active torsions:
REMARK  status: ('A' for Active; 'I' for Inactive)
REMARK    1  A    between atoms: C_2  and  O_13
REMARK    2  A    between atoms: C_3  and  N_8
REMARK    3  A    between atoms: C_4  and  O_17
REMARK    4  A    between atoms: C_5  and  C_25
REMARK    5  A    between atoms: C_6  and  O_21
REMARK    6  A    between atoms: C_9  and  C_12
REMARK    7  A    between atoms: O_13  and  C_15
REMARK    8  A    between atoms: O_17  and  C_19
REMARK    9  A    between atoms: O_21  and  C_23
REMARK   10  A    between atoms: C_25  and  O_26
REMARK   11  A    between atoms: O_26  and  C_28
REMARK                            x       y       z     vdW  Elec       q    Type
REMARK                         _______ _______ _______ _____ _____    ______ ____
ROOT
ATOM      1  O   UNL     1       1.004   1.640   0.291  0.00  0.00    -0.314 OA
ATOM      2  C   UNL     1      -0.654  -0.698   0.381  0.00  0.00    +0.235 C 
ATOM      3  C   UNL     1      -1.165   0.639  -0.164  0.00  0.00    +0.187 C 
ATOM      4  C   UNL     1       0.874  -0.776   0.338  0.00  0.00    +0.241 C 
ATOM      5  C   UNL     1       1.496   0.477   0.959  0.00  0.00    +0.206 C 
ATOM      6  C   UNL     1      -0.403   1.816   0.454  0.00  0.00    +0.312 C 
ENDROOT
BRANCH   3   8
ATOM      7  O   UNL     1      -3.294  -0.274  -1.864  0.00  0.00    -0.274 OA
ATOM      8  N   UNL     1      -2.586   0.770   0.084  0.00  0.00    -0.296 N 
ATOM      9  C   UNL     1      -3.536   0.295  -0.801  0.00  0.00    +0.239 C 
ATOM     10  H   UNL     1      -2.885   1.213   0.911  0.00  0.00    +0.150 HD
BRANCH   9  12
ATOM     11 CL   UNL     1      -5.735  -1.054  -0.174  0.00  0.00    -0.103 Cl
ATOM     12  C   UNL     1      -4.948   0.524  -0.325  0.00  0.00    +0.179 C 
ENDBRANCH   9  12
ENDBRANCH   3   8
BRANCH   2  13
ATOM     13  O   UNL     1      -1.193  -1.752  -0.420  0.00  0.00    -0.446 OA
BRANCH  13  15
ATOM     14  O   UNL     1      -2.241  -2.642   1.437  0.00  0.00    -0.250 OA
ATOM     15  C   UNL     1      -1.971  -2.655   0.243  0.00  0.00    +0.318 C 
ATOM     16  C   UNL     1      -2.464  -3.696  -0.716  0.00  0.00    +0.121 C 
ENDBRANCH  13  15
ENDBRANCH   2  13
BRANCH   4  17
ATOM     17  O   UNL     1       1.277  -1.940   1.054  0.00  0.00    -0.446 OA
BRANCH  17  19
ATOM     18  O   UNL     1       2.208  -2.819  -0.869  0.00  0.00    -0.250 OA
ATOM     19  C   UNL     1       1.938  -2.886   0.322  0.00  0.00    +0.318 C 
ATOM     20  C   UNL     1       2.298  -4.045   1.201  0.00  0.00    +0.121 C 
ENDBRANCH  17  19
ENDBRANCH   4  17
BRANCH   6  21
ATOM     21  O   UNL     1      -0.810   3.011  -0.210  0.00  0.00    -0.422 OA
BRANCH  21  23
ATOM     22  O   UNL     1      -0.040   4.276   1.563  0.00  0.00    -0.250 OA
ATOM     23  C   UNL     1      -0.566   4.173   0.463  0.00  0.00    +0.319 C 
ATOM     24  C   UNL     1      -1.043   5.338  -0.350  0.00  0.00    +0.121 C 
ENDBRANCH  21  23
ENDBRANCH   6  21
BRANCH   5  25
ATOM     25  C   UNL     1       3.016   0.491   0.829  0.00  0.00    +0.242 C 
BRANCH  25  26
ATOM     26  O   UNL     1       3.352   0.445  -0.545  0.00  0.00    -0.446 OA
BRANCH  26  28
ATOM     27  O   UNL     1       5.602   0.493  -0.021  0.00  0.00    -0.250 OA
ATOM     28  C   UNL     1       4.691   0.451  -0.837  0.00  0.00    +0.318 C 
ATOM     29  C   UNL     1       4.895   0.398  -2.321  0.00  0.00    +0.121 C 
ENDBRANCH  26  28
ENDBRANCH  25  26
ENDBRANCH   5  25
TORSDOF 11
