129680
  -OEChem-03292013323D

 38 37  0     1  0  0  0  0  0999 V2000
    2.3291    1.4500    0.9845 O   0  0  0  0  0  0  0  0  0  0  0  0
    2.5851   -2.6713   -1.4178 O   0  0  0  0  0  0  0  0  0  0  0  0
    2.1462   -1.1290    0.2707 N   0  0  0  0  0  0  0  0  0  0  0  0
    1.0327    2.1768   -0.7980 N   0  0  0  0  0  0  0  0  0  0  0  0
   -2.9961   -0.0116    0.0311 N   0  0  0  0  0  0  0  0  0  0  0  0
   -5.0074   -1.2456    0.4802 N   0  0  0  0  0  0  0  0  0  0  0  0
   -5.0483    0.6021   -0.8539 N   0  0  0  0  0  0  0  0  0  0  0  0
    1.3628   -0.2017   -0.5040 C   0  0  1  0  0  0  0  0  0  0  0  0
   -0.1275   -0.5644   -0.4965 C   0  0  0  0  0  0  0  0  0  0  0  0
   -0.7691   -0.5449    0.8991 C   0  0  0  0  0  0  0  0  0  0  0  0
    1.6332    1.2129   -0.0007 C   0  0  0  0  0  0  0  0  0  0  0  0
   -2.2407   -0.9472    0.8659 C   0  0  0  0  0  0  0  0  0  0  0  0
    1.1646    3.5937   -0.5494 C   0  0  0  0  0  0  0  0  0  0  0  0
    2.6930   -2.2902   -0.2551 C   0  0  0  0  0  0  0  0  0  0  0  0
    2.0248    3.8659    0.6673 C   0  0  0  0  0  0  0  0  0  0  0  0
    3.4859   -3.0640    0.7638 C   0  0  0  0  0  0  0  0  0  0  0  0
   -4.2685   -0.2314   -0.0871 C   0  0  0  0  0  0  0  0  0  0  0  0
    1.7209   -0.2478   -1.5409 H   0  0  0  0  0  0  0  0  0  0  0  0
   -0.6750    0.1132   -1.1612 H   0  0  0  0  0  0  0  0  0  0  0  0
   -0.2474   -1.5706   -0.9195 H   0  0  0  0  0  0  0  0  0  0  0  0
   -0.2356   -1.2307    1.5671 H   0  0  0  0  0  0  0  0  0  0  0  0
   -0.6826    0.4598    1.3298 H   0  0  0  0  0  0  0  0  0  0  0  0
   -2.3248   -1.9679    0.4733 H   0  0  0  0  0  0  0  0  0  0  0  0
   -2.6256   -0.9362    1.8927 H   0  0  0  0  0  0  0  0  0  0  0  0
    2.2936   -0.9230    1.2551 H   0  0  0  0  0  0  0  0  0  0  0  0
    0.4996    1.8939   -1.6143 H   0  0  0  0  0  0  0  0  0  0  0  0
    1.6005    4.0473   -1.4448 H   0  0  0  0  0  0  0  0  0  0  0  0
    0.1577    4.0007   -0.4156 H   0  0  0  0  0  0  0  0  0  0  0  0
    1.5843    3.4912    1.5972 H   0  0  0  0  0  0  0  0  0  0  0  0
    3.0623    3.5390    0.5419 H   0  0  0  0  0  0  0  0  0  0  0  0
    2.0843    4.9540    0.8000 H   0  0  0  0  0  0  0  0  0  0  0  0
    3.7354   -4.0510    0.3647 H   0  0  0  0  0  0  0  0  0  0  0  0
    4.4088   -2.5247    0.9941 H   0  0  0  0  0  0  0  0  0  0  0  0
    2.9012   -3.1937    1.6790 H   0  0  0  0  0  0  0  0  0  0  0  0
   -6.0058   -1.3188    0.3170 H   0  0  0  0  0  0  0  0  0  0  0  0
   -4.5900   -1.9504    1.0772 H   0  0  0  0  0  0  0  0  0  0  0  0
   -4.6458    1.3975   -1.3376 H   0  0  0  0  0  0  0  0  0  0  0  0
   -6.0449    0.4471   -0.9600 H   0  0  0  0  0  0  0  0  0  0  0  0
  1 11  2  0  0  0  0
  2 14  2  0  0  0  0
  3  8  1  0  0  0  0
  3 14  1  0  0  0  0
  3 25  1  0  0  0  0
  4 11  1  0  0  0  0
  4 13  1  0  0  0  0
  4 26  1  0  0  0  0
  5 12  1  0  0  0  0
  5 17  2  0  0  0  0
  6 17  1  0  0  0  0
  6 35  1  0  0  0  0
  6 36  1  0  0  0  0
  7 17  1  0  0  0  0
  7 37  1  0  0  0  0
  7 38  1  0  0  0  0
  8  9  1  0  0  0  0
  8 11  1  0  0  0  0
  8 18  1  0  0  0  0
  9 10  1  0  0  0  0
  9 19  1  0  0  0  0
  9 20  1  0  0  0  0
 10 12  1  0  0  0  0
 10 21  1  0  0  0  0
 10 22  1  0  0  0  0
 12 23  1  0  0  0  0
 12 24  1  0  0  0  0
 13 15  1  0  0  0  0
 13 27  1  0  0  0  0
 13 28  1  0  0  0  0
 14 16  1  0  0  0  0
 15 29  1  0  0  0  0
 15 30  1  0  0  0  0
 15 31  1  0  0  0  0
 16 32  1  0  0  0  0
 16 33  1  0  0  0  0
 16 34  1  0  0  0  0
M  END
> <PUBCHEM_COMPOUND_CID>
129680

> <PUBCHEM_CONFORMER_RMSD>
0.8

> <PUBCHEM_CONFORMER_DIVERSEORDER>
1
157
165
67
64
112
59
23
133
52
173
129
176
123
98
199
146
100
2
111
180
193
141
20
81
66
108
3
86
85
55
6
122
13
88
60
189
76
93
166
103
160
80
68
167
94
104
48
41
200
19
121
17
152
118
43
145
162
175
120
128
9
69
125
150
14
184
87
47
116
170
33
91
49
158
40
61
186
114
151
7
84
137
46
109
178
89
63
71
172
148
92
135
79
117
171
37
16
105
198
106
8
57
192
101
134
18
124
153
183
102
110
149
144
56
42
131
12
127
182
185
99
32
161
44
130
115
187
181
139
74
169
54
96
24
11
159
168
35
78
31
15
174
30
138
22
143
73
164
51
113
29
195
5
83
95
10
34
77
179
97
25
194
163
90
58
156
155
191
62
36
45
136
196
188
190
65
39
70
21
147
142
50
38
72
4
107
75
154
53
197
177
28
119
26
126
140
132
27
82

> <PUBCHEM_MMFF94_PARTIAL_CHARGES>
20
1 -0.57
11 0.57
12 0.25
13 0.3
14 0.57
16 0.06
17 0.55
2 -0.57
25 0.37
26 0.37
3 -0.73
35 0.4
36 0.4
37 0.4
38 0.4
4 -0.73
5 -0.7
6 -0.85
7 -0.85
8 0.36

> <PUBCHEM_EFFECTIVE_ROTOR_COUNT>
9

> <PUBCHEM_PHARMACOPHORE_FEATURES>
7
1 1 acceptor
1 2 acceptor
1 3 donor
1 4 donor
1 6 donor
1 7 donor
4 5 6 7 17 cation

> <PUBCHEM_HEAVY_ATOM_COUNT>
17

> <PUBCHEM_ATOM_DEF_STEREO_COUNT>
1

> <PUBCHEM_ATOM_UDEF_STEREO_COUNT>
0

> <PUBCHEM_BOND_DEF_STEREO_COUNT>
0

> <PUBCHEM_BOND_UDEF_STEREO_COUNT>
0

> <PUBCHEM_ISOTOPIC_ATOM_COUNT>
0

> <PUBCHEM_COMPONENT_COUNT>
1

> <PUBCHEM_CACTVS_TAUTO_COUNT>
8

> <PUBCHEM_CONFORMER_ID>
0001FA9000000001

> <PUBCHEM_MMFF94_ENERGY>
38.789

> <PUBCHEM_FEATURE_SELFOVERLAP>
35.579

> <PUBCHEM_SHAPE_FINGERPRINT>
11405975 8 18410579470732296691
12549972 3 17749966530486205265
12788726 201 17974013843059024266
13134695 92 18409444748065634447
13899415 180 18265318534867037831
13955234 65 18338805636060794747
14178000 15 18411702045511545112
14178000 22 17621315075591159976
17041 50 18334575690316821399
18186145 218 18187083932481938971
20369508 70 18334293137066468875
20645477 70 18413111662748172759
20671657 1 18339932618098812021
20671657 53 18339084770122339459
21304303 282 17050458542654715716
21524375 3 17694793212845012012
22096605 113 18267589198677999881
22289505 5 18335135367199338357
2255824 54 18341902934282808358
22620623 9 17335369050999986086
22943178 12 18041284374149392179
23419403 2 17628039370810233512
23526113 38 17968106312678751290
23559900 14 18410853274422753851
3091708 16 9286654974416351528
5281201 14 18334859420515281431
621550 34 17757573102335813467
7364860 26 18339929315321721720
7615 1 17631751403986209115
77188 2 18338517413859188532
81228 2 17758694251908300618
9709674 26 18261959656284336939
9981440 41 17905882931207717737

> <PUBCHEM_SHAPE_MULTIPOLES>
313.21
7.89
4.4
1.03
14.17
3.54
0.04
-3.99
0.08
-6.86
-0.08
-0.26
-0.14
0.77

> <PUBCHEM_SHAPE_SELFOVERLAP>
599.582

> <PUBCHEM_SHAPE_VOLUME>
189.5

> <PUBCHEM_COORDINATE_TYPE>
2
5
10

$$$$
