REMARK  Name = 129651143
REMARK  16 active torsions:
REMARK  status: ('A' for Active; 'I' for Inactive)
REMARK    1  A    between atoms: C_1  and  C_2
REMARK    2  A    between atoms: C_1  and  C_10
REMARK    3  A    between atoms: C_1  and  C_25
REMARK    4  A    between atoms: C_1  and  C_28
REMARK    5  A    between atoms: C_2  and  O_4
REMARK    6  A    between atoms: O_4  and  C_6
REMARK    7  A    between atoms: C_6  and  C_7
REMARK    8  A    between atoms: C_10  and  O_11
REMARK    9  A    between atoms: C_10  and  O_13
REMARK   10  A    between atoms: C_10  and  O_19
REMARK   11  A    between atoms: O_13  and  C_15
REMARK   12  A    between atoms: C_15  and  C_16
REMARK   13  A    between atoms: O_19  and  C_21
REMARK   14  A    between atoms: C_21  and  C_22
REMARK   15  A    between atoms: C_25  and  O_26
REMARK   16  A    between atoms: C_28  and  O_29
REMARK                            x       y       z     vdW  Elec       q    Type
REMARK                         _______ _______ _______ _____ _____    ______ ____
ROOT
ATOM      1  C   UNL     1       0.261  -0.403  -0.922  0.00  0.00    +0.189 C 
ENDROOT
BRANCH   1   2
ATOM      2  C   UNL     1       1.020  -0.626   0.445  0.00  0.00    +0.183 C 
ATOM      3  C   UNL     1       0.517  -1.765   1.328  0.00  0.00    +0.048 C 
BRANCH   2   4
ATOM      4  O   UNL     1       2.407  -0.869   0.181  0.00  0.00    -0.449 OA
BRANCH   4   6
ATOM      5  O   UNL     1       2.970   0.160   2.162  0.00  0.00    -0.245 OA
ATOM      6  C   UNL     1       3.274  -0.420   1.129  0.00  0.00    +0.337 C 
BRANCH   6   7
ATOM      7  C   UNL     1       4.669  -0.743   0.720  0.00  0.00    +0.054 C 
ATOM      8  C   UNL     1       4.933  -1.458  -0.570  0.00  0.00    +0.038 C 
ATOM      9  C   UNL     1       5.655  -0.367   1.547  0.00  0.00    +0.002 C 
ENDBRANCH   6   7
ENDBRANCH   4   6
ENDBRANCH   2   4
ENDBRANCH   1   2
BRANCH   1  10
ATOM     10  C   UNL     1      -1.247   0.064  -0.691  0.00  0.00    +0.393 C 
BRANCH  10  11
ATOM     11  O   UNL     1      -1.819   0.290  -1.982  0.00  0.00    -0.322 OA
ATOM     12  H   UNL     1      -2.740   0.577  -1.883  0.00  0.00    +0.217 HD
ENDBRANCH  10  11
BRANCH  10  13
ATOM     13  O   UNL     1      -1.198   1.256   0.153  0.00  0.00    -0.394 OA
BRANCH  13  15
ATOM     14  O   UNL     1      -0.672   2.780  -1.494  0.00  0.00    -0.245 OA
ATOM     15  C   UNL     1      -0.916   2.490  -0.331  0.00  0.00    +0.341 C 
BRANCH  15  16
ATOM     16  C   UNL     1      -0.915   3.508   0.760  0.00  0.00    +0.054 C 
ATOM     17  C   UNL     1      -0.609   4.918   0.348  0.00  0.00    +0.038 C 
ATOM     18  C   UNL     1      -1.183   3.185   2.034  0.00  0.00    +0.002 C 
ENDBRANCH  15  16
ENDBRANCH  13  15
ENDBRANCH  10  13
BRANCH  10  19
ATOM     19  O   UNL     1      -1.913  -1.028   0.001  0.00  0.00    -0.394 OA
BRANCH  19  21
ATOM     20  O   UNL     1      -3.946   0.046   0.110  0.00  0.00    -0.245 OA
ATOM     21  C   UNL     1      -3.224  -0.914   0.335  0.00  0.00    +0.341 C 
BRANCH  21  22
ATOM     22  C   UNL     1      -3.669  -2.159   1.021  0.00  0.00    +0.054 C 
ATOM     23  C   UNL     1      -3.034  -3.474   0.689  0.00  0.00    +0.038 C 
ATOM     24  C   UNL     1      -4.651  -2.045   1.927  0.00  0.00    +0.002 C 
ENDBRANCH  21  22
ENDBRANCH  19  21
ENDBRANCH  10  19
ENDBRANCH   1  10
BRANCH   1  25
ATOM     25  C   UNL     1       1.048   0.685  -1.731  0.00  0.00    +0.153 C 
BRANCH  25  26
ATOM     26  O   UNL     1       2.205   0.142  -2.351  0.00  0.00    -0.381 OA
ATOM     27  H   UNL     1       2.667   0.840  -2.841  0.00  0.00    +0.210 HD
ENDBRANCH  25  26
ENDBRANCH   1  25
BRANCH   1  28
ATOM     28  C   UNL     1       0.313  -1.714  -1.767  0.00  0.00    +0.153 C 
BRANCH  28  29
ATOM     29  O   UNL     1      -0.275  -1.538  -3.051  0.00  0.00    -0.381 OA
ATOM     30  H   UNL     1      -0.225  -2.370  -3.546  0.00  0.00    +0.210 HD
ENDBRANCH  28  29
ENDBRANCH   1  28
TORSDOF 16
