REMARK  Name = 129692102
REMARK  15 active torsions:
REMARK  status: ('A' for Active; 'I' for Inactive)
REMARK    1  A    between atoms: C_1  and  C_18
REMARK    2  A    between atoms: C_2  and  C_5
REMARK    3  A    between atoms: C_5  and  C_6
REMARK    4  A    between atoms: C_6  and  C_9
REMARK    5  A    between atoms: C_6  and  C_10
REMARK    6  A    between atoms: C_10  and  O_11
REMARK    7  A    between atoms: C_10  and  C_13
REMARK    8  A    between atoms: C_13  and  N_14
REMARK    9  A    between atoms: C_18  and  C_20
REMARK   10  A    between atoms: C_20  and  C_21
REMARK   11  A    between atoms: C_21  and  C_24
REMARK   12  A    between atoms: C_21  and  C_25
REMARK   13  A    between atoms: C_25  and  O_26
REMARK   14  A    between atoms: C_25  and  C_28
REMARK   15  A    between atoms: C_28  and  N_29
REMARK                            x       y       z     vdW  Elec       q    Type
REMARK                         _______ _______ _______ _____ _____    ______ ____
ROOT
ATOM      1  C   UNL     1       0.087   2.490  -0.319  0.00  0.00    -0.034 C 
ATOM      2  C   UNL     1       0.838   2.022   0.695  0.00  0.00    +0.030 C 
ATOM      3  C   UNL     1       0.746   2.894  -1.613  0.00  0.00    +0.027 C 
ENDROOT
BRANCH   2   5
ATOM      4  O   UNL     1       3.072   2.815   0.466  0.00  0.00    -0.291 OA
ATOM      5  C   UNL     1       2.322   1.859   0.651  0.00  0.00    +0.185 C 
BRANCH   5   6
ATOM      6  C   UNL     1       2.852   0.438   0.862  0.00  0.00    +0.189 C 
BRANCH   6   9
ATOM      7  O   UNL     1       5.144   1.075   1.099  0.00  0.00    -0.245 OA
ATOM      8  O   UNL     1       4.106  -0.013   2.816  0.00  0.00    -0.245 OA
ATOM      9  C   UNL     1       4.168   0.514   1.667  0.00  0.00    +0.374 C 
ENDBRANCH   6   9
BRANCH   6  10
ATOM     10  C   UNL     1       2.881  -0.301  -0.488  0.00  0.00    +0.109 C 
BRANCH  10  11
ATOM     11  O   UNL     1       3.989   0.140  -1.273  0.00  0.00    -0.386 OA
ATOM     12  H   UNL     1       3.995  -0.333  -2.119  0.00  0.00    +0.210 HD
ENDBRANCH  10  11
BRANCH  10  13
ATOM     13  C   UNL     1       2.940  -1.818  -0.316  0.00  0.00    -0.042 C 
BRANCH  13  14
ATOM     14  N   UNL     1       2.421  -2.467  -1.548  0.00  0.00    +0.387 N 
ATOM     15  C   UNL     1       2.500  -3.995  -1.431  0.00  0.00    -0.096 C 
ATOM     16  C   UNL     1       0.956  -2.081  -1.789  0.00  0.00    -0.096 C 
ATOM     17  C   UNL     1       3.238  -2.038  -2.773  0.00  0.00    -0.096 C 
ENDBRANCH  13  14
ENDBRANCH  10  13
ENDBRANCH   6  10
ENDBRANCH   5   6
ENDBRANCH   2   5
BRANCH   1  18
ATOM     18  C   UNL     1      -1.413   2.632  -0.306  0.00  0.00    +0.087 C 
BRANCH  18  20
ATOM     19  O   UNL     1      -1.558   0.641  -1.681  0.00  0.00    -0.295 OA
ATOM     20  C   UNL     1      -2.097   1.390  -0.865  0.00  0.00    +0.167 C 
BRANCH  20  21
ATOM     21  C   UNL     1      -3.512   1.115  -0.357  0.00  0.00    +0.185 C 
BRANCH  21  24
ATOM     22  O   UNL     1      -3.887  -0.627  -1.948  0.00  0.00    -0.245 OA
ATOM     23  O   UNL     1      -5.278   1.184  -1.930  0.00  0.00    -0.245 OA
ATOM     24  C   UNL     1      -4.298   0.491  -1.531  0.00  0.00    +0.374 C 
ENDBRANCH  21  24
BRANCH  21  25
ATOM     25  C   UNL     1      -3.486   0.244   0.910  0.00  0.00    +0.108 C 
BRANCH  25  26
ATOM     26  O   UNL     1      -3.238   1.119   2.016  0.00  0.00    -0.386 OA
ATOM     27  H   UNL     1      -3.214   0.603   2.837  0.00  0.00    +0.210 HD
ENDBRANCH  25  26
BRANCH  25  28
ATOM     28  C   UNL     1      -2.368  -0.800   0.861  0.00  0.00    -0.042 C 
BRANCH  28  29
ATOM     29  N   UNL     1      -2.692  -1.923   1.780  0.00  0.00    +0.387 N 
ATOM     30  C   UNL     1      -1.572  -2.971   1.772  0.00  0.00    -0.096 C 
ATOM     31  C   UNL     1      -3.996  -2.612   1.355  0.00  0.00    -0.096 C 
ATOM     32  C   UNL     1      -2.865  -1.417   3.217  0.00  0.00    -0.096 C 
ENDBRANCH  28  29
ENDBRANCH  25  28
ENDBRANCH  21  25
ENDBRANCH  20  21
ENDBRANCH  18  20
ENDBRANCH   1  18
TORSDOF 15
