129619
  -OEChem-03292013323D

 64 64  0     1  0  0  0  0  0999 V2000
   -4.1970    2.1886   -0.7953 O   0  0  0  0  0  0  0  0  0  0  0  0
   -0.6626    5.0341    0.4136 O   0  0  0  0  0  0  0  0  0  0  0  0
    0.8399    2.9767   -1.1595 O   0  0  0  0  0  0  0  0  0  0  0  0
   -2.0609   -2.1433    1.6929 O   0  0  0  0  0  0  0  0  0  0  0  0
    7.8812   -2.3088    0.3862 O   0  0  0  0  0  0  0  0  0  0  0  0
    7.5957   -0.6170   -1.1554 O   0  0  0  0  0  0  0  0  0  0  0  0
   -1.9097    1.7643   -0.1197 C   0  0  2  0  0  0  0  0  0  0  0  0
   -0.8040    2.6193    0.5147 C   0  0  2  0  0  0  0  0  0  0  0  0
   -3.1927    2.5682    0.1327 C   0  0  1  0  0  0  0  0  0  0  0  0
   -2.7911    4.0239   -0.0830 C   0  0  0  0  0  0  0  0  0  0  0  0
   -1.3356    4.0168    0.2995 C   0  0  0  0  0  0  0  0  0  0  0  0
   -1.9778    0.3878    0.4660 C   0  0  0  0  0  0  0  0  0  0  0  0
    0.5237    2.3851   -0.1286 C   0  0  0  0  0  0  0  0  0  0  0  0
   -1.9152   -2.1574    0.2655 C   0  0  2  0  0  0  0  0  0  0  0  0
    1.4229    1.3632    0.5472 C   0  0  0  0  0  0  0  0  0  0  0  0
   -1.8542   -0.7359   -0.2581 C   0  0  0  0  0  0  0  0  0  0  0  0
   -3.1395   -2.9174   -0.2982 C   0  0  0  0  0  0  0  0  0  0  0  0
    2.7706    1.1725   -0.1469 C   0  0  0  0  0  0  0  0  0  0  0  0
   -4.5127   -2.3630    0.1007 C   0  0  0  0  0  0  0  0  0  0  0  0
   -0.5942   -2.8724   -0.0402 C   0  0  0  0  0  0  0  0  0  0  0  0
    3.6207    0.0840    0.5168 C   0  0  0  0  0  0  0  0  0  0  0  0
   -5.6801   -3.2008   -0.4348 C   0  0  0  0  0  0  0  0  0  0  0  0
    4.9734   -0.0665   -0.1871 C   0  0  0  0  0  0  0  0  0  0  0  0
   -7.0535   -2.6401   -0.0633 C   0  0  0  0  0  0  0  0  0  0  0  0
    5.8561   -1.1303    0.4657 C   0  0  0  0  0  0  0  0  0  0  0  0
   -8.1723   -3.5471   -0.5532 C   0  0  0  0  0  0  0  0  0  0  0  0
    7.2005   -1.2856   -0.2102 C   0  0  0  0  0  0  0  0  0  0  0  0
    9.1684   -2.5989   -0.1681 C   0  0  0  0  0  0  0  0  0  0  0  0
   -1.7484    1.6871   -1.2055 H   0  0  0  0  0  0  0  0  0  0  0  0
   -0.7333    2.4714    1.5991 H   0  0  0  0  0  0  0  0  0  0  0  0
   -3.5731    2.4163    1.1506 H   0  0  0  0  0  0  0  0  0  0  0  0
   -2.8972    4.3323   -1.1272 H   0  0  0  0  0  0  0  0  0  0  0  0
   -3.3607    4.6939    0.5659 H   0  0  0  0  0  0  0  0  0  0  0  0
   -2.1405    0.3264    1.5388 H   0  0  0  0  0  0  0  0  0  0  0  0
    1.5889    1.6924    1.5792 H   0  0  0  0  0  0  0  0  0  0  0  0
    0.8936    0.4061    0.5729 H   0  0  0  0  0  0  0  0  0  0  0  0
   -1.6996   -0.6420   -1.3321 H   0  0  0  0  0  0  0  0  0  0  0  0
   -3.0725   -2.9596   -1.3932 H   0  0  0  0  0  0  0  0  0  0  0  0
   -3.0914   -3.9559    0.0573 H   0  0  0  0  0  0  0  0  0  0  0  0
   -4.9620    2.7709   -0.6500 H   0  0  0  0  0  0  0  0  0  0  0  0
    3.3176    2.1235   -0.1431 H   0  0  0  0  0  0  0  0  0  0  0  0
    2.6052    0.9120   -1.1999 H   0  0  0  0  0  0  0  0  0  0  0  0
   -4.5887   -2.3136    1.1933 H   0  0  0  0  0  0  0  0  0  0  0  0
   -4.6168   -1.3372   -0.2720 H   0  0  0  0  0  0  0  0  0  0  0  0
   -0.4273   -2.9677   -1.1185 H   0  0  0  0  0  0  0  0  0  0  0  0
    0.2591   -2.3373    0.3939 H   0  0  0  0  0  0  0  0  0  0  0  0
   -0.5865   -3.8763    0.3999 H   0  0  0  0  0  0  0  0  0  0  0  0
    3.0831   -0.8714    0.4898 H   0  0  0  0  0  0  0  0  0  0  0  0
    3.7818    0.3370    1.5716 H   0  0  0  0  0  0  0  0  0  0  0  0
   -5.6022   -3.2690   -1.5271 H   0  0  0  0  0  0  0  0  0  0  0  0
   -5.5893   -4.2231   -0.0470 H   0  0  0  0  0  0  0  0  0  0  0  0
    5.4994    0.8965   -0.1785 H   0  0  0  0  0  0  0  0  0  0  0  0
    4.8121   -0.3235   -1.2416 H   0  0  0  0  0  0  0  0  0  0  0  0
   -1.2386   -1.7987    2.0819 H   0  0  0  0  0  0  0  0  0  0  0  0
   -7.1764   -1.6416   -0.4979 H   0  0  0  0  0  0  0  0  0  0  0  0
   -7.1285   -2.5328    1.0250 H   0  0  0  0  0  0  0  0  0  0  0  0
    6.0349   -0.8658    1.5140 H   0  0  0  0  0  0  0  0  0  0  0  0
    5.3430   -2.0981    0.4277 H   0  0  0  0  0  0  0  0  0  0  0  0
   -8.0942   -4.5435   -0.1067 H   0  0  0  0  0  0  0  0  0  0  0  0
   -9.1460   -3.1282   -0.2805 H   0  0  0  0  0  0  0  0  0  0  0  0
   -8.1415   -3.6546   -1.6422 H   0  0  0  0  0  0  0  0  0  0  0  0
    9.0707   -2.8981   -1.2160 H   0  0  0  0  0  0  0  0  0  0  0  0
    9.8261   -1.7295   -0.0735 H   0  0  0  0  0  0  0  0  0  0  0  0
    9.6018   -3.4296    0.3951 H   0  0  0  0  0  0  0  0  0  0  0  0
  1  9  1  0  0  0  0
  1 40  1  0  0  0  0
  2 11  2  0  0  0  0
  3 13  2  0  0  0  0
  4 14  1  0  0  0  0
  4 54  1  0  0  0  0
  5 27  1  0  0  0  0
  5 28  1  0  0  0  0
  6 27  2  0  0  0  0
  7  8  1  0  0  0  0
  7  9  1  0  0  0  0
  7 12  1  0  0  0  0
  7 29  1  0  0  0  0
  8 11  1  0  0  0  0
  8 13  1  0  0  0  0
  8 30  1  0  0  0  0
  9 10  1  0  0  0  0
  9 31  1  0  0  0  0
 10 11  1  0  0  0  0
 10 32  1  0  0  0  0
 10 33  1  0  0  0  0
 12 16  2  3  0  0  0
 12 34  1  0  0  0  0
 13 15  1  0  0  0  0
 14 16  1  0  0  0  0
 14 17  1  0  0  0  0
 14 20  1  0  0  0  0
 15 18  1  0  0  0  0
 15 35  1  0  0  0  0
 15 36  1  0  0  0  0
 16 37  1  0  0  0  0
 17 19  1  0  0  0  0
 17 38  1  0  0  0  0
 17 39  1  0  0  0  0
 18 21  1  0  0  0  0
 18 41  1  0  0  0  0
 18 42  1  0  0  0  0
 19 22  1  0  0  0  0
 19 43  1  0  0  0  0
 19 44  1  0  0  0  0
 20 45  1  0  0  0  0
 20 46  1  0  0  0  0
 20 47  1  0  0  0  0
 21 23  1  0  0  0  0
 21 48  1  0  0  0  0
 21 49  1  0  0  0  0
 22 24  1  0  0  0  0
 22 50  1  0  0  0  0
 22 51  1  0  0  0  0
 23 25  1  0  0  0  0
 23 52  1  0  0  0  0
 23 53  1  0  0  0  0
 24 26  1  0  0  0  0
 24 55  1  0  0  0  0
 24 56  1  0  0  0  0
 25 27  1  0  0  0  0
 25 57  1  0  0  0  0
 25 58  1  0  0  0  0
 26 59  1  0  0  0  0
 26 60  1  0  0  0  0
 26 61  1  0  0  0  0
 28 62  1  0  0  0  0
 28 63  1  0  0  0  0
 28 64  1  0  0  0  0
M  END
> <PUBCHEM_COMPOUND_CID>
129619

> <PUBCHEM_CONFORMER_RMSD>
1.4

> <PUBCHEM_CONFORMER_DIVERSEORDER>
1
108
100
92
46
81
114
91
79
56
78
39
89
35
57
50
76
75
24
26
34
72
30
103
112
101
87
9
104
88
80
115
53
15
20
90
5
77
95
109
70
86
111
63
61
38
33
13
8
71
59
99
97
18
43
93
58
107
12
22
74
60
106
23
85
44
40
102
2
48
98
21
83
36
7
17
4
105
41
14
16
64
49
113
31
27
84
65
69
55
94
6
29
19
42
73
51
54
45
32
62
82
52
66
96
25
28
47
68
110
67
3
37
10
11

> <PUBCHEM_MMFF94_PARTIAL_CHARGES>
23
1 -0.68
10 0.06
11 0.45
12 -0.29
13 0.45
14 0.42
15 0.06
16 -0.29
2 -0.57
25 0.06
27 0.66
28 0.28
3 -0.57
34 0.15
37 0.15
4 -0.68
40 0.4
5 -0.43
54 0.4
6 -0.57
7 0.14
8 0.12
9 0.28

> <PUBCHEM_EFFECTIVE_ROTOR_COUNT>
14.8

> <PUBCHEM_PHARMACOPHORE_FEATURES>
12
1 1 acceptor
1 1 donor
1 2 acceptor
1 26 hydrophobe
1 3 acceptor
1 4 acceptor
1 4 donor
1 6 acceptor
1 8 anion
4 17 19 22 24 hydrophobe
5 15 18 21 23 25 hydrophobe
5 7 8 9 10 11 rings

> <PUBCHEM_HEAVY_ATOM_COUNT>
28

> <PUBCHEM_ATOM_DEF_STEREO_COUNT>
4

> <PUBCHEM_ATOM_UDEF_STEREO_COUNT>
0

> <PUBCHEM_BOND_DEF_STEREO_COUNT>
0

> <PUBCHEM_BOND_UDEF_STEREO_COUNT>
1

> <PUBCHEM_ISOTOPIC_ATOM_COUNT>
0

> <PUBCHEM_COMPONENT_COUNT>
1

> <PUBCHEM_CACTVS_TAUTO_COUNT>
8

> <PUBCHEM_CONFORMER_ID>
0001FA5300000001

> <PUBCHEM_MMFF94_ENERGY>
33.1084

> <PUBCHEM_FEATURE_SELFOVERLAP>
60.898

> <PUBCHEM_SHAPE_FINGERPRINT>
10411042 1 18339360868110750931
10483366 6 18411407403019439663
11297750 10 18271236218054061817
11524674 6 17702372963113799046
12645989 146 18268991063330210823
13248334 5 17835238226866073913
13631057 29 18409449172784120146
14117953 113 18272374221595573583
14725015 67 18341328972271000066
14866123 147 18411142429122347035
14931854 50 17894903049100276530
15042514 8 18411698790174481913
15250474 111 18116424840168133602
15274700 232 18412268298685766095
15420108 30 18055938519538614993
15927050 60 18121782720852582211
16067689 68 16630244809983182447
16120349 21 18341901788090653203
22899556 56 17274555226403364225
23569914 152 17982983912854839967
23576562 1 17821726152330898509
3103668 31 18334002892621017637
397830 11 18201707459170471888
4073 2 18339923702875599946
484989 97 18334569192585171253
6138700 20 18410011070149287603

> <PUBCHEM_SHAPE_MULTIPOLES>
541.01
20.93
6.68
0.86
36.46
5.38
0.05
-34.36
-3.46
-8.55
-0.12
0.08
-0.06
-0.39

> <PUBCHEM_SHAPE_SELFOVERLAP>
1064.122

> <PUBCHEM_SHAPE_VOLUME>
324.6

> <PUBCHEM_COORDINATE_TYPE>
2
5
10

$$$$
