REMARK  Name = 129631855
REMARK  6 active torsions:
REMARK  status: ('A' for Active; 'I' for Inactive)
REMARK    1  A    between atoms: C_6  and  C_26
REMARK    2  A    between atoms: C_8  and  O_22
REMARK    3  A    between atoms: C_10  and  O_18
REMARK    4  A    between atoms: C_13  and  O_20
REMARK    5  A    between atoms: O_22  and  C_24
REMARK    6  A    between atoms: C_26  and  O_27
REMARK                            x       y       z     vdW  Elec       q    Type
REMARK                         _______ _______ _______ _____ _____    ______ ____
ROOT
ATOM      1  O   UNL     1      -1.695   2.521  -0.614  0.00  0.00    -0.351 OA
ATOM      2  O   UNL     1       0.532   0.959   1.798  0.00  0.00    -0.349 OA
ATOM      3  O   UNL     1       4.324  -0.035  -1.231  0.00  0.00    -0.289 OA
ATOM      4  C   UNL     1      -0.652   0.244  -0.715  0.00  0.00    +0.074 C 
ATOM      5  C   UNL     1      -0.695   1.628  -0.102  0.00  0.00    +0.151 C 
ATOM      6  C   UNL     1       0.799  -0.354  -0.334  0.00  0.00    +0.093 C 
ATOM      7  C   UNL     1      -0.759   1.406   1.371  0.00  0.00    +0.173 C 
ATOM      8  C   UNL     1      -1.788  -0.453   0.146  0.00  0.00    +0.200 C 
ATOM      9  C   UNL     1      -0.329   2.939  -0.754  0.00  0.00    +0.172 C 
ATOM     10  C   UNL     1      -1.821   0.301   1.507  0.00  0.00    +0.180 C 
ATOM     11  C   UNL     1       0.979  -0.285   1.226  0.00  0.00    +0.142 C 
ATOM     12  C   UNL     1      -0.980   0.223  -2.215  0.00  0.00    +0.006 C 
ATOM     13  C   UNL     1       1.974   0.450  -0.974  0.00  0.00    +0.176 C 
ATOM     14  C   UNL     1       2.392  -0.469   1.704  0.00  0.00    +0.002 C 
ATOM     15  C   UNL     1       3.345  -0.006  -0.485  0.00  0.00    +0.196 C 
ATOM     16  C   UNL     1       3.495  -0.373   0.951  0.00  0.00    +0.013 C 
ATOM     17  C   UNL     1       4.875  -0.612   1.473  0.00  0.00    +0.034 C 
ENDROOT
BRANCH  10  18
ATOM     18  O   UNL     1      -3.086   0.906   1.744  0.00  0.00    -0.379 OA
ATOM     19  H   UNL     1      -3.070   1.365   2.598  0.00  0.00    +0.211 HD
ENDBRANCH  10  18
BRANCH  13  20
ATOM     20  O   UNL     1       1.990   0.323  -2.388  0.00  0.00    -0.377 OA
ATOM     21  H   UNL     1       1.135   0.603  -2.748  0.00  0.00    +0.211 HD
ENDBRANCH  13  20
BRANCH   8  22
ATOM     22  O   UNL     1      -3.067  -0.373  -0.475  0.00  0.00    -0.450 OA
BRANCH  22  24
ATOM     23  O   UNL     1      -3.736  -2.294   0.621  0.00  0.00    -0.250 OA
ATOM     24  C   UNL     1      -3.949  -1.364  -0.145  0.00  0.00    +0.318 C 
ATOM     25  C   UNL     1      -5.244  -1.152  -0.869  0.00  0.00    +0.121 C 
ENDBRANCH  22  24
ENDBRANCH   8  22
BRANCH   6  26
ATOM     26  C   UNL     1       0.908  -1.834  -0.801  0.00  0.00    +0.143 C 
BRANCH  26  27
ATOM     27  O   UNL     1       2.187  -2.296  -0.439  0.00  0.00    -0.382 OA
ATOM     28  H   UNL     1       2.288  -3.220  -0.717  0.00  0.00    +0.210 HD
ENDBRANCH  26  27
ENDBRANCH   6  26
TORSDOF 6
