REMARK  Name = 129650168
REMARK  11 active torsions:
REMARK  status: ('A' for Active; 'I' for Inactive)
REMARK    1  A    between atoms: C_2  and  C_3
REMARK    2  A    between atoms: C_2  and  C_15
REMARK    3  A    between atoms: C_4  and  C_5
REMARK    4  A    between atoms: C_8  and  O_11
REMARK    5  A    between atoms: C_9  and  O_13
REMARK    6  A    between atoms: C_15  and  O_16
REMARK    7  A    between atoms: C_15  and  C_19
REMARK    8  A    between atoms: C_15  and  C_22
REMARK    9  A    between atoms: C_19  and  O_20
REMARK   10  A    between atoms: C_22  and  C_24
REMARK   11  A    between atoms: C_24  and  O_25
REMARK                            x       y       z     vdW  Elec       q    Type
REMARK                         _______ _______ _______ _____ _____    ______ ____
ROOT
ATOM      1  O   UNL     1       1.674   2.565   0.908  0.00  0.00    -0.288 OA
ATOM      2  C   UNL     1       1.571   1.438   0.424  0.00  0.00    +0.208 C 
ENDROOT
BRANCH   2   3
ATOM      3  C   UNL     1       0.226   0.826   0.187  0.00  0.00    +0.040 C 
ATOM      4  C   UNL     1      -0.891   1.495   0.502  0.00  0.00    +0.003 C 
BRANCH   4   5
ATOM      5  C   UNL     1      -2.257   0.979   0.299  0.00  0.00    +0.003 C 
ATOM      6  C   UNL     1      -2.469  -0.392   0.151  0.00  0.00    +0.040 C 
ATOM      7  C   UNL     1      -3.337   1.861   0.255  0.00  0.00    +0.003 C 
ATOM      8  C   UNL     1      -3.761  -0.881  -0.041  0.00  0.00    +0.172 C 
ATOM      9  C   UNL     1      -4.841   0.001  -0.085  0.00  0.00    +0.168 C 
ATOM     10  C   UNL     1      -4.629   1.371   0.063  0.00  0.00    +0.040 C 
BRANCH   8  11
ATOM     11  O   UNL     1      -3.955  -2.222  -0.184  0.00  0.00    -0.468 OA
ATOM     12  C   UNL     1      -2.798  -3.054  -0.127  0.00  0.00    +0.253 C 
ENDBRANCH   8  11
BRANCH   9  13
ATOM     13  O   UNL     1      -6.107  -0.465  -0.272  0.00  0.00    -0.503 OA
ATOM     14  H   UNL     1      -6.259  -1.384  -0.372  0.00  0.00    +0.292 HD
ENDBRANCH   9  13
ENDBRANCH   4   5
ENDBRANCH   2   3
BRANCH   2  15
ATOM     15  C   UNL     1       2.804   0.605   0.036  0.00  0.00    +0.243 C 
BRANCH  15  16
ATOM     16  O   UNL     1       3.927   1.468   0.245  0.00  0.00    -0.370 OA
ATOM     17  H   UNL     1       3.957   1.741   1.175  0.00  0.00    +0.211 HD
ENDBRANCH  15  16
BRANCH  15  19
ATOM     18  O   UNL     1       3.384   0.916  -2.317  0.00  0.00    -0.247 OA
ATOM     19  C   UNL     1       2.852   0.240  -1.446  0.00  0.00    +0.346 C 
BRANCH  19  20
ATOM     20  O   UNL     1       2.224  -0.935  -1.716  0.00  0.00    -0.478 OA
ATOM     21  H   UNL     1       1.829  -1.426  -1.022  0.00  0.00    +0.295 HD
ENDBRANCH  19  20
ENDBRANCH  15  19
BRANCH  15  22
ATOM     22  C   UNL     1       2.974  -0.591   0.992  0.00  0.00    +0.155 C 
BRANCH  22  24
ATOM     23  O   UNL     1       5.210  -1.068   0.182  0.00  0.00    -0.250 OA
ATOM     24  C   UNL     1       4.188  -1.450   0.733  0.00  0.00    +0.317 C 
BRANCH  24  25
ATOM     25  O   UNL     1       4.010  -2.707   1.209  0.00  0.00    -0.480 OA
ATOM     26  H   UNL     1       3.203  -2.941   1.624  0.00  0.00    +0.295 HD
ENDBRANCH  24  25
ENDBRANCH  22  24
ENDBRANCH  15  22
ENDBRANCH   2  15
TORSDOF 11
