129668652
  -OEChem-03292013293D

 24 26  0     1  0  0  0  0  0999 V2000
   -0.9646    2.5817   -0.2998 O   0  0  0  0  0  0  0  0  0  0  0  0
   -1.1287   -0.4484    1.6855 O   0  0  0  0  0  0  0  0  0  0  0  0
   -1.3832   -1.7969   -0.8090 O   0  0  0  0  0  0  0  0  0  0  0  0
    2.6926   -0.3502   -0.1042 O   0  0  0  0  0  0  0  0  0  0  0  0
   -2.0928    1.5658    1.6959 O   0  0  0  0  0  0  0  0  0  0  0  0
   -2.8264   -0.3923   -1.8408 O   0  0  0  0  0  0  0  0  0  0  0  0
    2.8479    1.5608   -1.3044 O   0  0  0  0  0  0  0  0  0  0  0  0
   -0.2356   -1.7975   -0.0157 N   0  0  0  0  0  0  0  0  0  0  0  0
    1.1055   -1.0124    1.5610 N   0  0  0  0  0  0  0  0  0  0  0  0
   -0.3971    1.2649   -0.0378 C   0  0  1  0  0  0  0  0  0  0  0  0
   -0.6477    0.5111   -1.3663 C   0  0  0  0  0  0  0  0  0  0  0  0
    1.0928    1.5411    0.3489 C   0  0  0  0  0  0  0  0  0  0  0  0
   -1.2657    0.8095    1.1822 C   0  0  0  0  0  0  0  0  0  0  0  0
   -1.7153   -0.5807   -1.3489 C   0  0  0  0  0  0  0  0  0  0  0  0
    2.2605    0.9130   -0.4374 C   0  0  0  0  0  0  0  0  0  0  0  0
   -0.1438   -1.1680    1.1948 C   0  0  0  0  0  0  0  0  0  0  0  0
    1.7638   -1.1996    0.3802 C   0  0  0  0  0  0  0  0  0  0  0  0
    1.0377   -2.0020   -0.4840 C   0  0  0  0  0  0  0  0  0  0  0  0
    0.2599    0.0962   -1.8111 H   0  0  0  0  0  0  0  0  0  0  0  0
   -0.9775    1.2239   -2.1374 H   0  0  0  0  0  0  0  0  0  0  0  0
    1.2702    1.3823    1.4196 H   0  0  0  0  0  0  0  0  0  0  0  0
    1.2796    2.6226    0.2531 H   0  0  0  0  0  0  0  0  0  0  0  0
   -0.8156    3.1370    0.4851 H   0  0  0  0  0  0  0  0  0  0  0  0
    1.2115   -2.3191   -1.5031 H   0  0  0  0  0  0  0  0  0  0  0  0
  1 10  1  0  0  0  0
  1 23  1  0  0  0  0
  2 13  1  0  0  0  0
  2 16  1  0  0  0  0
  3  8  1  0  0  0  0
  3 14  1  0  0  0  0
  4 15  1  0  0  0  0
  4 17  1  0  0  0  0
  5 13  2  0  0  0  0
  6 14  2  0  0  0  0
  7 15  2  0  0  0  0
  8 16  1  0  0  0  0
  8 18  1  0  0  0  0
  9 16  2  0  0  0  0
  9 17  1  0  0  0  0
 10 11  1  0  0  0  0
 10 12  1  0  0  0  0
 10 13  1  0  0  0  0
 11 14  1  0  0  0  0
 11 19  1  0  0  0  0
 11 20  1  0  0  0  0
 12 15  1  0  0  0  0
 12 21  1  0  0  0  0
 12 22  1  0  0  0  0
 17 18  2  0  0  0  0
 18 24  1  0  0  0  0
M  END
> <PUBCHEM_COMPOUND_CID>
129668652

> <PUBCHEM_CONFORMER_RMSD>
0.6

> <PUBCHEM_CONFORMER_DIVERSEORDER>
1
2

> <PUBCHEM_MMFF94_PARTIAL_CHARGES>
20
1 -0.68
10 0.34
11 0.06
12 0.06
13 0.66
14 0.66
15 0.66
16 0.25
17 0.29
18 -0.3
2 -0.21
23 0.4
24 0.15
3 -0.29
4 -0.21
5 -0.57
6 -0.57
7 -0.57
8 0.44
9 -0.57

> <PUBCHEM_EFFECTIVE_ROTOR_COUNT>
1

> <PUBCHEM_PHARMACOPHORE_FEATURES>
7
1 1 acceptor
1 1 donor
1 5 acceptor
1 6 acceptor
1 7 acceptor
3 8 9 16 cation
5 8 9 16 17 18 rings

> <PUBCHEM_HEAVY_ATOM_COUNT>
18

> <PUBCHEM_ATOM_DEF_STEREO_COUNT>
0

> <PUBCHEM_ATOM_UDEF_STEREO_COUNT>
1

> <PUBCHEM_BOND_DEF_STEREO_COUNT>
0

> <PUBCHEM_BOND_UDEF_STEREO_COUNT>
0

> <PUBCHEM_ISOTOPIC_ATOM_COUNT>
0

> <PUBCHEM_COMPONENT_COUNT>
1

> <PUBCHEM_CACTVS_TAUTO_COUNT>
1

> <PUBCHEM_CONFORMER_ID>
07BA962C00000001

> <PUBCHEM_MMFF94_ENERGY>
100.6567

> <PUBCHEM_FEATURE_SELFOVERLAP>
35.541

> <PUBCHEM_SHAPE_FINGERPRINT>
10702982 57 17988100910139112305
10863032 1 18053698881895697178
10948715 1 18055668090152282392
12423570 1 17911239416586957650
13024252 1 13119951777503567936
13027679 85 16177385939929327188
13299463 15 17974282428500548452
141345 1 16627466192889212547
14142880 1 18047206407684469440
144361 1 18187631548811172294
14617773 55 18201715154454231150
14817 1 17114166337837424583
15001771 113 18058994125774159367
15881359 60 18119806915468312097
16945 1 17541080396070265718
23419403 2 17031928481765767827
23559900 14 12789793076470060027
2748010 2 17833831955825005932
353137 74 18339065068917000302
427121 178 14274564090702743117
430814 3 17771641052363771760

> <PUBCHEM_SHAPE_MULTIPOLES>
319.38
3.1
2.31
1.68
0.76
0.28
0.16
0.54
-0.98
0.11
-0.09
-0.88
0
-0.88

> <PUBCHEM_SHAPE_SELFOVERLAP>
712.83

> <PUBCHEM_SHAPE_VOLUME>
161.9

> <PUBCHEM_COORDINATE_TYPE>
2
5
10

$$$$
