129635163
  -OEChem-03292013293D

 22 23  0     1  0  0  0  0  0999 V2000
    1.8093    1.0833   -0.1316 P   0  0  0  0  0  0  0  0  0  0  0  0
    0.3904    1.3262    0.6048 O   0  0  0  0  0  0  0  0  0  0  0  0
    1.5020    0.0469   -1.3167 O   0  0  0  0  0  0  0  0  0  0  0  0
    2.4264   -0.2287    0.5582 O   0  0  0  0  0  0  0  0  0  0  0  0
   -1.1951    0.2489    1.9460 O   0  0  0  0  0  0  0  0  0  0  0  0
    2.0113   -2.2641   -0.7270 O   0  0  0  0  0  0  0  0  0  0  0  0
   -2.1970    1.8037   -0.1634 O   0  0  0  0  0  0  0  0  0  0  0  0
    2.7268    2.2290   -0.4058 O   0  0  0  0  0  0  0  0  0  0  0  0
   -0.4397   -2.1448    0.7895 O   0  0  0  0  0  0  0  0  0  0  0  0
   -3.6965   -0.2597   -1.3139 O   0  0  0  0  0  0  0  0  0  0  0  0
   -0.5590    0.2669    0.6788 C   0  0  2  0  0  0  0  0  0  0  0  0
    1.4939   -1.0018   -0.2805 C   0  0  0  0  0  0  0  0  0  0  0  0
    0.1002   -1.0970    0.4273 C   0  0  0  0  0  0  0  0  0  0  0  0
   -1.6296    0.5127   -0.3766 C   0  0  1  0  0  0  0  0  0  0  0  0
   -2.7437   -0.5214   -0.2890 C   0  0  0  0  0  0  0  0  0  0  0  0
   -1.2076    0.5241   -1.3883 H   0  0  0  0  0  0  0  0  0  0  0  0
   -2.3884   -1.5405   -0.4493 H   0  0  0  0  0  0  0  0  0  0  0  0
   -3.2774   -0.4641    0.6651 H   0  0  0  0  0  0  0  0  0  0  0  0
   -0.5617   -0.1132    2.5885 H   0  0  0  0  0  0  0  0  0  0  0  0
    1.3970   -2.5524   -1.4233 H   0  0  0  0  0  0  0  0  0  0  0  0
   -1.4726    2.4511   -0.2085 H   0  0  0  0  0  0  0  0  0  0  0  0
   -4.3979   -0.9280   -1.2298 H   0  0  0  0  0  0  0  0  0  0  0  0
  1  2  1  0  0  0  0
  1  3  1  0  0  0  0
  1  4  1  0  0  0  0
  1  8  2  0  0  0  0
  2 11  1  0  0  0  0
  3 12  1  0  0  0  0
  4 12  1  0  0  0  0
  5 11  1  0  0  0  0
  5 19  1  0  0  0  0
  6 12  1  0  0  0  0
  6 20  1  0  0  0  0
  7 14  1  0  0  0  0
  7 21  1  0  0  0  0
  9 13  2  0  0  0  0
 10 15  1  0  0  0  0
 10 22  1  0  0  0  0
 11 13  1  0  0  0  0
 11 14  1  0  0  0  0
 12 13  1  0  0  0  0
 14 15  1  0  0  0  0
 14 16  1  0  0  0  0
 15 17  1  0  0  0  0
 15 18  1  0  0  0  0
M  END
> <PUBCHEM_COMPOUND_CID>
129635163

> <PUBCHEM_CONFORMER_RMSD>
0.6

> <PUBCHEM_CONFORMER_DIVERSEORDER>
2
6
3
4
5
7
1

> <PUBCHEM_MMFF94_PARTIAL_CHARGES>
19
1 1.51
10 -0.68
11 0.62
12 0.83
13 0.46
14 0.28
15 0.28
19 0.4
2 -0.55
20 0.4
21 0.4
22 0.4
3 -0.53
4 -0.53
5 -0.68
6 -0.66
7 -0.68
8 -0.7
9 -0.57

> <PUBCHEM_EFFECTIVE_ROTOR_COUNT>
2.8

> <PUBCHEM_PHARMACOPHORE_FEATURES>
11
1 10 acceptor
1 10 donor
1 5 acceptor
1 5 donor
1 6 acceptor
1 6 donor
1 7 acceptor
1 7 donor
1 8 acceptor
1 9 acceptor
7 1 2 3 4 11 12 13 rings

> <PUBCHEM_HEAVY_ATOM_COUNT>
15

> <PUBCHEM_ATOM_DEF_STEREO_COUNT>
2

> <PUBCHEM_ATOM_UDEF_STEREO_COUNT>
0

> <PUBCHEM_BOND_DEF_STEREO_COUNT>
0

> <PUBCHEM_BOND_UDEF_STEREO_COUNT>
0

> <PUBCHEM_ISOTOPIC_ATOM_COUNT>
0

> <PUBCHEM_COMPONENT_COUNT>
1

> <PUBCHEM_CACTVS_TAUTO_COUNT>
1

> <PUBCHEM_CONFORMER_ID>
07BA135B00000002

> <PUBCHEM_MMFF94_ENERGY>
39.8093

> <PUBCHEM_FEATURE_SELFOVERLAP>
55.847

> <PUBCHEM_SHAPE_FINGERPRINT>
12138202 97 17970623210753539847
12423570 1 18199443550667799702
12897270 3 18408035221830662077
13299463 15 18342173392852858477
13380535 76 18336823212290221810
14128692 85 18129091226176579535
14614273 12 17975431409561866922
15775835 57 18412553089118110085
15852999 172 18264200477754879426
16945 1 18201432640237840087
18186145 218 17749388131535354517
20201158 50 18341890813863960943
20820808 20 18335972143124784713
21947302 44 18333724732372069620
23402539 116 18191004884713253773
23552423 10 18339641118773927359
241688 4 17836091069983859762
2748010 2 17907311196859378352
353137 74 18409158939931210285
5084963 1 18272371932044817802
59915604 170 18260540165076092485
7832392 63 17905037063279590301
9939556 21 18129102217124497029

> <PUBCHEM_SHAPE_MULTIPOLES>
259.72
4.14
2.02
1.16
2
0.25
0.21
-0.72
-1.52
-1.07
-0.1
0.38
0.06
0.05

> <PUBCHEM_SHAPE_SELFOVERLAP>
535.406

> <PUBCHEM_SHAPE_VOLUME>
149.6

> <PUBCHEM_COORDINATE_TYPE>
2
5
10

$$$$
