REMARK  Name = 129644
REMARK  6 active torsions:
REMARK  status: ('A' for Active; 'I' for Inactive)
REMARK    1  A    between atoms: N_3  and  C1*_13
REMARK    2  A    between atoms: C_7  and  N_24
REMARK    3  A    between atoms: C2*_11  and  O2*_15
REMARK    4  A    between atoms: C3*_12  and  O3*_17
REMARK    5  A    between atoms: C4*_14  and  C5*_19
REMARK    6  A    between atoms: C5*_19  and  O5*_20
REMARK                            x       y       z     vdW  Elec       q    Type
REMARK                         _______ _______ _______ _____ _____    ______ ____
ROOT
ATOM      1  O   UNL     1       0.630   2.995  -0.932  0.00  0.00    -0.252 OA
ATOM      2  O   UNL     1       4.324   0.397   0.018  0.00  0.00    -0.268 OA
ATOM      3  N   UNL     1       0.274   0.753  -0.373  0.00  0.00    -0.215 N 
ATOM      4  N   UNL     1       2.465   1.697  -0.456  0.00  0.00    -0.234 N 
ATOM      5  C   UNL     1       0.859  -0.459  -0.012  0.00  0.00    +0.100 C 
ATOM      6  C   UNL     1       1.082   1.894  -0.610  0.00  0.00    +0.316 C 
ATOM      7  C   UNL     1       2.176  -0.595   0.121  0.00  0.00    +0.211 C 
ATOM      8  C   UNL     1       3.110   0.517  -0.101  0.00  0.00    +0.277 C 
ATOM      9  H   UNL     1       3.040   2.480  -0.616  0.00  0.00    +0.159 HD
ENDROOT
BRANCH   3  13
ATOM     10  O4* UNL     1      -1.662  -0.412  -0.973  0.00  0.00    -0.333 OA
ATOM     11  C2* UNL     1      -1.833   1.140   0.823  0.00  0.00    +0.187 C 
ATOM     12  C3* UNL     1      -3.135   0.384   0.682  0.00  0.00    +0.171 C 
ATOM     13  C1* UNL     1      -1.152   0.847  -0.504  0.00  0.00    +0.229 C 
ATOM     14  C4* UNL     1      -2.679  -0.858  -0.062  0.00  0.00    +0.175 C 
BRANCH  11  15
ATOM     15  O2* UNL     1      -2.070   2.526   0.993  0.00  0.00    -0.378 OA
ATOM     16  H2* UNL     1      -2.504   2.677   1.847  0.00  0.00    +0.211 HD
ENDBRANCH  11  15
BRANCH  12  17
ATOM     17  O3* UNL     1      -3.694   0.051   1.938  0.00  0.00    -0.379 OA
ATOM     18  H3* UNL     1      -3.976   0.861   2.391  0.00  0.00    +0.211 HD
ENDBRANCH  12  17
BRANCH  14  19
ATOM     19  C5* UNL     1      -3.794  -1.542  -0.832  0.00  0.00    +0.169 C 
BRANCH  19  20
ATOM     20  O5* UNL     1      -3.263  -2.677  -1.496  0.00  0.00    -0.379 OA
ATOM     21  H5* UNL     1      -3.968  -3.122  -1.991  0.00  0.00    +0.211 HD
ENDBRANCH  19  20
ENDBRANCH  14  19
ENDBRANCH   3  13
BRANCH   7  24
ATOM     22  O   UNL     1       1.819  -2.773   0.665  0.00  0.00    -0.126 OA
ATOM     23  O   UNL     1       3.885  -2.010   0.619  0.00  0.00    -0.126 OA
ATOM     24  N   UNL     1       2.658  -1.876   0.492  0.00  0.00    +0.064 N 
ENDBRANCH   7  24
TORSDOF 6
