REMARK  Name = 129680
REMARK  8 active torsions:
REMARK  status: ('A' for Active; 'I' for Inactive)
REMARK    1  A    between atoms: C_1  and  N_3
REMARK    2  A    between atoms: C_1  and  C_9
REMARK    3  A    between atoms: C_1  and  C_13
REMARK    4  A    between atoms: N_8  and  C_11
REMARK    5  A    between atoms: C_13  and  C_14
REMARK    6  A    between atoms: C_14  and  C_15
REMARK    7  A    between atoms: C_15  and  N_16
REMARK    8  A    between atoms: N_16  and  C_19
REMARK                            x       y       z     vdW  Elec       q    Type
REMARK                         _______ _______ _______ _____ _____    ______ ____
ROOT
ATOM      1  C   UNL     1       1.363  -0.202  -0.504  0.00  0.00    +0.149 C 
ENDROOT
BRANCH   1   3
ATOM      2  O   UNL     1       2.585  -2.671  -1.418  0.00  0.00    -0.275 OA
ATOM      3  N   UNL     1       2.146  -1.129   0.271  0.00  0.00    -0.298 N 
ATOM      4  C   UNL     1       2.693  -2.290  -0.255  0.00  0.00    +0.223 C 
ATOM      5  C   UNL     1       3.486  -3.064   0.764  0.00  0.00    +0.095 C 
ATOM      6  H   UNL     1       2.302  -0.929   1.222  0.00  0.00    +0.150 HD
ENDBRANCH   1   3
BRANCH   1   9
ATOM      7  O   UNL     1       2.329   1.450   0.985  0.00  0.00    -0.273 OA
ATOM      8  N   UNL     1       1.033   2.177  -0.798  0.00  0.00    -0.303 N 
ATOM      9  C   UNL     1       1.633   1.213  -0.001  0.00  0.00    +0.240 C 
ATOM     10  H   UNL     1       0.493   1.882  -1.567  0.00  0.00    +0.149 HD
BRANCH   8  11
ATOM     11  C   UNL     1       1.165   3.594  -0.549  0.00  0.00    +0.089 C 
ATOM     12  C   UNL     1       2.025   3.866   0.667  0.00  0.00    +0.023 C 
ENDBRANCH   8  11
ENDBRANCH   1   9
BRANCH   1  13
ATOM     13  C   UNL     1      -0.128  -0.564  -0.496  0.00  0.00    +0.031 C 
BRANCH  13  14
ATOM     14  C   UNL     1      -0.769  -0.545   0.899  0.00  0.00    +0.029 C 
BRANCH  14  15
ATOM     15  C   UNL     1      -2.241  -0.947   0.866  0.00  0.00    +0.129 C 
BRANCH  15  16
ATOM     16  N   UNL     1      -2.996  -0.012   0.031  0.00  0.00    -0.240 NA
BRANCH  16  19
ATOM     17  N   UNL     1      -5.007  -1.246   0.480  0.00  0.00    -0.370 N 
ATOM     18  N   UNL     1      -5.048   0.602  -0.854  0.00  0.00    -0.370 N 
ATOM     19  C   UNL     1      -4.269  -0.231  -0.087  0.00  0.00    +0.189 C 
ATOM     20  H   UNL     1      -4.567  -1.913   1.054  0.00  0.00    +0.159 HD
ATOM     21  H   UNL     1      -5.976  -1.303   0.312  0.00  0.00    +0.159 HD
ATOM     22  H   UNL     1      -4.641   1.370  -1.316  0.00  0.00    +0.159 HD
ATOM     23  H   UNL     1      -6.014   0.431  -0.940  0.00  0.00    +0.159 HD
ENDBRANCH  16  19
ENDBRANCH  15  16
ENDBRANCH  14  15
ENDBRANCH  13  14
ENDBRANCH   1  13
TORSDOF 8
