REMARK  Name = 129681278
REMARK  8 active torsions:
REMARK  status: ('A' for Active; 'I' for Inactive)
REMARK    1  A    between atoms: C_4  and  N_10
REMARK    2  A    between atoms: C_5  and  C_20
REMARK    3  A    between atoms: C_6  and  C_17
REMARK    4  A    between atoms: C_7  and  O_14
REMARK    5  A    between atoms: C_17  and  O_18
REMARK    6  A    between atoms: C_20  and  O_21
REMARK    7  A    between atoms: C_20  and  C_23
REMARK    8  A    between atoms: C_23  and  O_24
REMARK                            x       y       z     vdW  Elec       q    Type
REMARK                         _______ _______ _______ _____ _____    ______ ____
ROOT
ATOM      1  O   UNL     1      -0.008  -0.474  -1.058  0.00  0.00    -0.324 OA
ATOM      2  O   UNL     1      -1.410  -0.385   0.787  0.00  0.00    -0.323 OA
ATOM      3  C   UNL     1       0.476   0.576  -0.210  0.00  0.00    +0.168 C 
ATOM      4  C   UNL     1       1.632   0.000   0.641  0.00  0.00    +0.128 C 
ATOM      5  C   UNL     1      -0.779   0.896   0.597  0.00  0.00    +0.176 C 
ATOM      6  C   UNL     1      -0.755  -1.261  -0.132  0.00  0.00    +0.282 C 
ATOM      7  C   UNL     1       1.257  -1.297   1.388  0.00  0.00    +0.136 C 
ATOM      8  C   UNL     1       0.236  -2.153   0.618  0.00  0.00    +0.099 C 
ENDROOT
BRANCH   4  10
ATOM      9  O   UNL     1       3.715   1.892  -0.071  0.00  0.00    -0.275 OA
ATOM     10  N   UNL     1       2.783  -0.236  -0.204  0.00  0.00    -0.301 N 
ATOM     11  C   UNL     1       3.726   0.736  -0.485  0.00  0.00    +0.223 C 
ATOM     12  C   UNL     1       4.830   0.218  -1.366  0.00  0.00    +0.095 C 
ATOM     13  H   UNL     1       2.901  -1.131  -0.597  0.00  0.00    +0.150 HD
ENDBRANCH   4  10
BRANCH   7  14
ATOM     14  O   UNL     1       0.707  -0.933   2.657  0.00  0.00    -0.383 OA
ATOM     15  H   UNL     1       1.349  -0.393   3.145  0.00  0.00    +0.210 HD
ENDBRANCH   7  14
BRANCH   6  17
ATOM     16  O   UNL     1      -1.947  -1.982  -2.103  0.00  0.00    -0.245 OA
ATOM     17  C   UNL     1      -1.779  -2.039  -0.894  0.00  0.00    +0.366 C 
BRANCH  17  18
ATOM     18  O   UNL     1      -2.506  -2.821  -0.059  0.00  0.00    -0.477 OA
ATOM     19  H   UNL     1      -2.326  -2.818   0.861  0.00  0.00    +0.295 HD
ENDBRANCH  17  18
ENDBRANCH   6  17
BRANCH   5  20
ATOM     20  C   UNL     1      -1.753   1.792  -0.160  0.00  0.00    +0.169 C 
BRANCH  20  21
ATOM     21  O   UNL     1      -1.273   3.134  -0.110  0.00  0.00    -0.379 OA
ATOM     22  H   UNL     1      -0.388   3.176  -0.505  0.00  0.00    +0.211 HD
ENDBRANCH  20  21
BRANCH  20  23
ATOM     23  C   UNL     1      -3.141   1.754   0.465  0.00  0.00    +0.169 C 
BRANCH  23  24
ATOM     24  O   UNL     1      -4.011   2.584  -0.298  0.00  0.00    -0.379 OA
ATOM     25  H   UNL     1      -4.898   2.566   0.092  0.00  0.00    +0.211 HD
ENDBRANCH  23  24
ENDBRANCH  20  23
ENDBRANCH   5  20
TORSDOF 8
