REMARK  Name = 129679
REMARK  8 active torsions:
REMARK  status: ('A' for Active; 'I' for Inactive)
REMARK    1  A    between atoms: O_1  and  C_3
REMARK    2  A    between atoms: O_1  and  C_15
REMARK    3  A    between atoms: C_4  and  O_8
REMARK    4  A    between atoms: C_5  and  O_10
REMARK    5  A    between atoms: C_6  and  O_12
REMARK    6  A    between atoms: C_16  and  O_20
REMARK    7  A    between atoms: C_17  and  O_22
REMARK    8  A    between atoms: C_19  and  O_24
REMARK                            x       y       z     vdW  Elec       q    Type
REMARK                         _______ _______ _______ _____ _____    ______ ____
ROOT
ATOM      1  O   UNL     1      -0.319  -0.253  -0.834  0.00  0.00    -0.326 OA
ENDROOT
BRANCH   1   3
ATOM      2  O   UNL     1      -1.951  -1.304   0.465  0.00  0.00    -0.326 OA
ATOM      3  C   UNL     1      -1.465  -0.049  -0.008  0.00  0.00    +0.266 C 
ATOM      4  C   UNL     1      -2.531   0.654  -0.851  0.00  0.00    +0.196 C 
ATOM      5  C   UNL     1      -3.852   0.781  -0.093  0.00  0.00    +0.172 C 
ATOM      6  C   UNL     1      -4.255  -0.553   0.534  0.00  0.00    +0.169 C 
ATOM      7  C   UNL     1      -3.090  -1.157   1.305  0.00  0.00    +0.176 C 
BRANCH   4   8
ATOM      8  O   UNL     1      -2.079   1.964  -1.190  0.00  0.00    -0.378 OA
ATOM      9  H   UNL     1      -1.240   1.902  -1.673  0.00  0.00    +0.211 HD
ENDBRANCH   4   8
BRANCH   5  10
ATOM     10  O   UNL     1      -4.857   1.196  -1.019  0.00  0.00    -0.379 OA
ATOM     11  H   UNL     1      -4.601   2.043  -1.416  0.00  0.00    +0.211 HD
ENDBRANCH   5  10
BRANCH   6  12
ATOM     12  O   UNL     1      -5.340  -0.366   1.435  0.00  0.00    -0.379 OA
ATOM     13  H   UNL     1      -6.093   0.019   0.959  0.00  0.00    +0.211 HD
ENDBRANCH   6  12
ENDBRANCH   1   3
BRANCH   1  15
ATOM     14  O   UNL     1       2.623   1.246   0.717  0.00  0.00    -0.326 OA
ATOM     15  C   UNL     1       0.879  -0.244  -0.066  0.00  0.00    +0.177 C 
ATOM     16  C   UNL     1       1.926  -1.152  -0.710  0.00  0.00    +0.172 C 
ATOM     17  C   UNL     1       3.296  -0.954  -0.062  0.00  0.00    +0.196 C 
ATOM     18  C   UNL     1       1.387   1.188   0.014  0.00  0.00    +0.177 C 
ATOM     19  C   UNL     1       3.658   0.529   0.046  0.00  0.00    +0.266 C 
BRANCH  16  20
ATOM     20  O   UNL     1       1.546  -2.517  -0.537  0.00  0.00    -0.379 OA
ATOM     21  H   UNL     1       0.677  -2.665  -0.942  0.00  0.00    +0.211 HD
ENDBRANCH  16  20
BRANCH  17  22
ATOM     22  O   UNL     1       4.272  -1.623  -0.860  0.00  0.00    -0.378 OA
ATOM     23  H   UNL     1       4.044  -2.563  -0.930  0.00  0.00    +0.211 HD
ENDBRANCH  17  22
BRANCH  19  24
ATOM     24  O   UNL     1       4.874   0.629   0.785  0.00  0.00    -0.326 OA
ATOM     25  C   UNL     1       5.279   1.982   0.929  0.00  0.00    +0.177 C 
ENDBRANCH  19  24
ENDBRANCH   1  15
TORSDOF 8
