REMARK  Name = 129656
REMARK  5 active torsions:
REMARK  status: ('A' for Active; 'I' for Inactive)
REMARK    1  A    between atoms: N_5  and  C_15
REMARK    2  A    between atoms: C_15  and  C_16
REMARK    3  A    between atoms: C_16  and  C_17
REMARK    4  A    between atoms: C_17  and  C_19
REMARK    5  A    between atoms: C_19  and  O_20
REMARK                            x       y       z     vdW  Elec       q    Type
REMARK                         _______ _______ _______ _____ _____    ______ ____
ROOT
ATOM      1  F   UNL     1       4.429  -0.923   1.527  0.00  0.00    -0.198 F 
ATOM      2  O   UNL     1      -0.049  -2.361   0.181  0.00  0.00    -0.252 OA
ATOM      3  O   UNL     1       0.651   1.396  -1.566  0.00  0.00    -0.251 OA
ATOM      4  O   UNL     1       4.811   1.510   0.386  0.00  0.00    -0.267 OA
ATOM      5  N   UNL     1      -0.919  -0.686  -1.124  0.00  0.00    -0.288 N 
ATOM      6  N   UNL     1       1.269  -0.447  -0.219  0.00  0.00    -0.173 N 
ATOM      7  N   UNL     1       2.704   1.434  -0.574  0.00  0.00    -0.233 N 
ATOM      8  C   UNL     1       0.086  -1.252  -0.345  0.00  0.00    +0.315 C 
ATOM      9  C   UNL     1       1.467   0.826  -0.838  0.00  0.00    +0.321 C 
ATOM     10  C   UNL     1       2.296  -0.985   0.555  0.00  0.00    +0.112 C 
ATOM     11  C   UNL     1       3.459  -0.376   0.771  0.00  0.00    +0.209 C 
ATOM     12  C   UNL     1       3.745   0.938   0.192  0.00  0.00    +0.282 C 
ATOM     13  H   UNL     1      -0.767   0.200  -1.523  0.00  0.00    +0.151 HD
ATOM     14  H   UNL     1       2.849   2.318  -0.983  0.00  0.00    +0.159 HD
ENDROOT
BRANCH   5  15
ATOM     15  C   UNL     1      -2.178  -1.353  -1.367  0.00  0.00    +0.092 C 
BRANCH  15  16
ATOM     16  C   UNL     1      -3.240  -1.016  -0.321  0.00  0.00    +0.033 C 
BRANCH  16  17
ATOM     17  C   UNL     1      -3.614   0.467  -0.265  0.00  0.00    +0.111 C 
BRANCH  17  19
ATOM     18  O   UNL     1      -5.287  -0.053   1.427  0.00  0.00    -0.250 OA
ATOM     19  C   UNL     1      -4.697   0.773   0.746  0.00  0.00    +0.314 C 
BRANCH  19  20
ATOM     20  O   UNL     1      -4.931   2.109   0.835  0.00  0.00    -0.480 OA
ATOM     21  H   UNL     1      -4.454   2.705   0.292  0.00  0.00    +0.295 HD
ENDBRANCH  19  20
ENDBRANCH  17  19
ENDBRANCH  16  17
ENDBRANCH  15  16
ENDBRANCH   5  15
TORSDOF 5
