REMARK  Name = 129635163
REMARK  6 active torsions:
REMARK  status: ('A' for Active; 'I' for Inactive)
REMARK    1  A    between atoms: C_7  and  O_10
REMARK    2  A    between atoms: C_7  and  C_14
REMARK    3  A    between atoms: C_8  and  O_12
REMARK    4  A    between atoms: C_14  and  O_15
REMARK    5  A    between atoms: C_14  and  C_17
REMARK    6  A    between atoms: C_17  and  O_18
REMARK                            x       y       z     vdW  Elec       q    Type
REMARK                         _______ _______ _______ _____ _____    ______ ____
ROOT
ATOM      1  P   UNL     1       1.809   1.083  -0.132  0.00  0.00    +0.489 P 
ATOM      2  O   UNL     1       0.390   1.326   0.605  0.00  0.00    -0.243 OA
ATOM      3  O   UNL     1       1.502   0.047  -1.317  0.00  0.00    -0.221 OA
ATOM      4  O   UNL     1       2.426  -0.229   0.558  0.00  0.00    -0.221 OA
ATOM      5  O   UNL     1       2.727   2.229  -0.406  0.00  0.00    -0.227 OA
ATOM      6  O   UNL     1      -0.440  -2.145   0.789  0.00  0.00    -0.283 OA
ATOM      7  C   UNL     1      -0.559   0.267   0.679  0.00  0.00    +0.281 C 
ATOM      8  C   UNL     1       1.494  -1.002  -0.281  0.00  0.00    +0.368 C 
ATOM      9  C   UNL     1       0.100  -1.097   0.427  0.00  0.00    +0.284 C 
ENDROOT
BRANCH   7  10
ATOM     10  O   UNL     1      -1.195   0.249   1.946  0.00  0.00    -0.356 OA
ATOM     11  H   UNL     1      -0.533   0.094   2.638  0.00  0.00    +0.213 HD
ENDBRANCH   7  10
BRANCH   8  12
ATOM     12  O   UNL     1       2.011  -2.264  -0.727  0.00  0.00    -0.336 OA
ATOM     13  H   UNL     1       2.872  -2.128  -1.153  0.00  0.00    +0.216 HD
ENDBRANCH   8  12
BRANCH   7  14
ATOM     14  C   UNL     1      -1.630   0.513  -0.377  0.00  0.00    +0.199 C 
BRANCH  14  15
ATOM     15  O   UNL     1      -2.197   1.804  -0.163  0.00  0.00    -0.377 OA
ATOM     16  H   UNL     1      -1.500   2.476  -0.216  0.00  0.00    +0.211 HD
ENDBRANCH  14  15
BRANCH  14  17
ATOM     17  C   UNL     1      -2.744  -0.521  -0.289  0.00  0.00    +0.172 C 
BRANCH  17  18
ATOM     18  O   UNL     1      -3.696  -0.260  -1.314  0.00  0.00    -0.379 OA
ATOM     19  H   UNL     1      -4.411  -0.914  -1.266  0.00  0.00    +0.211 HD
ENDBRANCH  17  18
ENDBRANCH  14  17
ENDBRANCH   7  14
TORSDOF 6
