REMARK  Name = 129711583
REMARK  7 active torsions:
REMARK  status: ('A' for Active; 'I' for Inactive)
REMARK    1  A    between atoms: C_2  and  C_25
REMARK    2  A    between atoms: C_2  and  C_28
REMARK    3  A    between atoms: C_3  and  O_21
REMARK    4  A    between atoms: C_4  and  N_12
REMARK    5  A    between atoms: C_9  and  C_24
REMARK    6  A    between atoms: C_25  and  O_26
REMARK    7  A    between atoms: C_28  and  O_29
REMARK                            x       y       z     vdW  Elec       q    Type
REMARK                         _______ _______ _______ _____ _____    ______ ____
ROOT
ATOM      1  O   UNL     1       2.475  -1.264   0.300  0.00  0.00    -0.475 OA
ATOM      2  C   UNL     1       1.170  -1.861   0.189  0.00  0.00    +0.213 C 
ATOM      3  C   UNL     1       0.104  -1.060   0.971  0.00  0.00    +0.174 C 
ATOM      4  C   UNL     1       0.070   0.429   0.608  0.00  0.00    +0.127 C 
ATOM      5  C   UNL     1       1.447   0.955   0.297  0.00  0.00    +0.033 C 
ATOM      6  C   UNL     1       2.546   0.097   0.170  0.00  0.00    +0.136 C 
ATOM      7  C   UNL     1       1.649   2.338   0.155  0.00  0.00    +0.011 C 
ATOM      8  C   UNL     1       3.822   0.615  -0.073  0.00  0.00    +0.037 C 
ATOM      9  C   UNL     1       2.920   2.851  -0.101  0.00  0.00    +0.068 C 
ATOM     10  C   UNL     1       4.008   1.989  -0.213  0.00  0.00    +0.013 C 
ENDROOT
BRANCH   4  12
ATOM     11  O   UNL     1      -6.147   0.874  -0.020  0.00  0.00    -0.268 OA
ATOM     12  N   UNL     1      -0.830   0.651  -0.506  0.00  0.00    -0.313 N 
ATOM     13  N   UNL     1      -2.695   0.558   0.819  0.00  0.00    -0.161 NA
ATOM     14  N   UNL     1      -4.053   0.613   0.949  0.00  0.00    -0.174 N 
ATOM     15  C   UNL     1      -2.163   0.702  -0.364  0.00  0.00    +0.147 C 
ATOM     16  C   UNL     1      -2.983   0.922  -1.579  0.00  0.00    +0.040 C 
ATOM     17  C   UNL     1      -4.304   0.975  -1.442  0.00  0.00    +0.063 C 
ATOM     18  C   UNL     1      -4.921   0.817  -0.111  0.00  0.00    +0.268 C 
ATOM     19  C   UNL     1      -4.538   0.442   2.308  0.00  0.00    +0.143 C 
ATOM     20  H   UNL     1      -0.446   0.770  -1.406  0.00  0.00    +0.149 HD
ENDBRANCH   4  12
BRANCH   3  21
ATOM     21  O   UNL     1       0.352  -1.157   2.381  0.00  0.00    -0.379 OA
ATOM     22  H   UNL     1       0.379  -2.091   2.641  0.00  0.00    +0.211 HD
ENDBRANCH   3  21
BRANCH   9  24
ATOM     23  N   UNL     1       3.258   5.404  -0.372  0.00  0.00    -0.191 NA
ATOM     24  C   UNL     1       3.107   4.259  -0.251  0.00  0.00    +0.100 C 
ENDBRANCH   9  24
BRANCH   2  25
ATOM     25  C   UNL     1       0.825  -2.015  -1.302  0.00  0.00    +0.187 C 
BRANCH  25  26
ATOM     26  O   UNL     1      -0.403  -2.706  -1.397  0.00  0.00    -0.347 OA
ATOM     27  C   UNL     1      -0.802  -2.894  -2.752  0.00  0.00    +0.174 C 
ENDBRANCH  25  26
ENDBRANCH   2  25
BRANCH   2  28
ATOM     28  C   UNL     1       1.314  -3.274   0.785  0.00  0.00    +0.187 C 
BRANCH  28  29
ATOM     29  O   UNL     1       2.287  -3.967   0.034  0.00  0.00    -0.347 OA
ATOM     30  C   UNL     1       2.487  -5.293   0.517  0.00  0.00    +0.174 C 
ENDBRANCH  28  29
ENDBRANCH   2  28
TORSDOF 7
