129716409
  -OEChem-03292013293D

 29 28  0     1  0  0  0  0  0999 V2000
    2.0129    2.2574    0.6084 O   0  0  0  0  0  0  0  0  0  0  0  0
   -0.5735   -0.5157   -1.7217 O   0  0  0  0  0  0  0  0  0  0  0  0
    4.1978   -0.6817   -0.6235 O   0  0  0  0  0  0  0  0  0  0  0  0
    3.2400   -0.4441    1.4203 O   0  0  0  0  0  0  0  0  0  0  0  0
   -2.8179    1.4991    0.9155 O   0  0  0  0  0  0  0  0  0  0  0  0
    0.7868   -0.2611    0.1411 N   0  0  0  0  0  0  0  0  0  0  0  0
   -2.7545   -0.6188   -0.0508 N   0  0  0  0  0  0  0  0  0  0  0  0
   -1.4778   -1.0368    0.4657 C   0  0  2  0  0  0  0  0  0  0  0  0
    1.9716    0.1651   -0.5665 C   0  0  1  0  0  0  0  0  0  0  0  0
   -0.4018   -0.5696   -0.5057 C   0  0  0  0  0  0  0  0  0  0  0  0
   -1.4234   -2.5449    0.6528 C   0  0  0  0  0  0  0  0  0  0  0  0
    2.0367    1.6799   -0.6912 C   0  0  0  0  0  0  0  0  0  0  0  0
    3.1680   -0.3570    0.2014 C   0  0  0  0  0  0  0  0  0  0  0  0
   -3.3188    0.6198    0.2194 C   0  0  0  0  0  0  0  0  0  0  0  0
   -4.6460    0.8084   -0.4653 C   0  0  0  0  0  0  0  0  0  0  0  0
   -1.3281   -0.5467    1.4352 H   0  0  0  0  0  0  0  0  0  0  0  0
    1.9625   -0.2947   -1.5615 H   0  0  0  0  0  0  0  0  0  0  0  0
    0.8305   -0.3258    1.1544 H   0  0  0  0  0  0  0  0  0  0  0  0
   -1.5632   -3.0693   -0.2995 H   0  0  0  0  0  0  0  0  0  0  0  0
   -0.4556   -2.8546    1.0611 H   0  0  0  0  0  0  0  0  0  0  0  0
   -2.2091   -2.8821    1.3373 H   0  0  0  0  0  0  0  0  0  0  0  0
    1.1783    2.0635   -1.2523 H   0  0  0  0  0  0  0  0  0  0  0  0
    2.9589    1.9938   -1.1910 H   0  0  0  0  0  0  0  0  0  0  0  0
   -3.2284   -1.2372   -0.7035 H   1  0  0  0  0  0  0  0  0  0  0  0
   -5.2646   -0.0866   -0.3534 H   1  0  0  0  0  0  0  0  0  0  0  0
   -5.1737    1.6549   -0.0172 H   0  0  0  0  0  0  0  0  0  0  0  0
   -4.4809    1.0067   -1.5277 H   0  0  0  0  0  0  0  0  0  0  0  0
    2.0548    3.2219    0.4924 H   0  0  0  0  0  0  0  0  0  0  0  0
    4.9801   -0.9989   -0.1238 H   0  0  0  0  0  0  0  0  0  0  0  0
  1 12  1  0  0  0  0
  1 28  1  0  0  0  0
  2 10  2  0  0  0  0
  3 13  1  0  0  0  0
  3 29  1  0  0  0  0
  4 13  2  0  0  0  0
  5 14  2  0  0  0  0
  6  9  1  0  0  0  0
  6 10  1  0  0  0  0
  6 18  1  0  0  0  0
  7  8  1  0  0  0  0
  7 14  1  0  0  0  0
  7 24  1  0  0  0  0
  8 10  1  0  0  0  0
  8 11  1  0  0  0  0
  8 16  1  0  0  0  0
  9 12  1  0  0  0  0
  9 13  1  0  0  0  0
  9 17  1  0  0  0  0
 11 19  1  0  0  0  0
 11 20  1  0  0  0  0
 11 21  1  0  0  0  0
 12 22  1  0  0  0  0
 12 23  1  0  0  0  0
 14 15  1  0  0  0  0
 15 25  1  0  0  0  0
 15 26  1  0  0  0  0
 15 27  1  0  0  0  0
M  ISO  2  24   2  25   2
M  END
> <PUBCHEM_COMPOUND_CID>
129716409

> <PUBCHEM_CONFORMER_RMSD>
0.8

> <PUBCHEM_CONFORMER_DIVERSEORDER>
1
63
18
52
59
68
64
28
54
21
23
41
72
67
24
44
13
71
32
79
26
9
77
76
22
46
42
57
20
14
65
35
43
40
51
47
5
78
73
45
11
62
31
49
4
74
15
34
56
29
66
6
27
55
2
38
25
60
19
70
39
37
69
75
50
61
10
3
17
58
36
33
12
48
16
8
53
30
7

> <PUBCHEM_MMFF94_PARTIAL_CHARGES>
18
1 -0.68
10 0.57
12 0.28
13 0.66
14 0.57
15 0.06
18 0.37
2 -0.57
24 0.37
28 0.4
29 0.5
3 -0.65
4 -0.57
5 -0.57
6 -0.73
7 -0.73
8 0.36
9 0.36

> <PUBCHEM_EFFECTIVE_ROTOR_COUNT>
7

> <PUBCHEM_PHARMACOPHORE_FEATURES>
9
1 1 acceptor
1 1 donor
1 2 acceptor
1 3 acceptor
1 4 acceptor
1 5 acceptor
1 6 donor
1 7 donor
3 3 4 13 anion

> <PUBCHEM_HEAVY_ATOM_COUNT>
15

> <PUBCHEM_ATOM_DEF_STEREO_COUNT>
2

> <PUBCHEM_ATOM_UDEF_STEREO_COUNT>
0

> <PUBCHEM_BOND_DEF_STEREO_COUNT>
0

> <PUBCHEM_BOND_UDEF_STEREO_COUNT>
0

> <PUBCHEM_ISOTOPIC_ATOM_COUNT>
2

> <PUBCHEM_COMPONENT_COUNT>
1

> <PUBCHEM_CACTVS_TAUTO_COUNT>
4

> <PUBCHEM_CONFORMER_ID>
07BB50B900000001

> <PUBCHEM_MMFF94_ENERGY>
24.1112

> <PUBCHEM_FEATURE_SELFOVERLAP>
45.736

> <PUBCHEM_SHAPE_FINGERPRINT>
10130415 120 18408040706456562560
12162725 195 18272092703615707621
12251169 10 18260266360515223154
124424 183 18343306954870477022
12500047 106 18334296504236172874
12932764 1 17772202065466309974
13571099 22 17846224332349023302
13922767 16 18411133628038304204
14144814 61 18260266347693592442
14252887 29 13407083560876243921
14965852 173 18261958556334547126
15375462 189 17385715877477375658
15775835 57 17894352167977939915
15852999 172 15698282217943433188
17041 49 18334287678479027144
17802600 8 18412259511103193077
18186145 218 18334005108090340757
18511873 20 18333450932565292002
19107657 47 17749387044845610717
192875 21 18130785642483628113
200 152 12391510862672840647
21501502 16 18116432729205118454
21524375 3 18411420579662657335
22485316 2 8214141837665073253
23402539 116 18272082795548051807
305870 269 18191310364721111027
351380 180 18343579625454608541
57426455 114 18408317791623242978
74978 22 18335704995900595146

> <PUBCHEM_SHAPE_MULTIPOLES>
269.38
7.45
1.96
1.08
1.42
0.18
-0.1
-1.73
0.28
0.33
0.44
-0.24
-0.02
-0.04

> <PUBCHEM_SHAPE_SELFOVERLAP>
521.923

> <PUBCHEM_SHAPE_VOLUME>
162.2

> <PUBCHEM_COORDINATE_TYPE>
2
5
10

$$$$
