REMARK  Name = 129700
REMARK  7 active torsions:
REMARK  status: ('A' for Active; 'I' for Inactive)
REMARK    1  A    between atoms: C_1  and  C_3
REMARK    2  A    between atoms: C_1  and  O_11
REMARK    3  A    between atoms: C_1  and  C_13
REMARK    4  A    between atoms: C_8  and  N_9
REMARK    5  A    between atoms: C_13  and  N_14
REMARK    6  A    between atoms: N_14  and  N_16
REMARK    7  A    between atoms: N_14  and  C_17
REMARK                            x       y       z     vdW  Elec       q    Type
REMARK                         _______ _______ _______ _____ _____    ______ ____
ROOT
ATOM      1  C   UNL     1      -1.365   1.588   0.413  0.00  0.00    +0.150 C 
ENDROOT
BRANCH   1   3
ATOM      2  O   UNL     1       2.615   0.255  -1.934  0.00  0.00    -0.285 OA
ATOM      3  C   UNL     1      -0.013   0.961   0.390  0.00  0.00    +0.009 C 
ATOM      4  C   UNL     1       0.706   0.894  -0.804  0.00  0.00    +0.042 C 
ATOM      5  C   UNL     1       0.534   0.439   1.562  0.00  0.00    -0.000 C 
ATOM      6  C   UNL     1       1.970   0.306  -0.826  0.00  0.00    +0.212 C 
ATOM      7  C   UNL     1       1.799  -0.149   1.541  0.00  0.00    +0.021 C 
ATOM      8  C   UNL     1       2.517  -0.215   0.347  0.00  0.00    +0.126 C 
BRANCH   8   9
ATOM      9  N   UNL     1       3.770  -0.806   0.373  0.00  0.00    -0.126 NA
ATOM     10  N   UNL     1       4.752  -1.270   0.394  0.00  0.00    +0.004 NA
ENDBRANCH   8   9
ENDBRANCH   1   3
BRANCH   1  11
ATOM     11  O   UNL     1      -1.246   2.978   0.079  0.00  0.00    -0.379 OA
ATOM     12  H   UNL     1      -2.124   3.390   0.093  0.00  0.00    +0.211 HD
ENDBRANCH   1  11
BRANCH   1  13
ATOM     13  C   UNL     1      -2.341   0.918  -0.570  0.00  0.00    +0.126 C 
BRANCH  13  14
ATOM     14  N   UNL     1      -2.507  -0.480  -0.241  0.00  0.00    -0.173 NA
BRANCH  14  16
ATOM     15  O   UNL     1      -1.569  -1.607  -1.761  0.00  0.00    -0.082 OA
ATOM     16  N   UNL     1      -2.663  -1.287  -1.282  0.00  0.00    +0.032 NA
ENDBRANCH  14  16
BRANCH  14  17
ATOM     17  C   UNL     1      -3.605  -0.652   0.727  0.00  0.00    +0.093 C 
ATOM     18  C   UNL     1      -3.354  -1.873   1.591  0.00  0.00    +0.020 C 
ENDBRANCH  14  17
ENDBRANCH  13  14
ENDBRANCH   1  13
TORSDOF 7
