REMARK  Name = 129717314
REMARK  11 active torsions:
REMARK  status: ('A' for Active; 'I' for Inactive)
REMARK    1  A    between atoms: N_3  and  N_11
REMARK    2  A    between atoms: C_7  and  C_22
REMARK    3  A    between atoms: N_11  and  N_14
REMARK    4  A    between atoms: C_15  and  C_17
REMARK    5  A    between atoms: C_17  and  O_18
REMARK    6  A    between atoms: O_18  and  N_19
REMARK    7  A    between atoms: C_22  and  C_23
REMARK    8  A    between atoms: C_23  and  C_24
REMARK    9  A    between atoms: C_24  and  C_25
REMARK   10  A    between atoms: C_25  and  C_27
REMARK   11  A    between atoms: C_27  and  O_28
REMARK                            x       y       z     vdW  Elec       q    Type
REMARK                         _______ _______ _______ _____ _____    ______ ____
ROOT
ATOM      1  S   UNL     1       0.715   3.175  -0.669  0.00  0.00    -0.138 S 
ATOM      2  O   UNL     1      -2.955   2.193   2.289  0.00  0.00    -0.251 OA
ATOM      3  N   UNL     1      -1.639   1.163   0.626  0.00  0.00    -0.193 N 
ATOM      4  N   UNL     1      -2.572   3.158   0.192  0.00  0.00    -0.287 N 
ATOM      5  C   UNL     1      -1.261   1.413  -0.752  0.00  0.00    +0.123 C 
ATOM      6  C   UNL     1      -1.882   2.808  -1.037  0.00  0.00    +0.104 C 
ATOM      7  C   UNL     1       0.246   1.467  -1.050  0.00  0.00    +0.069 C 
ATOM      8  C   UNL     1      -0.807   3.836  -1.378  0.00  0.00    +0.079 C 
ATOM      9  C   UNL     1      -2.441   2.170   1.178  0.00  0.00    +0.318 C 
ATOM     10  H   UNL     1      -3.076   3.994   0.319  0.00  0.00    +0.151 HD
ENDROOT
BRANCH   3  11
ATOM     11  N   UNL     1      -1.520  -0.071   1.224  0.00  0.00    -0.154 NA
ATOM     12  H   UNL     1      -1.563   0.042   2.237  0.00  0.00    +0.168 HD
BRANCH  11  14
ATOM     13  O   UNL     1      -1.149  -2.550   0.058  0.00  0.00    -0.271 OA
ATOM     14  N   UNL     1      -2.541  -0.904   0.817  0.00  0.00    -0.232 N 
ATOM     15  C   UNL     1      -2.294  -2.133   0.239  0.00  0.00    +0.269 C 
ATOM     16  H   UNL     1      -3.473  -0.613   0.941  0.00  0.00    +0.171 HD
BRANCH  15  17
ATOM     17  C   UNL     1      -3.511  -2.947  -0.163  0.00  0.00    +0.251 C 
BRANCH  17  18
ATOM     18  O   UNL     1      -3.115  -4.186  -0.717  0.00  0.00    -0.279 OA
BRANCH  18  19
ATOM     19  N   UNL     1      -4.322  -4.916  -1.081  0.00  0.00    -0.213 NA
ATOM     20  H   UNL     1      -4.066  -5.817  -1.484  0.00  0.00    +0.150 HD
ATOM     21  H   UNL     1      -4.853  -4.376  -1.764  0.00  0.00    +0.150 HD
ENDBRANCH  18  19
ENDBRANCH  17  18
ENDBRANCH  15  17
ENDBRANCH  11  14
ENDBRANCH   3  11
BRANCH   7  22
ATOM     22  C   UNL     1       1.135   0.469  -0.329  0.00  0.00    +0.013 C 
BRANCH  22  23
ATOM     23  C   UNL     1       2.617   0.590  -0.695  0.00  0.00    +0.001 C 
BRANCH  23  24
ATOM     24  C   UNL     1       3.562  -0.360   0.046  0.00  0.00    +0.012 C 
BRANCH  24  25
ATOM     25  C   UNL     1       5.033  -0.157  -0.314  0.00  0.00    +0.109 C 
BRANCH  25  27
ATOM     26  O   UNL     1       5.549  -2.048   1.131  0.00  0.00    -0.250 OA
ATOM     27  C   UNL     1       5.925  -1.173   0.363  0.00  0.00    +0.314 C 
BRANCH  27  28
ATOM     28  O   UNL     1       7.228  -0.998   0.020  0.00  0.00    -0.480 OA
ATOM     29  H   UNL     1       7.468  -0.313  -0.573  0.00  0.00    +0.295 HD
ENDBRANCH  27  28
ENDBRANCH  25  27
ENDBRANCH  24  25
ENDBRANCH  23  24
ENDBRANCH  22  23
ENDBRANCH   7  22
TORSDOF 11
