REMARK  Name = 129716409
REMARK  8 active torsions:
REMARK  status: ('A' for Active; 'I' for Inactive)
REMARK    1  A    between atoms: N_2  and  CA_13
REMARK    2  A    between atoms: C_3  and  CA_5
REMARK    3  A    between atoms: CA_5  and  N_8
REMARK    4  A    between atoms: C_9  and  C_11
REMARK    5  A    between atoms: CA_13  and  C_15
REMARK    6  A    between atoms: CA_13  and  CB_18
REMARK    7  A    between atoms: C_15  and  O_16
REMARK    8  A    between atoms: CB_18  and  OG_19
REMARK                            x       y       z     vdW  Elec       q    Type
REMARK                         _______ _______ _______ _____ _____    ______ ____
ROOT
ATOM      1  O   SER A   1      -0.574  -0.516  -1.722  0.00  0.00    -0.273 OA
ATOM      2  N   SER A   1       0.787  -0.261   0.141  0.00  0.00    -0.293 N 
ATOM      3  C   SER A   1      -0.402  -0.570  -0.506  0.00  0.00    +0.241 C 
ATOM      4  H   SER A   1       0.824  -0.336   1.122  0.00  0.00    +0.150 HD
ENDROOT
BRANCH   3   5
ATOM      5  CA  SER A   1      -1.478  -1.037   0.466  0.00  0.00    +0.149 C 
ATOM      6  CB  SER A   1      -1.423  -2.545   0.653  0.00  0.00    +0.031 C 
BRANCH   5   8
ATOM      7  O   UNK A   0      -2.818   1.499   0.915  0.00  0.00    -0.275 OA
ATOM      8  N   SER A   1      -2.755  -0.619  -0.051  0.00  0.00    -0.299 N 
ATOM      9  C   UNK A   0      -3.319   0.620   0.219  0.00  0.00    +0.218 C 
ATOM     10  H   SER A   1      -3.228  -1.237  -0.704  0.00  0.00    +0.150 HD
ATOM     11  C   UNK A   0      -4.646   0.808  -0.465  0.00  0.00    +0.100 C 
ENDBRANCH   5   8
ENDBRANCH   3   5
BRANCH   2  12
ATOM     12  CA  SER A   1       1.972   0.165  -0.567  0.00  0.00    +0.201 C 
BRANCH  12  14
ATOM     13  OXT SER A   1       3.240  -0.444   1.420  0.00  0.00    -0.248 OA
ATOM     14  C   SER A   1       3.168  -0.357   0.201  0.00  0.00    +0.334 C 
BRANCH  14  15
ATOM     15  O   SER A   1       4.198  -0.682  -0.624  0.00  0.00    -0.479 OA
ATOM     16  H   SER A   1       4.098  -0.600  -1.552  0.00  0.00    +0.295 HD
ENDBRANCH  14  15
ENDBRANCH  12  14
BRANCH  12  17
ATOM     17  CB  SER A   1       2.037   1.680  -0.691  0.00  0.00    +0.168 C 
BRANCH  17  18
ATOM     18  OG  SER A   1       2.013   2.257   0.608  0.00  0.00    -0.380 OA
ATOM     19  H   SER A   1       2.054   3.224   0.534  0.00  0.00    +0.211 HD
ENDBRANCH  17  18
ENDBRANCH  12  17
ENDBRANCH   2  12
TORSDOF 7
