REMARK  Name = 129717745
REMARK  9 active torsions:
REMARK  status: ('A' for Active; 'I' for Inactive)
REMARK    1  A    between atoms: C_1  and  N_3
REMARK    2  A    between atoms: C_1  and  C_11
REMARK    3  A    between atoms: C_1  and  O_18
REMARK    4  A    between atoms: C_1  and  C_21
REMARK    5  A    between atoms: C_4  and  C_6
REMARK    6  A    between atoms: C_6  and  C_7
REMARK    7  A    between atoms: C_7  and  C_8
REMARK    8  A    between atoms: C_11  and  N_14
REMARK    9  A    between atoms: C_21  and  O_22
REMARK                            x       y       z     vdW  Elec       q    Type
REMARK                         _______ _______ _______ _____ _____    ______ ____
ROOT
ATOM      1  C   UNL     1       1.718  -0.008  -0.302  0.00  0.00    +0.223 C 
ENDROOT
BRANCH   1   3
ATOM      2  O   UNL     1      -0.812  -1.409  -0.838  0.00  0.00    -0.275 OA
ATOM      3  N   UNL     1       0.350   0.398   0.049  0.00  0.00    -0.279 N 
ATOM      4  C   UNL     1      -0.793  -0.333  -0.247  0.00  0.00    +0.224 C 
ATOM      5  H   UNL     1       0.236   1.250   0.529  0.00  0.00    +0.152 HD
BRANCH   4   6
ATOM      6  C   UNL     1      -2.052   0.377   0.221  0.00  0.00    +0.085 C 
BRANCH   6   7
ATOM      7  C   UNL     1      -3.338  -0.392  -0.084  0.00  0.00    +0.010 C 
BRANCH   7   8
ATOM      8  C   UNL     1      -4.631   0.278   0.424  0.00  0.00    +0.000 C 
ATOM      9  C   UNL     1      -5.833  -0.617   0.108  0.00  0.00    +0.000 C 
ATOM     10  C   UNL     1      -4.849   1.665  -0.180  0.00  0.00    +0.000 C 
ENDBRANCH   7   8
ENDBRANCH   6   7
ENDBRANCH   4   6
ENDBRANCH   1   3
BRANCH   1  11
ATOM     11  C   UNL     1       2.776   1.061   0.140  0.00  0.00    +0.001 C 
ATOM     12  C   UNL     1       2.758   1.342   1.655  0.00  0.00    -0.017 C 
ATOM     13  C   UNL     1       4.207   0.660  -0.271  0.00  0.00    -0.017 C 
BRANCH  11  14
ATOM     14  N   UNL     1       2.465   2.335  -0.538  0.00  0.00    +0.386 N 
ATOM     15  H   UNL     1       1.522   2.632  -0.288  0.00  0.00    -0.089 HD
ATOM     16  H   UNL     1       2.525   2.206  -1.548  0.00  0.00    -0.089 HD
ATOM     17  H   UNL     1       3.134   3.047  -0.246  0.00  0.00    -0.089 HD
ENDBRANCH  11  14
ENDBRANCH   1  11
BRANCH   1  18
ATOM     18  O   UNL     1       1.796  -0.170  -1.714  0.00  0.00    -0.364 OA
ATOM     19  H   UNL     1       1.642   0.685  -2.146  0.00  0.00    +0.213 HD
ENDBRANCH   1  18
BRANCH   1  21
ATOM     20  O   UNL     1       1.467  -1.679   1.468  0.00  0.00    -0.246 OA
ATOM     21  C   UNL     1       1.959  -1.352   0.395  0.00  0.00    +0.354 C 
BRANCH  21  22
ATOM     22  O   UNL     1       2.814  -2.155  -0.289  0.00  0.00    -0.477 OA
ATOM     23  H   UNL     1       3.171  -1.871  -1.107  0.00  0.00    +0.295 HD
ENDBRANCH  21  22
ENDBRANCH   1  21
TORSDOF 9
