REMARK  Name = 129710400
REMARK  10 active torsions:
REMARK  status: ('A' for Active; 'I' for Inactive)
REMARK    1  A    between atoms: C_1  and  C_14
REMARK    2  A    between atoms: C_1  and  C_24
REMARK    3  A    between atoms: C_2  and  C_3
REMARK    4  A    between atoms: C_6  and  O_9
REMARK    5  A    between atoms: C_8  and  O_11
REMARK    6  A    between atoms: C_14  and  C_15
REMARK    7  A    between atoms: C_15  and  N_16
REMARK    8  A    between atoms: C_15  and  C_20
REMARK    9  A    between atoms: C_20  and  S_21
REMARK   10  A    between atoms: C_24  and  O_25
REMARK                            x       y       z     vdW  Elec       q    Type
REMARK                         _______ _______ _______ _____ _____    ______ ____
ROOT
ATOM      1  C   UNL     1      -1.331  -1.015   0.059  0.00  0.00    +0.108 C 
ATOM      2  C   UNL     1      -0.124  -1.600   0.182  0.00  0.00    +0.009 C 
ENDROOT
BRANCH   2   3
ATOM      3  C   UNL     1       1.180  -0.967  -0.048  0.00  0.00    +0.004 C 
ATOM      4  C   UNL     1       1.841  -0.331   1.003  0.00  0.00    +0.040 C 
ATOM      5  C   UNL     1       1.757  -1.001  -1.317  0.00  0.00    +0.003 C 
ATOM      6  C   UNL     1       3.080   0.271   0.784  0.00  0.00    +0.167 C 
ATOM      7  C   UNL     1       2.996  -0.398  -1.536  0.00  0.00    +0.040 C 
ATOM      8  C   UNL     1       3.658   0.237  -0.485  0.00  0.00    +0.167 C 
BRANCH   6   9
ATOM      9  O   UNL     1       3.717   0.888   1.818  0.00  0.00    -0.503 OA
ATOM     10  H   UNL     1       3.322   0.907   2.668  0.00  0.00    +0.292 HD
ENDBRANCH   6   9
BRANCH   8  11
ATOM     11  O   UNL     1       4.867   0.822  -0.711  0.00  0.00    -0.503 OA
ATOM     12  H   UNL     1       5.319   1.251  -0.011  0.00  0.00    +0.292 HD
ENDBRANCH   8  11
ENDBRANCH   2   3
BRANCH   1  14
ATOM     13  O   UNL     1      -1.034   0.817  -1.439  0.00  0.00    -0.293 OA
ATOM     14  C   UNL     1      -1.458   0.427  -0.351  0.00  0.00    +0.160 C 
BRANCH  14  15
ATOM     15  C   UNL     1      -2.151   1.379   0.624  0.00  0.00    +0.009 C 
BRANCH  15  16
ATOM     16  N   UNL     1      -1.099   1.877   1.514  0.00  0.00    +0.387 N 
ATOM     17  H   UNL     1      -0.664   1.092   1.998  0.00  0.00    -0.089 HD
ATOM     18  H   UNL     1      -1.507   2.515   2.198  0.00  0.00    -0.089 HD
ATOM     19  H   UNL     1      -0.395   2.370   0.966  0.00  0.00    -0.089 HD
ENDBRANCH  15  16
BRANCH  15  20
ATOM     20  C   UNL     1      -2.794   2.568  -0.096  0.00  0.00    +0.039 C 
BRANCH  20  21
ATOM     21  S   UNL     1      -4.388   2.119  -0.849  0.00  0.00    -0.170 S 
ATOM     22  H   UNL     1      -4.917   3.206  -1.474  0.00  0.00    +0.102 HD
ENDBRANCH  20  21
ENDBRANCH  15  20
ENDBRANCH  14  15
ENDBRANCH   1  14
BRANCH   1  24
ATOM     23  O   UNL     1      -2.583  -2.803   1.042  0.00  0.00    -0.245 OA
ATOM     24  C   UNL     1      -2.545  -1.845   0.283  0.00  0.00    +0.341 C 
BRANCH  24  25
ATOM     25  O   UNL     1      -3.589  -1.444  -0.478  0.00  0.00    -0.477 OA
ATOM     26  H   UNL     1      -3.500  -0.701  -1.042  0.00  0.00    +0.295 HD
ENDBRANCH  24  25
ENDBRANCH   1  24
TORSDOF 10
