REMARK  Name = 129702
REMARK  6 active torsions:
REMARK  status: ('A' for Active; 'I' for Inactive)
REMARK    1  A    between atoms: N_2  and  C_5
REMARK    2  A    between atoms: N_2  and  C_23
REMARK    3  A    between atoms: C_6  and  C_14
REMARK    4  A    between atoms: C_23  and  C_24
REMARK    5  A    between atoms: C_25  and  O_33
REMARK    6  A    between atoms: C_27  and  N_32
REMARK                            x       y       z     vdW  Elec       q    Type
REMARK                         _______ _______ _______ _____ _____    ______ ____
ROOT
ATOM      1  O   UNL     1       1.060  -0.648   0.636  0.00  0.00    -0.267 OA
ATOM      2  N   UNL     1       1.575   0.977  -0.963  0.00  0.00    -0.250 N 
ATOM      3  N   UNL     1       0.331   2.454  -2.260  0.00  0.00    -0.371 N 
ATOM      4  C   UNL     1       0.306   1.455  -1.315  0.00  0.00    +0.189 C 
ATOM      5  C   UNL     1       1.878  -0.022  -0.031  0.00  0.00    +0.285 C 
ATOM      6  H   UNL     1       2.340   1.391  -1.423  0.00  0.00    +0.158 HD
ATOM      7  H   UNL     1      -0.511   2.856  -2.574  0.00  0.00    +0.159 HD
ATOM      8  H   UNL     1       1.191   2.767  -2.623  0.00  0.00    +0.159 HD
ENDROOT
BRANCH   5  13
ATOM      9 CL   UNL     1       6.329  -0.017  -2.167  0.00  0.00    -0.044 Cl
ATOM     10  N   UNL     1       4.071  -0.070  -0.920  0.00  0.00    -0.378 NA
ATOM     11  N   UNL     1       5.134  -0.976   1.512  0.00  0.00    -0.367 NA
ATOM     12  N   UNL     1       7.298  -0.994   0.543  0.00  0.00    -0.330 N 
ATOM     13  C   UNL     1       3.325  -0.295   0.164  0.00  0.00    +0.229 C 
ATOM     14  C   UNL     1       3.817  -0.734   1.355  0.00  0.00    +0.213 C 
ATOM     15  C   UNL     1       5.910  -0.757   0.432  0.00  0.00    +0.220 C 
ATOM     16  C   UNL     1       5.388  -0.312  -0.763  0.00  0.00    +0.232 C 
ATOM     17  H   UNL     1       7.677  -1.312   1.394  0.00  0.00    +0.145 HD
ATOM     18  H   UNL     1       7.887  -0.841  -0.231  0.00  0.00    +0.145 HD
ATOM     19  N   UNL     1       2.952  -0.945   2.452  0.00  0.00    -0.331 N 
ATOM     20  H   UNL     1       3.314  -1.262   3.310  0.00  0.00    +0.145 HD
ATOM     21  H   UNL     1       1.987  -0.773   2.358  0.00  0.00    +0.145 HD
ENDBRANCH   5  13
BRANCH   4  22
ATOM     22  N   UNL     1      -0.732   0.935  -0.745  0.00  0.00    -0.237 NA
BRANCH  22  23
ATOM     23  C   UNL     1      -2.037   1.452  -1.133  0.00  0.00    +0.158 C 
BRANCH  23  24
ATOM     24  C   UNL     1      -3.149   0.803  -0.357  0.00  0.00    +0.038 C 
ATOM     25  C   UNL     1      -3.581   1.351   0.845  0.00  0.00    +0.137 C 
ATOM     26  C   UNL     1      -3.736  -0.351  -0.863  0.00  0.00    +0.025 C 
ATOM     27  C   UNL     1      -4.770  -0.966  -0.156  0.00  0.00    +0.143 C 
ATOM     28  C   UNL     1      -4.614   0.736   1.552  0.00  0.00    +0.038 C 
ATOM     29  C   UNL     1      -5.208  -0.423   1.052  0.00  0.00    +0.027 C 
BRANCH  27  32
ATOM     30  O   UNL     1      -6.303  -2.683  -0.012  0.00  0.00    -0.126 OA
ATOM     31  O   UNL     1      -4.966  -2.618  -1.752  0.00  0.00    -0.126 OA
ATOM     32  N   UNL     1      -5.375  -2.146  -0.665  0.00  0.00    +0.058 N 
ENDBRANCH  27  32
BRANCH  25  33
ATOM     33  O   UNL     1      -3.011   2.482   1.348  0.00  0.00    -0.472 OA
ATOM     34  C   UNL     1      -1.891   2.313   2.214  0.00  0.00    +0.252 C 
ENDBRANCH  25  33
ENDBRANCH  23  24
ENDBRANCH  22  23
ENDBRANCH   4  22
TORSDOF 6
