REMARK  Name = 129760726
REMARK  4 active torsions:
REMARK  status: ('A' for Active; 'I' for Inactive)
REMARK    1  A    between atoms: C_6  and  C_22
REMARK    2  A    between atoms: C_18  and  O_20
REMARK    3  A    between atoms: C_22  and  C_23
REMARK    4  A    between atoms: C_23  and  N_24
REMARK                            x       y       z     vdW  Elec       q    Type
REMARK                         _______ _______ _______ _____ _____    ______ ____
ROOT
ATOM      1  O   UNL     1      -1.423  -1.206   0.960  0.00  0.00    -0.405 OA
ATOM      2  O   UNL     1      -1.266   1.593   0.689  0.00  0.00    -0.331 OA
ATOM      3  O   UNL     1      -1.824  -1.405  -1.315  0.00  0.00    -0.250 OA
ATOM      4  O   UNL     1      -1.525   1.610  -1.614  0.00  0.00    -0.248 OA
ATOM      5  N   UNL     1      -0.172   0.733   0.531  0.00  0.00    -0.136 N 
ATOM      6  C   UNL     1       1.016  -1.134   0.553  0.00  0.00    +0.032 A 
ATOM      7  C   UNL     1       1.897  -0.039   0.309  0.00  0.00    +0.023 A 
ATOM      8  C   UNL     1       1.125   1.128   0.313  0.00  0.00    +0.102 A 
ATOM      9  C   UNL     1      -0.260  -0.629   0.679  0.00  0.00    +0.243 A 
ATOM     10  C   UNL     1      -4.203  -0.106   0.744  0.00  0.00    +0.012 C 
ATOM     11  C   UNL     1      -4.323   0.965  -0.356  0.00  0.00    +0.012 C 
ATOM     12  C   UNL     1      -3.651  -1.448   0.252  0.00  0.00    +0.110 C 
ATOM     13  C   UNL     1      -3.380   2.157  -0.173  0.00  0.00    +0.112 C 
ATOM     14  C   UNL     1       3.286   0.069   0.100  0.00  0.00    +0.038 C 
ATOM     15  C   UNL     1       1.680   2.399   0.120  0.00  0.00    +0.024 C 
ATOM     16  C   UNL     1      -2.199  -1.363  -0.149  0.00  0.00    +0.323 C 
ATOM     17  C   UNL     1      -1.953   1.783  -0.479  0.00  0.00    +0.343 C 
ATOM     18  C   UNL     1       3.853   1.333  -0.098  0.00  0.00    +0.134 C 
ATOM     19  C   UNL     1       3.060   2.479  -0.087  0.00  0.00    +0.038 C 
ENDROOT
BRANCH  18  20
ATOM     20  O   UNL     1       5.196   1.443  -0.304  0.00  0.00    -0.506 OA
ATOM     21  H   UNL     1       5.732   0.675  -0.312  0.00  0.00    +0.292 HD
ENDBRANCH  18  20
BRANCH   6  22
ATOM     22  C   UNL     1       1.399  -2.555   0.655  0.00  0.00    +0.007 C 
BRANCH  22  23
ATOM     23  C   UNL     1       1.660  -3.197  -0.721  0.00  0.00    -0.081 C 
BRANCH  23  24
ATOM     24  N   UNL     1       2.009  -4.609  -0.608  0.00  0.00    +0.381 N 
ATOM     25  H   UNL     1       2.173  -4.994  -1.538  0.00  0.00    -0.089 HD
ATOM     26  H   UNL     1       1.244  -5.114  -0.161  0.00  0.00    -0.089 HD
ATOM     27  H   UNL     1       2.855  -4.706  -0.046  0.00  0.00    -0.089 HD
ENDBRANCH  23  24
ENDBRANCH  22  23
ENDBRANCH   6  22
TORSDOF 4
