REMARK  Name = 129765
REMARK  10 active torsions:
REMARK  status: ('A' for Active; 'I' for Inactive)
REMARK    1  A    between atoms: C_1  and  C_23
REMARK    2  A    between atoms: C_2  and  N_8
REMARK    3  A    between atoms: C_16  and  N_18
REMARK    4  A    between atoms: N_22  and  CA_25
REMARK    5  A    between atoms: CA_25  and  C_27
REMARK    6  A    between atoms: CA_25  and  CB_30
REMARK    7  A    between atoms: C_27  and  O_28
REMARK    8  A    between atoms: CB_30  and  CG_31
REMARK    9  A    between atoms: CG_31  and  CD_33
REMARK   10  A    between atoms: CD_33  and  OE1_34
REMARK                            x       y       z     vdW  Elec       q    Type
REMARK                         _______ _______ _______ _____ _____    ______ ____
ROOT
ATOM      1  C   UNL     1       1.284   0.862   0.616  0.00  0.00    +0.053 C 
ATOM      2  C   UNL     1      -1.345   0.254   0.047  0.00  0.00    +0.087 C 
ATOM      3  C   UNL     1       0.426   0.575   1.657  0.00  0.00    +0.006 C 
ATOM      4  C   UNL     1       0.872   0.856  -0.701  0.00  0.00    +0.006 C 
ATOM      5  C   UNL     1      -0.903   0.268   1.369  0.00  0.00    +0.018 C 
ATOM      6  C   UNL     1      -0.458   0.548  -0.988  0.00  0.00    +0.018 C 
ENDROOT
BRANCH   2   8
ATOM      7  O   UNL     1      -2.417  -1.122  -2.295  0.00  0.00    -0.191 OA
ATOM      8  N   UNL     1      -2.720  -0.062  -0.250  0.00  0.00    -0.105 N 
ATOM      9  N   UNL     1      -3.585   0.277   0.752  0.00  0.00    -0.160 NA
ATOM     10  N   UNL     1      -4.533  -0.829  -1.618  0.00  0.00    -0.318 NA
ATOM     11  C   UNL     1      -4.848   0.086   0.579  0.00  0.00    +0.130 C 
ATOM     12  C   UNL     1      -5.360  -0.482  -0.694  0.00  0.00    +0.166 C 
ATOM     13  C   UNL     1      -3.175  -0.683  -1.431  0.00  0.00    +0.292 C 
ATOM     14  C   UNL     1      -6.822  -0.632  -0.856  0.00  0.00    +0.049 C 
ATOM     15  C   UNL     1      -5.832   0.428   1.625  0.00  0.00    +0.025 C 
ATOM     16  C   UNL     1      -7.660  -0.286   0.136  0.00  0.00    +0.044 C 
ATOM     17  C   UNL     1      -7.134   0.242   1.384  0.00  0.00    +0.016 C 
BRANCH  16  18
ATOM     18  N   UNL     1      -9.019  -0.410   0.029  0.00  0.00    -0.357 N 
ATOM     19  H   UNL     1      -9.417  -0.763  -0.799  0.00  0.00    +0.142 HD
ATOM     20  H   UNL     1      -9.598  -0.147   0.781  0.00  0.00    +0.142 HD
ENDBRANCH  16  18
ENDBRANCH   2   8
BRANCH   1  23
ATOM     21  O   UNL     1       2.982   1.664   2.020  0.00  0.00    -0.270 OA
ATOM     22  N   UNL     1       3.621   0.907  -0.076  0.00  0.00    -0.293 N 
ATOM     23  C   ACE A   0       2.700   1.191   0.923  0.00  0.00    +0.246 C 
ATOM     24  H   UNL     1       3.297   0.528  -0.925  0.00  0.00    +0.150 HD
BRANCH  22  25
ATOM     25  CA  UNL     1       5.033   1.146   0.080  0.00  0.00    +0.172 C 
BRANCH  25  27
ATOM     26  OXT UNL     1       4.948   1.567  -2.317  0.00  0.00    -0.248 OA
ATOM     27  C   UNL     1       5.578   1.573  -1.267  0.00  0.00    +0.332 C 
BRANCH  27  28
ATOM     28  O   UNL     1       6.861   2.013  -1.180  0.00  0.00    -0.479 OA
ATOM     29  H   UNL     1       7.305   2.000  -0.355  0.00  0.00    +0.295 HD
ENDBRANCH  27  28
ENDBRANCH  25  27
BRANCH  25  30
ATOM     30  CB  UNL     1       5.772  -0.049   0.695  0.00  0.00    +0.043 C 
BRANCH  30  31
ATOM     31  CG  UNL     1       5.745  -1.345  -0.125  0.00  0.00    +0.112 C 
BRANCH  31  33
ATOM     32  OE2 UNL     1       7.043  -2.454   1.613  0.00  0.00    -0.250 OA
ATOM     33  CD  UNL     1       6.476  -2.497   0.530  0.00  0.00    +0.314 C 
BRANCH  33  34
ATOM     34  OE1 UNL     1       6.470  -3.605  -0.256  0.00  0.00    -0.480 OA
ATOM     35  HE1 UNL     1       6.023  -3.593  -1.079  0.00  0.00    +0.295 HD
ENDBRANCH  33  34
ENDBRANCH  31  33
ENDBRANCH  30  31
ENDBRANCH  25  30
ENDBRANCH  22  25
ENDBRANCH   1  23
TORSDOF 10
