REMARK  Name = 129704
REMARK  4 active torsions:
REMARK  status: ('A' for Active; 'I' for Inactive)
REMARK    1  A    between atoms: C_2  and  C_15
REMARK    2  A    between atoms: C_9  and  O_20
REMARK    3  A    between atoms: C_13  and  C_17
REMARK    4  A    between atoms: C_17  and  O_18
REMARK                            x       y       z     vdW  Elec       q    Type
REMARK                         _______ _______ _______ _____ _____    ______ ____
ROOT
ATOM      1  N   UNK     1      -0.774  -0.898  -0.052  0.00  0.00    -0.404 NA
ATOM      2  C   UNK     1       0.142   0.088  -0.186  0.00  0.00    +0.154 C 
ATOM      3  C   UNK     1      -2.494   0.790  -0.070  0.00  0.00    +0.029 C 
ATOM      4  C   UNK     1      -2.074  -0.555   0.006  0.00  0.00    +0.114 C 
ATOM      5  C   UNK     1      -0.171   1.430  -0.270  0.00  0.00    +0.034 C 
ATOM      6  C   UNK     1      -1.512   1.780  -0.210  0.00  0.00    +0.005 C 
ATOM      7  C   UNK     1      -3.860   1.111  -0.007  0.00  0.00    +0.039 C 
ATOM      8  C   UNK     1      -3.050  -1.539   0.145  0.00  0.00    +0.088 C 
ATOM      9  C   UNK     1      -4.814   0.107   0.132  0.00  0.00    +0.130 C 
ATOM     10  C   UNK     1      -4.408  -1.219   0.208  0.00  0.00    +0.018 C 
ENDROOT
BRANCH   2  15
ATOM     11  S   UNK     1       1.978  -2.048  -0.097  0.00  0.00    -0.090 S 
ATOM     12  N   UNK     1       2.545   0.474  -0.368  0.00  0.00    -0.251 NA
ATOM     13  C   UNK     1       3.817  -0.265  -0.458  0.00  0.00    +0.213 C 
ATOM     14  C   UNK     1       3.689  -1.605   0.245  0.00  0.00    +0.099 C 
ATOM     15  C   UNK     1       1.556  -0.353  -0.242  0.00  0.00    +0.131 C 
BRANCH  13  17
ATOM     16  O   UNK     1       4.636   1.668   0.732  0.00  0.00    -0.248 OA
ATOM     17  C   UNK     1       4.853   0.593   0.193  0.00  0.00    +0.337 C 
BRANCH  17  18
ATOM     18  O   UNK     1       6.077   0.017   0.105  0.00  0.00    -0.479 OA
ATOM     19  H   UNK     1       6.175  -0.812  -0.322  0.00  0.00    +0.295 HD
ENDBRANCH  17  18
ENDBRANCH  13  17
ENDBRANCH   2  15
BRANCH   9  20
ATOM     20  O   UNK     1      -6.136   0.423   0.194  0.00  0.00    -0.506 OA
ATOM     21  H   UNK     1      -6.406   1.319   0.142  0.00  0.00    +0.292 HD
ENDBRANCH   9  20
TORSDOF 4
