REMARK  Name = 129734732
REMARK  6 active torsions:
REMARK  status: ('A' for Active; 'I' for Inactive)
REMARK    1  A    between atoms: C_6  and  O_21
REMARK    2  A    between atoms: C_6  and  C_28
REMARK    3  A    between atoms: C_9  and  O_23
REMARK    4  A    between atoms: C_10  and  O_25
REMARK    5  A    between atoms: C_28  and  C_29
REMARK    6  A    between atoms: C_29  and  O_30
REMARK                            x       y       z     vdW  Elec       q    Type
REMARK                         _______ _______ _______ _____ _____    ______ ____
ROOT
ATOM      1  O   UNL     1       5.794  -1.222  -1.813  0.00  0.00    -0.287 OA
ATOM      2  C   UNL     1      -1.848   0.198   0.862  0.00  0.00    +0.034 C 
ATOM      3  C   UNL     1      -1.059   0.953  -0.228  0.00  0.00    +0.005 C 
ATOM      4  C   UNL     1       0.404   1.222   0.155  0.00  0.00    +0.003 C 
ATOM      5  C   UNL     1       1.124  -0.152   0.398  0.00  0.00    +0.034 C 
ATOM      6  C   UNL     1      -3.258   0.174   0.204  0.00  0.00    +0.166 C 
ATOM      7  C   UNL     1      -1.166  -1.169   1.081  0.00  0.00    +0.032 C 
ATOM      8  C   UNL     1      -1.960   2.138  -0.586  0.00  0.00    +0.032 C 
ATOM      9  C   UNL     1       0.341  -1.054   1.405  0.00  0.00    +0.111 C 
ATOM     10  C   UNL     1      -3.395   1.605  -0.381  0.00  0.00    +0.142 C 
ATOM     11  C   UNL     1       2.668   0.026   0.685  0.00  0.00    +0.036 C 
ATOM     12  C   UNL     1       1.108   2.032  -0.950  0.00  0.00    +0.004 C 
ATOM     13  C   UNL     1      -1.936   0.960   2.215  0.00  0.00    +0.003 C 
ATOM     14  C   UNL     1       2.595   2.213  -0.677  0.00  0.00    +0.022 C 
ATOM     15  C   UNL     1       3.250   0.875  -0.451  0.00  0.00    -0.038 C 
ATOM     16  C   UNL     1       2.982   0.735   2.022  0.00  0.00    +0.009 C 
ATOM     17  C   UNL     1       3.345  -1.335   0.757  0.00  0.00    -0.020 C 
ATOM     18  C   UNL     1       4.250   0.469  -1.249  0.00  0.00    +0.034 C 
ATOM     19  C   UNL     1       4.340  -1.746  -0.036  0.00  0.00    +0.038 C 
ATOM     20  C   UNL     1       4.871  -0.862  -1.089  0.00  0.00    +0.195 C 
ENDROOT
BRANCH   6  21
ATOM     21  O   UNL     1      -4.284  -0.092   1.147  0.00  0.00    -0.377 OA
ATOM     22  H   UNL     1      -4.251   0.569   1.857  0.00  0.00    +0.211 HD
ENDBRANCH   6  21
BRANCH   9  23
ATOM     23  O   UNL     1       0.509  -0.604   2.742  0.00  0.00    -0.384 OA
ATOM     24  H   UNL     1       1.455  -0.533   2.942  0.00  0.00    +0.210 HD
ENDBRANCH   9  23
BRANCH  10  25
ATOM     25  O   UNL     1      -4.116   1.636  -1.603  0.00  0.00    -0.382 OA
ATOM     26  H   UNL     1      -5.014   1.299  -1.458  0.00  0.00    +0.210 HD
ENDBRANCH  10  25
BRANCH   6  28
ATOM     27  O   UNL     1      -3.090  -0.719  -2.007  0.00  0.00    -0.291 OA
ATOM     28  C   UNL     1      -3.414  -0.907  -0.835  0.00  0.00    +0.206 C 
BRANCH  28  29
ATOM     29  C   UNL     1      -3.986  -2.223  -0.353  0.00  0.00    +0.204 C 
BRANCH  29  30
ATOM     30  O   UNL     1      -4.068  -3.150  -1.415  0.00  0.00    -0.375 OA
ATOM     31  H   UNL     1      -4.437  -3.985  -1.087  0.00  0.00    +0.211 HD
ENDBRANCH  29  30
ENDBRANCH  28  29
ENDBRANCH   6  28
TORSDOF 6
