REMARK  Name = 129795
REMARK  11 active torsions:
REMARK  status: ('A' for Active; 'I' for Inactive)
REMARK    1  A    between atoms: N_2  and  CA_5
REMARK    2  A    between atoms: C_3  and  C_16
REMARK    3  A    between atoms: CA_5  and  C_7
REMARK    4  A    between atoms: CA_5  and  CB_10
REMARK    5  A    between atoms: C_7  and  O_8
REMARK    6  A    between atoms: CB_10  and  CG_11
REMARK    7  A    between atoms: CG_11  and  CD_13
REMARK    8  A    between atoms: CD_13  and  OE1_14
REMARK    9  A    between atoms: C_16  and  C_17
REMARK   10  A    between atoms: C_17  and  C_18
REMARK   11  A    between atoms: C_18  and  N_19
REMARK                            x       y       z     vdW  Elec       q    Type
REMARK                         _______ _______ _______ _____ _____    ______ ____
ROOT
ATOM      1  O   UNL     1      -1.587   0.328   1.708  0.00  0.00    -0.275 OA
ATOM      2  N   UNL     1      -0.306   0.770  -0.177  0.00  0.00    -0.297 N 
ATOM      3  C   ACE A   0      -1.464   0.396   0.488  0.00  0.00    +0.223 C 
ATOM      4  H   UNL     1      -0.314   0.791  -1.162  0.00  0.00    +0.150 HD
ENDROOT
BRANCH   2   5
ATOM      5  CA  UNL     1       0.912   1.131   0.511  0.00  0.00    +0.172 C 
BRANCH   5   7
ATOM      6  OXT UNL     1       1.225   2.615  -1.394  0.00  0.00    -0.248 OA
ATOM      7  C   UNL     1       1.585   2.225  -0.291  0.00  0.00    +0.332 C 
BRANCH   7   8
ATOM      8  O   UNL     1       2.636   2.770   0.376  0.00  0.00    -0.479 OA
ATOM      9  H   UNL     1       2.877   2.440   1.219  0.00  0.00    +0.295 HD
ENDBRANCH   7   8
ENDBRANCH   5   7
BRANCH   5  10
ATOM     10  CB  UNL     1       1.815  -0.077   0.789  0.00  0.00    +0.043 C 
BRANCH  10  11
ATOM     11  CG  UNL     1       2.341  -0.817  -0.448  0.00  0.00    +0.112 C 
BRANCH  11  13
ATOM     12  OE2 UNL     1       3.500  -2.392   1.006  0.00  0.00    -0.250 OA
ATOM     13  CD  UNL     1       3.216  -2.008  -0.120  0.00  0.00    +0.314 C 
BRANCH  13  14
ATOM     14  OE1 UNL     1       3.700  -2.598  -1.244  0.00  0.00    -0.480 OA
ATOM     15  HE1 UNL     1       3.455  -2.270  -2.088  0.00  0.00    +0.295 HD
ENDBRANCH  13  14
ENDBRANCH  11  13
ENDBRANCH  10  11
ENDBRANCH   5  10
ENDBRANCH   2   5
BRANCH   3  16
ATOM     16  C   UNL     1      -2.578   0.043  -0.483  0.00  0.00    +0.083 C 
BRANCH  16  17
ATOM     17  C   UNL     1      -3.880  -0.377   0.199  0.00  0.00    -0.014 C 
BRANCH  17  18
ATOM     18  C   UNL     1      -4.952  -0.798  -0.809  0.00  0.00    -0.086 C 
BRANCH  18  19
ATOM     19  N   UNL     1      -6.165  -1.210  -0.112  0.00  0.00    +0.380 N 
ATOM     20  H   UNL     1      -6.871  -1.488  -0.793  0.00  0.00    -0.089 HD
ATOM     21  H   UNL     1      -6.518  -0.432   0.445  0.00  0.00    -0.089 HD
ATOM     22  H   UNL     1      -5.954  -1.998   0.501  0.00  0.00    -0.089 HD
ENDBRANCH  18  19
ENDBRANCH  17  18
ENDBRANCH  16  17
ENDBRANCH   3  16
TORSDOF 11
