REMARK  Name = 129799
REMARK  11 active torsions:
REMARK  status: ('A' for Active; 'I' for Inactive)
REMARK    1  A    between atoms: C_2  and  N_8
REMARK    2  A    between atoms: C_3  and  O_12
REMARK    3  A    between atoms: C_4  and  O_14
REMARK    4  A    between atoms: C_5  and  C_28
REMARK    5  A    between atoms: C_6  and  O_16
REMARK    6  A    between atoms: O_16  and  C_17
REMARK    7  A    between atoms: C_17  and  C_18
REMARK    8  A    between atoms: C_18  and  C_19
REMARK    9  A    between atoms: C_19  and  N_21
REMARK   10  A    between atoms: C_22  and  C_27
REMARK   11  A    between atoms: C_28  and  O_29
REMARK                            x       y       z     vdW  Elec       q    Type
REMARK                         _______ _______ _______ _____ _____    ______ ____
ROOT
ATOM      1  O   UNL     1       2.541   1.310  -0.272  0.00  0.00    -0.327 OA
ATOM      2  C   UNL     1       2.073  -1.074   0.006  0.00  0.00    +0.158 C 
ATOM      3  C   UNL     1       3.297  -1.185   0.923  0.00  0.00    +0.162 C 
ATOM      4  C   UNL     1       4.311  -0.077   0.632  0.00  0.00    +0.169 C 
ATOM      5  C   UNL     1       3.616   1.287   0.674  0.00  0.00    +0.176 C 
ATOM      6  C   UNL     1       1.518   0.358   0.018  0.00  0.00    +0.256 C 
ENDROOT
BRANCH   2   8
ATOM      7  O   UNL     1       0.147  -2.439  -1.684  0.00  0.00    -0.275 OA
ATOM      8  N   UNL     1       1.051  -2.014   0.418  0.00  0.00    -0.299 N 
ATOM      9  C   UNL     1       0.176  -2.615  -0.469  0.00  0.00    +0.223 C 
ATOM     10  C   UNL     1      -0.766  -3.566   0.219  0.00  0.00    +0.095 C 
ATOM     11  H   UNL     1       0.976  -2.235   1.375  0.00  0.00    +0.150 HD
ENDBRANCH   2   8
BRANCH   3  12
ATOM     12  O   UNL     1       3.912  -2.458   0.744  0.00  0.00    -0.380 OA
ATOM     13  H   UNL     1       3.266  -3.158   0.930  0.00  0.00    +0.211 HD
ENDBRANCH   3  12
BRANCH   4  14
ATOM     14  O   UNL     1       4.874  -0.272  -0.667  0.00  0.00    -0.379 OA
ATOM     15  H   UNL     1       5.316  -1.135  -0.701  0.00  0.00    +0.211 HD
ENDBRANCH   4  14
BRANCH   6  16
ATOM     16  O   UNL     1       0.496   0.446  -0.975  0.00  0.00    -0.329 OA
BRANCH  16  17
ATOM     17  C   UNL     1      -0.363   1.549  -0.735  0.00  0.00    +0.147 C 
BRANCH  17  18
ATOM     18  C   UNL     1      -1.444   1.572  -1.809  0.00  0.00    +0.053 C 
BRANCH  18  19
ATOM     19  C   UNL     1      -2.301   0.314  -1.812  0.00  0.00    +0.092 C 
BRANCH  19  21
ATOM     20  O   UNL     1      -4.943   1.290  -1.095  0.00  0.00    -0.266 OA
ATOM     21  N   UNL     1      -2.999   0.120  -0.570  0.00  0.00    -0.297 N 
ATOM     22  C   UNL     1      -4.266   0.627  -0.315  0.00  0.00    +0.318 C 
ATOM     23  H   UNL     1      -2.554  -0.400   0.138  0.00  0.00    +0.150 HD
BRANCH  22  27
ATOM     24  F   UNL     1      -3.841  -0.457   1.748  0.00  0.00    -0.162 F 
ATOM     25  F   UNL     1      -5.899  -0.447   1.027  0.00  0.00    -0.162 F 
ATOM     26  F   UNL     1      -5.008   1.382   1.806  0.00  0.00    -0.162 F 
ATOM     27  C   UNL     1      -4.752   0.278   1.061  0.00  0.00    +0.469 C 
ENDBRANCH  22  27
ENDBRANCH  19  21
ENDBRANCH  18  19
ENDBRANCH  17  18
ENDBRANCH  16  17
ENDBRANCH   6  16
BRANCH   5  28
ATOM     28  C   UNL     1       4.560   2.430   0.318  0.00  0.00    +0.169 C 
BRANCH  28  29
ATOM     29  O   UNL     1       4.008   3.640   0.805  0.00  0.00    -0.379 OA
ATOM     30  H   UNL     1       4.600   4.377   0.585  0.00  0.00    +0.211 HD
ENDBRANCH  28  29
ENDBRANCH   5  28
TORSDOF 11
