REMARK  Name = 129710133
REMARK  9 active torsions:
REMARK  status: ('A' for Active; 'I' for Inactive)
REMARK    1  A    between atoms: C_1  and  C_5
REMARK    2  A    between atoms: C_1  and  N_12
REMARK    3  A    between atoms: C_1  and  C_16
REMARK    4  A    between atoms: C_6  and  C_9
REMARK    5  A    between atoms: C_9  and  O_10
REMARK    6  A    between atoms: C_16  and  C_17
REMARK    7  A    between atoms: C_17  and  C_18
REMARK    8  A    between atoms: C_18  and  C_19
REMARK    9  A    between atoms: C_19  and  N_20
REMARK                            x       y       z     vdW  Elec       q    Type
REMARK                         _______ _______ _______ _____ _____    ______ ____
ROOT
ATOM      1  C   UNL     1      -0.478  -1.572  -0.308  0.00  0.00    +0.013 C 
ENDROOT
BRANCH   1   5
ATOM      2  O   UNL     1       0.072  -0.152   1.576  0.00  0.00    -0.277 OA
ATOM      3  O   UNL     1       2.620   1.114   1.386  0.00  0.00    -0.263 OA
ATOM      4  N   UNL     1       1.600  -0.325  -0.174  0.00  0.00    -0.248 N 
ATOM      5  C   UNL     1       0.398  -0.602   0.479  0.00  0.00    +0.208 C 
ATOM      6  C   UNL     1       2.590   0.498   0.333  0.00  0.00    +0.327 C 
ATOM      7  H   UNL     1       1.753  -0.743  -1.053  0.00  0.00    +0.158 HD
BRANCH   6   9
ATOM      8  O   UNL     1       3.798   0.085  -1.673  0.00  0.00    -0.240 OA
ATOM      9  C   UNL     1       3.757   0.642  -0.595  0.00  0.00    +0.393 C 
BRANCH   9  10
ATOM     10  O   UNL     1       4.662   1.470  -0.057  0.00  0.00    -0.474 OA
ATOM     11  H   UNL     1       4.514   1.839   0.792  0.00  0.00    +0.296 HD
ENDBRANCH   9  10
ENDBRANCH   6   9
ENDBRANCH   1   5
BRANCH   1  12
ATOM     12  N   UNL     1      -0.025  -2.910   0.074  0.00  0.00    +0.387 N 
ATOM     13  H   UNL     1      -0.577  -3.610  -0.422  0.00  0.00    -0.089 HD
ATOM     14  H   UNL     1      -0.142  -3.036   1.079  0.00  0.00    -0.089 HD
ATOM     15  H   UNL     1       0.959  -3.018  -0.170  0.00  0.00    -0.089 HD
ENDBRANCH   1  12
BRANCH   1  16
ATOM     16  C   UNL     1      -1.971  -1.407   0.013  0.00  0.00    -0.013 C 
BRANCH  16  17
ATOM     17  C   UNL     1      -2.491  -0.015  -0.367  0.00  0.00    -0.004 C 
BRANCH  17  18
ATOM     18  C   UNL     1      -3.997   0.102  -0.109  0.00  0.00    -0.024 C 
BRANCH  18  19
ATOM     19  C   UNL     1      -4.550   1.497  -0.406  0.00  0.00    -0.086 C 
BRANCH  19  20
ATOM     20  N   UNL     1      -5.986   1.576  -0.170  0.00  0.00    +0.380 N 
ATOM     21  H   UNL     1      -6.314   2.519  -0.379  0.00  0.00    -0.089 HD
ATOM     22  H   UNL     1      -6.182   1.357   0.807  0.00  0.00    -0.089 HD
ATOM     23  H   UNL     1      -6.467   0.907  -0.771  0.00  0.00    -0.089 HD
ENDBRANCH  19  20
ENDBRANCH  18  19
ENDBRANCH  17  18
ENDBRANCH  16  17
ENDBRANCH   1  16
TORSDOF 9
