129763
  -OEChem-03292013323D

 52 52  0     1  0  0  0  0  0999 V2000
   -5.3872    4.6440    1.2283 Cl  0  0  0  0  0  0  0  0  0  0  0  0
   -4.8641   -3.4978    0.1315 S   0  0  0  0  0  0  0  0  0  0  0  0
   -4.8011   -1.9954   -0.5040 O   0  0  0  0  0  0  0  0  0  0  0  0
    2.8245    2.7791   -0.3615 O   0  0  0  0  0  0  0  0  0  0  0  0
    5.9079   -1.0583   -2.0194 O   0  0  0  0  0  0  0  0  0  0  0  0
    3.8485   -0.9180   -2.9627 O   0  0  0  0  0  0  0  0  0  0  0  0
    5.7769   -2.7280    2.4845 O   0  0  0  0  0  0  0  0  0  0  0  0
   -5.5970   -3.4619    1.3807 O   0  0  0  0  0  0  0  0  0  0  0  0
   -3.5612   -4.1220    0.0229 O   0  0  0  0  0  0  0  0  0  0  0  0
    5.8548   -0.5359    3.0648 O   0  0  0  0  0  0  0  0  0  0  0  0
   -3.3696    1.3353    0.0916 N   0  0  3  0  0  0  0  0  0  0  0  0
    2.9256    0.5116   -0.8381 N   0  0  0  0  0  0  0  0  0  0  0  0
   -4.1195    0.3057   -0.6003 C   0  0  0  0  0  0  0  0  0  0  0  0
   -1.9703    1.4241   -0.0608 C   0  0  0  0  0  0  0  0  0  0  0  0
    4.3552    0.4363   -1.0029 C   0  0  1  0  0  0  0  0  0  0  0  0
   -4.0744    2.2639    0.9529 C   0  0  0  0  0  0  0  0  0  0  0  0
    5.0890    0.1535    0.3136 C   0  0  0  0  0  0  0  0  0  0  0  0
   -4.0329   -1.0034    0.1655 C   0  0  0  0  0  0  0  0  0  0  0  0
    0.7971    1.6008   -0.3644 C   0  0  0  0  0  0  0  0  0  0  0  0
   -1.2574    2.4184    0.6091 C   0  0  0  0  0  0  0  0  0  0  0  0
   -1.2997    0.5182   -0.8825 C   0  0  0  0  0  0  0  0  0  0  0  0
    4.7628   -1.1861    0.9861 C   0  0  0  0  0  0  0  0  0  0  0  0
    0.1263    2.5067    0.4572 C   0  0  0  0  0  0  0  0  0  0  0  0
    0.0841    0.6066   -1.0344 C   0  0  0  0  0  0  0  0  0  0  0  0
    2.2708    1.6952   -0.5265 C   0  0  0  0  0  0  0  0  0  0  0  0
   -4.5104    3.4998    0.1818 C   0  0  0  0  0  0  0  0  0  0  0  0
    4.6385   -0.5789   -2.0910 C   0  0  0  0  0  0  0  0  0  0  0  0
    5.5026   -1.4117    2.2870 C   0  0  0  0  0  0  0  0  0  0  0  0
   -5.9198   -4.2020   -1.1090 C   0  0  0  0  0  0  0  0  0  0  0  0
   -5.1782    0.5927   -0.6655 H   0  0  0  0  0  0  0  0  0  0  0  0
   -3.8286    0.1904   -1.6514 H   0  0  0  0  0  0  0  0  0  0  0  0
    4.7057    1.4025   -1.3873 H   0  0  0  0  0  0  0  0  0  0  0  0
   -4.9795    1.7678    1.3317 H   0  0  0  0  0  0  0  0  0  0  0  0
   -3.5245    2.5111    1.8676 H   0  0  0  0  0  0  0  0  0  0  0  0
    4.8560    0.9600    1.0221 H   0  0  0  0  0  0  0  0  0  0  0  0
    6.1737    0.2106    0.1537 H   0  0  0  0  0  0  0  0  0  0  0  0
   -4.4302   -0.8735    1.1794 H   0  0  0  0  0  0  0  0  0  0  0  0
   -3.0020   -1.3587    0.2577 H   0  0  0  0  0  0  0  0  0  0  0  0
   -1.7179    3.1647    1.2463 H   0  0  0  0  0  0  0  0  0  0  0  0
   -1.7957   -0.2704   -1.4372 H   0  0  0  0  0  0  0  0  0  0  0  0
    2.4114   -0.3623   -0.8791 H   0  0  0  0  0  0  0  0  0  0  0  0
    5.0165   -2.0057    0.3050 H   0  0  0  0  0  0  0  0  0  0  0  0
    3.6921   -1.2542    1.2075 H   0  0  0  0  0  0  0  0  0  0  0  0
    0.6649    3.2880    0.9873 H   0  0  0  0  0  0  0  0  0  0  0  0
    0.5634   -0.0975   -1.7080 H   0  0  0  0  0  0  0  0  0  0  0  0
   -5.1762    3.2347   -0.6458 H   0  0  0  0  0  0  0  0  0  0  0  0
   -3.6538    4.0354   -0.2382 H   0  0  0  0  0  0  0  0  0  0  0  0
   -5.4239   -4.1289   -2.0787 H   0  0  0  0  0  0  0  0  0  0  0  0
   -6.0901   -5.2502   -0.8548 H   0  0  0  0  0  0  0  0  0  0  0  0
   -6.8679   -3.6608   -1.1157 H   0  0  0  0  0  0  0  0  0  0  0  0
    6.0955   -1.7038   -2.7337 H   0  0  0  0  0  0  0  0  0  0  0  0
    6.2723   -2.8768    3.3180 H   0  0  0  0  0  0  0  0  0  0  0  0
  1 26  1  0  0  0  0
  2  3  1  0  0  0  0
  2  8  2  0  0  0  0
  2  9  2  0  0  0  0
  2 29  1  0  0  0  0
  3 18  1  0  0  0  0
  4 25  2  0  0  0  0
  5 27  1  0  0  0  0
  5 51  1  0  0  0  0
  6 27  2  0  0  0  0
  7 28  1  0  0  0  0
  7 52  1  0  0  0  0
 10 28  2  0  0  0  0
 11 13  1  0  0  0  0
 11 14  1  0  0  0  0
 11 16  1  0  0  0  0
 12 15  1  0  0  0  0
 12 25  1  0  0  0  0
 12 41  1  0  0  0  0
 13 18  1  0  0  0  0
 13 30  1  0  0  0  0
 13 31  1  0  0  0  0
 14 20  2  0  0  0  0
 14 21  1  0  0  0  0
 15 17  1  0  0  0  0
 15 27  1  0  0  0  0
 15 32  1  0  0  0  0
 16 26  1  0  0  0  0
 16 33  1  0  0  0  0
 16 34  1  0  0  0  0
 17 22  1  0  0  0  0
 17 35  1  0  0  0  0
 17 36  1  0  0  0  0
 18 37  1  0  0  0  0
 18 38  1  0  0  0  0
 19 23  2  0  0  0  0
 19 24  1  0  0  0  0
 19 25  1  0  0  0  0
 20 23  1  0  0  0  0
 20 39  1  0  0  0  0
 21 24  2  0  0  0  0
 21 40  1  0  0  0  0
 22 28  1  0  0  0  0
 22 42  1  0  0  0  0
 22 43  1  0  0  0  0
 23 44  1  0  0  0  0
 24 45  1  0  0  0  0
 26 46  1  0  0  0  0
 26 47  1  0  0  0  0
 29 48  1  0  0  0  0
 29 49  1  0  0  0  0
 29 50  1  0  0  0  0
M  END
> <PUBCHEM_COMPOUND_CID>
129763

> <PUBCHEM_CONFORMER_RMSD>
1.2

> <PUBCHEM_CONFORMER_DIVERSEORDER>
55
35
23
37
53
21
33
20
7
50
18
39
47
28
26
25
44
17
52
12
56
46
48
49
16
43
27
9
51
45
5
54
4
19
57
32
1
30
14
24
6
22
38
13
2
8
15
42
34
10
31
29
36
41
40
3
11

> <PUBCHEM_MMFF94_PARTIAL_CHARGES>
35
1 -0.29
10 -0.57
11 -0.84
12 -0.73
13 0.37
14 0.1
15 0.36
16 0.37
18 0.28
19 0.09
2 1.38
20 -0.15
21 -0.15
22 0.06
23 -0.15
24 -0.15
25 0.54
26 0.29
27 0.66
28 0.66
29 0.11
3 -0.46
39 0.15
4 -0.57
40 0.15
41 0.37
44 0.15
45 0.15
5 -0.65
51 0.5
52 0.5
6 -0.57
7 -0.65
8 -0.65
9 -0.65

> <PUBCHEM_EFFECTIVE_ROTOR_COUNT>
14

> <PUBCHEM_PHARMACOPHORE_FEATURES>
12
1 10 acceptor
1 11 cation
1 12 donor
1 4 acceptor
1 5 acceptor
1 6 acceptor
1 7 acceptor
1 8 acceptor
1 9 acceptor
3 5 6 27 anion
3 7 10 28 anion
6 14 19 20 21 23 24 rings

> <PUBCHEM_HEAVY_ATOM_COUNT>
29

> <PUBCHEM_ATOM_DEF_STEREO_COUNT>
1

> <PUBCHEM_ATOM_UDEF_STEREO_COUNT>
0

> <PUBCHEM_BOND_DEF_STEREO_COUNT>
0

> <PUBCHEM_BOND_UDEF_STEREO_COUNT>
0

> <PUBCHEM_ISOTOPIC_ATOM_COUNT>
0

> <PUBCHEM_COMPONENT_COUNT>
1

> <PUBCHEM_CACTVS_TAUTO_COUNT>
2

> <PUBCHEM_CONFORMER_ID>
0001FAE300000037

> <PUBCHEM_MMFF94_ENERGY>
67.5348

> <PUBCHEM_FEATURE_SELFOVERLAP>
61.034

> <PUBCHEM_SHAPE_FINGERPRINT>
10622 236 18187357761705024635
11796584 16 18340775844928740908
11809386 21 18334292085342131179
12616971 3 17604152502224370320
14211702 104 18339924921380371439
14347332 77 18336262448776074883
15250474 111 18261388927501213426
15927050 60 18197790908326236343
17492 89 18270973447754526453
21033648 29 17274529920087030512
21703447 108 18196369444942805920
23559900 14 17845101666684729148
23569914 152 13626574643545156162
25222932 49 18262796384943687054
4073 2 18271817791338554212
439807 62 17968092084017010947
50009960 94 18117531068792418818
5104073 3 18272654579680158185
6058803 2 18261970629720511213
9961470 85 18053659175150580915

> <PUBCHEM_SHAPE_MULTIPOLES>
545.61
17.54
5.71
2.14
9.09
2.33
-0.56
11.71
-4.85
-15.53
-1.57
5.54
1.35
-2.99

> <PUBCHEM_SHAPE_SELFOVERLAP>
1083.667

> <PUBCHEM_SHAPE_VOLUME>
324.5

> <PUBCHEM_COORDINATE_TYPE>
2
5
10

$$$$
