REMARK  Name = 129732821
REMARK  6 active torsions:
REMARK  status: ('A' for Active; 'I' for Inactive)
REMARK    1  A    between atoms: C_9  and  C_21
REMARK    2  A    between atoms: C_10  and  C_18
REMARK    3  A    between atoms: C_12  and  C_24
REMARK    4  A    between atoms: C_18  and  O_19
REMARK    5  A    between atoms: C_21  and  O_22
REMARK    6  A    between atoms: C_24  and  O_25
REMARK                            x       y       z     vdW  Elec       q    Type
REMARK                         _______ _______ _______ _____ _____    ______ ____
ROOT
ATOM      1  O   UNL     1      -0.921   1.996  -0.147  0.00  0.00    -0.287 OA
ATOM      2  O   UNL     1      -0.039  -3.274  -0.062  0.00  0.00    -0.287 OA
ATOM      3  C   UNL     1       0.661   0.260  -0.140  0.00  0.00    +0.048 C 
ATOM      4  C   UNL     1      -1.850  -0.160  -0.091  0.00  0.00    +0.040 C 
ATOM      5  C   UNL     1       0.891  -1.117  -0.119  0.00  0.00    +0.042 C 
ATOM      6  C   UNL     1      -1.620  -1.537  -0.069  0.00  0.00    +0.042 C 
ATOM      7  C   UNL     1      -0.718   0.789  -0.128  0.00  0.00    +0.196 C 
ATOM      8  C   UNL     1      -0.241  -2.066  -0.082  0.00  0.00    +0.196 C 
ATOM      9  C   UNL     1      -3.162   0.329  -0.077  0.00  0.00    +0.010 C 
ATOM     10  C   UNL     1       1.742   1.148  -0.174  0.00  0.00    +0.078 C 
ATOM     11  C   UNL     1       2.203  -1.606  -0.131  0.00  0.00    +0.001 C 
ATOM     12  C   UNL     1       3.278  -0.717  -0.164  0.00  0.00    +0.007 C 
ATOM     13  C   UNL     1       3.048   0.657  -0.185  0.00  0.00    +0.005 C 
ATOM     14  C   UNL     1      -2.701  -2.425  -0.034  0.00  0.00    +0.003 C 
ATOM     15  C   UNL     1      -4.237  -0.559  -0.043  0.00  0.00    -0.002 C 
ATOM     16  C   UNL     1      -4.007  -1.934  -0.021  0.00  0.00    -0.000 C 
ENDROOT
BRANCH  10  18
ATOM     17  O   UNL     1       1.550   3.293  -1.217  0.00  0.00    -0.245 OA
ATOM     18  C   UNL     1       1.624   2.603  -0.199  0.00  0.00    +0.338 C 
BRANCH  18  19
ATOM     19  O   UNL     1       1.601   3.139   1.050  0.00  0.00    -0.477 OA
ATOM     20  H   UNL     1       1.660   2.582   1.801  0.00  0.00    +0.295 HD
ENDBRANCH  18  19
ENDBRANCH  10  18
BRANCH   9  21
ATOM     21  C   UNL     1      -3.519   1.782  -0.099  0.00  0.00    +0.164 C 
BRANCH  21  22
ATOM     22  O   UNL     1      -3.274   2.343   1.183  0.00  0.00    -0.377 OA
ATOM     23  H   UNL     1      -3.505   3.285   1.174  0.00  0.00    +0.211 HD
ENDBRANCH  21  22
ENDBRANCH   9  21
BRANCH  12  24
ATOM     24  C   UNL     1       4.675  -1.239  -0.176  0.00  0.00    +0.164 C 
BRANCH  24  25
ATOM     25  O   UNL     1       5.017  -1.703   1.124  0.00  0.00    -0.377 OA
ATOM     26  H   UNL     1       5.926  -2.043   1.118  0.00  0.00    +0.211 HD
ENDBRANCH  24  25
ENDBRANCH  12  24
TORSDOF 6
