REMARK  Name = 129717912
REMARK  6 active torsions:
REMARK  status: ('A' for Active; 'I' for Inactive)
REMARK    1  A    between atoms: C_3  and  O_15
REMARK    2  A    between atoms: C_5  and  N_9
REMARK    3  A    between atoms: C_6  and  O_13
REMARK    4  A    between atoms: O_15  and  C_16
REMARK    5  A    between atoms: C_16  and  C_19
REMARK    6  A    between atoms: C_19  and  O_20
REMARK                            x       y       z     vdW  Elec       q    Type
REMARK                         _______ _______ _______ _____ _____    ______ ____
ROOT
ATOM      1  O   UNL     1       2.902   0.252   0.229  0.00  0.00    -0.329 OA
ATOM      2  O   UNL     1       1.879  -0.575  -1.685  0.00  0.00    -0.329 OA
ATOM      3  C   UNL     1       0.035   0.342   0.354  0.00  0.00    +0.130 C 
ATOM      4  C   UNL     1       2.252  -0.973   0.583  0.00  0.00    +0.176 C 
ATOM      5  C   UNL     1       0.870   1.297  -0.534  0.00  0.00    +0.022 C 
ATOM      6  C   UNL     1       0.887  -0.623   1.204  0.00  0.00    +0.165 C 
ATOM      7  C   UNL     1       2.188   0.627  -0.957  0.00  0.00    +0.217 C 
ATOM      8  C   UNL     1       2.171  -1.643  -0.772  0.00  0.00    +0.177 C 
ENDROOT
BRANCH   5   9
ATOM      9  N   UNL     1       1.177   2.543   0.171  0.00  0.00    +0.387 N 
ATOM     10  H   UNL     1       0.309   2.996   0.456  0.00  0.00    -0.089 HD
ATOM     11  H   UNL     1       1.697   3.165  -0.449  0.00  0.00    -0.089 HD
ATOM     12  H   UNL     1       1.740   2.337   0.996  0.00  0.00    -0.089 HD
ENDBRANCH   5   9
BRANCH   6  13
ATOM     13  O   UNL     1       1.124  -0.025   2.480  0.00  0.00    -0.380 OA
ATOM     14  H   UNL     1       0.276   0.204   2.893  0.00  0.00    +0.211 HD
ENDBRANCH   6  13
BRANCH   3  15
ATOM     15  O   UNL     1      -0.831  -0.427  -0.490  0.00  0.00    -0.347 OA
BRANCH  15  16
ATOM     16  C   UNL     1      -2.049  -0.726   0.169  0.00  0.00    +0.213 C 
ATOM     17  C   UNL     1      -2.565  -2.046  -0.376  0.00  0.00    +0.044 C 
BRANCH  16  19
ATOM     18  O   UNL     1      -2.795   1.372  -0.804  0.00  0.00    -0.248 OA
ATOM     19  C   UNL     1      -3.026   0.400  -0.097  0.00  0.00    +0.341 C 
BRANCH  19  20
ATOM     20  O   UNL     1      -4.217   0.204   0.525  0.00  0.00    -0.479 OA
ATOM     21  H   UNL     1      -4.349  -0.556   1.057  0.00  0.00    +0.295 HD
ENDBRANCH  19  20
ENDBRANCH  16  19
ENDBRANCH  15  16
ENDBRANCH   3  15
TORSDOF 6
