129717912
  -OEChem-03292013293D

 31 32  0     1  0  0  0  0  0999 V2000
    2.9023    0.2523    0.2291 O   0  0  0  0  0  0  0  0  0  0  0  0
    1.8789   -0.5749   -1.6853 O   0  0  0  0  0  0  0  0  0  0  0  0
   -0.8306   -0.4269   -0.4896 O   0  0  0  0  0  0  0  0  0  0  0  0
    1.1240   -0.0251    2.4804 O   0  0  0  0  0  0  0  0  0  0  0  0
   -4.2172    0.2042    0.5251 O   0  0  0  0  0  0  0  0  0  0  0  0
   -2.7954    1.3724   -0.8039 O   0  0  0  0  0  0  0  0  0  0  0  0
    1.1771    2.5431    0.1709 N   0  0  0  0  0  0  0  0  0  0  0  0
    0.0352    0.3419    0.3541 C   0  0  2  0  0  0  0  0  0  0  0  0
    2.2516   -0.9727    0.5830 C   0  0  1  0  0  0  0  0  0  0  0  0
    0.8695    1.2972   -0.5337 C   0  0  2  0  0  0  0  0  0  0  0  0
    0.8866   -0.6234    1.2038 C   0  0  1  0  0  0  0  0  0  0  0  0
    2.1878    0.6269   -0.9574 C   0  0  1  0  0  0  0  0  0  0  0  0
    2.1706   -1.6435   -0.7717 C   0  0  0  0  0  0  0  0  0  0  0  0
   -2.0487   -0.7257    0.1689 C   0  0  2  0  0  0  0  0  0  0  0  0
   -2.5653   -2.0457   -0.3764 C   0  0  0  0  0  0  0  0  0  0  0  0
   -3.0263    0.3998   -0.0973 C   0  0  0  0  0  0  0  0  0  0  0  0
   -0.5859    0.9677    1.0111 H   0  0  0  0  0  0  0  0  0  0  0  0
    2.8740   -1.5261    1.2929 H   0  0  0  0  0  0  0  0  0  0  0  0
    0.2924    1.5390   -1.4350 H   0  0  0  0  0  0  0  0  0  0  0  0
    0.3492   -1.5602    1.3915 H   0  0  0  0  0  0  0  0  0  0  0  0
    2.8088    1.2811   -1.5781 H   0  0  0  0  0  0  0  0  0  0  0  0
    3.1394   -2.0627   -1.0638 H   0  0  0  0  0  0  0  0  0  0  0  0
    1.4073   -2.4233   -0.8377 H   0  0  0  0  0  0  0  0  0  0  0  0
    0.3110    3.0270    0.4046 H   0  0  0  0  0  0  0  0  0  0  0  0
    1.6963    3.1667   -0.4459 H   0  0  0  0  0  0  0  0  0  0  0  0
    0.2602    0.1037    2.9083 H   0  0  0  0  0  0  0  0  0  0  0  0
   -1.9084   -0.8190    1.2531 H   0  0  0  0  0  0  0  0  0  0  0  0
   -2.7544   -1.9769   -1.4539 H   0  0  0  0  0  0  0  0  0  0  0  0
   -3.4963   -2.3490    0.1124 H   0  0  0  0  0  0  0  0  0  0  0  0
   -1.8217   -2.8371   -0.2336 H   0  0  0  0  0  0  0  0  0  0  0  0
   -4.8496    0.9314    0.3413 H   0  0  0  0  0  0  0  0  0  0  0  0
  1  9  1  0  0  0  0
  1 12  1  0  0  0  0
  2 12  1  0  0  0  0
  2 13  1  0  0  0  0
  3  8  1  0  0  0  0
  3 14  1  0  0  0  0
  4 11  1  0  0  0  0
  4 26  1  0  0  0  0
  5 16  1  0  0  0  0
  5 31  1  0  0  0  0
  6 16  2  0  0  0  0
  7 10  1  0  0  0  0
  7 24  1  0  0  0  0
  7 25  1  0  0  0  0
  8 10  1  0  0  0  0
  8 11  1  0  0  0  0
  8 17  1  0  0  0  0
  9 11  1  0  0  0  0
  9 13  1  0  0  0  0
  9 18  1  0  0  0  0
 10 12  1  0  0  0  0
 10 19  1  0  0  0  0
 11 20  1  0  0  0  0
 12 21  1  0  0  0  0
 13 22  1  0  0  0  0
 13 23  1  0  0  0  0
 14 15  1  0  0  0  0
 14 16  1  0  0  0  0
 14 27  1  0  0  0  0
 15 28  1  0  0  0  0
 15 29  1  0  0  0  0
 15 30  1  0  0  0  0
M  END
> <PUBCHEM_COMPOUND_CID>
129717912

> <PUBCHEM_CONFORMER_RMSD>
0.6

> <PUBCHEM_CONFORMER_DIVERSEORDER>
1
15
6
5
12
7
8
19
16
2
10
20
18
11
13
9
14
21
17
4
3

> <PUBCHEM_MMFF94_PARTIAL_CHARGES>
19
1 -0.56
10 0.27
11 0.28
12 0.56
13 0.28
14 0.34
16 0.66
2 -0.56
24 0.36
25 0.36
26 0.4
3 -0.56
31 0.5
4 -0.68
5 -0.65
6 -0.57
7 -0.99
8 0.28
9 0.28

> <PUBCHEM_EFFECTIVE_ROTOR_COUNT>
4.2

> <PUBCHEM_PHARMACOPHORE_FEATURES>
11
1 1 acceptor
1 2 acceptor
1 3 acceptor
1 4 acceptor
1 4 donor
1 5 acceptor
1 6 acceptor
1 7 cation
1 7 donor
3 5 6 16 anion
8 1 2 8 9 10 11 12 13 rings

> <PUBCHEM_HEAVY_ATOM_COUNT>
16

> <PUBCHEM_ATOM_DEF_STEREO_COUNT>
5

> <PUBCHEM_ATOM_UDEF_STEREO_COUNT>
1

> <PUBCHEM_BOND_DEF_STEREO_COUNT>
0

> <PUBCHEM_BOND_UDEF_STEREO_COUNT>
0

> <PUBCHEM_ISOTOPIC_ATOM_COUNT>
0

> <PUBCHEM_COMPONENT_COUNT>
1

> <PUBCHEM_CACTVS_TAUTO_COUNT>
1

> <PUBCHEM_CONFORMER_ID>
07BB569800000001

> <PUBCHEM_MMFF94_ENERGY>
40.9057

> <PUBCHEM_FEATURE_SELFOVERLAP>
55.938

> <PUBCHEM_SHAPE_FINGERPRINT>
10922523 26 18335423413623581391
12654903 92 18341337703712010063
12725867 57 18272362028119401448
12932764 1 17967526891973940975
13221675 6 18113902658755529595
14144814 61 18408041793183385257
14648413 74 18340772649346108161
15775835 57 18041002859969070173
16945 1 18131362881708216820
17990270 104 18340770437274570102
19422 9 17531254902856512875
20233049 118 18042115462625873285
20559304 39 18041269981286390531
21501502 16 18266741462080091463
21524375 3 17615400798060643684
230 275 17023176175655411317
232386 152 17968642835745840450
23419403 2 14357524527703536792
296302 2 16845850195875972258
528886 8 18412265042825501782
549884 4 18113625572861076453
7364860 26 18270398415957802712
74978 22 18412261753159972023
7832392 63 18410295821916578045
8030462 33 17458335369096267791

> <PUBCHEM_SHAPE_MULTIPOLES>
289.08
5.22
1.84
1.37
4.88
0.33
-0.55
-0.33
0.42
-0.05
0.3
-0.82
-0.17
0.04

> <PUBCHEM_SHAPE_SELFOVERLAP>
600.747

> <PUBCHEM_SHAPE_VOLUME>
163.6

> <PUBCHEM_COORDINATE_TYPE>
2
5
10

$$$$
