REMARK  Name = 129716443
REMARK  11 active torsions:
REMARK  status: ('A' for Active; 'I' for Inactive)
REMARK    1  A    between atoms: C_1  and  C_3
REMARK    2  A    between atoms: C_1  and  C_6
REMARK    3  A    between atoms: C_1  and  C_20
REMARK    4  A    between atoms: C_6  and  C_7
REMARK    5  A    between atoms: C_8  and  C_9
REMARK    6  A    between atoms: C_12  and  O_15
REMARK    7  A    between atoms: C_13  and  O_17
REMARK    8  A    between atoms: C_20  and  C_21
REMARK    9  A    between atoms: C_22  and  C_23
REMARK   10  A    between atoms: C_26  and  O_29
REMARK   11  A    between atoms: C_27  and  O_31
REMARK                            x       y       z     vdW  Elec       q    Type
REMARK                         _______ _______ _______ _____ _____    ______ ____
ROOT
ATOM      1  C   UNL     1       0.155  -1.605   0.358  0.00  0.00    +0.180 C 
ENDROOT
BRANCH   1   3
ATOM      2  O   UNL     1       1.529  -3.551  -0.053  0.00  0.00    -0.295 OA
ATOM      3  C   UNL     1       0.873  -2.893   0.753  0.00  0.00    +0.165 C 
ATOM      4  C   UNL     1       0.718  -3.345   2.183  0.00  0.00    +0.073 C 
ENDBRANCH   1   3
BRANCH   1   6
ATOM      5  O   UNL     1      -1.618  -2.888  -0.667  0.00  0.00    -0.290 OA
ATOM      6  C   UNL     1      -1.288  -1.866  -0.068  0.00  0.00    +0.187 C 
BRANCH   6   7
ATOM      7  C   UNL     1      -2.275  -0.796   0.267  0.00  0.00    +0.038 C 
ATOM      8  C   UNL     1      -3.566  -0.936  -0.068  0.00  0.00    +0.003 C 
BRANCH   8   9
ATOM      9  C   UNL     1      -4.615   0.058   0.220  0.00  0.00    +0.003 C 
ATOM     10  C   UNL     1      -5.808   0.042  -0.503  0.00  0.00    +0.040 C 
ATOM     11  C   UNL     1      -4.416   1.015   1.215  0.00  0.00    +0.003 C 
ATOM     12  C   UNL     1      -6.801   0.982  -0.231  0.00  0.00    +0.172 C 
ATOM     13  C   UNL     1      -6.602   1.939   0.764  0.00  0.00    +0.168 C 
ATOM     14  C   UNL     1      -5.409   1.956   1.487  0.00  0.00    +0.040 C 
BRANCH  12  15
ATOM     15  O   UNL     1      -7.962   0.956  -0.944  0.00  0.00    -0.468 OA
ATOM     16  C   UNL     1      -8.086  -0.055  -1.943  0.00  0.00    +0.253 C 
ENDBRANCH  12  15
BRANCH  13  17
ATOM     17  O   UNL     1      -7.564   2.864   1.039  0.00  0.00    -0.503 OA
ATOM     18  H   UNL     1      -8.369   2.860   0.558  0.00  0.00    +0.292 HD
ENDBRANCH  13  17
ENDBRANCH   8   9
ENDBRANCH   6   7
ENDBRANCH   1   6
BRANCH   1  20
ATOM     19  O   UNL     1       0.441  -0.521  -1.783  0.00  0.00    -0.290 OA
ATOM     20  C   UNL     1       0.932  -0.821  -0.697  0.00  0.00    +0.187 C 
BRANCH  20  21
ATOM     21  C   UNL     1       2.336  -0.455  -0.341  0.00  0.00    +0.038 C 
ATOM     22  C   UNL     1       3.096   0.234  -1.204  0.00  0.00    +0.003 C 
BRANCH  22  23
ATOM     23  C   UNL     1       4.492   0.633  -0.954  0.00  0.00    +0.003 C 
ATOM     24  C   UNL     1       4.981   0.681   0.352  0.00  0.00    +0.040 C 
ATOM     25  C   UNL     1       5.326   0.964  -2.022  0.00  0.00    +0.003 C 
ATOM     26  C   UNL     1       6.302   1.060   0.589  0.00  0.00    +0.172 C 
ATOM     27  C   UNL     1       7.135   1.391  -0.479  0.00  0.00    +0.168 C 
ATOM     28  C   UNL     1       6.647   1.343  -1.785  0.00  0.00    +0.040 C 
BRANCH  26  29
ATOM     29  O   UNL     1       6.768   1.102   1.869  0.00  0.00    -0.468 OA
ATOM     30  C   UNL     1       5.851   0.749   2.904  0.00  0.00    +0.253 C 
ENDBRANCH  26  29
BRANCH  27  31
ATOM     31  O   UNL     1       8.428   1.762  -0.261  0.00  0.00    -0.503 OA
ATOM     32  H   UNL     1       8.764   1.797   0.613  0.00  0.00    +0.292 HD
ENDBRANCH  27  31
ENDBRANCH  22  23
ENDBRANCH  20  21
ENDBRANCH   1  20
TORSDOF 11
