REMARK  Name = 129731543
REMARK  13 active torsions:
REMARK  status: ('A' for Active; 'I' for Inactive)
REMARK    1  A    between atoms: C_1  and  C_9
REMARK    2  A    between atoms: C_2  and  O_28
REMARK    3  A    between atoms: C_5  and  O_7
REMARK    4  A    between atoms: C_10  and  C_12
REMARK    5  A    between atoms: C_12  and  C_13
REMARK    6  A    between atoms: C_13  and  C_15
REMARK    7  A    between atoms: C_15  and  C_17
REMARK    8  A    between atoms: C_16  and  C_18
REMARK    9  A    between atoms: C_20  and  O_24
REMARK   10  A    between atoms: C_22  and  O_26
REMARK   11  A    between atoms: O_28  and  C_30
REMARK   12  A    between atoms: C_29  and  C_31
REMARK   13  A    between atoms: C_32  and  O_37
REMARK                            x       y       z     vdW  Elec       q    Type
REMARK                         _______ _______ _______ _____ _____    ______ ____
ROOT
ATOM      1  C   UNL     1      -2.652  -3.215  -0.362  0.00  0.00    +0.003 C 
ATOM      2  C   UNL     1      -4.607  -2.013   0.394  0.00  0.00    +0.179 C 
ATOM      3  C   UNL     1      -3.220  -2.143   0.326  0.00  0.00    +0.041 C 
ATOM      4  C   UNL     1      -3.472  -4.157  -0.984  0.00  0.00    +0.003 C 
ATOM      5  C   UNL     1      -5.427  -2.955  -0.228  0.00  0.00    +0.168 C 
ATOM      6  C   UNL     1      -4.859  -4.027  -0.916  0.00  0.00    +0.040 C 
ENDROOT
BRANCH   5   7
ATOM      7  O   UNL     1      -6.783  -2.840  -0.169  0.00  0.00    -0.503 OA
ATOM      8  H   UNL     1      -7.173  -2.123   0.291  0.00  0.00    +0.292 HD
ENDBRANCH   5   7
BRANCH   1   9
ATOM      9  C   UNL     1      -1.187  -3.351  -0.433  0.00  0.00    +0.003 C 
ATOM     10  C   UNL     1      -0.318  -2.352  -0.224  0.00  0.00    +0.038 C 
BRANCH  10  12
ATOM     11  O   UNL     1       1.605  -3.692  -0.639  0.00  0.00    -0.291 OA
ATOM     12  C   UNL     1       1.152  -2.594  -0.328  0.00  0.00    +0.181 C 
BRANCH  12  13
ATOM     13  C   UNL     1       2.036  -1.390  -0.071  0.00  0.00    +0.138 C 
BRANCH  13  15
ATOM     14  O   UNL     1       3.559  -2.633   1.325  0.00  0.00    -0.291 OA
ATOM     15  C   UNL     1       3.385  -1.695   0.552  0.00  0.00    +0.181 C 
BRANCH  15  17
ATOM     16  C   UNL     1       5.718  -0.930   0.701  0.00  0.00    +0.003 C 
ATOM     17  C   UNL     1       4.487  -0.750   0.202  0.00  0.00    +0.038 C 
BRANCH  16  18
ATOM     18  C   UNL     1       6.874  -0.063   0.412  0.00  0.00    +0.003 C 
ATOM     19  C   UNL     1       6.672   1.231  -0.068  0.00  0.00    +0.040 C 
ATOM     20  C   UNL     1       7.765   2.053  -0.342  0.00  0.00    +0.172 C 
ATOM     21  C   UNL     1       8.170  -0.536   0.617  0.00  0.00    +0.003 C 
ATOM     22  C   UNL     1       9.061   1.580  -0.137  0.00  0.00    +0.168 C 
ATOM     23  C   UNL     1       9.264   0.286   0.343  0.00  0.00    +0.040 C 
BRANCH  20  24
ATOM     24  O   UNL     1       7.555   3.314  -0.810  0.00  0.00    -0.468 OA
ATOM     25  C   UNL     1       6.200   3.720  -0.993  0.00  0.00    +0.253 C 
ENDBRANCH  20  24
BRANCH  22  26
ATOM     26  O   UNL     1      10.138   2.372  -0.401  0.00  0.00    -0.503 OA
ATOM     27  H   UNL     1      10.011   3.242  -0.723  0.00  0.00    +0.292 HD
ENDBRANCH  22  26
ENDBRANCH  16  18
ENDBRANCH  15  17
ENDBRANCH  13  15
ENDBRANCH  12  13
ENDBRANCH  10  12
ENDBRANCH   1   9
BRANCH   2  28
ATOM     28  O   UNL     1      -5.150  -0.962   1.069  0.00  0.00    -0.447 OA
BRANCH  28  30
ATOM     29  C   UNL     1      -5.923   1.277   0.948  0.00  0.00    +0.044 C 
ATOM     30  C   UNL     1      -5.393   0.190   0.376  0.00  0.00    +0.180 C 
BRANCH  29  31
ATOM     31  C   UNL     1      -6.203   2.550   0.264  0.00  0.00    +0.037 C 
ATOM     32  C   UNL     1      -6.136   3.764   0.948  0.00  0.00    +0.134 C 
ATOM     33  C   UNL     1      -6.540   2.530  -1.089  0.00  0.00    +0.003 C 
ATOM     34  C   UNL     1      -6.406   4.958   0.279  0.00  0.00    +0.037 C 
ATOM     35  C   UNL     1      -6.810   3.723  -1.759  0.00  0.00    +0.000 C 
ATOM     36  C   UNL     1      -6.743   4.937  -1.075  0.00  0.00    +0.003 C 
BRANCH  32  37
ATOM     37  O   UNL     1      -5.809   3.813   2.271  0.00  0.00    -0.506 OA
ATOM     38  H   UNL     1      -5.624   3.021   2.737  0.00  0.00    +0.292 HD
ENDBRANCH  32  37
ENDBRANCH  29  31
ENDBRANCH  28  30
ENDBRANCH   2  28
TORSDOF 13
