REMARK  Name = 129760095
REMARK  6 active torsions:
REMARK  status: ('A' for Active; 'I' for Inactive)
REMARK    1  A    between atoms: C_2  and  N_16
REMARK    2  A    between atoms: C_3  and  O_21
REMARK    3  A    between atoms: C_4  and  N_8
REMARK    4  A    between atoms: C_5  and  C_23
REMARK    5  A    between atoms: C_17  and  C_20
REMARK    6  A    between atoms: C_23  and  O_24
REMARK                            x       y       z     vdW  Elec       q    Type
REMARK                         _______ _______ _______ _____ _____    ______ ____
ROOT
ATOM      1  O   UNL     1      -0.469   2.000  -1.133  0.00  0.00    -0.333 OA
ATOM      2  C   UNL     1      -1.216   0.022  -0.034  0.00  0.00    +0.149 C 
ATOM      3  C   UNL     1      -2.391   0.965  -0.220  0.00  0.00    +0.162 C 
ATOM      4  C   UNL     1      -0.178   0.599  -0.989  0.00  0.00    +0.220 C 
ATOM      5  C   UNL     1      -1.704   2.304  -0.455  0.00  0.00    +0.175 C 
ENDROOT
BRANCH   4   8
ATOM      6  O   UNL     1       1.530  -1.542  -1.669  0.00  0.00    -0.252 OA
ATOM      7  O   UNL     1       4.950   0.123   0.934  0.00  0.00    -0.270 OA
ATOM      8  N   UNL     1       1.165   0.449  -0.504  0.00  0.00    -0.217 N 
ATOM      9  N   UNL     1       3.232  -0.711  -0.372  0.00  0.00    -0.236 N 
ATOM     10  C   UNL     1       1.938  -0.663  -0.906  0.00  0.00    +0.315 C 
ATOM     11  C   UNL     1       1.698   1.398   0.359  0.00  0.00    +0.076 C 
ATOM     12  C   UNL     1       2.934   1.339   0.859  0.00  0.00    +0.074 C 
ATOM     13  C   UNL     1       3.809   0.208   0.491  0.00  0.00    +0.254 C 
ATOM     14  H   UNL     1       3.790  -1.478  -0.637  0.00  0.00    +0.159 HD
ENDBRANCH   4   8
BRANCH   2  16
ATOM     15  O   UNL     1      -2.130  -1.927   1.874  0.00  0.00    -0.274 OA
ATOM     16  N   UNL     1      -1.525  -1.355  -0.295  0.00  0.00    -0.299 N 
ATOM     17  C   UNL     1      -1.961  -2.223   0.692  0.00  0.00    +0.233 C 
ATOM     18  H   UNL     1      -1.423  -1.696  -1.213  0.00  0.00    +0.150 HD
BRANCH  17  20
ATOM     19  I   UNL     1      -0.424  -4.725   0.438  0.00  0.00    -0.064 I 
ATOM     20  C   UNL     1      -2.208  -3.623   0.177  0.00  0.00    +0.147 C 
ENDBRANCH  17  20
ENDBRANCH   2  16
BRANCH   3  21
ATOM     21  O   UNL     1      -3.142   0.625  -1.386  0.00  0.00    -0.380 OA
ATOM     22  H   UNL     1      -3.585  -0.227  -1.248  0.00  0.00    +0.211 HD
ENDBRANCH   3  21
BRANCH   5  23
ATOM     23  C   UNL     1      -1.370   3.042   0.836  0.00  0.00    +0.169 C 
BRANCH  23  24
ATOM     24  O   UNL     1      -2.538   3.696   1.304  0.00  0.00    -0.379 OA
ATOM     25  H   UNL     1      -2.335   4.169   2.127  0.00  0.00    +0.211 HD
ENDBRANCH  23  24
ENDBRANCH   5  23
TORSDOF 6
