REMARK  Name = 129763
REMARK  15 active torsions:
REMARK  status: ('A' for Active; 'I' for Inactive)
REMARK    1  A    between atoms: C_1  and  N_22
REMARK    2  A    between atoms: C_2  and  C_9
REMARK    3  A    between atoms: N_8  and  CA_11
REMARK    4  A    between atoms: CA_11  and  C_13
REMARK    5  A    between atoms: CA_11  and  CB_16
REMARK    6  A    between atoms: C_13  and  O_14
REMARK    7  A    between atoms: CB_16  and  CG_17
REMARK    8  A    between atoms: CG_17  and  CD_19
REMARK    9  A    between atoms: CD_19  and  OE1_20
REMARK   10  A    between atoms: N_22  and  C_23
REMARK   11  A    between atoms: N_22  and  C_30
REMARK   12  A    between atoms: C_23  and  C_24
REMARK   13  A    between atoms: C_24  and  O_25
REMARK   14  A    between atoms: O_25  and  S_26
REMARK   15  A    between atoms: C_30  and  C_32
REMARK                            x       y       z     vdW  Elec       q    Type
REMARK                         _______ _______ _______ _____ _____    ______ ____
ROOT
ATOM      1  C   UNL     1      -1.970   1.424  -0.061  0.00  0.00    +0.048 C 
ATOM      2  C   UNL     1       0.797   1.601  -0.364  0.00  0.00    +0.053 C 
ATOM      3  C   UNL     1      -1.257   2.418   0.609  0.00  0.00    +0.015 C 
ATOM      4  C   UNL     1      -1.300   0.518  -0.882  0.00  0.00    +0.015 C 
ATOM      5  C   UNL     1       0.126   2.507   0.457  0.00  0.00    +0.006 C 
ATOM      6  C   UNL     1       0.084   0.607  -1.034  0.00  0.00    +0.006 C 
ENDROOT
BRANCH   2   9
ATOM      7  O   UNL     1       2.825   2.779  -0.361  0.00  0.00    -0.270 OA
ATOM      8  N   UNL     1       2.926   0.512  -0.838  0.00  0.00    -0.293 N 
ATOM      9  C   ACE A   0       2.271   1.695  -0.526  0.00  0.00    +0.246 C 
ATOM     10  H   UNL     1       2.393  -0.308  -0.951  0.00  0.00    +0.150 HD
BRANCH   8  11
ATOM     11  CA  UNL     1       4.355   0.436  -1.003  0.00  0.00    +0.172 C 
BRANCH  11  13
ATOM     12  OXT UNL     1       3.849  -0.918  -2.963  0.00  0.00    -0.248 OA
ATOM     13  C   UNL     1       4.638  -0.579  -2.091  0.00  0.00    +0.332 C 
BRANCH  13  14
ATOM     14  O   UNL     1       5.908  -1.058  -2.019  0.00  0.00    -0.479 OA
ATOM     15  H   UNL     1       6.479  -0.771  -1.335  0.00  0.00    +0.295 HD
ENDBRANCH  13  14
ENDBRANCH  11  13
BRANCH  11  16
ATOM     16  CB  UNL     1       5.089   0.153   0.314  0.00  0.00    +0.043 C 
BRANCH  16  17
ATOM     17  CG  UNL     1       4.763  -1.186   0.986  0.00  0.00    +0.112 C 
BRANCH  17  19
ATOM     18  OE2 UNL     1       5.855  -0.536   3.065  0.00  0.00    -0.250 OA
ATOM     19  CD  UNL     1       5.503  -1.412   2.287  0.00  0.00    +0.314 C 
BRANCH  19  20
ATOM     20  OE1 UNL     1       5.777  -2.728   2.485  0.00  0.00    -0.480 OA
ATOM     21  HE1 UNL     1       5.487  -3.365   1.862  0.00  0.00    +0.295 HD
ENDBRANCH  19  20
ENDBRANCH  17  19
ENDBRANCH  16  17
ENDBRANCH  11  16
ENDBRANCH   8  11
ENDBRANCH   2   9
BRANCH   1  22
ATOM     22  N   UNL     1      -3.370   1.335   0.092  0.00  0.00    -0.304 N 
BRANCH  22  23
ATOM     23  C   UNL     1      -4.120   0.306  -0.600  0.00  0.00    +0.126 C 
BRANCH  23  24
ATOM     24  C   UNL     1      -4.033  -1.003   0.166  0.00  0.00    +0.194 C 
BRANCH  24  25
ATOM     25  O   UNL     1      -4.801  -1.995  -0.504  0.00  0.00    -0.240 OA
BRANCH  25  26
ATOM     26  S   UNL     1      -4.864  -3.498   0.132  0.00  0.00    -0.005 S 
ATOM     27  O   UNL     1      -5.597  -3.462   1.381  0.00  0.00    -0.072 OA
ATOM     28  O   UNL     1      -3.561  -4.122   0.023  0.00  0.00    -0.072 OA
ATOM     29  C   UNL     1      -5.920  -4.202  -1.109  0.00  0.00    +0.181 C 
ENDBRANCH  25  26
ENDBRANCH  24  25
ENDBRANCH  23  24
ENDBRANCH  22  23
BRANCH  22  30
ATOM     30  C   UNL     1      -4.074   2.264   0.953  0.00  0.00    +0.108 C 
BRANCH  30  32
ATOM     31 CL   UNL     1      -5.387   4.644   1.228  0.00  0.00    -0.112 Cl
ATOM     32  C   UNL     1      -4.510   3.500   0.182  0.00  0.00    +0.116 C 
ENDBRANCH  30  32
ENDBRANCH  22  30
ENDBRANCH   1  22
TORSDOF 15
