REMARK  Name = 129761
REMARK  3 active torsions:
REMARK  status: ('A' for Active; 'I' for Inactive)
REMARK    1  A    between atoms: C_6  and  C_14
REMARK    2  A    between atoms: C_19  and  O_20
REMARK    3  A    between atoms: O_20  and  S_21
REMARK                            x       y       z     vdW  Elec       q    Type
REMARK                         _______ _______ _______ _____ _____    ______ ____
ROOT
ATOM      1  N   UNL     1      -4.164   1.192   0.103  0.00  0.00    -0.240 N 
ATOM      2  N   UNL     1      -5.002  -0.868   0.220  0.00  0.00    -0.319 NA
ATOM      3  N   UNL     1      -2.891  -2.055   0.045  0.00  0.00    -0.181 NA
ATOM      4  N   UNL     1      -6.498   1.010   0.325  0.00  0.00    -0.320 N 
ATOM      5  C   UNL     1      -3.087   0.352   0.019  0.00  0.00    +0.130 C 
ATOM      6  C   UNL     1      -0.940  -0.596  -0.164  0.00  0.00    +0.022 C 
ATOM      7  C   UNL     1      -1.718   0.558  -0.113  0.00  0.00    +0.028 C 
ATOM      8  C   UNL     1      -3.636  -0.923   0.094  0.00  0.00    +0.105 C 
ATOM      9  C   UNL     1      -5.285   0.416   0.223  0.00  0.00    +0.250 C 
ATOM     10  C   UNL     1      -1.561  -1.838  -0.083  0.00  0.00    +0.111 C 
ATOM     11  C   UNL     1      -4.109   2.637   0.072  0.00  0.00    +0.122 C 
ATOM     12  H   UNL     1      -6.568   1.992   0.313  0.00  0.00    +0.146 HD
ATOM     13  H   UNL     1      -7.310   0.460   0.412  0.00  0.00    +0.146 HD
ENDROOT
BRANCH   6  14
ATOM     14  C   UNL     1       0.496  -0.502  -0.300  0.00  0.00    +0.002 C 
ATOM     15  C   UNL     1       1.063   0.576  -0.981  0.00  0.00    +0.003 C 
ATOM     16  C   UNL     1       1.315  -1.488   0.249  0.00  0.00    +0.003 C 
ATOM     17  C   UNL     1       2.449   0.667  -1.112  0.00  0.00    +0.040 C 
ATOM     18  C   UNL     1       2.701  -1.397   0.117  0.00  0.00    +0.040 C 
ATOM     19  C   UNL     1       3.268  -0.319  -0.563  0.00  0.00    +0.176 C 
BRANCH  19  20
ATOM     20  O   UNL     1       4.620  -0.231  -0.691  0.00  0.00    -0.322 OA
BRANCH  20  21
ATOM     21  S   UNL     1       5.479   0.563   0.465  0.00  0.00    +0.282 S 
ATOM     22  O   UNL     1       7.004   0.570  -0.119  0.00  0.00    -0.105 OA
ATOM     23  O   UNL     1       5.021   1.938   0.533  0.00  0.00    -0.105 OA
ATOM     24  O   UNL     1       5.477  -0.261   1.659  0.00  0.00    -0.012 OA
ENDBRANCH  20  21
ENDBRANCH  19  20
ENDBRANCH   6  14
TORSDOF 3
