REMARK  Name = 129724659
REMARK  3 active torsions:
REMARK  status: ('A' for Active; 'I' for Inactive)
REMARK    1  A    between atoms: C_5  and  C_14
REMARK    2  A    between atoms: C_5  and  N_23
REMARK    3  A    between atoms: C_14  and  N_19
REMARK                            x       y       z     vdW  Elec       q    Type
REMARK                         _______ _______ _______ _____ _____    ______ ____
ROOT
ATOM      1  O   UNL     1       1.293  -1.196  -0.261  0.00  0.00    -0.431 OA
ATOM      2  O   UNL     1       1.283   1.274  -0.237  0.00  0.00    -0.431 OA
ATOM      3  O   UNL     1       2.846  -2.820  -0.042  0.00  0.00    -0.250 OA
ATOM      4  O   UNL     1       2.936   2.796  -0.220  0.00  0.00    -0.250 OA
ATOM      5  C   UNL     1       0.720   0.030   0.270  0.00  0.00    +0.285 C 
ATOM      6  C   UNL     1       3.474  -0.599   0.592  0.00  0.00    +0.121 C 
ATOM      7  C   UNL     1       3.588   0.512  -0.426  0.00  0.00    +0.121 C 
ATOM      8  C   UNL     1       2.523  -1.643   0.085  0.00  0.00    +0.319 C 
ATOM      9  C   UNL     1       2.589   1.617  -0.237  0.00  0.00    +0.319 C 
ENDROOT
BRANCH   5  14
ATOM     10  O   UNL     1      -1.293  -1.196   0.261  0.00  0.00    -0.431 OA
ATOM     11  O   UNL     1      -1.283   1.274   0.237  0.00  0.00    -0.431 OA
ATOM     12  O   UNL     1      -2.846  -2.820   0.042  0.00  0.00    -0.250 OA
ATOM     13  O   UNL     1      -2.936   2.796   0.220  0.00  0.00    -0.250 OA
ATOM     14  C   UNL     1      -0.720   0.030  -0.270  0.00  0.00    +0.285 C 
ATOM     15  C   UNL     1      -3.474  -0.599  -0.593  0.00  0.00    +0.121 C 
ATOM     16  C   UNL     1      -3.588   0.512   0.426  0.00  0.00    +0.121 C 
ATOM     17  C   UNL     1      -2.589   1.617   0.237  0.00  0.00    +0.319 C 
ATOM     18  C   UNL     1      -2.523  -1.643  -0.085  0.00  0.00    +0.319 C 
BRANCH  14  19
ATOM     19  N   UNL     1      -0.624   0.030  -1.735  0.00  0.00    +0.430 N 
ATOM     20  H   UNL     1      -1.562   0.030  -2.136  0.00  0.00    -0.078 HD
ATOM     21  H   UNL     1      -0.123  -0.803  -2.043  0.00  0.00    -0.078 HD
ATOM     22  H   UNL     1      -0.123   0.862  -2.043  0.00  0.00    -0.078 HD
ENDBRANCH  14  19
ENDBRANCH   5  14
BRANCH   5  23
ATOM     23  N   UNL     1       0.624   0.030   1.735  0.00  0.00    +0.430 N 
ATOM     24  H   UNL     1       1.562   0.030   2.136  0.00  0.00    -0.078 HD
ATOM     25  H   UNL     1       0.122  -0.803   2.043  0.00  0.00    -0.078 HD
ATOM     26  H   UNL     1       0.122   0.863   2.043  0.00  0.00    -0.078 HD
ENDBRANCH   5  23
TORSDOF 3
