REMARK  Name = 129735010
REMARK  8 active torsions:
REMARK  status: ('A' for Active; 'I' for Inactive)
REMARK    1  A    between atoms: C_1  and  N_20
REMARK    2  A    between atoms: C_6  and  C_24
REMARK    3  A    between atoms: C_19  and  O_28
REMARK    4  A    between atoms: C_24  and  O_26
REMARK    5  A    between atoms: O_28  and  C_30
REMARK    6  A    between atoms: C_31  and  O_36
REMARK    7  A    between atoms: C_32  and  O_38
REMARK    8  A    between atoms: C_34  and  O_40
REMARK                            x       y       z     vdW  Elec       q    Type
REMARK                         _______ _______ _______ _____ _____    ______ ____
ROOT
ATOM      1  C   UNL     1      -2.789  -0.287  -0.806  0.00  0.00    -0.049 C 
ATOM      2  C   UNL     1      -3.777  -0.263   0.410  0.00  0.00    -0.014 C 
ATOM      3  C   UNL     1      -1.996   1.046  -1.010  0.00  0.00    -0.018 C 
ATOM      4  C   UNL     1      -1.351   1.587   0.297  0.00  0.00    -0.002 C 
ATOM      5  C   UNL     1      -0.536   2.928   0.096  0.00  0.00    +0.000 C 
ATOM      6  C   UNL     1      -4.060  -1.781   0.706  0.00  0.00    +0.025 C 
ATOM      7  C   UNL     1      -3.075   0.332   1.666  0.00  0.00    -0.002 C 
ATOM      8  C   UNL     1       0.411   2.878  -1.150  0.00  0.00    +0.002 C 
ATOM      9  C   UNL     1      -2.409   1.679   1.412  0.00  0.00    -0.000 C 
ATOM     10  C   UNL     1      -1.909  -1.508  -0.467  0.00  0.00    -0.020 C 
ATOM     11  C   UNL     1      -0.917   0.927  -2.104  0.00  0.00    -0.002 C 
ATOM     12  C   UNL     1      -2.877  -2.554   0.082  0.00  0.00    +0.000 C 
ATOM     13  C   UNL     1      -0.263   2.271  -2.385  0.00  0.00    +0.000 C 
ATOM     14  C   UNL     1       0.352   3.240   1.329  0.00  0.00    +0.002 C 
ATOM     15  C   UNL     1      -5.054   0.563   0.148  0.00  0.00    -0.002 C 
ATOM     16  C   UNL     1       1.806   2.262  -0.885  0.00  0.00    +0.030 C 
ATOM     17  C   UNL     1      -1.503   4.127  -0.087  0.00  0.00    +0.000 C 
ATOM     18  C   UNL     1       1.418   2.182   1.624  0.00  0.00    +0.030 C 
ATOM     19  C   UNL     1       1.920   1.437   0.387  0.00  0.00    +0.118 C 
ENDROOT
BRANCH   1  20
ATOM     20  N   UNL     1      -3.522  -0.621  -2.046  0.00  0.00    +0.383 N 
ATOM     21  H   UNL     1      -4.120   0.162  -2.308  0.00  0.00    -0.089 HD
ATOM     22  H   UNL     1      -4.096  -1.450  -1.889  0.00  0.00    -0.089 HD
ATOM     23  H   UNL     1      -2.855  -0.806  -2.795  0.00  0.00    -0.089 HD
ENDBRANCH   1  20
BRANCH   6  24
ATOM     24  C   UNL     1      -5.390  -2.345   0.205  0.00  0.00    +0.110 C 
ATOM     25  C   UNL     1      -5.565  -3.800   0.603  0.00  0.00    +0.032 C 
BRANCH  24  26
ATOM     26  O   UNL     1      -6.452  -1.572   0.750  0.00  0.00    -0.384 OA
ATOM     27  H   UNL     1      -6.339  -0.643   0.496  0.00  0.00    +0.210 HD
ENDBRANCH  24  26
ENDBRANCH   6  24
BRANCH  19  28
ATOM     28  O   UNL     1       3.287   1.071   0.575  0.00  0.00    -0.331 OA
BRANCH  28  30
ATOM     29  O   UNL     1       2.738  -1.235   0.463  0.00  0.00    -0.329 OA
ATOM     30  C   UNL     1       3.401  -0.202   1.200  0.00  0.00    +0.266 C 
ATOM     31  C   UNL     1       4.875  -0.547   1.404  0.00  0.00    +0.196 C 
ATOM     32  C   UNL     1       5.559  -0.846   0.069  0.00  0.00    +0.171 C 
ATOM     33  C   UNL     1       3.301  -1.484  -0.828  0.00  0.00    +0.147 C 
ATOM     34  C   UNL     1       4.774  -1.898  -0.719  0.00  0.00    +0.167 C 
ATOM     35  C   UNL     1       2.461  -2.574  -1.487  0.00  0.00    +0.035 C 
BRANCH  31  36
ATOM     36  O   UNL     1       4.939  -1.694   2.253  0.00  0.00    -0.378 OA
ATOM     37  H   UNL     1       4.504  -1.497   3.097  0.00  0.00    +0.211 HD
ENDBRANCH  31  36
BRANCH  32  38
ATOM     38  O   UNL     1       6.884  -1.303   0.323  0.00  0.00    -0.379 OA
ATOM     39  H   UNL     1       7.369  -0.627   0.823  0.00  0.00    +0.211 HD
ENDBRANCH  32  38
BRANCH  34  40
ATOM     40  O   UNL     1       5.318  -2.016  -2.031  0.00  0.00    -0.379 OA
ATOM     41  H   UNL     1       6.250  -2.277  -1.972  0.00  0.00    +0.211 HD
ENDBRANCH  34  40
ENDBRANCH  28  30
ENDBRANCH  19  28
TORSDOF 8
