REMARK  Name = 129736772
REMARK  4 active torsions:
REMARK  status: ('A' for Active; 'I' for Inactive)
REMARK    1  A    between atoms: C_10  and  C_24
REMARK    2  A    between atoms: C_19  and  O_33
REMARK    3  A    between atoms: C_23  and  O_35
REMARK    4  A    between atoms: C_29  and  N_30
REMARK                            x       y       z     vdW  Elec       q    Type
REMARK                         _______ _______ _______ _____ _____    ______ ____
ROOT
ATOM      1  O   UNL     1       0.030   0.699   1.367  0.00  0.00    -0.440 OA
ATOM      2  O   UNL     1      -2.816  -1.679  -0.324  0.00  0.00    -0.454 OA
ATOM      3  O   UNL     1       1.708   2.197   1.915  0.00  0.00    -0.245 OA
ATOM      4  C   UNL     1      -0.684   0.256   0.170  0.00  0.00    +0.198 C 
ATOM      5  C   UNL     1      -0.435  -1.229  -0.007  0.00  0.00    +0.056 C 
ATOM      6  C   UNL     1      -0.035   1.085  -0.891  0.00  0.00    +0.028 C 
ATOM      7  C   UNL     1      -2.155   0.574   0.351  0.00  0.00    +0.056 C 
ATOM      8  C   UNL     1       0.932   1.896  -0.325  0.00  0.00    +0.076 C 
ATOM      9  C   UNL     1      -1.507  -2.093  -0.258  0.00  0.00    +0.148 C 
ATOM     10  C   UNL     1       0.861  -1.772   0.044  0.00  0.00    +0.006 C 
ATOM     11  C   UNL     1      -3.120  -0.401   0.078  0.00  0.00    +0.148 C 
ATOM     12  C   UNL     1       0.978   1.656   1.109  0.00  0.00    +0.342 C 
ATOM     13  C   UNL     1      -0.271   1.131  -2.256  0.00  0.00    -0.000 C 
ATOM     14  C   UNL     1      -2.590   1.847   0.761  0.00  0.00    +0.006 C 
ATOM     15  C   UNL     1      -1.292  -3.459  -0.464  0.00  0.00    +0.074 C 
ATOM     16  C   UNL     1       1.075  -3.137  -0.154  0.00  0.00    +0.037 C 
ATOM     17  C   UNL     1       1.699   2.775  -1.068  0.00  0.00    +0.006 C 
ATOM     18  C   UNL     1      -4.484  -0.113   0.201  0.00  0.00    +0.074 C 
ATOM     19  C   UNL     1      -0.002  -3.981  -0.411  0.00  0.00    +0.137 C 
ATOM     20  C   UNL     1       0.489   2.010  -3.033  0.00  0.00    -0.000 C 
ATOM     21  C   UNL     1      -3.951   2.132   0.891  0.00  0.00    +0.037 C 
ATOM     22  C   UNL     1       1.467   2.827  -2.442  0.00  0.00    +0.000 C 
ATOM     23  C   UNL     1      -4.897   1.153   0.609  0.00  0.00    +0.137 C 
ENDROOT
BRANCH  10  24
ATOM     24  C   UNL     1       2.073  -1.012   0.281  0.00  0.00    +0.000 C 
ATOM     25  C   UNL     1       2.769  -0.456  -0.793  0.00  0.00    +0.001 C 
ATOM     26  C   UNL     1       2.544  -0.836   1.582  0.00  0.00    +0.001 C 
ATOM     27  C   UNL     1       3.934   0.275  -0.566  0.00  0.00    +0.014 C 
ATOM     28  C   UNL     1       3.709  -0.105   1.810  0.00  0.00    +0.014 C 
ATOM     29  C   UNL     1       4.405   0.451   0.736  0.00  0.00    +0.042 C 
BRANCH  29  30
ATOM     30  N   UNL     1       5.583   1.190   0.966  0.00  0.00    -0.357 N 
ATOM     31  H   UNL     1       6.074   1.582   0.208  0.00  0.00    +0.142 HD
ATOM     32  H   UNL     1       5.915   1.314   1.885  0.00  0.00    +0.142 HD
ENDBRANCH  29  30
ENDBRANCH  10  24
BRANCH  19  33
ATOM     33  O   UNL     1       0.205  -5.311  -0.608  0.00  0.00    -0.505 OA
ATOM     34  H   UNL     1      -0.521  -5.877  -0.781  0.00  0.00    +0.292 HD
ENDBRANCH  19  33
BRANCH  23  35
ATOM     35  O   UNL     1      -6.224   1.431   0.731  0.00  0.00    -0.505 OA
ATOM     36  H   UNL     1      -6.860   0.770   0.540  0.00  0.00    +0.292 HD
ENDBRANCH  23  35
TORSDOF 4
