REMARK  Name = 129769
REMARK  2 active torsions:
REMARK  status: ('A' for Active; 'I' for Inactive)
REMARK    1  A    between atoms: C_10  and  O_18
REMARK    2  A    between atoms: O_18  and  S_19
REMARK                            x       y       z     vdW  Elec       q    Type
REMARK                         _______ _______ _______ _____ _____    ______ ____
ROOT
ATOM      1  N   UNL     1      -2.634   1.397   0.099  0.00  0.00    -0.262 N 
ATOM      2  N   UNL     1      -2.960  -0.763  -0.303  0.00  0.00    -0.376 NA
ATOM      3  N   UNL     1       1.823  -1.774   0.383  0.00  0.00    -0.241 NA
ATOM      4  N   UNL     1      -4.836   0.737  -0.395  0.00  0.00    -0.321 N 
ATOM      5  C   UNL     1      -1.402   0.810   0.223  0.00  0.00    +0.154 C 
ATOM      6  C   UNL     1      -1.627  -0.538  -0.032  0.00  0.00    +0.136 C 
ATOM      7  C   UNL     1      -0.528  -1.431   0.021  0.00  0.00    +0.048 C 
ATOM      8  C   UNL     1       0.764  -0.946   0.327  0.00  0.00    +0.120 C 
ATOM      9  C   UNL     1      -0.145   1.327   0.528  0.00  0.00    +0.042 C 
ATOM     10  C   UNL     1       0.921   0.417   0.572  0.00  0.00    +0.191 C 
ATOM     11  C   UNL     1      -3.532   0.416  -0.216  0.00  0.00    +0.235 C 
ATOM     12  C   UNL     1      -0.702  -2.802  -0.228  0.00  0.00    +0.005 C 
ATOM     13  C   UNL     1      -2.917   2.805   0.275  0.00  0.00    +0.117 C 
ATOM     14  C   UNL     1       0.393  -3.650  -0.169  0.00  0.00    +0.021 C 
ATOM     15  C   UNL     1       1.620  -3.091   0.137  0.00  0.00    +0.099 C 
ATOM     16  H   UNL     1      -5.131   1.671  -0.298  0.00  0.00    +0.146 HD
ATOM     17  H   UNL     1      -5.488   0.035  -0.621  0.00  0.00    +0.146 HD
ENDROOT
BRANCH  10  18
ATOM     18  O   UNL     1       2.163   0.910   0.872  0.00  0.00    -0.321 OA
BRANCH  18  19
ATOM     19  S   UNL     1       3.127   1.419  -0.354  0.00  0.00    +0.282 S 
ATOM     20  O   UNL     1       4.536   1.793   0.381  0.00  0.00    -0.012 OA
ATOM     21  O   UNL     1       3.374   0.309  -1.256  0.00  0.00    -0.105 OA
ATOM     22  O   UNL     1       2.563   2.655  -0.865  0.00  0.00    -0.105 OA
ENDBRANCH  18  19
ENDBRANCH  10  18
TORSDOF 2
