REMARK  Name = 129734091
REMARK  6 active torsions:
REMARK  status: ('A' for Active; 'I' for Inactive)
REMARK    1  A    between atoms: C_2  and  C_8
REMARK    2  A    between atoms: C_2  and  O_13
REMARK    3  A    between atoms: C_3  and  O_15
REMARK    4  A    between atoms: C_4  and  C_11
REMARK    5  A    between atoms: C_4  and  O_17
REMARK    6  A    between atoms: C_5  and  O_19
REMARK                            x       y       z     vdW  Elec       q    Type
REMARK                         _______ _______ _______ _____ _____    ______ ____
ROOT
ATOM      1  O   UNL     1      -0.206  -1.750  -0.973  0.00  0.00    -0.325 OA
ATOM      2  C   UNL     1      -0.952   0.512  -0.428  0.00  0.00    +0.219 C 
ATOM      3  C   UNL     1       0.418   0.837   0.195  0.00  0.00    +0.180 C 
ATOM      4  C   UNL     1       1.499  -0.100  -0.372  0.00  0.00    +0.194 C 
ATOM      5  C   UNL     1      -1.273  -0.989  -0.390  0.00  0.00    +0.270 C 
ATOM      6  C   UNL     1       1.058  -1.565  -0.333  0.00  0.00    +0.181 C 
ENDROOT
BRANCH   2   8
ATOM      7  O   UNL     1      -1.842   2.147   1.071  0.00  0.00    -0.293 OA
ATOM      8  C   UNL     1      -2.058   1.327   0.179  0.00  0.00    +0.182 C 
ATOM      9  C   UNL     1      -3.445   1.091  -0.357  0.00  0.00    +0.075 C 
ENDBRANCH   2   8
BRANCH   4  11
ATOM     10  O   UNL     1       3.407  -0.854   0.851  0.00  0.00    -0.293 OA
ATOM     11  C   UNL     1       2.812   0.089   0.330  0.00  0.00    +0.180 C 
ATOM     12  C   UNL     1       3.365   1.488   0.366  0.00  0.00    +0.075 C 
ENDBRANCH   4  11
BRANCH   2  13
ATOM     13  O   UNL     1      -0.967   0.919  -1.800  0.00  0.00    -0.374 OA
ATOM     14  H   UNL     1      -0.276   0.441  -2.286  0.00  0.00    +0.211 HD
ENDBRANCH   2  13
BRANCH   3  15
ATOM     15  O   UNL     1       0.331   0.718   1.617  0.00  0.00    -0.379 OA
ATOM     16  H   UNL     1      -0.355   1.316   1.950  0.00  0.00    +0.211 HD
ENDBRANCH   3  15
BRANCH   4  17
ATOM     17  O   UNL     1       1.779   0.276  -1.720  0.00  0.00    -0.375 OA
ATOM     18  H   UNL     1       0.975   0.184  -2.255  0.00  0.00    +0.211 HD
ENDBRANCH   4  17
BRANCH   5  19
ATOM     19  O   UNL     1      -1.607  -1.460   0.913  0.00  0.00    -0.326 OA
ATOM     20  C   UNL     1      -2.321  -2.685   0.850  0.00  0.00    +0.177 C 
ENDBRANCH   5  19
TORSDOF 6
