REMARK  Name = 1297
REMARK  7 active torsions:
REMARK  status: ('A' for Active; 'I' for Inactive)
REMARK    1  A    between atoms: C_1  and  CA_13
REMARK    2  A    between atoms: C_4  and  O_7
REMARK    3  A    between atoms: C_5  and  C_10
REMARK    4  A    between atoms: C_10  and  O_11
REMARK    5  A    between atoms: CA_13  and  N_14
REMARK    6  A    between atoms: CA_13  and  C_19
REMARK    7  A    between atoms: C_19  and  O_20
REMARK                            x       y       z     vdW  Elec       q    Type
REMARK                         _______ _______ _______ _____ _____    ______ ____
ROOT
ATOM      1  C   UNL     1       0.929  -0.353   0.441  0.00  0.00    -0.029 C 
ATOM      2  C   UNL     1       0.342   0.877   0.144  0.00  0.00    +0.031 C 
ATOM      3  C   UNL     1       0.137  -1.496   0.552  0.00  0.00    -0.005 C 
ATOM      4  C   UNL     1      -1.038   0.964  -0.043  0.00  0.00    +0.139 C 
ATOM      5  C   UNL     1      -1.830  -0.179   0.067  0.00  0.00    +0.109 C 
ATOM      6  C   UNL     1      -1.243  -1.408   0.365  0.00  0.00    +0.009 C 
ENDROOT
BRANCH   4   7
ATOM      7  O   UNL     1      -1.593   2.175  -0.334  0.00  0.00    -0.505 OA
ATOM      8  H   UNL     1      -1.050   2.934  -0.405  0.00  0.00    +0.292 HD
ENDBRANCH   4   7
BRANCH   5  10
ATOM      9  O   UNL     1      -3.980   0.870   0.122  0.00  0.00    -0.245 OA
ATOM     10  C   UNL     1      -3.272  -0.110  -0.127  0.00  0.00    +0.341 C 
BRANCH  10  11
ATOM     11  O   UNL     1      -3.784  -1.268  -0.625  0.00  0.00    -0.477 OA
ATOM     12  H   UNL     1      -3.217  -1.993  -0.802  0.00  0.00    +0.295 HD
ENDBRANCH  10  11
ENDBRANCH   5  10
BRANCH   1  13
ATOM     13  CA  UNL     1       2.404  -0.446   0.643  0.00  0.00    +0.059 C 
BRANCH  13  14
ATOM     14  N   UNL     1       2.883   0.373   1.770  0.00  0.00    +0.391 N 
ATOM     15  H1  UNL     1       2.368   0.124   2.614  0.00  0.00    -0.088 HD
ATOM     16  H2  UNL     1       2.735   1.360   1.560  0.00  0.00    -0.088 HD
ATOM     17  H3  UNL     1       3.878   0.202   1.915  0.00  0.00    -0.088 HD
ENDBRANCH  13  14
BRANCH  13  19
ATOM     18  OXT UNL     1       3.966   0.875  -0.644  0.00  0.00    -0.252 OA
ATOM     19  C   UNL     1       3.180  -0.067  -0.615  0.00  0.00    +0.297 C 
BRANCH  19  20
ATOM     20  O   UNL     1       2.898  -0.807  -1.714  0.00  0.00    -0.481 OA
ATOM     21  H   UNL     1       2.293  -1.520  -1.656  0.00  0.00    +0.295 HD
ENDBRANCH  19  20
ENDBRANCH  13  19
ENDBRANCH   1  13
TORSDOF 7
