129795
  -OEChem-03292013323D

 32 31  0     1  0  0  0  0  0999 V2000
   -1.5867    0.3284    1.7085 O   0  0  0  0  0  0  0  0  0  0  0  0
    2.6362    2.7701    0.3763 O   0  0  0  0  0  0  0  0  0  0  0  0
    1.2252    2.6149   -1.3944 O   0  0  0  0  0  0  0  0  0  0  0  0
    3.6997   -2.5978   -1.2445 O   0  0  0  0  0  0  0  0  0  0  0  0
    3.4999   -2.3921    1.0062 O   0  0  0  0  0  0  0  0  0  0  0  0
   -0.3057    0.7701   -0.1773 N   0  0  0  0  0  0  0  0  0  0  0  0
   -6.1648   -1.2099   -0.1115 N   0  0  0  0  0  0  0  0  0  0  0  0
    0.9122    1.1306    0.5110 C   0  0  1  0  0  0  0  0  0  0  0  0
    1.8151   -0.0774    0.7891 C   0  0  0  0  0  0  0  0  0  0  0  0
   -2.5781    0.0431   -0.4830 C   0  0  0  0  0  0  0  0  0  0  0  0
    2.3408   -0.8174   -0.4476 C   0  0  0  0  0  0  0  0  0  0  0  0
   -3.8800   -0.3774    0.1986 C   0  0  0  0  0  0  0  0  0  0  0  0
   -1.4638    0.3958    0.4885 C   0  0  0  0  0  0  0  0  0  0  0  0
    1.5855    2.2252   -0.2912 C   0  0  0  0  0  0  0  0  0  0  0  0
   -4.9515   -0.7983   -0.8089 C   0  0  0  0  0  0  0  0  0  0  0  0
    3.2161   -2.0079   -0.1198 C   0  0  0  0  0  0  0  0  0  0  0  0
    0.6219    1.5785    1.4700 H   0  0  0  0  0  0  0  0  0  0  0  0
    1.2668   -0.7931    1.4161 H   0  0  0  0  0  0  0  0  0  0  0  0
    2.6752    0.2496    1.3879 H   0  0  0  0  0  0  0  0  0  0  0  0
   -0.3001    0.7670   -1.1938 H   0  0  0  0  0  0  0  0  0  0  0  0
   -2.7617    0.9144   -1.1231 H   0  0  0  0  0  0  0  0  0  0  0  0
   -2.2181   -0.7713   -1.1238 H   0  0  0  0  0  0  0  0  0  0  0  0
    2.9340   -0.1299   -1.0606 H   0  0  0  0  0  0  0  0  0  0  0  0
    1.4980   -1.1832   -1.0443 H   0  0  0  0  0  0  0  0  0  0  0  0
   -4.2496    0.4528    0.8144 H   0  0  0  0  0  0  0  0  0  0  0  0
   -3.6762   -1.2085    0.8866 H   0  0  0  0  0  0  0  0  0  0  0  0
   -5.1824    0.0329   -1.4840 H   0  0  0  0  0  0  0  0  0  0  0  0
   -4.5884   -1.6333   -1.4174 H   0  0  0  0  0  0  0  0  0  0  0  0
   -6.8861   -1.4374   -0.7946 H   0  0  0  0  0  0  0  0  0  0  0  0
   -6.5265   -0.4306    0.4370 H   0  0  0  0  0  0  0  0  0  0  0  0
    3.0615    3.4897   -0.1370 H   0  0  0  0  0  0  0  0  0  0  0  0
    4.2821   -3.3592   -1.0360 H   0  0  0  0  0  0  0  0  0  0  0  0
  1 13  2  0  0  0  0
  2 14  1  0  0  0  0
  2 31  1  0  0  0  0
  3 14  2  0  0  0  0
  4 16  1  0  0  0  0
  4 32  1  0  0  0  0
  5 16  2  0  0  0  0
  6  8  1  0  0  0  0
  6 13  1  0  0  0  0
  6 20  1  0  0  0  0
  7 15  1  0  0  0  0
  7 29  1  0  0  0  0
  7 30  1  0  0  0  0
  8  9  1  0  0  0  0
  8 14  1  0  0  0  0
  8 17  1  0  0  0  0
  9 11  1  0  0  0  0
  9 18  1  0  0  0  0
  9 19  1  0  0  0  0
 10 12  1  0  0  0  0
 10 13  1  0  0  0  0
 10 21  1  0  0  0  0
 10 22  1  0  0  0  0
 11 16  1  0  0  0  0
 11 23  1  0  0  0  0
 11 24  1  0  0  0  0
 12 15  1  0  0  0  0
 12 25  1  0  0  0  0
 12 26  1  0  0  0  0
 15 27  1  0  0  0  0
 15 28  1  0  0  0  0
M  END
> <PUBCHEM_COMPOUND_CID>
129795

> <PUBCHEM_CONFORMER_RMSD>
0.8

> <PUBCHEM_CONFORMER_DIVERSEORDER>
1
127
105
130
135
152
139
142
155
131
53
97
29
120
166
164
124
49
126
108
28
141
110
60
115
94
162
75
167
89
44
79
169
32
107
154
40
45
85
43
148
48
77
23
117
46
9
106
136
73
140
20
51
98
122
156
165
96
2
104
82
163
7
133
35
72
33
87
118
41
6
12
81
3
129
83
151
144
78
69
138
21
66
132
62
160
68
59
168
158
37
146
114
5
137
88
71
93
123
52
128
25
70
86
34
80
119
145
116
16
39
31
15
153
74
36
109
64
17
90
121
11
27
92
57
65
125
54
67
161
47
58
63
76
149
99
91
42
10
84
50
19
143
150
55
26
22
8
113
147
102
112
134
18
159
38
111
56
13
157
14
103
101
61
95
24
4
30
100

> <PUBCHEM_MMFF94_PARTIAL_CHARGES>
19
1 -0.57
10 0.06
11 0.06
13 0.57
14 0.66
15 0.27
16 0.66
2 -0.65
20 0.37
29 0.36
3 -0.57
30 0.36
31 0.5
32 0.5
4 -0.65
5 -0.57
6 -0.73
7 -0.99
8 0.36

> <PUBCHEM_EFFECTIVE_ROTOR_COUNT>
9

> <PUBCHEM_PHARMACOPHORE_FEATURES>
10
1 1 acceptor
1 2 acceptor
1 3 acceptor
1 4 acceptor
1 5 acceptor
1 6 donor
1 7 cation
1 7 donor
3 2 3 14 anion
3 4 5 16 anion

> <PUBCHEM_HEAVY_ATOM_COUNT>
16

> <PUBCHEM_ATOM_DEF_STEREO_COUNT>
1

> <PUBCHEM_ATOM_UDEF_STEREO_COUNT>
0

> <PUBCHEM_BOND_DEF_STEREO_COUNT>
0

> <PUBCHEM_BOND_UDEF_STEREO_COUNT>
0

> <PUBCHEM_ISOTOPIC_ATOM_COUNT>
0

> <PUBCHEM_COMPONENT_COUNT>
1

> <PUBCHEM_CACTVS_TAUTO_COUNT>
2

> <PUBCHEM_CONFORMER_ID>
0001FB0300000001

> <PUBCHEM_MMFF94_ENERGY>
13.4575

> <PUBCHEM_FEATURE_SELFOVERLAP>
50.865

> <PUBCHEM_SHAPE_FINGERPRINT>
13533116 47 18271806874085555971
13955234 65 18268709583562108689
14178000 29 18341899528505527014
15342816 4 18265900159802667454
15477762 27 18410572890071947232
17539 30 17829607267121354620
18186145 218 17748820826717456809
193927 3 18342463616899932531
19784866 240 18201163169969307719
20369508 70 18187355519647641755
20388580 30 18411984641416548326
20645477 70 18336260232430518859
20671657 53 18335135345740150379
20871998 22 18337101272842032144
20871999 31 17969227732881846030
21054139 6 17767955798820232583
23557571 272 17530952618895447253
23598291 2 18341345396125330017
312423 11 18341062865061340329
4463277 69 18271801294131624399
5207 123 18270116804016730199
5281201 14 18186795894716137533
6025842 7 18338514273921603773
633830 44 17895183433914149975
7164475 11 18413670201991844273
7364860 26 18340768238546706992
81228 2 17686631138969493608

> <PUBCHEM_SHAPE_MULTIPOLES>
289.96
9.52
2.9
1.13
15.3
0.5
-0.07
-7.41
1.38
-4.86
0.66
-0.26
0.01
-0.13

> <PUBCHEM_SHAPE_SELFOVERLAP>
555.604

> <PUBCHEM_SHAPE_VOLUME>
175.6

> <PUBCHEM_COORDINATE_TYPE>
2
5
10

$$$$
