REMARK  Name = 129720491
REMARK  13 active torsions:
REMARK  status: ('A' for Active; 'I' for Inactive)
REMARK    1  A    between atoms: C_2  and  C_4
REMARK    2  A    between atoms: C_2  and  C_17
REMARK    3  A    between atoms: C_4  and  C_5
REMARK    4  A    between atoms: C_6  and  C_7
REMARK    5  A    between atoms: C_10  and  O_13
REMARK    6  A    between atoms: C_11  and  O_15
REMARK    7  A    between atoms: C_17  and  O_18
REMARK    8  A    between atoms: C_17  and  C_20
REMARK    9  A    between atoms: C_20  and  O_21
REMARK   10  A    between atoms: C_20  and  C_23
REMARK   11  A    between atoms: C_23  and  O_24
REMARK   12  A    between atoms: C_23  and  C_26
REMARK   13  A    between atoms: C_26  and  O_27
REMARK                            x       y       z     vdW  Elec       q    Type
REMARK                         _______ _______ _______ _____ _____    ______ ____
ROOT
ATOM      1  O   UNL     1      -2.571  -2.805   1.484  0.00  0.00    -0.285 OA
ATOM      2  C   UNL     1      -2.150  -1.852   0.844  0.00  0.00    +0.241 C 
ENDROOT
BRANCH   2   4
ATOM      3  O   UNL     1      -1.210  -2.893  -1.036  0.00  0.00    -0.283 OA
ATOM      4  C   UNL     1      -1.027  -2.100  -0.127  0.00  0.00    +0.233 C 
BRANCH   4   5
ATOM      5  C   UNL     1       0.228  -1.353   0.123  0.00  0.00    +0.045 C 
ATOM      6  C   UNL     1       1.274  -1.522  -0.698  0.00  0.00    +0.003 C 
BRANCH   6   7
ATOM      7  C   UNL     1       2.569  -0.837  -0.551  0.00  0.00    +0.003 C 
ATOM      8  C   UNL     1       2.658   0.333   0.204  0.00  0.00    +0.040 C 
ATOM      9  C   UNL     1       3.708  -1.357  -1.166  0.00  0.00    +0.003 C 
ATOM     10  C   UNL     1       3.884   0.982   0.344  0.00  0.00    +0.172 C 
ATOM     11  C   UNL     1       5.023   0.462  -0.272  0.00  0.00    +0.168 C 
ATOM     12  C   UNL     1       4.935  -0.708  -1.026  0.00  0.00    +0.040 C 
BRANCH  10  13
ATOM     13  O   UNL     1       3.958   2.124   1.083  0.00  0.00    -0.468 OA
ATOM     14  C   UNL     1       2.748   2.589   1.679  0.00  0.00    +0.253 C 
ENDBRANCH  10  13
BRANCH  11  15
ATOM     15  O   UNL     1       6.227   1.086  -0.143  0.00  0.00    -0.503 OA
ATOM     16  H   UNL     1       6.295   1.872   0.362  0.00  0.00    +0.292 HD
ENDBRANCH  11  15
ENDBRANCH   6   7
ENDBRANCH   4   5
ENDBRANCH   2   4
BRANCH   2  17
ATOM     17  C   UNL     1      -2.645  -0.423   0.979  0.00  0.00    +0.205 C 
BRANCH  17  18
ATOM     18  O   UNL     1      -3.620  -0.431   2.021  0.00  0.00    -0.375 OA
ATOM     19  H   UNL     1      -3.968   0.465   2.145  0.00  0.00    +0.211 HD
ENDBRANCH  17  18
BRANCH  17  20
ATOM     20  C   UNL     1      -3.325   0.122  -0.286  0.00  0.00    +0.174 C 
BRANCH  20  21
ATOM     21  O   UNL     1      -4.398  -0.741  -0.667  0.00  0.00    -0.379 OA
ATOM     22  H   UNL     1      -4.825  -0.393  -1.466  0.00  0.00    +0.211 HD
ENDBRANCH  20  21
BRANCH  20  23
ATOM     23  C   UNL     1      -3.869   1.552  -0.169  0.00  0.00    +0.169 C 
BRANCH  23  24
ATOM     24  O   UNL     1      -2.789   2.439   0.113  0.00  0.00    -0.379 OA
ATOM     25  H   UNL     1      -2.347   2.161   0.931  0.00  0.00    +0.211 HD
ENDBRANCH  23  24
BRANCH  23  26
ATOM     26  C   UNL     1      -4.549   2.009  -1.461  0.00  0.00    +0.169 C 
BRANCH  26  27
ATOM     27  O   UNL     1      -5.058   3.326  -1.270  0.00  0.00    -0.379 OA
ATOM     28  H   UNL     1      -5.492   3.625  -2.084  0.00  0.00    +0.211 HD
ENDBRANCH  26  27
ENDBRANCH  23  26
ENDBRANCH  20  23
ENDBRANCH  17  20
ENDBRANCH   2  17
TORSDOF 13
