REMARK  Name = 129707
REMARK  5 active torsions:
REMARK  status: ('A' for Active; 'I' for Inactive)
REMARK    1  A    between atoms: N_1  and  C_5
REMARK    2  A    between atoms: N_1  and  N_16
REMARK    3  A    between atoms: N_1  and  C_20
REMARK    4  A    between atoms: C_4  and  C_12
REMARK    5  A    between atoms: C_20  and  N_21
REMARK                            x       y       z     vdW  Elec       q    Type
REMARK                         _______ _______ _______ _____ _____    ______ ____
ROOT
ATOM      1  N   UNL     1       1.683   0.195   0.432  0.00  0.00    -0.215 N 
ENDROOT
BRANCH   1   5
ATOM      2  S   UNL     1      -3.234  -1.558   0.120  0.00  0.00    -0.076 S 
ATOM      3  N   UNL     1      -3.818   0.936  -0.182  0.00  0.00    -0.403 NA
ATOM      4  C   UNL     1      -4.334  -0.269  -0.115  0.00  0.00    +0.134 C 
ATOM      5  C   UNL     1       0.271   0.433   0.270  0.00  0.00    +0.062 C 
ATOM      6  C   UNL     1      -1.931  -0.429   0.138  0.00  0.00    +0.129 C 
ATOM      7  C   UNL     1      -2.440   0.861  -0.039  0.00  0.00    +0.123 C 
ATOM      8  C   UNL     1      -0.170   1.717   0.099  0.00  0.00    -0.005 C 
ATOM      9  C   UNL     1      -0.556  -0.668   0.297  0.00  0.00    +0.008 C 
ATOM     10  C   UNL     1      -1.540   1.948  -0.058  0.00  0.00    +0.026 C 
ATOM     11  C   UNL     1       0.757   2.891   0.075  0.00  0.00    +0.032 C 
BRANCH   4  12
ATOM     12  C   UNL     1      -5.778  -0.567  -0.229  0.00  0.00    +0.052 C 
ATOM     13  C   UNL     1      -6.636   0.730  -0.440  0.00  0.00    +0.008 C 
ATOM     14  C   UNL     1      -6.339  -1.280   1.051  0.00  0.00    +0.008 C 
ATOM     15  C   UNL     1      -6.186  -1.510  -1.419  0.00  0.00    +0.008 C 
ENDBRANCH   4  12
ENDBRANCH   1   5
BRANCH   1  16
ATOM     16  N   UNL     1       2.200   0.357   1.742  0.00  0.00    -0.222 NA
ATOM     17  C   UNL     1       1.567  -0.558   2.689  0.00  0.00    +0.107 C 
ATOM     18  H   UNL     1       2.033   1.316   2.046  0.00  0.00    +0.146 HD
ENDBRANCH   1  16
BRANCH   1  20
ATOM     19  S   UNL     1       2.233  -0.047  -2.257  0.00  0.00    -0.017 S 
ATOM     20  C   UNL     1       2.595  -0.052  -0.610  0.00  0.00    +0.155 C 
BRANCH  20  21
ATOM     21  N   UNL     1       3.883  -0.251  -0.238  0.00  0.00    -0.294 N 
ATOM     22  N   UNL     1       6.685  -0.785  -0.204  0.00  0.00    +0.386 N 
ATOM     23  C   UNL     1       4.827   0.853  -0.126  0.00  0.00    +0.069 C 
ATOM     24  C   UNL     1       4.364  -1.559   0.188  0.00  0.00    +0.069 C 
ATOM     25  C   UNL     1       6.173   0.481  -0.744  0.00  0.00    -0.060 C 
ATOM     26  C   UNL     1       5.722  -1.868  -0.438  0.00  0.00    -0.060 C 
ATOM     27  H   UNL     1       6.839  -0.684   0.799  0.00  0.00    -0.084 HD
ATOM     28  H   UNL     1       7.562  -1.014  -0.672  0.00  0.00    -0.084 HD
ENDBRANCH  20  21
ENDBRANCH   1  20
TORSDOF 5
