REMARK  Name = 129786
REMARK  2 active torsions:
REMARK  status: ('A' for Active; 'I' for Inactive)
REMARK    1  A    between atoms: C_6  and  C_20
REMARK    2  A    between atoms: C_20  and  N_21
REMARK                            x       y       z     vdW  Elec       q    Type
REMARK                         _______ _______ _______ _____ _____    ______ ____
ROOT
ATOM      1  O   UNL     1       0.381   1.356   1.723  0.00  0.00    -0.276 OA
ATOM      2  O   UNL     1      -2.460  -1.335  -3.047  0.00  0.00    -0.270 OA
ATOM      3  N   UNL     1      -1.263   0.146   0.561  0.00  0.00    -0.223 N 
ATOM      4  N   UNL     1      -2.904   0.584  -1.899  0.00  0.00    -0.278 N 
ATOM      5  N   UNL     1      -2.053   2.268   1.300  0.00  0.00    -0.227 NA
ATOM      6  C   UNL     1      -0.017   0.311   1.199  0.00  0.00    +0.213 C 
ATOM      7  C   UNL     1      -1.906  -1.120   0.435  0.00  0.00    +0.064 C 
ATOM      8  C   UNL     1      -2.108   1.288   0.353  0.00  0.00    +0.155 C 
ATOM      9  C   UNL     1      -2.544  -1.541  -0.732  0.00  0.00    +0.068 C 
ATOM     10  C   UNL     1      -2.881   1.454  -0.797  0.00  0.00    +0.083 C 
ATOM     11  C   UNL     1      -1.919  -1.985   1.549  0.00  0.00    +0.015 C 
ATOM     12  C   UNL     1      -2.586  -0.750  -1.971  0.00  0.00    +0.251 C 
ATOM     13  C   UNL     1      -3.146  -2.812  -0.790  0.00  0.00    +0.006 C 
ATOM     14  C   UNL     1      -3.594   2.654  -0.954  0.00  0.00    +0.019 C 
ATOM     15  C   UNL     1      -2.526  -3.241   1.491  0.00  0.00    +0.001 C 
ATOM     16  C   UNL     1      -3.136  -3.657   0.318  0.00  0.00    +0.000 C 
ATOM     17  C   UNL     1      -3.559   3.636   0.023  0.00  0.00    +0.022 C 
ATOM     18  C   UNL     1      -2.776   3.395   1.127  0.00  0.00    +0.100 C 
ATOM     19  H   UNL     1      -3.191   0.991  -2.748  0.00  0.00    +0.155 HD
ENDROOT
BRANCH   6  20
ATOM     20  C   UNL     1       0.940  -0.863   1.134  0.00  0.00    +0.011 C 
BRANCH  20  21
ATOM     21  N   UNL     1       2.280  -0.285   1.050  0.00  0.00    +0.395 N 
ATOM     22  N   UNL     1       4.826   0.165  -0.140  0.00  0.00    -0.287 N 
ATOM     23  N   UNL     1       6.307   1.423  -1.335  0.00  0.00    -0.331 N 
ATOM     24  N   UNL     1       6.524  -0.919  -1.317  0.00  0.00    -0.273 NA
ATOM     25  C   UNL     1       2.406   0.555  -0.149  0.00  0.00    -0.055 C 
ATOM     26  C   UNL     1       3.300  -1.344   1.042  0.00  0.00    -0.055 C 
ATOM     27  C   UNL     1       3.794   1.195  -0.225  0.00  0.00    +0.071 C 
ATOM     28  C   UNL     1       4.707  -0.747   0.994  0.00  0.00    +0.071 C 
ATOM     29  C   UNL     1       5.912   0.170  -0.946  0.00  0.00    +0.174 C 
ATOM     30  H   UNL     1       2.428   0.300   1.873  0.00  0.00    -0.079 HD
ATOM     31  H   UNL     1       5.810   2.214  -1.026  0.00  0.00    +0.145 HD
ATOM     32  H   UNL     1       7.089   1.533  -1.923  0.00  0.00    +0.145 HD
ATOM     33  H   UNL     1       6.198  -1.795  -1.008  0.00  0.00    +0.189 HD
ENDBRANCH  20  21
ENDBRANCH   6  20
TORSDOF 2
