REMARK  Name = 129736040
REMARK  9 active torsions:
REMARK  status: ('A' for Active; 'I' for Inactive)
REMARK    1  A    between atoms: C_3  and  C_16
REMARK    2  A    between atoms: C_6  and  C_27
REMARK    3  A    between atoms: C_7  and  O_24
REMARK    4  A    between atoms: C_13  and  O_33
REMARK    5  A    between atoms: C_13  and  C_35
REMARK    6  A    between atoms: C_17  and  O_22
REMARK    7  A    between atoms: C_27  and  C_28
REMARK    8  A    between atoms: C_29  and  C_30
REMARK    9  A    between atoms: C_36  and  C_37
REMARK                            x       y       z     vdW  Elec       q    Type
REMARK                         _______ _______ _______ _____ _____    ______ ____
ROOT
ATOM      1  O   UNL     1      -0.621   3.834  -1.043  0.00  0.00    -0.293 OA
ATOM      2  O   UNL     1       1.897   0.460  -2.061  0.00  0.00    -0.291 OA
ATOM      3  C   UNL     1      -0.491   0.553   1.227  0.00  0.00    +0.059 C 
ATOM      4  C   UNL     1       0.813   1.410   1.296  0.00  0.00    +0.064 C 
ATOM      5  C   UNL     1      -0.164   1.437  -1.156  0.00  0.00    +0.116 C 
ATOM      6  C   UNL     1      -1.016   0.510  -0.242  0.00  0.00    +0.080 C 
ATOM      7  C   UNL     1       0.478   2.876   0.893  0.00  0.00    +0.143 C 
ATOM      8  C   UNL     1      -0.148   2.836  -0.507  0.00  0.00    +0.181 C 
ATOM      9  C   UNL     1       1.809   0.843   0.305  0.00  0.00    +0.049 C 
ATOM     10  C   UNL     1       1.265   0.863  -1.093  0.00  0.00    +0.178 C 
ATOM     11  C   UNL     1      -0.664   1.483  -2.599  0.00  0.00    +0.016 C 
ATOM     12  C   UNL     1       1.693   3.803   0.910  0.00  0.00    +0.037 C 
ATOM     13  C   UNL     1       3.028   0.371   0.580  0.00  0.00    +0.132 C 
ENDROOT
BRANCH   3  16
ATOM     14  O   UNL     1       0.560  -1.575   0.857  0.00  0.00    -0.446 OA
ATOM     15  O   UNL     1       0.358  -3.471  -0.429  0.00  0.00    -0.245 OA
ATOM     16  C   UNL     1      -0.286  -0.864   1.777  0.00  0.00    +0.186 C 
ATOM     17  C   UNL     1      -1.528  -1.668   1.764  0.00  0.00    +0.149 C 
ATOM     18  C   UNL     1       0.402  -0.838   3.138  0.00  0.00    +0.052 C 
ATOM     19  C   UNL     1      -1.447  -2.725   0.956  0.00  0.00    +0.086 C 
ATOM     20  C   UNL     1      -0.099  -2.669   0.368  0.00  0.00    +0.340 C 
ATOM     21  C   UNL     1      -2.432  -3.784   0.644  0.00  0.00    +0.041 C 
BRANCH  17  22
ATOM     22  O   UNL     1      -2.616  -1.328   2.518  0.00  0.00    -0.506 OA
ATOM     23  H   UNL     1      -2.589  -0.565   3.062  0.00  0.00    +0.292 HD
ENDBRANCH  17  22
ENDBRANCH   3  16
BRANCH   7  24
ATOM     24  O   UNL     1      -0.501   3.398   1.783  0.00  0.00    -0.379 OA
ATOM     25  H   UNL     1      -1.279   2.819   1.783  0.00  0.00    +0.211 HD
ENDBRANCH   7  24
BRANCH   6  27
ATOM     26  O   UNL     1      -2.857   1.979   0.126  0.00  0.00    -0.291 OA
ATOM     27  C   UNL     1      -2.472   0.883  -0.276  0.00  0.00    +0.174 C 
BRANCH  27  28
ATOM     28  C   UNL     1      -3.413  -0.151  -0.787  0.00  0.00    +0.037 C 
ATOM     29  C   UNL     1      -4.728   0.097  -0.852  0.00  0.00    +0.003 C 
BRANCH  29  30
ATOM     30  C   UNL     1      -5.683  -0.875  -1.339  0.00  0.00    -0.004 C 
ATOM     31  C   UNL     1      -7.001  -0.638  -1.408  0.00  0.00    -0.026 C 
ATOM     32  C   UNL     1      -7.996  -1.633  -1.910  0.00  0.00    +0.031 C 
ENDBRANCH  29  30
ENDBRANCH  27  28
ENDBRANCH   6  27
BRANCH  13  33
ATOM     33  O   UNL     1       3.533   0.352   1.868  0.00  0.00    -0.506 OA
ATOM     34  H   UNL     1       3.015   0.676   2.578  0.00  0.00    +0.292 HD
ENDBRANCH  13  33
BRANCH  13  35
ATOM     35  C   UNL     1       3.913  -0.155  -0.447  0.00  0.00    +0.036 C 
ATOM     36  C   UNL     1       5.146  -0.643  -0.241  0.00  0.00    +0.003 C 
BRANCH  36  37
ATOM     37  C   UNL     1       5.978  -1.155  -1.309  0.00  0.00    -0.004 C 
ATOM     38  C   UNL     1       7.211  -1.644  -1.109  0.00  0.00    -0.026 C 
ATOM     39  C   UNL     1       8.079  -2.174  -2.203  0.00  0.00    +0.031 C 
ENDBRANCH  36  37
ENDBRANCH  13  35
TORSDOF 9
