REMARK  Name = 129720114
REMARK  10 active torsions:
REMARK  status: ('A' for Active; 'I' for Inactive)
REMARK    1  A    between atoms: C_1  and  O_2
REMARK    2  A    between atoms: C_1  and  C_5
REMARK    3  A    between atoms: C_1  and  C_17
REMARK    4  A    between atoms: C_1  and  C_20
REMARK    5  A    between atoms: C_5  and  C_6
REMARK    6  A    between atoms: C_7  and  C_8
REMARK    7  A    between atoms: C_13  and  O_14
REMARK    8  A    between atoms: C_17  and  O_18
REMARK    9  A    between atoms: C_20  and  C_22
REMARK   10  A    between atoms: C_22  and  O_23
REMARK                            x       y       z     vdW  Elec       q    Type
REMARK                         _______ _______ _______ _____ _____    ______ ____
ROOT
ATOM      1  C   UNL     1       2.424   0.562   0.067  0.00  0.00    +0.243 C 
ENDROOT
BRANCH   1   2
ATOM      2  O   UNL     1       3.464   1.508   0.338  0.00  0.00    -0.370 OA
ATOM      3  H   UNL     1       3.465   1.726   1.283  0.00  0.00    +0.211 HD
ENDBRANCH   1   2
BRANCH   1   5
ATOM      4  O   UNL     1       1.117   2.355   1.042  0.00  0.00    -0.288 OA
ATOM      5  C   UNL     1       1.119   1.254   0.491  0.00  0.00    +0.208 C 
BRANCH   5   6
ATOM      6  C   UNL     1      -0.163   0.539   0.204  0.00  0.00    +0.040 C 
ATOM      7  C   UNL     1      -1.339   1.084   0.547  0.00  0.00    +0.003 C 
BRANCH   7   8
ATOM      8  C   UNL     1      -2.650   0.460   0.300  0.00  0.00    +0.000 C 
ATOM      9  C   UNL     1      -2.736  -0.913   0.069  0.00  0.00    +0.003 C 
ATOM     10  C   UNL     1      -3.805   1.241   0.297  0.00  0.00    +0.003 C 
ATOM     11  C   UNL     1      -3.978  -1.504  -0.166  0.00  0.00    +0.037 C 
ATOM     12  C   UNL     1      -5.047   0.650   0.062  0.00  0.00    +0.037 C 
ATOM     13  C   UNL     1      -5.133  -0.723  -0.170  0.00  0.00    +0.134 C 
BRANCH  13  14
ATOM     14  O   UNL     1      -6.344  -1.299  -0.400  0.00  0.00    -0.506 OA
ATOM     15  H   UNL     1      -6.402  -2.222  -0.556  0.00  0.00    +0.292 HD
ENDBRANCH  13  14
ENDBRANCH   7   8
ENDBRANCH   5   6
ENDBRANCH   1   5
BRANCH   1  17
ATOM     16  O   UNL     1       2.985   1.065  -2.258  0.00  0.00    -0.247 OA
ATOM     17  C   UNL     1       2.513   0.292  -1.434  0.00  0.00    +0.346 C 
BRANCH  17  18
ATOM     18  O   UNL     1       1.996  -0.917  -1.780  0.00  0.00    -0.478 OA
ATOM     19  H   UNL     1       1.643  -1.482  -1.121  0.00  0.00    +0.295 HD
ENDBRANCH  17  18
ENDBRANCH   1  17
BRANCH   1  20
ATOM     20  C   UNL     1       2.698  -0.670   0.951  0.00  0.00    +0.155 C 
BRANCH  20  22
ATOM     21  O   UNL     1       4.972  -0.893   0.136  0.00  0.00    -0.250 OA
ATOM     22  C   UNL     1       3.987  -1.398   0.654  0.00  0.00    +0.317 C 
BRANCH  22  23
ATOM     23  O   UNL     1       3.921  -2.692   1.052  0.00  0.00    -0.480 OA
ATOM     24  H   UNL     1       3.137  -3.023   1.443  0.00  0.00    +0.295 HD
ENDBRANCH  22  23
ENDBRANCH  20  22
ENDBRANCH   1  20
TORSDOF 10
