129765
  -OEChem-03292013323D

 47 49  0     1  0  0  0  0  0999 V2000
    6.8608    2.0130   -1.1796 O   0  0  0  0  0  0  0  0  0  0  0  0
    2.9817    1.6644    2.0204 O   0  0  0  0  0  0  0  0  0  0  0  0
    4.9484    1.5670   -2.3172 O   0  0  0  0  0  0  0  0  0  0  0  0
    6.4700   -3.6054   -0.2561 O   0  0  0  0  0  0  0  0  0  0  0  0
    7.0426   -2.4544    1.6134 O   0  0  0  0  0  0  0  0  0  0  0  0
   -2.4172   -1.1222   -2.2947 O   0  0  0  0  0  0  0  0  0  0  0  0
    3.6210    0.9070   -0.0764 N   0  0  0  0  0  0  0  0  0  0  0  0
   -2.7202   -0.0624   -0.2503 N   0  0  0  0  0  0  0  0  0  0  0  0
   -3.5847    0.2767    0.7516 N   0  0  0  0  0  0  0  0  0  0  0  0
   -4.5327   -0.8286   -1.6181 N   0  0  0  0  0  0  0  0  0  0  0  0
   -9.0188   -0.4103    0.0293 N   0  0  0  0  0  0  0  0  0  0  0  0
    5.0334    1.1460    0.0801 C   0  0  1  0  0  0  0  0  0  0  0  0
    5.7718   -0.0492    0.6951 C   0  0  0  0  0  0  0  0  0  0  0  0
    5.7447   -1.3453   -0.1250 C   0  0  0  0  0  0  0  0  0  0  0  0
    1.2842    0.8621    0.6157 C   0  0  0  0  0  0  0  0  0  0  0  0
    2.7001    1.1909    0.9226 C   0  0  0  0  0  0  0  0  0  0  0  0
    5.5781    1.5735   -1.2672 C   0  0  0  0  0  0  0  0  0  0  0  0
   -1.3455    0.2541    0.0466 C   0  0  0  0  0  0  0  0  0  0  0  0
    0.4264    0.5750    1.6572 C   0  0  0  0  0  0  0  0  0  0  0  0
    0.8717    0.8557   -0.7007 C   0  0  0  0  0  0  0  0  0  0  0  0
   -0.9033    0.2675    1.3694 C   0  0  0  0  0  0  0  0  0  0  0  0
   -0.4580    0.5482   -0.9884 C   0  0  0  0  0  0  0  0  0  0  0  0
    6.4762   -2.4970    0.5302 C   0  0  0  0  0  0  0  0  0  0  0  0
   -4.8479    0.0860    0.5789 C   0  0  0  0  0  0  0  0  0  0  0  0
   -5.3596   -0.4817   -0.6942 C   0  0  0  0  0  0  0  0  0  0  0  0
   -3.1755   -0.6831   -1.4308 C   0  0  0  0  0  0  0  0  0  0  0  0
   -6.8222   -0.6321   -0.8563 C   0  0  0  0  0  0  0  0  0  0  0  0
   -5.8319    0.4282    1.6249 C   0  0  0  0  0  0  0  0  0  0  0  0
   -7.6597   -0.2857    0.1359 C   0  0  0  0  0  0  0  0  0  0  0  0
   -7.1339    0.2419    1.3838 C   0  0  0  0  0  0  0  0  0  0  0  0
    5.1460    2.0082    0.7498 H   0  0  0  0  0  0  0  0  0  0  0  0
    5.3483   -0.2557    1.6871 H   0  0  0  0  0  0  0  0  0  0  0  0
    6.8198    0.2288    0.8678 H   0  0  0  0  0  0  0  0  0  0  0  0
    4.7074   -1.6612   -0.2813 H   0  0  0  0  0  0  0  0  0  0  0  0
    6.2103   -1.1705   -1.1011 H   0  0  0  0  0  0  0  0  0  0  0  0
    3.3283    0.4345   -0.9253 H   0  0  0  0  0  0  0  0  0  0  0  0
    0.7571    0.5731    2.6916 H   0  0  0  0  0  0  0  0  0  0  0  0
    1.5193    1.1212   -1.5299 H   0  0  0  0  0  0  0  0  0  0  0  0
   -1.5647    0.0278    2.1979 H   0  0  0  0  0  0  0  0  0  0  0  0
   -0.7752    0.5942   -2.0255 H   0  0  0  0  0  0  0  0  0  0  0  0
   -7.1845   -1.0324   -1.7976 H   0  0  0  0  0  0  0  0  0  0  0  0
   -5.4771    0.8284    2.5671 H   0  0  0  0  0  0  0  0  0  0  0  0
   -7.8484    0.4996    2.1614 H   0  0  0  0  0  0  0  0  0  0  0  0
    7.2072    2.3049   -2.0496 H   0  0  0  0  0  0  0  0  0  0  0  0
    6.9585   -4.3490    0.1569 H   0  0  0  0  0  0  0  0  0  0  0  0
   -9.4265   -0.7742   -0.8232 H   0  0  0  0  0  0  0  0  0  0  0  0
   -9.6181   -0.1388    0.7987 H   0  0  0  0  0  0  0  0  0  0  0  0
  1 17  1  0  0  0  0
  1 44  1  0  0  0  0
  2 16  2  0  0  0  0
  3 17  2  0  0  0  0
  4 23  1  0  0  0  0
  4 45  1  0  0  0  0
  5 23  2  0  0  0  0
  6 26  2  0  0  0  0
  7 12  1  0  0  0  0
  7 16  1  0  0  0  0
  7 36  1  0  0  0  0
  8  9  1  0  0  0  0
  8 18  1  0  0  0  0
  8 26  1  0  0  0  0
  9 24  2  0  0  0  0
 10 25  2  0  0  0  0
 10 26  1  0  0  0  0
 11 29  1  0  0  0  0
 11 46  1  0  0  0  0
 11 47  1  0  0  0  0
 12 13  1  0  0  0  0
 12 17  1  0  0  0  0
 12 31  1  0  0  0  0
 13 14  1  0  0  0  0
 13 32  1  0  0  0  0
 13 33  1  0  0  0  0
 14 23  1  0  0  0  0
 14 34  1  0  0  0  0
 14 35  1  0  0  0  0
 15 16  1  0  0  0  0
 15 19  2  0  0  0  0
 15 20  1  0  0  0  0
 18 21  2  0  0  0  0
 18 22  1  0  0  0  0
 19 21  1  0  0  0  0
 19 37  1  0  0  0  0
 20 22  2  0  0  0  0
 20 38  1  0  0  0  0
 21 39  1  0  0  0  0
 22 40  1  0  0  0  0
 24 25  1  0  0  0  0
 24 28  1  0  0  0  0
 25 27  1  0  0  0  0
 27 29  2  0  0  0  0
 27 41  1  0  0  0  0
 28 30  2  0  0  0  0
 28 42  1  0  0  0  0
 29 30  1  0  0  0  0
 30 43  1  0  0  0  0
M  END
> <PUBCHEM_COMPOUND_CID>
129765

> <PUBCHEM_CONFORMER_RMSD>
1

> <PUBCHEM_CONFORMER_DIVERSEORDER>
1
39
21
7
3
6
30
11
13
31
10
5
25
14
33
35
16
26
19
29
2
23
4
28
17
38
8
32
27
24
22
18
12
9
34
36
15
37
20

> <PUBCHEM_MMFF94_PARTIAL_CHARGES>
41
1 -0.65
10 -0.66
11 -0.9
12 0.36
14 0.06
15 0.09
16 0.54
17 0.66
18 0.12
19 -0.15
2 -0.57
20 -0.15
21 -0.15
22 -0.15
23 0.66
24 0.44
25 0.44
26 0.84
27 -0.14
28 -0.14
29 0.1
3 -0.57
30 -0.15
36 0.37
37 0.15
38 0.15
39 0.15
4 -0.65
40 0.15
41 0.15
42 0.15
43 0.15
44 0.5
45 0.5
46 0.4
47 0.4
5 -0.57
6 -0.57
7 -0.73
8 -0.11
9 -0.51

> <PUBCHEM_EFFECTIVE_ROTOR_COUNT>
8

> <PUBCHEM_PHARMACOPHORE_FEATURES>
17
1 1 acceptor
1 10 acceptor
1 10 donor
1 11 cation
1 11 donor
1 2 acceptor
1 3 acceptor
1 4 acceptor
1 5 acceptor
1 6 acceptor
1 7 donor
1 9 acceptor
3 1 3 17 anion
3 4 5 23 anion
6 15 18 19 20 21 22 rings
6 24 25 27 28 29 30 rings
6 8 9 10 24 25 26 rings

> <PUBCHEM_HEAVY_ATOM_COUNT>
30

> <PUBCHEM_ATOM_DEF_STEREO_COUNT>
1

> <PUBCHEM_ATOM_UDEF_STEREO_COUNT>
0

> <PUBCHEM_BOND_DEF_STEREO_COUNT>
0

> <PUBCHEM_BOND_UDEF_STEREO_COUNT>
0

> <PUBCHEM_ISOTOPIC_ATOM_COUNT>
0

> <PUBCHEM_COMPONENT_COUNT>
1

> <PUBCHEM_CACTVS_TAUTO_COUNT>
8

> <PUBCHEM_CONFORMER_ID>
0001FAE500000001

> <PUBCHEM_MMFF94_ENERGY>
86.6977

> <PUBCHEM_FEATURE_SELFOVERLAP>
86.499

> <PUBCHEM_SHAPE_FINGERPRINT>
10 15 15051724301135255362
10299344 5 18272090508544365702
10319926 262 16558743551052667095
11719270 70 15339127844121243901
11796584 16 17346035692457694502
12047536 79 13613963228707177090
12144603 126 17989486347231817360
12838862 33 16200145457990485105
13533116 47 18410856556231136856
14118638 360 18261116258146833260
14251764 18 17918275359692931999
1454969 45 12757151268831534923
15119646 104 18272652320806590462
15183329 4 17704078408047458865
15276724 80 18410575110597504781
15352257 5 18259706722082392531
15510794 2 17312823796541321314
20105231 36 16588029000762307587
20567600 234 9007059063045818834
21267235 1 14418136232468394441
21344244 181 17967251983955423082
21792934 111 13901912176603994394
23081809 10 18342462538504211384
23522609 53 18128280993355296520
23569943 247 18266172846865295731
3044373 193 17240209850284494086
335352 9 16558757848893651213
34797466 226 17095522924583414884
4093350 32 17968095352407599476
4258327 124 8069732027221832811
5104073 3 16916780863747511027
513202 73 18336824178378672141
54039377 194 18340488847352178822
59682541 52 17822297873271396078
59755656 520 18271802467549538583

> <PUBCHEM_SHAPE_MULTIPOLES>
557.27
24.92
2.04
1.83
10.27
1.68
-0.32
8.49
1.32
-6.65
0.15
-0.63
-0.23
-3.29

> <PUBCHEM_SHAPE_SELFOVERLAP>
1201.297

> <PUBCHEM_SHAPE_VOLUME>
299.8

> <PUBCHEM_COORDINATE_TYPE>
2
5
10

$$$$
