REMARK  Name = 129848727
REMARK  12 active torsions:
REMARK  status: ('A' for Active; 'I' for Inactive)
REMARK    1  A    between atoms: C_1  and  O_2
REMARK    2  A    between atoms: C_1  and  C_6
REMARK    3  A    between atoms: C_1  and  C_15
REMARK    4  A    between atoms: O_2  and  C_3
REMARK    5  A    between atoms: C_3  and  C_4
REMARK    6  A    between atoms: C_6  and  O_7
REMARK    7  A    between atoms: C_6  and  C_9
REMARK    8  A    between atoms: C_9  and  O_10
REMARK    9  A    between atoms: C_9  and  C_12
REMARK   10  A    between atoms: C_12  and  O_13
REMARK   11  A    between atoms: C_15  and  O_16
REMARK   12  A    between atoms: C_15  and  C_19
REMARK                            x       y       z     vdW  Elec       q    Type
REMARK                         _______ _______ _______ _____ _____    ______ ____
ROOT
ATOM      1  C   UNL     1       0.363   0.326  -0.625  0.00  0.00    +0.180 C 
ENDROOT
BRANCH   1   2
ATOM      2  O   UNL     1       0.858  -0.794   0.119  0.00  0.00    -0.337 OA
BRANCH   2   3
ATOM      3  C   UNL     1       1.779  -1.550  -0.648  0.00  0.00    +0.219 C 
BRANCH   3   4
ATOM      4  C   UNL     1       2.275  -2.689   0.124  0.00  0.00    -0.045 C 
ATOM      5  C   UNL     1       2.683  -3.625   0.756  0.00  0.00    -0.012 C 
ENDBRANCH   3   4
ENDBRANCH   2   3
ENDBRANCH   1   2
BRANCH   1   6
ATOM      6  C   UNL     1      -1.004   0.702  -0.030  0.00  0.00    +0.170 C 
BRANCH   6   7
ATOM      7  O   UNL     1      -0.833   1.240   1.286  0.00  0.00    -0.379 OA
ATOM      8  H   UNL     1      -0.197   1.971   1.256  0.00  0.00    +0.211 HD
ENDBRANCH   6   7
BRANCH   6   9
ATOM      9  C   UNL     1      -2.017  -0.448   0.076  0.00  0.00    +0.169 C 
BRANCH   9  10
ATOM     10  O   UNL     1      -1.984  -1.180  -1.157  0.00  0.00    -0.379 OA
ATOM     11  H   UNL     1      -1.080  -1.489  -1.325  0.00  0.00    +0.211 HD
ENDBRANCH   9  10
BRANCH   9  12
ATOM     12  C   UNL     1      -3.457   0.010   0.284  0.00  0.00    +0.169 C 
BRANCH  12  13
ATOM     13  O   UNL     1      -4.302  -1.136   0.334  0.00  0.00    -0.379 OA
ATOM     14  H   UNL     1      -5.221  -0.855   0.466  0.00  0.00    +0.211 HD
ENDBRANCH  12  13
ENDBRANCH   9  12
ENDBRANCH   6   9
ENDBRANCH   1   6
BRANCH   1  15
ATOM     15  C   UNL     1       1.430   1.429  -0.669  0.00  0.00    +0.205 C 
BRANCH  15  16
ATOM     16  O   UNL     1       0.950   2.470  -1.513  0.00  0.00    -0.375 OA
ATOM     17  H   UNL     1       0.744   2.107  -2.389  0.00  0.00    +0.211 HD
ENDBRANCH  15  16
BRANCH  15  19
ATOM     18  O   UNL     1       1.520   3.208   0.980  0.00  0.00    -0.286 OA
ATOM     19  C   UNL     1       1.738   2.037   0.683  0.00  0.00    +0.239 C 
ENDBRANCH  15  19
ENDBRANCH   1  15
TORSDOF 12
