REMARK  Name = 129874
REMARK  7 active torsions:
REMARK  status: ('A' for Active; 'I' for Inactive)
REMARK    1  A    between atoms: N_1  and  C1*_10
REMARK    2  A    between atoms: C_4  and  C_20
REMARK    3  A    between atoms: C_5  and  C_25
REMARK    4  A    between atoms: C3*_7  and  O3*_11
REMARK    5  A    between atoms: C2*_8  and  O2*_13
REMARK    6  A    between atoms: C4*_9  and  C5*_15
REMARK    7  A    between atoms: C5*_15  and  O5*_16
REMARK                            x       y       z     vdW  Elec       q    Type
REMARK                         _______ _______ _______ _____ _____    ______ ____
ROOT
ATOM      1  N   UNL     1      -0.145   0.533  -0.350  0.00  0.00    -0.141 N 
ATOM      2  N   UNL     1      -1.176   1.379  -0.509  0.00  0.00    -0.144 NA
ATOM      3  N   UNL     1      -0.407  -0.730   0.024  0.00  0.00    -0.144 NA
ATOM      4  C   UNL     1      -2.207   0.583  -0.210  0.00  0.00    +0.179 A 
ATOM      5  C   UNL     1      -1.739  -0.698   0.114  0.00  0.00    +0.179 A 
ENDROOT
BRANCH   1  10
ATOM      6  O4* UNL     1       2.006  -0.113  -1.119  0.00  0.00    -0.329 OA
ATOM      7  C3* UNL     1       2.845   0.295   1.036  0.00  0.00    +0.171 C 
ATOM      8  C2* UNL     1       1.937   1.461   0.691  0.00  0.00    +0.193 C 
ATOM      9  C4* UNL     1       3.201  -0.253  -0.335  0.00  0.00    +0.176 C 
ATOM     10  C1* UNL     1       1.231   0.978  -0.577  0.00  0.00    +0.271 C 
BRANCH   7  11
ATOM     11  O3* UNL     1       3.989   0.671   1.772  0.00  0.00    -0.379 OA
ATOM     12  H3* UNL     1       3.717   1.014   2.638  0.00  0.00    +0.211 HD
ENDBRANCH   7  11
BRANCH   8  13
ATOM     13  O2* UNL     1       2.693   2.633   0.391  0.00  0.00    -0.378 OA
ATOM     14  H2* UNL     1       3.143   2.942   1.193  0.00  0.00    +0.211 HD
ENDBRANCH   8  13
BRANCH   9  15
ATOM     15  C5* UNL     1       3.634  -1.708  -0.311  0.00  0.00    +0.169 C 
BRANCH  15  16
ATOM     16  O5* UNL     1       3.930  -2.115  -1.636  0.00  0.00    -0.379 OA
ATOM     17  H5* UNL     1       4.208  -3.044  -1.634  0.00  0.00    +0.211 HD
ENDBRANCH  15  16
ENDBRANCH   9  15
ENDBRANCH   1  10
BRANCH   4  20
ATOM     18  O   UNL     1      -4.549   0.385   0.039  0.00  0.00    -0.269 OA
ATOM     19  N   UNL     1      -3.740   2.415  -0.609  0.00  0.00    -0.324 N 
ATOM     20  C   UNL     1      -3.551   1.079  -0.249  0.00  0.00    +0.264 C 
ATOM     21  H   UNL     1      -4.649   2.791  -0.647  0.00  0.00    +0.145 HD
ATOM     22  H   UNL     1      -2.964   2.982  -0.824  0.00  0.00    +0.145 HD
ENDBRANCH   4  20
BRANCH   5  25
ATOM     23  O   UNL     1      -3.723  -1.899   0.575  0.00  0.00    -0.269 OA
ATOM     24  N   UNL     1      -1.753  -3.030   0.767  0.00  0.00    -0.324 N 
ATOM     25  C   UNL     1      -2.476  -1.866   0.495  0.00  0.00    +0.264 C 
ATOM     26  H   UNL     1      -2.226  -3.852   1.032  0.00  0.00    +0.145 HD
ATOM     27  H   UNL     1      -0.772  -3.029   0.694  0.00  0.00    +0.145 HD
ENDBRANCH   5  25
TORSDOF 7
