REMARK  Name = 129892588
REMARK  5 active torsions:
REMARK  status: ('A' for Active; 'I' for Inactive)
REMARK    1  A    between atoms: N_2  and  C_17
REMARK    2  A    between atoms: C_3  and  C_5
REMARK    3  A    between atoms: C_6  and  C_11
REMARK    4  A    between atoms: C_17  and  C_18
REMARK    5  A    between atoms: C_18  and  N_19
REMARK                            x       y       z     vdW  Elec       q    Type
REMARK                         _______ _______ _______ _____ _____    ______ ____
ROOT
ATOM      1  O   UNL     1       1.013  -3.089  -0.630  0.00  0.00    -0.270 OA
ATOM      2  N   UNL     1      -0.134  -2.073   1.115  0.00  0.00    -0.299 N 
ATOM      3  C   UNL     1       0.927  -2.227   0.239  0.00  0.00    +0.246 C 
ATOM      4  H   UNL     1      -0.103  -1.346   1.778  0.00  0.00    +0.150 HD
ENDROOT
BRANCH   3   5
ATOM      5  C   UNL     1       1.990  -1.210   0.470  0.00  0.00    +0.058 C 
ATOM      6  C   UNL     1       3.094  -1.209  -0.288  0.00  0.00    +0.010 C 
BRANCH   6  11
ATOM      7  O   UNL     1       3.966   0.611  -2.332  0.00  0.00    -0.270 OA
ATOM      8  O   UNL     1       7.201   2.423   0.408  0.00  0.00    -0.252 OA
ATOM      9  N   UNL     1       5.584   1.522  -0.969  0.00  0.00    -0.236 N 
ATOM     10  N   UNL     1       5.856   0.742   1.216  0.00  0.00    -0.267 N 
ATOM     11  C   UNL     1       4.157  -0.259  -0.119  0.00  0.00    +0.069 C 
ATOM     12  C   UNL     1       4.540   0.647  -1.246  0.00  0.00    +0.254 C 
ATOM     13  C   UNL     1       4.837  -0.152   1.031  0.00  0.00    +0.070 C 
ATOM     14  C   UNL     1       6.283   1.621   0.235  0.00  0.00    +0.310 C 
ATOM     15  H   UNL     1       5.857   2.131  -1.693  0.00  0.00    +0.159 HD
ATOM     16  H   UNL     1       6.308   0.761   2.090  0.00  0.00    +0.156 HD
ENDBRANCH   6  11
ENDBRANCH   3   5
BRANCH   2  17
ATOM     17  C   UNL     1      -1.285  -2.946   1.088  0.00  0.00    +0.111 C 
BRANCH  17  18
ATOM     18  C   UNL     1      -2.375  -2.431   0.161  0.00  0.00    +0.109 C 
BRANCH  18  19
ATOM     19  N   UNL     1      -2.835  -1.133   0.597  0.00  0.00    -0.319 N 
ATOM     20  N   UNL     1      -3.865   1.624   1.457  0.00  0.00    -0.270 NA
ATOM     21  N   UNL     1      -4.418  -0.893  -1.166  0.00  0.00    -0.232 NA
ATOM     22  N   UNL     1      -5.454   2.745   0.367  0.00  0.00    -0.307 N 
ATOM     23  N   UNL     1      -5.828   1.087  -1.371  0.00  0.00    -0.232 NA
ATOM     24  C   UNL     1      -3.820  -0.408  -0.055  0.00  0.00    +0.124 C 
ATOM     25  C   UNL     1      -4.223   0.830   0.405  0.00  0.00    +0.164 C 
ATOM     26  C   UNL     1      -5.210   1.548  -0.257  0.00  0.00    +0.125 C 
ATOM     27  C   UNL     1      -4.629   2.759   1.393  0.00  0.00    +0.163 C 
ATOM     28  C   UNL     1      -5.372  -0.127  -1.747  0.00  0.00    +0.252 C 
ATOM     29  H   UNL     1      -2.427  -0.741   1.402  0.00  0.00    +0.148 HD
ATOM     30  H   UNL     1      -3.184   1.418   2.137  0.00  0.00    +0.126 HD
ATOM     31  H   UNL     1      -6.101   3.439   0.106  0.00  0.00    +0.149 HD
ENDBRANCH  18  19
ENDBRANCH  17  18
ENDBRANCH   2  17
TORSDOF 5
