REMARK  Name = 129847451
REMARK  5 active torsions:
REMARK  status: ('A' for Active; 'I' for Inactive)
REMARK    1  A    between atoms: C_6  and  N_12
REMARK    2  A    between atoms: C_6  and  C_28
REMARK    3  A    between atoms: N_13  and  C_19
REMARK    4  A    between atoms: C_20  and  N_27
REMARK    5  A    between atoms: C_33  and  C_34
REMARK                            x       y       z     vdW  Elec       q    Type
REMARK                         _______ _______ _______ _____ _____    ______ ____
ROOT
ATOM      1  O   UNL     1      -0.866  -2.115   2.648  0.00  0.00    -0.276 OA
ATOM      2  O   UNL     1       0.070  -1.310  -2.005  0.00  0.00    -0.276 OA
ATOM      3  O   UNL     1       0.342  -5.507  -0.187  0.00  0.00    -0.252 OA
ATOM      4  N   UNL     1       0.197  -3.390  -1.062  0.00  0.00    -0.240 N 
ATOM      5  N   UNL     1      -0.259  -3.784   1.204  0.00  0.00    -0.240 N 
ATOM      6  C   UNL     1      -0.439  -1.469   0.355  0.00  0.00    +0.119 C 
ATOM      7  C   UNL     1      -0.543  -2.465   1.510  0.00  0.00    +0.223 C 
ATOM      8  C   UNL     1      -0.039  -2.028  -1.008  0.00  0.00    +0.223 C 
ATOM      9  C   UNL     1       0.109  -4.307  -0.026  0.00  0.00    +0.312 C 
ATOM     10  H   UNL     1       0.457  -3.751  -1.940  0.00  0.00    +0.159 HD
ATOM     11  H   UNL     1      -0.327  -4.426   1.947  0.00  0.00    +0.159 HD
ENDROOT
BRANCH   6  12
ATOM     12  N   UNL     1       0.617  -0.525   0.720  0.00  0.00    +0.405 N 
ATOM     13  N   UNL     1       3.071   0.898   0.387  0.00  0.00    -0.311 N 
ATOM     14  C   UNL     1       0.730   0.535  -0.289  0.00  0.00    -0.054 C 
ATOM     15  C   UNL     1       1.903  -1.219   0.862  0.00  0.00    -0.054 C 
ATOM     16  C   UNL     1       1.794   1.562   0.109  0.00  0.00    +0.068 C 
ATOM     17  C   UNL     1       3.004  -0.251   1.298  0.00  0.00    +0.068 C 
ATOM     18  H   UNL     1       0.370  -0.103   1.615  0.00  0.00    -0.078 HD
BRANCH  13  19
ATOM     19  C   UNL     1       4.260   1.635   0.344  0.00  0.00    +0.070 C 
ATOM     20  C   UNL     1       5.282   1.302  -0.544  0.00  0.00    +0.156 C 
ATOM     21  C   UNL     1       4.413   2.717   1.211  0.00  0.00    +0.016 C 
ATOM     22  C   UNL     1       6.458   2.052  -0.566  0.00  0.00    +0.025 C 
ATOM     23  C   UNL     1       5.590   3.467   1.189  0.00  0.00    +0.001 C 
ATOM     24  C   UNL     1       6.612   3.134   0.300  0.00  0.00    +0.002 C 
BRANCH  20  27
ATOM     25  O   UNL     1       5.535  -0.930  -1.064  0.00  0.00    -0.126 OA
ATOM     26  O   UNL     1       4.657   0.402  -2.573  0.00  0.00    -0.126 OA
ATOM     27  N   UNL     1       5.152   0.203  -1.438  0.00  0.00    +0.059 N 
ENDBRANCH  20  27
ENDBRANCH  13  19
ENDBRANCH   6  12
BRANCH   6  28
ATOM     28  C   UNL     1      -1.745  -0.746   0.215  0.00  0.00    -0.024 C 
ATOM     29  C   UNL     1      -2.668  -1.154  -0.748  0.00  0.00    -0.005 C 
ATOM     30  C   UNL     1      -2.036   0.335   1.047  0.00  0.00    -0.005 C 
ATOM     31  C   UNL     1      -3.883  -0.481  -0.878  0.00  0.00    -0.000 C 
ATOM     32  C   UNL     1      -3.251   1.008   0.916  0.00  0.00    -0.000 C 
ATOM     33  C   UNL     1      -4.174   0.600  -0.046  0.00  0.00    -0.000 C 
BRANCH  33  34
ATOM     34  C   UNL     1      -5.434   1.298  -0.182  0.00  0.00    -0.000 C 
ATOM     35  C   UNL     1      -6.020   1.903   0.930  0.00  0.00    -0.000 C 
ATOM     36  C   UNL     1      -6.064   1.366  -1.425  0.00  0.00    -0.000 C 
ATOM     37  C   UNL     1      -7.234   2.576   0.799  0.00  0.00    +0.000 C 
ATOM     38  C   UNL     1      -7.278   2.039  -1.556  0.00  0.00    +0.000 C 
ATOM     39  C   UNL     1      -7.864   2.644  -0.444  0.00  0.00    +0.000 C 
ENDBRANCH  33  34
ENDBRANCH   6  28
TORSDOF 5
