REMARK  Name = 129878087
REMARK  13 active torsions:
REMARK  status: ('A' for Active; 'I' for Inactive)
REMARK    1  A    between atoms: C_1  and  O_2
REMARK    2  A    between atoms: C_1  and  C_9
REMARK    3  A    between atoms: C_1  and  C_18
REMARK    4  A    between atoms: O_2  and  C_3
REMARK    5  A    between atoms: C_3  and  C_6
REMARK    6  A    between atoms: C_6  and  O_7
REMARK    7  A    between atoms: C_9  and  O_10
REMARK    8  A    between atoms: C_9  and  C_12
REMARK    9  A    between atoms: C_12  and  O_13
REMARK   10  A    between atoms: C_12  and  C_15
REMARK   11  A    between atoms: C_15  and  O_16
REMARK   12  A    between atoms: C_18  and  O_19
REMARK   13  A    between atoms: C_18  and  C_22
REMARK                            x       y       z     vdW  Elec       q    Type
REMARK                         _______ _______ _______ _____ _____    ______ ____
ROOT
ATOM      1  C   UNL     1      -0.038   0.519  -0.635  0.00  0.00    +0.179 C 
ENDROOT
BRANCH   1   2
ATOM      2  O   UNL     1       0.740  -0.316   0.232  0.00  0.00    -0.342 OA
BRANCH   2   3
ATOM      3  C   UNL     1       1.781  -0.960  -0.480  0.00  0.00    +0.213 C 
ATOM      4  C   UNL     1       1.251  -2.290  -0.986  0.00  0.00    +0.044 C 
BRANCH   3   6
ATOM      5  O   UNL     1       2.960  -0.844   1.641  0.00  0.00    -0.248 OA
ATOM      6  C   UNL     1       2.954  -1.157   0.458  0.00  0.00    +0.341 C 
BRANCH   6   7
ATOM      7  O   UNL     1       4.011  -1.746  -0.157  0.00  0.00    -0.479 OA
ATOM      8  H   UNL     1       3.961  -1.968  -1.066  0.00  0.00    +0.295 HD
ENDBRANCH   6   7
ENDBRANCH   3   6
ENDBRANCH   2   3
ENDBRANCH   1   2
BRANCH   1   9
ATOM      9  C   UNL     1      -1.493   0.464  -0.137  0.00  0.00    +0.170 C 
BRANCH   9  10
ATOM     10  O   UNL     1      -1.601   1.125   1.129  0.00  0.00    -0.379 OA
ATOM     11  H   UNL     1      -1.237   2.021   1.057  0.00  0.00    +0.211 HD
ENDBRANCH   9  10
BRANCH   9  12
ATOM     12  C   UNL     1      -2.080  -0.945   0.034  0.00  0.00    +0.169 C 
BRANCH  12  13
ATOM     13  O   UNL     1      -2.145  -1.555  -1.264  0.00  0.00    -0.379 OA
ATOM     14  H   UNL     1      -1.261  -1.561  -1.663  0.00  0.00    +0.211 HD
ENDBRANCH  12  13
BRANCH  12  15
ATOM     15  C   UNL     1      -3.493  -0.964   0.607  0.00  0.00    +0.169 C 
BRANCH  15  16
ATOM     16  O   UNL     1      -3.940  -2.315   0.686  0.00  0.00    -0.379 OA
ATOM     17  H   UNL     1      -4.838  -2.337   1.050  0.00  0.00    +0.211 HD
ENDBRANCH  15  16
ENDBRANCH  12  15
ENDBRANCH   9  12
ENDBRANCH   1   9
BRANCH   1  18
ATOM     18  C   UNL     1       0.611   1.906  -0.737  0.00  0.00    +0.205 C 
BRANCH  18  19
ATOM     19  O   UNL     1      -0.121   2.663  -1.694  0.00  0.00    -0.375 OA
ATOM     20  H   UNL     1      -0.135   2.189  -2.540  0.00  0.00    +0.211 HD
ENDBRANCH  18  19
BRANCH  18  22
ATOM     21  O   UNL     1      -0.003   3.732   0.740  0.00  0.00    -0.286 OA
ATOM     22  C   UNL     1       0.606   2.682   0.564  0.00  0.00    +0.239 C 
ENDBRANCH  18  22
ENDBRANCH   1  18
TORSDOF 13
