REMARK  Name = 129860729
REMARK  5 active torsions:
REMARK  status: ('A' for Active; 'I' for Inactive)
REMARK    1  A    between atoms: C_6  and  O_24
REMARK    2  A    between atoms: C_6  and  C_33
REMARK    3  A    between atoms: N_26  and  C_27
REMARK    4  A    between atoms: N_26  and  O_28
REMARK    5  A    between atoms: O_28  and  C_29
REMARK                            x       y       z     vdW  Elec       q    Type
REMARK                         _______ _______ _______ _____ _____    ______ ____
ROOT
ATOM      1  O   UNL     1      -5.968   1.342   0.443  0.00  0.00    -0.442 OA
ATOM      2  O   UNL     1      -4.636  -2.644  -0.055  0.00  0.00    -0.270 OA
ATOM      3  O   UNL     1      -5.363   3.384   1.154  0.00  0.00    -0.247 OA
ATOM      4  N   UNL     1      -2.425  -1.969  -0.005  0.00  0.00    -0.249 N 
ATOM      5  N   UNL     1       1.010  -0.901   0.023  0.00  0.00    -0.401 NA
ATOM      6  C   UNL     1      -3.680   2.112  -0.022  0.00  0.00    +0.196 C 
ATOM      7  C   UNL     1      -3.262   0.668   0.009  0.00  0.00    +0.017 C 
ATOM      8  C   UNL     1      -1.485  -0.952   0.009  0.00  0.00    +0.084 C 
ATOM      9  C   UNL     1      -4.194  -0.301  -0.020  0.00  0.00    +0.074 C 
ATOM     10  C   UNL     1      -1.771  -3.294  -0.010  0.00  0.00    +0.128 C 
ATOM     11  C   UNL     1      -1.846   0.334   0.012  0.00  0.00    +0.016 C 
ATOM     12  C   UNL     1      -0.323  -2.932   0.002  0.00  0.00    +0.029 C 
ATOM     13  C   UNL     1      -0.160  -1.554   0.012  0.00  0.00    +0.143 C 
ATOM     14  C   UNL     1      -3.791  -1.753  -0.027  0.00  0.00    +0.252 C 
ATOM     15  C   UNL     1      -5.647   0.027  -0.062  0.00  0.00    +0.239 C 
ATOM     16  C   UNL     1      -5.059   2.334   0.589  0.00  0.00    +0.346 C 
ATOM     17  C   UNL     1       0.800  -3.724   0.003  0.00  0.00    +0.003 C 
ATOM     18  C   UNL     1       2.056  -3.096   0.015  0.00  0.00    +0.029 C 
ATOM     19  C   UNL     1       2.116  -1.673   0.025  0.00  0.00    +0.133 C 
ATOM     20  C   UNL     1       3.371  -1.073   0.036  0.00  0.00    +0.051 C 
ATOM     21  C   UNL     1       3.240  -3.850   0.017  0.00  0.00    +0.003 C 
ATOM     22  C   UNL     1       4.545  -1.830   0.039  0.00  0.00    +0.004 C 
ATOM     23  C   UNL     1       4.480  -3.218   0.029  0.00  0.00    +0.000 C 
ATOM     24  C   UNL     1       3.501   0.380   0.046  0.00  0.00    +0.130 C 
ENDROOT
BRANCH   6  25
ATOM     25  O   UNL     1      -2.798   2.888   0.793  0.00  0.00    -0.373 OA
ATOM     26  H   UNL     1      -1.890   2.797   0.464  0.00  0.00    +0.211 HD
ENDBRANCH   6  25
BRANCH   6  27
ATOM     27  C   UNL     1      -3.663   2.674  -1.445  0.00  0.00    +0.042 C 
ATOM     28  C   UNL     1      -2.277   2.590  -2.053  0.00  0.00    +0.003 C 
ENDBRANCH   6  27
BRANCH  24  29
ATOM     29  N   UNL     1       4.652   0.983   0.057  0.00  0.00    -0.130 NA
BRANCH  29  30
ATOM     30  O   UNL     1       4.445   2.369   0.066  0.00  0.00    -0.241 OA
BRANCH  30  31
ATOM     31  C   UNL     1       5.714   3.005   0.077  0.00  0.00    +0.122 C 
ATOM     32  C   UNL     1       5.473   4.513   0.078  0.00  0.00    +0.032 C 
ATOM     33  C   UNL     1       6.481   2.583  -1.176  0.00  0.00    +0.032 C 
ATOM     34  C   UNL     1       6.460   2.579   1.341  0.00  0.00    +0.032 C 
ENDBRANCH  30  31
ENDBRANCH  29  30
ENDBRANCH  24  29
TORSDOF 5
