REMARK  Name = 129822899
REMARK  11 active torsions:
REMARK  status: ('A' for Active; 'I' for Inactive)
REMARK    1  A    between atoms: C_1  and  C_8
REMARK    2  A    between atoms: C_1  and  C_19
REMARK    3  A    between atoms: C_4  and  C_12
REMARK    4  A    between atoms: C_5  and  C_16
REMARK    5  A    between atoms: C_8  and  O_9
REMARK    6  A    between atoms: C_12  and  O_13
REMARK    7  A    between atoms: C_16  and  O_17
REMARK    8  A    between atoms: C_19  and  C_20
REMARK    9  A    between atoms: C_20  and  O_21
REMARK   10  A    between atoms: O_21  and  C_23
REMARK   11  A    between atoms: C_23  and  C_24
REMARK                            x       y       z     vdW  Elec       q    Type
REMARK                         _______ _______ _______ _____ _____    ______ ____
ROOT
ATOM      1  C   UNL     1      -0.066   1.055   0.174  0.00  0.00    +0.116 C 
ATOM      2  C   UNL     1      -1.362   1.230  -0.659  0.00  0.00    +0.048 C 
ATOM      3  C   UNL     1      -0.313   0.341   1.480  0.00  0.00    -0.016 C 
ATOM      4  C   UNL     1      -2.391   0.135  -0.460  0.00  0.00    +0.060 C 
ATOM      5  C   UNL     1      -2.393  -0.635   0.646  0.00  0.00    +0.077 C 
ATOM      6  C   UNL     1      -1.397  -0.422   1.680  0.00  0.00    +0.002 C 
ENDROOT
BRANCH   1   8
ATOM      7  O   UNL     1       0.644   2.807   1.692  0.00  0.00    -0.250 OA
ATOM      8  C   UNL     1       0.467   2.414   0.549  0.00  0.00    +0.317 C 
BRANCH   8   9
ATOM      9  O   UNL     1       0.724   3.150  -0.560  0.00  0.00    -0.480 OA
ATOM     10  H   UNL     1       0.566   2.788  -1.409  0.00  0.00    +0.295 HD
ENDBRANCH   8   9
ENDBRANCH   1   8
BRANCH   4  12
ATOM     11  O   UNL     1      -3.520  -1.004  -2.214  0.00  0.00    -0.245 OA
ATOM     12  C   UNL     1      -3.366   0.004  -1.556  0.00  0.00    +0.334 C 
BRANCH  12  13
ATOM     13  O   UNL     1      -4.037   1.163  -1.695  0.00  0.00    -0.477 OA
ATOM     14  H   UNL     1      -3.843   1.887  -1.134  0.00  0.00    +0.295 HD
ENDBRANCH  12  13
ENDBRANCH   4  12
BRANCH   5  16
ATOM     15  O   UNL     1      -4.589  -1.496   0.944  0.00  0.00    -0.245 OA
ATOM     16  C   UNL     1      -3.392  -1.689   0.891  0.00  0.00    +0.338 C 
BRANCH  16  17
ATOM     17  O   UNL     1      -2.764  -2.871   1.042  0.00  0.00    -0.477 OA
ATOM     18  H   UNL     1      -1.829  -2.915   0.984  0.00  0.00    +0.295 HD
ENDBRANCH  16  17
ENDBRANCH   5  16
BRANCH   1  19
ATOM     19  C   UNL     1       1.005   0.302  -0.625  0.00  0.00    +0.062 C 
BRANCH  19  20
ATOM     20  C   UNL     1       2.298   0.187   0.159  0.00  0.00    +0.210 C 
BRANCH  20  21
ATOM     21  O   UNL     1       3.247  -0.502  -0.643  0.00  0.00    -0.445 OA
BRANCH  21  23
ATOM     22  O   UNL     1       4.830  -0.330   1.031  0.00  0.00    -0.245 OA
ATOM     23  C   UNL     1       4.476  -0.691  -0.080  0.00  0.00    +0.341 C 
BRANCH  23  24
ATOM     24  C   UNL     1       5.318  -1.417  -1.052  0.00  0.00    +0.082 C 
ATOM     25  C   UNL     1       6.580  -1.730  -0.743  0.00  0.00    +0.007 C 
ENDBRANCH  23  24
ENDBRANCH  21  23
ENDBRANCH  20  21
ENDBRANCH  19  20
ENDBRANCH   1  19
TORSDOF 11
