129844003
  -OEChem-03292013293D

 34 33  0     1  0  0  0  0  0999 V2000
   -4.8455    0.1993   -1.7987 O   0  0  0  0  0  0  0  0  0  0  0  0
   -0.1012    0.8451   -0.4072 O   0  0  0  0  0  0  0  0  0  0  0  0
   -5.6003   -0.9244    0.0211 O   0  0  0  0  0  0  0  0  0  0  0  0
    2.3114   -0.4758   -1.6206 O   0  0  0  0  0  0  0  0  0  0  0  0
    5.2608   -0.4361    0.3816 O   0  0  0  0  0  0  0  0  0  0  0  0
    6.0179    1.6224   -0.1994 O   0  0  0  0  0  0  0  0  0  0  0  0
   -4.6407    0.9325    1.7509 N   0  0  0  0  0  0  0  0  0  0  0  0
   -0.0691   -1.3460    0.3827 N   0  0  0  0  0  0  0  0  0  0  0  0
    2.7483    0.2646    0.5283 N   0  0  0  0  0  0  0  0  0  0  0  0
   -2.8399    1.1784    0.0742 C   0  0  0  0  0  0  0  0  0  0  0  0
   -4.3514    1.1503    0.3335 C   0  0  1  0  0  0  0  0  0  0  0  0
   -2.1529   -0.1475    0.4066 C   0  0  0  0  0  0  0  0  0  0  0  0
   -0.6702   -0.1324    0.0723 C   0  0  0  0  0  0  0  0  0  0  0  0
   -4.9990    0.0279   -0.4586 C   0  0  0  0  0  0  0  0  0  0  0  0
    1.2557   -1.6056    0.1886 C   0  0  0  0  0  0  0  0  0  0  0  0
    2.1439   -0.5590   -0.4056 C   0  0  0  0  0  0  0  0  0  0  0  0
    3.6554    1.3260    0.1548 C   0  0  0  0  0  0  0  0  0  0  0  0
    1.7849   -2.7944    0.5057 C   0  0  0  0  0  0  0  0  0  0  0  0
    5.0918    0.8746    0.0899 C   0  0  0  0  0  0  0  0  0  0  0  0
   -2.3803    1.9867    0.6581 H   0  0  0  0  0  0  0  0  0  0  0  0
   -2.6560    1.4256   -0.9795 H   0  0  0  0  0  0  0  0  0  0  0  0
   -4.8075    2.0974    0.0245 H   0  0  0  0  0  0  0  0  0  0  0  0
   -2.6020   -0.9728   -0.1575 H   0  0  0  0  0  0  0  0  0  0  0  0
   -2.2529   -0.3735    1.4746 H   0  0  0  0  0  0  0  0  0  0  0  0
   -5.6450    1.0063    1.9100 H   0  0  0  0  0  0  0  0  0  0  0  0
   -4.2102    1.6723    2.3044 H   0  0  0  0  0  0  0  0  0  0  0  0
   -0.6397   -2.0879    0.7811 H   0  0  0  0  0  0  0  0  0  0  0  0
    2.5692    0.1158    1.5173 H   0  0  0  0  0  0  0  0  0  0  0  0
    3.5692    2.1064    0.9159 H   0  0  0  0  0  0  0  0  0  0  0  0
    3.3686    1.7207   -0.8244 H   0  0  0  0  0  0  0  0  0  0  0  0
   -5.2662   -0.5247   -2.3097 H   0  0  0  0  0  0  0  0  0  0  0  0
    1.1814   -3.5887    0.9335 H   0  0  0  0  0  0  0  0  0  0  0  0
    2.8379   -3.0041    0.3456 H   0  0  0  0  0  0  0  0  0  0  0  0
    6.2028   -0.7050    0.3319 H   0  0  0  0  0  0  0  0  0  0  0  0
  1 14  1  0  0  0  0
  1 31  1  0  0  0  0
  2 13  2  0  0  0  0
  3 14  2  0  0  0  0
  4 16  2  0  0  0  0
  5 19  1  0  0  0  0
  5 34  1  0  0  0  0
  6 19  2  0  0  0  0
  7 11  1  0  0  0  0
  7 25  1  0  0  0  0
  7 26  1  0  0  0  0
  8 13  1  0  0  0  0
  8 15  1  0  0  0  0
  8 27  1  0  0  0  0
  9 16  1  0  0  0  0
  9 17  1  0  0  0  0
  9 28  1  0  0  0  0
 10 11  1  0  0  0  0
 10 12  1  0  0  0  0
 10 20  1  0  0  0  0
 10 21  1  0  0  0  0
 11 14  1  0  0  0  0
 11 22  1  0  0  0  0
 12 13  1  0  0  0  0
 12 23  1  0  0  0  0
 12 24  1  0  0  0  0
 15 16  1  0  0  0  0
 15 18  2  0  0  0  0
 17 19  1  0  0  0  0
 17 29  1  0  0  0  0
 17 30  1  0  0  0  0
 18 32  1  0  0  0  0
 18 33  1  0  0  0  0
M  END
> <PUBCHEM_COMPOUND_CID>
129844003

> <PUBCHEM_CONFORMER_RMSD>
1

> <PUBCHEM_CONFORMER_DIVERSEORDER>
1
49
27
33
22
47
68
19
6
52
34
43
15
8
36
24
11
59
23
65
45
32
30
39
28
61
38
54
41
42
57
35
7
69
44
62
26
53
67
25
3
16
63
14
10
4
56
18
48
29
31
2
17
9
46
12
58
5
60
50
71
21
37
70
13
40
51
55
20
64
66

> <PUBCHEM_MMFF94_PARTIAL_CHARGES>
26
1 -0.65
11 0.33
12 0.06
13 0.57
14 0.66
15 0.12
16 0.62
17 0.36
18 -0.3
19 0.66
2 -0.57
25 0.36
26 0.36
27 0.37
28 0.37
3 -0.57
31 0.5
32 0.15
33 0.15
34 0.5
4 -0.57
5 -0.65
6 -0.57
7 -0.99
8 -0.54
9 -0.73

> <PUBCHEM_EFFECTIVE_ROTOR_COUNT>
10

> <PUBCHEM_PHARMACOPHORE_FEATURES>
12
1 1 acceptor
1 2 acceptor
1 3 acceptor
1 4 acceptor
1 5 acceptor
1 6 acceptor
1 7 cation
1 7 donor
1 8 donor
1 9 donor
3 1 3 14 anion
3 5 6 19 anion

> <PUBCHEM_HEAVY_ATOM_COUNT>
19

> <PUBCHEM_ATOM_DEF_STEREO_COUNT>
1

> <PUBCHEM_ATOM_UDEF_STEREO_COUNT>
0

> <PUBCHEM_BOND_DEF_STEREO_COUNT>
0

> <PUBCHEM_BOND_UDEF_STEREO_COUNT>
0

> <PUBCHEM_ISOTOPIC_ATOM_COUNT>
0

> <PUBCHEM_COMPONENT_COUNT>
1

> <PUBCHEM_CACTVS_TAUTO_COUNT>
6

> <PUBCHEM_CONFORMER_ID>
07BD432300000001

> <PUBCHEM_MMFF94_ENERGY>
32.1367

> <PUBCHEM_FEATURE_SELFOVERLAP>
61.018

> <PUBCHEM_SHAPE_FINGERPRINT>
10090160 65 18334575737144684761
10912923 1 18059290964176136995
12507557 5 17022625286376664213
12616999 72 16774078440739041198
13583140 156 16588305020798398225
13631057 29 18199181966307622799
14251718 22 17775284980275197453
14251731 8 8935006966534368265
14251752 14 12966864398203435682
14251764 18 18412821383720858610
14787075 74 18272650177206511753
15188451 53 13984953982172038345
17834072 33 17561361785708362181
19141452 34 11025800907245005721
19489759 90 15574710296942712341
19784866 140 12535357783244716812
20374829 77 9511464407302241208
20645477 70 18271528589431140046
21054139 6 18339353175671973455
23402539 116 18342452690534208486
23532345 12 11241975875723690787
23622692 88 15791734122467901666
2838139 119 18201718470644263520
300161 21 18339079290366243405
3004659 81 11887963155457717632
328317 168 18410856572529992217
42 15 12468357950952111965
4325135 7 18130786780744387493
474 4 18409730698609530024
474229 33 18335700559109727074
5104073 3 18043258950988062225
59682541 35 18262244442843720499
59755656 520 18410007767187438590
8863177 126 12318871713321327757

> <PUBCHEM_SHAPE_MULTIPOLES>
340.85
13.64
1.86
1.06
1.71
1.04
-0.18
-5.45
-0.22
-1.62
0.32
1.05
-0.06
-0.44

> <PUBCHEM_SHAPE_SELFOVERLAP>
675.689

> <PUBCHEM_SHAPE_VOLUME>
199.8

> <PUBCHEM_COORDINATE_TYPE>
2
5
10

$$$$
