REMARK  Name = 129849129
REMARK  9 active torsions:
REMARK  status: ('A' for Active; 'I' for Inactive)
REMARK    1  A    between atoms: N_1  and  C_3
REMARK    2  A    between atoms: N_1  and  C_13
REMARK    3  A    between atoms: N_1  and  C_23
REMARK    4  A    between atoms: C_3  and  C_4
REMARK    5  A    between atoms: C_4  and  N_7
REMARK    6  A    between atoms: C_13  and  C_14
REMARK    7  A    between atoms: C_14  and  N_17
REMARK    8  A    between atoms: C_23  and  C_24
REMARK    9  A    between atoms: C_24  and  N_27
REMARK                            x       y       z     vdW  Elec       q    Type
REMARK                         _______ _______ _______ _____ _____    ______ ____
ROOT
ATOM      1  N   UNL     1      -0.371  -0.331   0.114  0.00  0.00    +0.390 N 
ATOM      2  H   UNL     1      -0.443  -0.240   1.127  0.00  0.00    -0.079 HD
ENDROOT
BRANCH   1   3
ATOM      3  C   UNL     1       0.464  -1.493  -0.189  0.00  0.00    -0.055 C 
BRANCH   3   4
ATOM      4  C   UNL     1       1.659  -1.547   0.761  0.00  0.00    +0.076 C 
BRANCH   4   7
ATOM      5  O   UNL     1       5.611  -1.558  -0.788  0.00  0.00    -0.123 OA
ATOM      6  O   UNL     1       3.641  -0.648  -1.125  0.00  0.00    -0.123 OA
ATOM      7  N   UNL     1       2.535  -2.742   0.482  0.00  0.00    -0.253 N 
ATOM      8  N   UNL     1       4.242  -3.958  -0.252  0.00  0.00    -0.207 NA
ATOM      9  N   UNL     1       4.349  -1.613  -0.716  0.00  0.00    +0.091 N 
ATOM     10  C   UNL     1       3.732  -2.749  -0.179  0.00  0.00    +0.284 C 
ATOM     11  C   UNL     1       2.265  -4.029   0.854  0.00  0.00    +0.089 C 
ATOM     12  C   UNL     1       3.333  -4.761   0.390  0.00  0.00    +0.118 C 
ENDBRANCH   4   7
ENDBRANCH   3   4
ENDBRANCH   1   3
BRANCH   1  13
ATOM     13  C   UNL     1       0.236   0.888  -0.419  0.00  0.00    -0.055 C 
BRANCH  13  14
ATOM     14  C   UNL     1      -0.286   2.112   0.333  0.00  0.00    +0.076 C 
BRANCH  14  17
ATOM     15  O   UNL     1       3.758   3.354   0.662  0.00  0.00    -0.123 OA
ATOM     16  O   UNL     1       2.127   2.498   1.856  0.00  0.00    -0.123 OA
ATOM     17  N   UNL     1       0.331   3.386  -0.187  0.00  0.00    -0.253 N 
ATOM     18  N   UNL     1       1.815   5.000  -0.536  0.00  0.00    -0.207 NA
ATOM     19  N   UNL     1       2.522   3.215   0.892  0.00  0.00    +0.091 N 
ATOM     20  C   UNL     1       1.586   3.859   0.075  0.00  0.00    +0.284 C 
ATOM     21  C   UNL     1      -0.280   4.282  -1.018  0.00  0.00    +0.089 C 
ATOM     22  C   UNL     1       0.656   5.269  -1.219  0.00  0.00    +0.118 C 
ENDBRANCH  14  17
ENDBRANCH  13  14
ENDBRANCH   1  13
BRANCH   1  23
ATOM     23  C   UNL     1      -1.716  -0.512  -0.431  0.00  0.00    -0.055 C 
BRANCH  23  24
ATOM     24  C   UNL     1      -2.524  -1.458   0.457  0.00  0.00    +0.076 C 
BRANCH  24  27
ATOM     25  O   UNL     1      -5.654   1.402   0.264  0.00  0.00    -0.123 OA
ATOM     26  O   UNL     1      -4.120   0.633   1.632  0.00  0.00    -0.123 OA
ATOM     27  N   UNL     1      -3.922  -1.657  -0.074  0.00  0.00    -0.253 N 
ATOM     28  N   UNL     1      -6.057  -1.264  -0.543  0.00  0.00    -0.207 NA
ATOM     29  N   UNL     1      -4.913   0.458   0.663  0.00  0.00    +0.091 N 
ATOM     30  C   UNL     1      -4.973  -0.789   0.029  0.00  0.00    +0.284 C 
ATOM     31  C   UNL     1      -4.363  -2.756  -0.755  0.00  0.00    +0.089 C 
ATOM     32  C   UNL     1      -5.683  -2.491  -1.033  0.00  0.00    +0.118 C 
ENDBRANCH  24  27
ENDBRANCH  23  24
ENDBRANCH   1  23
TORSDOF 9
