REMARK  Name = 129848817
REMARK  11 active torsions:
REMARK  status: ('A' for Active; 'I' for Inactive)
REMARK    1  A    between atoms: C_4  and  S_13
REMARK    2  A    between atoms: C_7  and  N_12
REMARK    3  A    between atoms: S_13  and  C_14
REMARK    4  A    between atoms: C_14  and  C_15
REMARK    5  A    between atoms: C_15  and  O_16
REMARK    6  A    between atoms: O_16  and  C_17
REMARK    7  A    between atoms: C_17  and  C_18
REMARK    8  A    between atoms: C_18  and  O_19
REMARK    9  A    between atoms: O_19  and  C_20
REMARK   10  A    between atoms: C_20  and  C_21
REMARK   11  A    between atoms: C_21  and  O_22
REMARK                            x       y       z     vdW  Elec       q    Type
REMARK                         _______ _______ _______ _____ _____    ______ ____
ROOT
ATOM      1  O   UNL     1       0.493   0.607  -2.785  0.00  0.00    -0.241 OA
ATOM      2  N   UNL     1      -0.485   1.288  -2.082  0.00  0.00    -0.048 NA
ATOM      3  N   UNL     1       1.593   0.322  -1.994  0.00  0.00    -0.047 NA
ATOM      4  C   UNL     1      -0.597   2.056   0.277  0.00  0.00    +0.048 C 
ATOM      5  C   UNL     1      -0.008   1.436  -0.840  0.00  0.00    +0.150 A 
ATOM      6  C   UNL     1       1.314   0.823  -0.784  0.00  0.00    +0.166 A 
ATOM      7  C   UNL     1       2.088   0.809   0.390  0.00  0.00    +0.165 C 
ATOM      8  C   UNL     1       0.194   2.031   1.440  0.00  0.00    +0.010 C 
ATOM      9  C   UNL     1       1.480   1.434   1.494  0.00  0.00    +0.026 C 
ENDROOT
BRANCH   7  12
ATOM     10  O   UNL     1       4.016   0.231   1.516  0.00  0.00    -0.126 OA
ATOM     11  O   UNL     1       3.836  -0.325  -0.600  0.00  0.00    -0.126 OA
ATOM     12  N   UNL     1       3.368   0.213   0.438  0.00  0.00    +0.059 N 
ENDBRANCH   7  12
BRANCH   4  13
ATOM     13  S   UNL     1      -2.191   2.789   0.184  0.00  0.00    -0.109 S 
BRANCH  13  14
ATOM     14  C   UNL     1      -3.131   1.845   1.426  0.00  0.00    +0.094 C 
BRANCH  14  15
ATOM     15  C   UNL     1      -3.791   0.621   0.810  0.00  0.00    +0.154 C 
BRANCH  15  16
ATOM     16  O   UNL     1      -2.803  -0.235   0.251  0.00  0.00    -0.350 OA
BRANCH  16  17
ATOM     17  C   UNL     1      -3.379  -1.428  -0.264  0.00  0.00    +0.174 C 
BRANCH  17  18
ATOM     18  C   UNL     1      -2.280  -2.297  -0.845  0.00  0.00    +0.174 C 
BRANCH  18  19
ATOM     19  O   UNL     1      -1.337  -2.596   0.177  0.00  0.00    -0.348 OA
BRANCH  19  20
ATOM     20  C   UNL     1      -0.292  -3.429  -0.307  0.00  0.00    +0.174 C 
BRANCH  20  21
ATOM     21  C   UNL     1       0.679  -3.713   0.823  0.00  0.00    +0.169 C 
BRANCH  21  22
ATOM     22  O   UNL     1       1.234  -2.484   1.277  0.00  0.00    -0.379 OA
ATOM     23  H   UNL     1       1.856  -2.658   2.000  0.00  0.00    +0.211 HD
ENDBRANCH  21  22
ENDBRANCH  20  21
ENDBRANCH  19  20
ENDBRANCH  18  19
ENDBRANCH  17  18
ENDBRANCH  16  17
ENDBRANCH  15  16
ENDBRANCH  14  15
ENDBRANCH  13  14
ENDBRANCH   4  13
TORSDOF 11
