REMARK  Name = 129818854
REMARK  9 active torsions:
REMARK  status: ('A' for Active; 'I' for Inactive)
REMARK    1  A    between atoms: C_1  and  C_8
REMARK    2  A    between atoms: C_1  and  N_12
REMARK    3  A    between atoms: C_1  and  C_23
REMARK    4  A    between atoms: C_4  and  C_10
REMARK    5  A    between atoms: C_13  and  O_15
REMARK    6  A    between atoms: O_15  and  C_16
REMARK    7  A    between atoms: C_16  and  C_17
REMARK    8  A    between atoms: C_23  and  C_24
REMARK    9  A    between atoms: C_24  and  S_25
REMARK                            x       y       z     vdW  Elec       q    Type
REMARK                         _______ _______ _______ _____ _____    ______ ____
ROOT
ATOM      1  C   UNL     1       1.287   0.807  -0.139  0.00  0.00    +0.152 C 
ENDROOT
BRANCH   1   8
ATOM      2  O   UNL     1       1.393  -0.971   1.440  0.00  0.00    -0.273 OA
ATOM      3  N   UNL     1       2.993  -0.948  -0.232  0.00  0.00    -0.267 N 
ATOM      4  C   UNL     1       3.630  -2.215   0.131  0.00  0.00    +0.167 C 
ATOM      5  C   UNL     1       4.477  -2.563  -1.094  0.00  0.00    +0.037 C 
ATOM      6  C   UNL     1       4.862  -1.197  -1.657  0.00  0.00    +0.024 C 
ATOM      7  C   UNL     1       3.608  -0.367  -1.423  0.00  0.00    +0.094 C 
ATOM      8  C   UNL     1       1.884  -0.453   0.437  0.00  0.00    +0.244 C 
BRANCH   4  10
ATOM      9  N   UNL     1       5.112  -1.932   2.287  0.00  0.00    -0.194 NA
ATOM     10  C   UNL     1       4.458  -2.057   1.337  0.00  0.00    +0.093 C 
ENDBRANCH   4  10
ENDBRANCH   1   8
BRANCH   1  12
ATOM     11  O   UNL     1      -0.642  -0.587  -1.805  0.00  0.00    -0.226 OA
ATOM     12  N   UNL     1      -0.122   0.653   0.087  0.00  0.00    -0.264 N 
ATOM     13  C   UNL     1      -0.973  -0.031  -0.763  0.00  0.00    +0.402 C 
ATOM     14  H   UNL     1      -0.507   1.059   0.898  0.00  0.00    +0.153 HD
BRANCH  13  15
ATOM     15  O   UNL     1      -2.248   0.001  -0.272  0.00  0.00    -0.430 OA
BRANCH  15  16
ATOM     16  C   UNL     1      -3.237  -0.673  -1.059  0.00  0.00    +0.237 C 
BRANCH  16  17
ATOM     17  C   UNL     1      -4.571  -0.543  -0.385  0.00  0.00    +0.021 C 
ATOM     18  C   UNL     1      -4.982  -1.504   0.539  0.00  0.00    -0.001 C 
ATOM     19  C   UNL     1      -5.401   0.537  -0.683  0.00  0.00    -0.001 C 
ATOM     20  C   UNL     1      -6.223  -1.383   1.166  0.00  0.00    -0.000 C 
ATOM     21  C   UNL     1      -6.641   0.658  -0.057  0.00  0.00    -0.000 C 
ATOM     22  C   UNL     1      -7.052  -0.302   0.868  0.00  0.00    -0.000 C 
ENDBRANCH  16  17
ENDBRANCH  15  16
ENDBRANCH  13  15
ENDBRANCH   1  12
BRANCH   1  23
ATOM     23  C   UNL     1       1.832   2.054   0.542  0.00  0.00    +0.041 C 
BRANCH  23  24
ATOM     24  C   UNL     1       1.211   3.331  -0.024  0.00  0.00    +0.060 C 
BRANCH  24  25
ATOM     25  S   UNL     1       1.882   4.797   0.812  0.00  0.00    -0.139 S 
ATOM     26  C   UNL     1       3.466   4.889  -0.054  0.00  0.00    +0.069 C 
ENDBRANCH  24  25
ENDBRANCH  23  24
ENDBRANCH   1  23
TORSDOF 9
