REMARK  Name = 129837
REMARK  9 active torsions:
REMARK  status: ('A' for Active; 'I' for Inactive)
REMARK    1  A    between atoms: N_2  and  C_4
REMARK    2  A    between atoms: N_2  and  C_10
REMARK    3  A    between atoms: C_3  and  C_13
REMARK    4  A    between atoms: C_13  and  S_14
REMARK    5  A    between atoms: S_14  and  C_15
REMARK    6  A    between atoms: C_15  and  C_16
REMARK    7  A    between atoms: C_16  and  N_17
REMARK    8  A    between atoms: C_16  and  C_22
REMARK    9  A    between atoms: C_22  and  O_23
REMARK                            x       y       z     vdW  Elec       q    Type
REMARK                         _______ _______ _______ _____ _____    ______ ____
ROOT
ATOM      1  O   UNK     1      -0.326   2.591  -0.296  0.00  0.00    -0.274 OA
ATOM      2  N   UNK     1      -2.038   1.015  -0.044  0.00  0.00    -0.260 N 
ATOM      3  C   UNK     1      -0.693   1.417  -0.214  0.00  0.00    +0.240 C 
ENDROOT
BRANCH   2   4
ATOM      4  C   UNK     1      -2.347  -0.400   0.040  0.00  0.00    +0.054 C 
ATOM      5  C   UNK     1      -2.344  -0.985   1.276  0.00  0.00    +0.015 C 
ATOM      6  C   UNK     1      -2.624  -1.067  -1.122  0.00  0.00    +0.015 C 
ATOM      7  C   UNK     1      -2.642  -2.345   1.357  0.00  0.00    +0.001 C 
ATOM      8  C   UNK     1      -2.922  -2.427  -1.041  0.00  0.00    +0.001 C 
ATOM      9  C   UNK     1      -2.931  -3.066   0.198  0.00  0.00    +0.000 C 
ENDBRANCH   2   4
BRANCH   2  10
ATOM     10  C   UNK     1      -3.131   1.994   0.050  0.00  0.00    +0.080 C 
ATOM     11  C   UNK     1      -3.826   1.884   1.401  0.00  0.00    +0.022 C 
ATOM     12  C   UNK     1      -4.118   1.805  -1.095  0.00  0.00    +0.022 C 
ENDBRANCH   2  10
BRANCH   3  13
ATOM     13  C   UNK     1       0.316   0.283  -0.327  0.00  0.00    +0.143 C 
BRANCH  13  14
ATOM     14  S   UNK     1       2.001   0.910  -0.502  0.00  0.00    -0.132 S 
BRANCH  14  15
ATOM     15  C   UNK     1       2.864  -0.691  -0.602  0.00  0.00    +0.047 C 
BRANCH  15  16
ATOM     16  C   UNK     1       4.381  -0.519  -0.690  0.00  0.00    +0.047 C 
BRANCH  16  17
ATOM     17  N   UNK     1       5.032  -1.830  -0.743  0.00  0.00    +0.389 N 
ATOM     18  H   UNK     1       4.673  -2.355  -1.540  0.00  0.00    -0.088 HD
ATOM     19  H   UNK     1       4.837  -2.342   0.117  0.00  0.00    -0.088 HD
ATOM     20  H   UNK     1       6.039  -1.706  -0.844  0.00  0.00    -0.088 HD
ENDBRANCH  16  17
BRANCH  16  22
ATOM     21  O   UNK     1       4.797  -0.153   1.665  0.00  0.00    -0.253 OA
ATOM     22  C   UNK     1       4.946   0.222   0.507  0.00  0.00    +0.294 C 
BRANCH  22  23
ATOM     23  O   UNK     1       5.604   1.364   0.184  0.00  0.00    -0.482 OA
ATOM     24  H   UNK     1       5.695   1.614  -0.715  0.00  0.00    +0.295 HD
ENDBRANCH  22  23
ENDBRANCH  16  22
ENDBRANCH  15  16
ENDBRANCH  14  15
ENDBRANCH  13  14
ENDBRANCH   3  13
TORSDOF 9
