REMARK  Name = 129868
REMARK  2 active torsions:
REMARK  status: ('A' for Active; 'I' for Inactive)
REMARK    1  A    between atoms: C_8  and  O_29
REMARK    2  A    between atoms: C_23  and  O_31
REMARK                            x       y       z     vdW  Elec       q    Type
REMARK                         _______ _______ _______ _____ _____    ______ ____
ROOT
ATOM      1  O   UNL     1       1.090  -0.722   1.483  0.00  0.00    -0.474 OA
ATOM      2  O   UNL     1       2.973   2.654   1.239  0.00  0.00    -0.273 OA
ATOM      3  O   UNL     1       4.387  -0.902  -1.275  0.00  0.00    -0.252 OA
ATOM      4  N   UNL     1      -3.627   1.020   0.221  0.00  0.00    +0.389 N 
ATOM      5  N   UNL     1       2.268   0.000  -0.884  0.00  0.00    -0.281 N 
ATOM      6  N   UNL     1       4.027   0.941   0.094  0.00  0.00    -0.238 N 
ATOM      7  C   UNL     1      -0.788   0.529   0.611  0.00  0.00    +0.079 C 
ATOM      8  C   UNL     1      -1.312   1.455  -0.495  0.00  0.00    +0.078 C 
ATOM      9  C   UNL     1       0.702   0.621   1.008  0.00  0.00    +0.196 C 
ATOM     10  C   UNL     1      -2.701   0.880  -0.933  0.00  0.00    -0.028 C 
ATOM     11  C   UNL     1       1.669   1.088  -0.124  0.00  0.00    +0.165 C 
ATOM     12  C   UNL     1      -1.744   0.605   1.830  0.00  0.00    -0.013 C 
ATOM     13  C   UNL     1      -0.301   1.630  -1.637  0.00  0.00    +0.028 C 
ATOM     14  C   UNL     1      -0.756  -0.883   0.142  0.00  0.00    +0.016 C 
ATOM     15  C   UNL     1       1.050   2.110  -1.087  0.00  0.00    +0.033 C 
ATOM     16  C   UNL     1      -2.590  -0.577  -1.505  0.00  0.00    +0.008 C 
ATOM     17  C   UNL     1      -3.207   0.317   1.438  0.00  0.00    -0.077 C 
ATOM     18  C   UNL     1      -1.605  -1.458  -0.782  0.00  0.00    -0.025 C 
ATOM     19  C   UNL     1       0.284  -1.562   0.747  0.00  0.00    +0.168 C 
ATOM     20  C   UNL     1       2.943   1.678   0.500  0.00  0.00    +0.249 C 
ATOM     21  C   UNL     1      -5.020   0.736  -0.107  0.00  0.00    -0.100 C 
ATOM     22  C   UNL     1      -1.423  -2.817  -1.039  0.00  0.00    -0.001 C 
ATOM     23  C   UNL     1       0.470  -2.906   0.521  0.00  0.00    +0.167 C 
ATOM     24  C   UNL     1       3.652  -0.080  -0.745  0.00  0.00    +0.307 C 
ATOM     25  C   UNL     1      -0.404  -3.537  -0.377  0.00  0.00    +0.039 C 
ATOM     26  H   UNL     1      -3.570   2.014   0.444  0.00  0.00    -0.080 HD
ATOM     27  H   UNL     1       1.745  -0.620  -1.442  0.00  0.00    +0.151 HD
ATOM     28  H   UNL     1       4.955   1.120   0.369  0.00  0.00    +0.159 HD
ENDROOT
BRANCH   8  29
ATOM     29  O   UNL     1      -1.515   2.772   0.050  0.00  0.00    -0.388 OA
ATOM     30  H   UNL     1      -2.150   2.724   0.782  0.00  0.00    +0.210 HD
ENDBRANCH   8  29
BRANCH  23  31
ATOM     31  O   UNL     1       1.480  -3.594   1.107  0.00  0.00    -0.503 OA
ATOM     32  H   UNL     1       2.056  -3.160   1.705  0.00  0.00    +0.292 HD
ENDBRANCH  23  31
TORSDOF 2
