129851367
  -OEChem-03292013293D

 56 60  0     1  0  0  0  0  0999 V2000
   -5.6214   -0.5011    0.3148 O   0  0  0  0  0  0  0  0  0  0  0  0
   -3.3316    2.0257    1.2774 O   0  0  0  0  0  0  0  0  0  0  0  0
   -2.8105   -3.5023   -0.6872 O   0  0  0  0  0  0  0  0  0  0  0  0
   -5.8974    1.4331    1.4200 O   0  0  0  0  0  0  0  0  0  0  0  0
   -1.0472   -2.0646   -0.2759 N   0  0  0  0  0  0  0  0  0  0  0  0
    1.6868    0.1966    0.3219 N   0  0  0  0  0  0  0  0  0  0  0  0
    5.4346   -2.9099   -0.1712 N   0  0  0  0  0  0  0  0  0  0  0  0
   -3.8047    1.1537    0.2481 C   0  0  2  0  0  0  0  0  0  0  0  0
   -2.8539    0.0001    0.0836 C   0  0  0  0  0  0  0  0  0  0  0  0
   -0.5852   -0.7916    0.0152 C   0  0  0  0  0  0  0  0  0  0  0  0
    0.0746   -3.0141   -0.4270 C   0  0  0  0  0  0  0  0  0  0  0  0
   -3.3278   -1.2236   -0.2123 C   0  0  0  0  0  0  0  0  0  0  0  0
    1.2620   -2.1401   -0.1907 C   0  0  0  0  0  0  0  0  0  0  0  0
    0.8692   -0.8347    0.0683 C   0  0  0  0  0  0  0  0  0  0  0  0
   -1.4220    0.2340    0.1918 C   0  0  0  0  0  0  0  0  0  0  0  0
   -2.3860   -2.3817   -0.4160 C   0  0  0  0  0  0  0  0  0  0  0  0
   -3.9528    1.9518   -1.0490 C   0  0  0  0  0  0  0  0  0  0  0  0
   -4.7903   -1.4690   -0.3629 C   0  0  0  0  0  0  0  0  0  0  0  0
    2.6053   -2.4315   -0.1938 C   0  0  0  0  0  0  0  0  0  0  0  0
   -5.1829    0.7113    0.7267 C   0  0  0  0  0  0  0  0  0  0  0  0
    3.0061   -0.0832    0.3203 C   0  0  0  0  0  0  0  0  0  0  0  0
    3.5113   -1.3899    0.0660 C   0  0  0  0  0  0  0  0  0  0  0  0
    3.9223    0.9317    0.5759 C   0  0  0  0  0  0  0  0  0  0  0  0
   -2.6226    2.5211   -1.4992 C   0  0  0  0  0  0  0  0  0  0  0  0
    3.4512    2.3264    0.8510 C   0  0  0  0  0  0  0  0  0  0  0  0
    4.8953   -1.6242    0.0773 C   0  0  0  0  0  0  0  0  0  0  0  0
    5.2985    0.6917    0.5860 C   0  0  0  0  0  0  0  0  0  0  0  0
    3.0320    3.0556   -0.4316 C   0  0  0  0  0  0  0  0  0  0  0  0
    5.7853   -0.5857    0.3367 C   0  0  0  0  0  0  0  0  0  0  0  0
    2.5894    4.4901   -0.1436 C   0  0  0  0  0  0  0  0  0  0  0  0
    2.2124    5.2243   -1.4205 C   0  0  0  0  0  0  0  0  0  0  0  0
    0.0505   -3.4330   -1.4374 H   0  0  0  0  0  0  0  0  0  0  0  0
   -0.0269   -3.8037    0.3234 H   0  0  0  0  0  0  0  0  0  0  0  0
   -1.0466    1.2216    0.4324 H   0  0  0  0  0  0  0  0  0  0  0  0
   -4.3834    1.3367   -1.8489 H   0  0  0  0  0  0  0  0  0  0  0  0
   -4.6454    2.7892   -0.8918 H   0  0  0  0  0  0  0  0  0  0  0  0
   -5.0758   -1.4783   -1.4199 H   0  0  0  0  0  0  0  0  0  0  0  0
   -5.0591   -2.4399    0.0658 H   0  0  0  0  0  0  0  0  0  0  0  0
    2.9070   -3.4523   -0.3963 H   0  0  0  0  0  0  0  0  0  0  0  0
   -2.1062    3.0722   -0.7077 H   0  0  0  0  0  0  0  0  0  0  0  0
   -2.7979    3.2330   -2.3145 H   0  0  0  0  0  0  0  0  0  0  0  0
   -1.9580    1.7561   -1.9097 H   0  0  0  0  0  0  0  0  0  0  0  0
    2.6181    2.3042    1.5655 H   0  0  0  0  0  0  0  0  0  0  0  0
    4.2420    2.8998    1.3524 H   0  0  0  0  0  0  0  0  0  0  0  0
   -3.8860    2.8248    1.2805 H   0  0  0  0  0  0  0  0  0  0  0  0
    6.0033    1.4951    0.7845 H   0  0  0  0  0  0  0  0  0  0  0  0
    2.2158    2.5202   -0.9311 H   0  0  0  0  0  0  0  0  0  0  0  0
    3.8737    3.0689   -1.1363 H   0  0  0  0  0  0  0  0  0  0  0  0
    6.8585   -0.7575    0.3471 H   0  0  0  0  0  0  0  0  0  0  0  0
    1.7298    4.4837    0.5366 H   0  0  0  0  0  0  0  0  0  0  0  0
    3.3969    5.0358    0.3581 H   0  0  0  0  0  0  0  0  0  0  0  0
    6.4390   -3.0337   -0.1537 H   0  0  0  0  0  0  0  0  0  0  0  0
    4.8536   -3.7101   -0.3684 H   0  0  0  0  0  0  0  0  0  0  0  0
    3.0619    5.2759   -2.1090 H   0  0  0  0  0  0  0  0  0  0  0  0
    1.3851    4.7219   -1.9319 H   0  0  0  0  0  0  0  0  0  0  0  0
    1.8986    6.2474   -1.1909 H   0  0  0  0  0  0  0  0  0  0  0  0
  1 18  1  0  0  0  0
  1 20  1  0  0  0  0
  2  8  1  0  0  0  0
  2 45  1  0  0  0  0
  3 16  2  0  0  0  0
  4 20  2  0  0  0  0
  5 10  1  0  0  0  0
  5 11  1  0  0  0  0
  5 16  1  0  0  0  0
  6 14  2  0  0  0  0
  6 21  1  0  0  0  0
  7 26  1  0  0  0  0
  7 52  1  0  0  0  0
  7 53  1  0  0  0  0
  8  9  1  0  0  0  0
  8 17  1  0  0  0  0
  8 20  1  0  0  0  0
  9 12  2  0  0  0  0
  9 15  1  0  0  0  0
 10 14  1  0  0  0  0
 10 15  2  0  0  0  0
 11 13  1  0  0  0  0
 11 32  1  0  0  0  0
 11 33  1  0  0  0  0
 12 16  1  0  0  0  0
 12 18  1  0  0  0  0
 13 14  1  0  0  0  0
 13 19  2  0  0  0  0
 15 34  1  0  0  0  0
 17 24  1  0  0  0  0
 17 35  1  0  0  0  0
 17 36  1  0  0  0  0
 18 37  1  0  0  0  0
 18 38  1  0  0  0  0
 19 22  1  0  0  0  0
 19 39  1  0  0  0  0
 21 22  1  0  0  0  0
 21 23  2  0  0  0  0
 22 26  2  0  0  0  0
 23 25  1  0  0  0  0
 23 27  1  0  0  0  0
 24 40  1  0  0  0  0
 24 41  1  0  0  0  0
 24 42  1  0  0  0  0
 25 28  1  0  0  0  0
 25 43  1  0  0  0  0
 25 44  1  0  0  0  0
 26 29  1  0  0  0  0
 27 29  2  0  0  0  0
 27 46  1  0  0  0  0
 28 30  1  0  0  0  0
 28 47  1  0  0  0  0
 28 48  1  0  0  0  0
 29 49  1  0  0  0  0
 30 31  1  0  0  0  0
 30 50  1  0  0  0  0
 30 51  1  0  0  0  0
 31 54  1  0  0  0  0
 31 55  1  0  0  0  0
 31 56  1  0  0  0  0
M  END
> <PUBCHEM_COMPOUND_CID>
129851367

> <PUBCHEM_CONFORMER_RMSD>
0.8

> <PUBCHEM_CONFORMER_DIVERSEORDER>
1
5
4
2
3

> <PUBCHEM_MMFF94_PARTIAL_CHARGES>
32
1 -0.43
10 0.08
11 0.44
12 -0.12
13 -0.14
14 0.34
15 -0.15
16 0.62
18 0.42
19 -0.15
2 -0.68
20 0.66
21 0.31
23 -0.14
25 0.14
26 0.1
27 -0.15
29 -0.15
3 -0.57
34 0.15
39 0.15
4 -0.57
45 0.4
46 0.15
49 0.15
5 -0.47
52 0.4
53 0.4
6 -0.62
7 -0.9
8 0.48
9 -0.14

> <PUBCHEM_EFFECTIVE_ROTOR_COUNT>
4.8

> <PUBCHEM_PHARMACOPHORE_FEATURES>
14
1 2 acceptor
1 2 donor
1 24 hydrophobe
1 3 acceptor
1 31 hydrophobe
1 4 acceptor
1 6 acceptor
1 7 cation
1 7 donor
5 5 10 11 13 14 rings
6 1 8 9 12 18 20 rings
6 21 22 23 26 27 29 rings
6 5 9 10 12 15 16 rings
6 6 13 14 19 21 22 rings

> <PUBCHEM_HEAVY_ATOM_COUNT>
31

> <PUBCHEM_ATOM_DEF_STEREO_COUNT>
1

> <PUBCHEM_ATOM_UDEF_STEREO_COUNT>
0

> <PUBCHEM_BOND_DEF_STEREO_COUNT>
0

> <PUBCHEM_BOND_UDEF_STEREO_COUNT>
0

> <PUBCHEM_ISOTOPIC_ATOM_COUNT>
0

> <PUBCHEM_COMPONENT_COUNT>
1

> <PUBCHEM_CACTVS_TAUTO_COUNT>
459

> <PUBCHEM_CONFORMER_ID>
07BD5FE700000001

> <PUBCHEM_MMFF94_ENERGY>
96.6846

> <PUBCHEM_FEATURE_SELFOVERLAP>
71.296

> <PUBCHEM_SHAPE_FINGERPRINT>
10763959 59 18260260828639966629
10937287 8 17543636782755382412
11513181 2 18055361498607336470
11595378 159 17313374574568013769
12107183 9 18197496221371195162
12166972 35 18343303656494155048
12596602 18 14924240304044276988
12925494 130 18194678169011932729
13140716 1 18335709398453109123
13402501 40 18263360309021618028
13560911 43 18334289868511714288
13583140 156 17458888371773407139
14020679 6 17968103035692687858
14117953 113 18267585706764710685
14341114 176 18413392016416055354
14466204 15 18336816512458024378
14790565 3 18268433614759773331
14849402 71 18335709390069299116
15081414 286 18340207402060073692
15082195 135 18267851968555139613
15196674 1 18342736312583727466
15320467 1 17906449931168456236
16993438 75 17612030382836946812
17844677 252 18340492269491424410
18681886 176 18342170064596511570
21033648 144 18341599434929964836
21033648 29 18267005190004554489
21033650 10 15481853223898111610
21065198 57 18340204184823958130
21133410 127 17824814783377987836
21236236 1 18272366486675672103
21315764 268 18408880746066842919
21623110 236 18339644538116839529
21709351 56 18412819179479755726
23227448 37 18412821399977906191
23559900 14 18131066013986078994
245318 6 17536602055346446028
24771293 8 18271230738904296032
3103668 31 17976264530813413516
335352 9 18342739568796711526
338550 245 18339642347192888688
350125 39 18412263947450592226
4073 2 18334297617229250298
4214541 1 18413668006598540891
508706 21 18187632566681875493
5104073 3 18411414020847307114
513532 50 18059587905857705596
53794403 172 18264214788781588852
6086070 43 17970879255255290982
6287921 2 18263361554630809868
6371009 1 18195788859800341236
9981440 41 17543629090426380952

> <PUBCHEM_SHAPE_MULTIPOLES>
599.55
13.1
5.19
0.99
2.46
5.33
0.03
0.4
-2.59
-3.95
2.05
0.63
0.74
-0.68

> <PUBCHEM_SHAPE_SELFOVERLAP>
1335.93

> <PUBCHEM_SHAPE_VOLUME>
318.8

> <PUBCHEM_COORDINATE_TYPE>
2
5
10

$$$$
