129821263
  -OEChem-03292013293D

 44 47  0     1  0  0  0  0  0999 V2000
    0.1862   -4.8165   -0.6825 Br  0  0  0  0  0  0  0  0  0  0  0  0
    2.9521    1.4768    1.2606 S   0  0  0  0  0  0  0  0  0  0  0  0
    1.3738   -1.9108   -1.2085 S   0  0  0  0  0  0  0  0  0  0  0  0
   -0.8083    0.5948   -0.2878 O   0  0  0  0  0  0  0  0  0  0  0  0
    1.8990    2.6263   -1.2438 O   0  0  0  0  0  0  0  0  0  0  0  0
    0.0064    2.4803    0.7609 O   0  0  0  0  0  0  0  0  0  0  0  0
   -3.9393   -0.8914    0.2955 N   0  0  0  0  0  0  0  0  0  0  0  0
   -3.0659    1.5039   -0.2071 C   0  0  0  0  0  0  0  0  0  0  0  0
   -1.9908    0.6595    0.5010 C   0  0  1  0  0  0  0  0  0  0  0  0
   -4.2935    1.5492    0.7139 C   0  0  0  0  0  0  0  0  0  0  0  0
   -3.4849    0.7840   -1.5010 C   0  0  0  0  0  0  0  0  0  0  0  0
   -2.5295   -0.7639    0.7317 C   0  0  0  0  0  0  0  0  0  0  0  0
   -4.7577    0.1132    1.0101 C   0  0  0  0  0  0  0  0  0  0  0  0
   -4.0100   -0.6189   -1.1564 C   0  0  0  0  0  0  0  0  0  0  0  0
    2.4007    0.5143   -0.2316 C   0  0  1  0  0  0  0  0  0  0  0  0
    1.3306    1.3620   -0.9399 C   0  0  1  0  0  0  0  0  0  0  0  0
    0.1187    1.5750   -0.0556 C   0  0  0  0  0  0  0  0  0  0  0  0
    3.7003    0.4305   -1.0862 C   0  0  0  0  0  0  0  0  0  0  0  0
    1.8321   -0.8806    0.0802 C   0  0  0  0  0  0  0  0  0  0  0  0
    4.8777    0.5411   -0.1663 C   0  0  0  0  0  0  0  0  0  0  0  0
    4.6120    1.0577    1.0343 C   0  0  0  0  0  0  0  0  0  0  0  0
    1.6217   -1.4655    1.3094 C   0  0  0  0  0  0  0  0  0  0  0  0
    1.0769   -2.7768    1.1919 C   0  0  0  0  0  0  0  0  0  0  0  0
    0.8916   -3.1441   -0.1228 C   0  0  0  0  0  0  0  0  0  0  0  0
   -2.7008    2.5099   -0.4379 H   0  0  0  0  0  0  0  0  0  0  0  0
   -1.7711    1.0928    1.4863 H   0  0  0  0  0  0  0  0  0  0  0  0
   -5.1029    2.1135    0.2355 H   0  0  0  0  0  0  0  0  0  0  0  0
   -4.0466    2.0639    1.6499 H   0  0  0  0  0  0  0  0  0  0  0  0
   -2.6358    0.7090   -2.1902 H   0  0  0  0  0  0  0  0  0  0  0  0
   -4.2661    1.3583   -2.0131 H   0  0  0  0  0  0  0  0  0  0  0  0
   -1.9167   -1.5130    0.2156 H   0  0  0  0  0  0  0  0  0  0  0  0
   -2.4629   -1.0151    1.7981 H   0  0  0  0  0  0  0  0  0  0  0  0
   -3.4364   -1.3772   -1.7040 H   0  0  0  0  0  0  0  0  0  0  0  0
   -5.8124   -0.0028    0.7311 H   0  0  0  0  0  0  0  0  0  0  0  0
   -4.7174   -0.0779    2.0898 H   0  0  0  0  0  0  0  0  0  0  0  0
   -5.0453   -0.7272   -1.5034 H   0  0  0  0  0  0  0  0  0  0  0  0
    1.0081    0.9338   -1.8949 H   0  0  0  0  0  0  0  0  0  0  0  0
    3.7753    1.2296   -1.8331 H   0  0  0  0  0  0  0  0  0  0  0  0
    3.7775   -0.5098   -1.6415 H   0  0  0  0  0  0  0  0  0  0  0  0
    5.8746    0.2550   -0.4747 H   0  0  0  0  0  0  0  0  0  0  0  0
    5.3563    1.2275    1.7998 H   0  0  0  0  0  0  0  0  0  0  0  0
    2.2367    3.0135   -0.4182 H   0  0  0  0  0  0  0  0  0  0  0  0
    1.8352   -0.9988    2.2616 H   0  0  0  0  0  0  0  0  0  0  0  0
    0.8351   -3.4105    2.0361 H   0  0  0  0  0  0  0  0  0  0  0  0
  1 24  1  0  0  0  0
  2 15  1  0  0  0  0
  2 21  1  0  0  0  0
  3 19  1  0  0  0  0
  3 24  1  0  0  0  0
  4  9  1  0  0  0  0
  4 17  1  0  0  0  0
  5 16  1  0  0  0  0
  5 42  1  0  0  0  0
  6 17  2  0  0  0  0
  7 12  1  0  0  0  0
  7 13  1  0  0  0  0
  7 14  1  0  0  0  0
  8  9  1  0  0  0  0
  8 10  1  0  0  0  0
  8 11  1  0  0  0  0
  8 25  1  0  0  0  0
  9 12  1  0  0  0  0
  9 26  1  0  0  0  0
 10 13  1  0  0  0  0
 10 27  1  0  0  0  0
 10 28  1  0  0  0  0
 11 14  1  0  0  0  0
 11 29  1  0  0  0  0
 11 30  1  0  0  0  0
 12 31  1  0  0  0  0
 12 32  1  0  0  0  0
 13 34  1  0  0  0  0
 13 35  1  0  0  0  0
 14 33  1  0  0  0  0
 14 36  1  0  0  0  0
 15 16  1  0  0  0  0
 15 18  1  0  0  0  0
 15 19  1  0  0  0  0
 16 17  1  0  0  0  0
 16 37  1  0  0  0  0
 18 20  1  0  0  0  0
 18 38  1  0  0  0  0
 18 39  1  0  0  0  0
 19 22  2  0  0  0  0
 20 21  2  0  0  0  0
 20 40  1  0  0  0  0
 21 41  1  0  0  0  0
 22 23  1  0  0  0  0
 22 43  1  0  0  0  0
 23 24  2  0  0  0  0
 23 44  1  0  0  0  0
M  END
> <PUBCHEM_COMPOUND_CID>
129821263

> <PUBCHEM_CONFORMER_RMSD>
1

> <PUBCHEM_CONFORMER_DIVERSEORDER>
1
57
218
292
256
125
95
208
160
142
53
193
257
82
61
186
148
286
282
184
65
62
31
168
159
12
75
96
261
48
203
70
241
214
188
133
174
290
222
258
202
166
192
287
76
134
99
197
116
135
73
64
265
185
56
240
140
164
299
122
274
150
38
91
242
243
102
225
111
20
245
146
212
118
294
254
149
100
296
173
280
115
196
272
128
169
44
268
130
101
227
157
246
262
72
147
19
171
45
18
78
77
235
161
194
63
25
177
204
49
239
182
28
144
213
269
55
216
112
58
283
156
278
59
50
210
103
281
123
39
244
32
220
145
41
170
199
6
209
90
117
43
21
181
94
291
264
247
105
229
275
211
219
162
231
279
27
201
5
17
120
238
136
230
260
165
195
189
141
51
248
137
271
23
110
190
236
221
270
154
7
80
121
104
255
124
298
68
42
22
178
289
69
11
15
143
89
24
98
158
87
13
267
253
206
293
10
198
217
83
152
37
179
138
172
155
263
139
167
273
284
215
4
151
109
234
285
60
187
108
250
16
232
226
92
277
85
249
114
228
113
84
35
34
14
266
36
252
276
237
2
205
223
259
207
163
26
88
54
97
126
132
86
176
8
224
66
40
30
106
67
47
93
295
71
29
153
52
191
79
119
183
46
288
131
175
233
9
180
3
107
127
81
251
297
129
33
74
200

> <PUBCHEM_MMFF94_PARTIAL_CHARGES>
26
1 -0.06
12 0.27
13 0.27
14 0.27
15 0.41
16 0.34
17 0.66
18 0.14
19 -0.14
2 -0.33
20 -0.29
21 -0.05
22 -0.15
23 -0.15
24 0.1
3 -0.08
4 -0.43
40 0.15
41 0.15
42 0.4
43 0.15
44 0.15
5 -0.68
6 -0.57
7 -0.81
9 0.28

> <PUBCHEM_EFFECTIVE_ROTOR_COUNT>
6.8

> <PUBCHEM_PHARMACOPHORE_FEATURES>
8
1 1 hydrophobe
1 5 acceptor
1 5 donor
1 6 acceptor
1 7 cation
5 2 15 18 20 21 rings
5 3 19 22 23 24 rings
8 7 8 9 10 11 12 13 14 rings

> <PUBCHEM_HEAVY_ATOM_COUNT>
24

> <PUBCHEM_ATOM_DEF_STEREO_COUNT>
0

> <PUBCHEM_ATOM_UDEF_STEREO_COUNT>
3

> <PUBCHEM_BOND_DEF_STEREO_COUNT>
0

> <PUBCHEM_BOND_UDEF_STEREO_COUNT>
0

> <PUBCHEM_ISOTOPIC_ATOM_COUNT>
0

> <PUBCHEM_COMPONENT_COUNT>
1

> <PUBCHEM_CACTVS_TAUTO_COUNT>
1

> <PUBCHEM_CONFORMER_ID>
07BCEA4F00000001

> <PUBCHEM_MMFF94_ENERGY>
52.9914

> <PUBCHEM_FEATURE_SELFOVERLAP>
40.6

> <PUBCHEM_SHAPE_FINGERPRINT>
10064457 181 18341049739097795672
10616163 171 18335427906470836571
10930396 42 14672555911936717505
1100329 8 18266738180872880696
11370993 70 18410851096515248713
11578080 2 17243858957019254332
12422481 6 18119500208255213146
12553582 1 17905330628489044751
12596602 18 17346331422826681763
12633257 1 17749110019259840081
12788726 201 16844171130589941833
13140716 1 18191590954618275089
13224815 77 18341889675924240357
13533116 47 18127408956944769401
138480 1 17907020569081279655
14178342 30 18409736153334092681
14223421 5 18194399996220727804
14251751 93 18268991049769828759
14787075 74 17987510580149526504
14790565 3 18336836385087664612
14863182 85 18336279963288704910
15338160 23 17406242896586333824
1601671 61 18187083953687951396
17134984 74 17982415409423340951
17138139 8 17554855005330253495
17349148 13 18260828206688767720
18681886 176 18261677073206089596
20028762 73 18056481879334504127
20567600 347 18261115166359879490
20600515 1 16677512462388675010
20645477 70 18263635174423176119
20739085 24 18263366906386322460
21033648 29 18271792562658946912
21120745 212 16832079625279025838
21285901 2 17677880241903894925
21421861 104 18122071896489253728
22393880 68 18341889658506955909
23419403 2 17099155539208650286
23557571 272 15864069867204233717
23559900 14 18192430766563191620
238 59 18116971430084481951
3052486 1 18119799455474362626
3060560 45 18260548939752151356
3383291 50 18269835321231676786
34934 24 18271806774847835113
4280585 95 17686617940403689086
463206 1 17980190109442196951
484985 159 13993328670119417426
57091435 65 18268432330338244455
59755656 520 18410568527044843638
633830 44 18130788979414695660
7364860 26 18268149743159890370
81228 2 17256517522805111059

> <PUBCHEM_SHAPE_MULTIPOLES>
484.96
8.71
4.01
1.38
4.28
5.93
-0.06
-4.43
0.7
-1.53
-0.39
-0.08
-0.02
-0.08

> <PUBCHEM_SHAPE_SELFOVERLAP>
1002.063

> <PUBCHEM_SHAPE_VOLUME>
283.2

> <PUBCHEM_COORDINATE_TYPE>
2
5
10

$$$$
