129835632
  -OEChem-03292013293D

 47 50  0     1  0  0  0  0  0999 V2000
    0.2842    2.4002    0.9505 O   0  0  0  0  0  0  0  0  0  0  0  0
    0.3951    1.2032   -2.4459 O   0  0  0  0  0  0  0  0  0  0  0  0
    2.2268    2.8908   -1.3060 O   0  0  0  0  0  0  0  0  0  0  0  0
   -0.8526    4.8266    1.7681 O   0  0  0  0  0  0  0  0  0  0  0  0
   -1.2426    0.5879    0.3667 N   0  0  0  0  0  0  0  0  0  0  0  0
   -3.1334    0.1009    1.4425 N   0  0  0  0  0  0  0  0  0  0  0  0
   -1.2570   -1.1641   -1.3155 N   0  0  0  0  0  0  0  0  0  0  0  0
   -3.2226   -2.5932   -1.0900 N   0  0  0  0  0  0  0  0  0  0  0  0
   -4.8784   -2.2429    0.6016 N   0  0  0  0  0  0  0  0  0  0  0  0
    0.0514    1.3169    0.0135 C   0  0  1  0  0  0  0  0  0  0  0  0
   -0.0172    2.0131   -1.3615 C   0  0  1  0  0  0  0  0  0  0  0  0
    0.8507    3.2443   -1.1866 C   0  0  1  0  0  0  0  0  0  0  0  0
    0.5556    3.6327    0.2519 C   0  0  1  0  0  0  0  0  0  0  0  0
   -0.6623    4.5361    0.3946 C   0  0  0  0  0  0  0  0  0  0  0  0
    1.1931    0.3844    0.1234 C   0  0  0  0  0  0  0  0  0  0  0  0
   -1.7651   -0.5056   -0.2632 C   0  0  0  0  0  0  0  0  0  0  0  0
   -2.0998    0.9145    1.3839 C   0  0  0  0  0  0  0  0  0  0  0  0
   -2.9371   -0.7915    0.4187 C   0  0  0  0  0  0  0  0  0  0  0  0
    2.1201   -0.3740    0.2132 C   0  0  0  0  0  0  0  0  0  0  0  0
   -3.6763   -1.8811   -0.0305 C   0  0  0  0  0  0  0  0  0  0  0  0
   -2.0583   -2.1963   -1.6584 C   0  0  0  0  0  0  0  0  0  0  0  0
    3.2242   -1.2773    0.3205 C   0  0  0  0  0  0  0  0  0  0  0  0
    3.0779   -2.4788    1.0139 C   0  0  0  0  0  0  0  0  0  0  0  0
    4.4470   -0.9566   -0.2687 C   0  0  0  0  0  0  0  0  0  0  0  0
   -5.6789   -3.3544    0.1811 C   0  0  0  0  0  0  0  0  0  0  0  0
    4.1546   -3.3596    1.1180 C   0  0  0  0  0  0  0  0  0  0  0  0
    5.5237   -1.8372   -0.1646 C   0  0  0  0  0  0  0  0  0  0  0  0
    5.3774   -3.0389    0.5288 C   0  0  0  0  0  0  0  0  0  0  0  0
   -1.0459    2.3391   -1.5631 H   0  0  0  0  0  0  0  0  0  0  0  0
    0.6423    4.0267   -1.9220 H   0  0  0  0  0  0  0  0  0  0  0  0
    1.4191    4.0910    0.7468 H   0  0  0  0  0  0  0  0  0  0  0  0
   -1.5728    4.0489    0.0322 H   0  0  0  0  0  0  0  0  0  0  0  0
   -0.5159    5.4761   -0.1463 H   0  0  0  0  0  0  0  0  0  0  0  0
   -0.1974    0.4336   -2.4810 H   0  0  0  0  0  0  0  0  0  0  0  0
    2.7488    3.6927   -1.1323 H   0  0  0  0  0  0  0  0  0  0  0  0
   -1.9297    1.7488    2.0504 H   0  0  0  0  0  0  0  0  0  0  0  0
   -1.6312    5.4054    1.8338 H   0  0  0  0  0  0  0  0  0  0  0  0
   -1.7251   -2.7888   -2.5037 H   0  0  0  0  0  0  0  0  0  0  0  0
   -5.1829   -1.6840    1.3907 H   0  0  0  0  0  0  0  0  0  0  0  0
    2.1308   -2.7430    1.4783 H   0  0  0  0  0  0  0  0  0  0  0  0
    4.5765   -0.0239   -0.8125 H   0  0  0  0  0  0  0  0  0  0  0  0
   -6.0228   -3.2249   -0.8501 H   0  0  0  0  0  0  0  0  0  0  0  0
   -6.5627   -3.4394    0.8208 H   0  0  0  0  0  0  0  0  0  0  0  0
   -5.1202   -4.2930    0.2552 H   0  0  0  0  0  0  0  0  0  0  0  0
    4.0407   -4.2952    1.6578 H   0  0  0  0  0  0  0  0  0  0  0  0
    6.4759   -1.5877   -0.6234 H   0  0  0  0  0  0  0  0  0  0  0  0
    6.2157   -3.7246    0.6097 H   0  0  0  0  0  0  0  0  0  0  0  0
  1 10  1  0  0  0  0
  1 13  1  0  0  0  0
  2 11  1  0  0  0  0
  2 34  1  0  0  0  0
  3 12  1  0  0  0  0
  3 35  1  0  0  0  0
  4 14  1  0  0  0  0
  4 37  1  0  0  0  0
  5 10  1  0  0  0  0
  5 16  1  0  0  0  0
  5 17  1  0  0  0  0
  6 17  2  0  0  0  0
  6 18  1  0  0  0  0
  7 16  2  0  0  0  0
  7 21  1  0  0  0  0
  8 20  1  0  0  0  0
  8 21  2  0  0  0  0
  9 20  1  0  0  0  0
  9 25  1  0  0  0  0
  9 39  1  0  0  0  0
 10 11  1  0  0  0  0
 10 15  1  0  0  0  0
 11 12  1  0  0  0  0
 11 29  1  0  0  0  0
 12 13  1  0  0  0  0
 12 30  1  0  0  0  0
 13 14  1  0  0  0  0
 13 31  1  0  0  0  0
 14 32  1  0  0  0  0
 14 33  1  0  0  0  0
 15 19  3  0  0  0  0
 16 18  1  0  0  0  0
 17 36  1  0  0  0  0
 18 20  2  0  0  0  0
 19 22  1  0  0  0  0
 21 38  1  0  0  0  0
 22 23  2  0  0  0  0
 22 24  1  0  0  0  0
 23 26  1  0  0  0  0
 23 40  1  0  0  0  0
 24 27  2  0  0  0  0
 24 41  1  0  0  0  0
 25 42  1  0  0  0  0
 25 43  1  0  0  0  0
 25 44  1  0  0  0  0
 26 28  2  0  0  0  0
 26 45  1  0  0  0  0
 27 28  1  0  0  0  0
 27 46  1  0  0  0  0
 28 47  1  0  0  0  0
M  END
> <PUBCHEM_COMPOUND_CID>
129835632

> <PUBCHEM_CONFORMER_RMSD>
0.8

> <PUBCHEM_CONFORMER_DIVERSEORDER>
1
8
6
2
3
7
5
4
9

> <PUBCHEM_MMFF94_PARTIAL_CHARGES>
39
1 -0.56
10 0.74
11 0.28
12 0.28
13 0.28
14 0.28
15 -0.2
16 0.11
17 0.04
18 0.23
19 -0.07
2 -0.68
20 0.41
21 0.47
22 0.07
23 -0.15
24 -0.15
25 0.37
26 -0.15
27 -0.15
28 -0.15
3 -0.68
34 0.4
35 0.4
36 0.15
37 0.4
38 0.15
39 0.4
4 -0.68
40 0.15
41 0.15
45 0.15
46 0.15
47 0.15
5 0.05
6 -0.57
7 -0.57
8 -0.62
9 -0.87

> <PUBCHEM_EFFECTIVE_ROTOR_COUNT>
4

> <PUBCHEM_PHARMACOPHORE_FEATURES>
16
1 1 acceptor
1 2 acceptor
1 2 donor
1 3 acceptor
1 3 donor
1 4 acceptor
1 4 donor
1 9 cation
1 9 donor
3 5 6 17 cation
3 5 7 16 cation
3 7 8 21 cation
5 1 10 11 12 13 rings
5 5 6 16 17 18 rings
6 22 23 24 26 27 28 rings
6 7 8 16 18 20 21 rings

> <PUBCHEM_HEAVY_ATOM_COUNT>
28

> <PUBCHEM_ATOM_DEF_STEREO_COUNT>
4

> <PUBCHEM_ATOM_UDEF_STEREO_COUNT>
0

> <PUBCHEM_BOND_DEF_STEREO_COUNT>
0

> <PUBCHEM_BOND_UDEF_STEREO_COUNT>
0

> <PUBCHEM_ISOTOPIC_ATOM_COUNT>
0

> <PUBCHEM_COMPONENT_COUNT>
1

> <PUBCHEM_CACTVS_TAUTO_COUNT>
4

> <PUBCHEM_CONFORMER_ID>
07BD227000000001

> <PUBCHEM_MMFF94_ENERGY>
68.6783

> <PUBCHEM_FEATURE_SELFOVERLAP>
81.818

> <PUBCHEM_SHAPE_FINGERPRINT>
11045515 52 18113615655802663214
11552529 35 18121778331886219954
11578080 2 18270095998721044281
12107183 9 18340498798701415019
12160290 23 17689397561347509552
12553582 1 18336256878003447762
12788726 201 18266757800330857622
13004483 165 18339071588709030184
13009979 54 18201167610490699538
13140716 1 18341048532043161185
13533116 47 18120375617195890995
13631057 29 18335137536986400402
13955234 65 17979357791686671243
15042514 8 18268148665122845763
15927050 60 17619633926285855175
17980427 26 17480289514931028741
1813 80 18410303509844955638
19319366 153 17333652077783518727
20600515 1 17559975245970060681
20775530 9 18338785784648586182
21120745 212 18339371768796127892
23559900 14 18265606762228949347
23598288 3 17899715469939933516
4409770 3 18047465630540913453
46194498 28 17096644499126199735
484985 159 17901658281026882694
508706 21 17767122008599176806
57527585 103 17905572581504025152
6697151 62 18195501857929084911
6786 2 17261026620006386161
70251023 43 18261672692370745875
7097593 13 18198622318629611919
7970288 3 18408319977931597218

> <PUBCHEM_SHAPE_MULTIPOLES>
527.84
9.55
6.12
1.51
6.11
5.87
-0.41
-16.44
1.89
-2.24
0.95
-0.48
0.63
-1.95

> <PUBCHEM_SHAPE_SELFOVERLAP>
1152.341

> <PUBCHEM_SHAPE_VOLUME>
282.3

> <PUBCHEM_COORDINATE_TYPE>
2
5
10

$$$$
