REMARK  Name = 129829664
REMARK  12 active torsions:
REMARK  status: ('A' for Active; 'I' for Inactive)
REMARK    1  A    between atoms: C_2  and  O_9
REMARK    2  A    between atoms: C_3  and  O_14
REMARK    3  A    between atoms: C_4  and  O_19
REMARK    4  A    between atoms: C_5  and  C_24
REMARK    5  A    between atoms: C_6  and  O_7
REMARK    6  A    between atoms: O_9  and  C_11
REMARK    7  A    between atoms: C_11  and  C_12
REMARK    8  A    between atoms: O_14  and  C_16
REMARK    9  A    between atoms: C_16  and  C_17
REMARK   10  A    between atoms: O_19  and  C_21
REMARK   11  A    between atoms: C_21  and  C_22
REMARK   12  A    between atoms: C_24  and  O_25
REMARK                            x       y       z     vdW  Elec       q    Type
REMARK                         _______ _______ _______ _____ _____    ______ ____
ROOT
ATOM      1  O   UNL     1      -0.224  -2.337  -0.602  0.00  0.00    -0.324 OA
ATOM      2  C   UNL     1      -0.120   0.439   0.186  0.00  0.00    +0.256 C 
ATOM      3  C   UNL     1      -1.419  -0.232  -0.262  0.00  0.00    +0.242 C 
ATOM      4  C   UNL     1       1.091  -0.305  -0.375  0.00  0.00    +0.268 C 
ATOM      5  C   UNL     1      -1.381  -1.744  -0.001  0.00  0.00    +0.191 C 
ATOM      6  C   UNL     1       1.006  -1.808  -0.103  0.00  0.00    +0.281 C 
ENDROOT
BRANCH   6   7
ATOM      7  O   UNL     1       1.215  -2.128   1.271  0.00  0.00    -0.325 OA
ATOM      8  C   UNL     1       1.584  -3.489   1.433  0.00  0.00    +0.177 C 
ENDBRANCH   6   7
BRANCH   2   9
ATOM      9  O   UNL     1      -0.115   1.780  -0.308  0.00  0.00    -0.445 OA
BRANCH   9  11
ATOM     10  O   UNL     1       1.131   2.460   1.515  0.00  0.00    -0.250 OA
ATOM     11  C   UNL     1       0.551   2.689   0.462  0.00  0.00    +0.313 C 
ATOM     12  C   UNL     1       0.473   4.043  -0.176  0.00  0.00    +0.127 C 
ENDBRANCH   9  11
ENDBRANCH   2   9
BRANCH   3  13
ATOM     13  O   UNL     1      -2.496   0.367   0.455  0.00  0.00    -0.446 OA
BRANCH  13  15
ATOM     14  O   UNL     1      -2.676   2.009  -1.160  0.00  0.00    -0.250 OA
ATOM     15  C   UNL     1      -3.033   1.488  -0.112  0.00  0.00    +0.313 C 
ATOM     16  C   UNL     1      -4.147   2.005   0.747  0.00  0.00    +0.127 C 
ENDBRANCH  13  15
ENDBRANCH   3  13
BRANCH   4  17
ATOM     17  O   UNL     1       2.280   0.233   0.192  0.00  0.00    -0.443 OA
BRANCH  17  19
ATOM     18  O   UNL     1       3.430  -0.206  -1.762  0.00  0.00    -0.250 OA
ATOM     19  C   UNL     1       3.382   0.220  -0.616  0.00  0.00    +0.313 C 
ATOM     20  C   UNL     1       4.551   0.813   0.109  0.00  0.00    +0.127 C 
ENDBRANCH  17  19
ENDBRANCH   4  17
BRANCH   5  21
ATOM     21  C   UNL     1      -2.600  -2.457  -0.582  0.00  0.00    +0.171 C 
BRANCH  21  22
ATOM     22  O   UNL     1      -2.483  -3.841  -0.309  0.00  0.00    -0.379 OA
ATOM     23  H   UNL     1      -3.252  -4.308  -0.673  0.00  0.00    +0.211 HD
ENDBRANCH  21  22
ENDBRANCH   5  21
TORSDOF 9
