REMARK  Name = 129847812
REMARK  11 active torsions:
REMARK  status: ('A' for Active; 'I' for Inactive)
REMARK    1  A    between atoms: C_3  and  C_24
REMARK    2  A    between atoms: C_5  and  O_16
REMARK    3  A    between atoms: C_6  and  O_18
REMARK    4  A    between atoms: C_11  and  C_33
REMARK    5  A    between atoms: C_13  and  O_20
REMARK    6  A    between atoms: C_15  and  O_22
REMARK    7  A    between atoms: C_24  and  C_25
REMARK    8  A    between atoms: C_25  and  C_26
REMARK    9  A    between atoms: C_25  and  O_31
REMARK   10  A    between atoms: C_26  and  O_29
REMARK   11  A    between atoms: C_33  and  C_34
REMARK                            x       y       z     vdW  Elec       q    Type
REMARK                         _______ _______ _______ _____ _____    ______ ____
ROOT
ATOM      1  O   UNL     1      -0.869  -2.596   0.415  0.00  0.00    -0.453 OA
ATOM      2  O   UNL     1      -0.854   1.449  -0.199  0.00  0.00    -0.286 OA
ATOM      3  C   UNL     1       2.761  -0.564   0.615  0.00  0.00    +0.048 C 
ATOM      4  C   UNL     1       0.374  -0.499   0.271  0.00  0.00    +0.107 A 
ATOM      5  C   UNL     1       1.602   0.164   0.342  0.00  0.00    +0.139 C 
ATOM      6  C   UNL     1       2.692  -1.943   0.815  0.00  0.00    +0.136 C 
ATOM      7  C   UNL     1       0.299  -1.877   0.469  0.00  0.00    +0.154 A 
ATOM      8  C   UNL     1      -2.106  -0.547  -0.070  0.00  0.00    +0.073 A 
ATOM      9  C   UNL     1      -0.865   0.241  -0.015  0.00  0.00    +0.204 A 
ATOM     10  C   UNL     1       1.463  -2.600   0.742  0.00  0.00    +0.074 C 
ATOM     11  C   UNL     1      -3.332   0.068  -0.336  0.00  0.00    +0.025 C 
ATOM     12  C   UNL     1      -2.036  -1.922   0.149  0.00  0.00    +0.151 A 
ATOM     13  C   UNL     1      -4.493  -0.704  -0.381  0.00  0.00    +0.169 C 
ATOM     14  C   UNL     1      -3.202  -2.690   0.102  0.00  0.00    +0.077 C 
ATOM     15  C   UNL     1      -4.428  -2.080  -0.163  0.00  0.00    +0.171 C 
ENDROOT
BRANCH   5  16
ATOM     16  O   UNL     1       1.710   1.510   0.154  0.00  0.00    -0.506 OA
ATOM     17  H   UNL     1       2.548   1.925   0.209  0.00  0.00    +0.292 HD
ENDBRANCH   5  16
BRANCH   6  18
ATOM     18  O   UNL     1       3.816  -2.666   1.082  0.00  0.00    -0.506 OA
ATOM     19  H   UNL     1       4.647  -2.237   1.134  0.00  0.00    +0.292 HD
ENDBRANCH   6  18
BRANCH  13  20
ATOM     20  O   UNL     1      -5.700  -0.122  -0.640  0.00  0.00    -0.469 OA
ATOM     21  C   UNL     1      -6.096  -0.037  -2.007  0.00  0.00    +0.253 C 
ENDBRANCH  13  20
BRANCH  15  22
ATOM     22  O   UNL     1      -5.557  -2.842  -0.205  0.00  0.00    -0.503 OA
ATOM     23  H   UNL     1      -6.386  -2.443  -0.382  0.00  0.00    +0.292 HD
ENDBRANCH  15  22
BRANCH   3  24
ATOM     24  C   UNL     1       4.083   0.132   0.695  0.00  0.00    +0.064 C 
BRANCH  24  25
ATOM     25  C   UNL     1       4.803   0.196  -0.668  0.00  0.00    +0.139 C 
BRANCH  25  26
ATOM     26  C   UNL     1       6.315   0.529  -0.597  0.00  0.00    +0.113 C 
ATOM     27  C   UNL     1       7.116  -0.552   0.136  0.00  0.00    +0.032 C 
ATOM     28  C   UNL     1       6.599   1.901   0.022  0.00  0.00    +0.032 C 
BRANCH  26  29
ATOM     29  O   UNL     1       6.811   0.580  -1.943  0.00  0.00    -0.384 OA
ATOM     30  H   UNL     1       6.653  -0.272  -2.378  0.00  0.00    +0.210 HD
ENDBRANCH  26  29
ENDBRANCH  25  26
BRANCH  25  31
ATOM     31  O   UNL     1       4.144   1.197  -1.454  0.00  0.00    -0.382 OA
ATOM     32  H   UNL     1       4.574   1.263  -2.321  0.00  0.00    +0.210 HD
ENDBRANCH  25  31
ENDBRANCH  24  25
ENDBRANCH   3  24
BRANCH  11  33
ATOM     33  C   UNL     1      -3.471   1.539  -0.579  0.00  0.00    +0.055 C 
BRANCH  33  34
ATOM     34  C   UNL     1      -3.362   2.352   0.685  0.00  0.00    -0.030 C 
ATOM     35  C   UNL     1      -2.924   3.618   0.823  0.00  0.00    -0.048 C 
ATOM     36  C   UNL     1      -2.453   4.395  -0.378  0.00  0.00    +0.026 C 
ATOM     37  C   UNL     1      -2.841   4.372   2.119  0.00  0.00    +0.026 C 
ENDBRANCH  33  34
ENDBRANCH  11  33
TORSDOF 11
