129851399
  -OEChem-03292013293D

 58 63  0     1  0  0  0  0  0999 V2000
   -4.1780   -1.9028   -0.4710 S   0  0  0  0  0  0  0  0  0  0  0  0
   -3.0500   -1.2373    0.5192 O   0  0  0  0  0  0  0  0  0  0  0  0
   -5.5495   -1.0991   -0.0998 O   0  0  0  0  0  0  0  0  0  0  0  0
   -3.8400   -1.5957   -1.8486 O   0  0  0  0  0  0  0  0  0  0  0  0
   -4.3602   -3.2830   -0.0603 O   0  0  0  0  0  0  0  0  0  0  0  0
    2.2984   -1.6214   -1.0675 N   0  0  3  0  0  0  0  0  0  0  0  0
   -0.7968    2.2845   -0.0900 N   0  0  0  0  0  0  0  0  0  0  0  0
   -1.9371   -3.7108    0.1400 N   0  0  0  0  0  0  0  0  0  0  0  0
    3.3021    4.4836   -1.2285 N   0  0  0  0  0  0  0  0  0  0  0  0
    3.2121   -0.4640   -1.0012 C   0  0  1  0  0  0  0  0  0  0  0  0
    2.4992    0.8762   -0.9342 C   0  0  0  0  0  0  0  0  0  0  0  0
    0.3943   -0.2427   -0.4255 C   0  0  0  0  0  0  0  0  0  0  0  0
    1.1352    0.9382   -0.6038 C   0  0  0  0  0  0  0  0  0  0  0  0
    0.9734   -1.5181   -0.6438 C   0  0  0  0  0  0  0  0  0  0  0  0
   -0.9611   -0.1340   -0.0490 C   0  0  0  0  0  0  0  0  0  0  0  0
    0.4943    2.1870   -0.4425 C   0  0  0  0  0  0  0  0  0  0  0  0
    4.1174   -0.6351    0.1844 C   0  0  0  0  0  0  0  0  0  0  0  0
    3.2146    2.0612   -1.1497 C   0  0  0  0  0  0  0  0  0  0  0  0
    0.1582   -2.6501   -0.4453 C   0  0  0  0  0  0  0  0  0  0  0  0
   -1.4897    1.1421    0.1065 C   0  0  0  0  0  0  0  0  0  0  0  0
   -1.7369   -1.2819    0.1451 C   0  0  0  0  0  0  0  0  0  0  0  0
    2.8519   -2.9045   -1.4894 C   0  0  0  0  0  0  0  0  0  0  0  0
   -1.1752   -2.5357   -0.0498 C   0  0  0  0  0  0  0  0  0  0  0  0
    1.2356    3.3436   -0.6565 C   0  0  0  0  0  0  0  0  0  0  0  0
    2.5819    3.2903   -1.0150 C   0  0  0  0  0  0  0  0  0  0  0  0
    5.3335   -1.3032    0.0423 C   0  0  0  0  0  0  0  0  0  0  0  0
    3.7424   -0.1262    1.4278 C   0  0  0  0  0  0  0  0  0  0  0  0
   -2.8566    1.4383    0.4893 C   0  0  0  0  0  0  0  0  0  0  0  0
    6.1747   -1.4623    1.1434 C   0  0  0  0  0  0  0  0  0  0  0  0
    4.5837   -0.2852    2.5291 C   0  0  0  0  0  0  0  0  0  0  0  0
   -3.1896    1.5732    1.8371 C   0  0  0  0  0  0  0  0  0  0  0  0
   -3.8384    1.5885   -0.4899 C   0  0  0  0  0  0  0  0  0  0  0  0
    5.7999   -0.9533    2.3868 C   0  0  0  0  0  0  0  0  0  0  0  0
   -4.5044    1.8581    2.2057 C   0  0  0  0  0  0  0  0  0  0  0  0
   -5.1531    1.8734   -0.1215 C   0  0  0  0  0  0  0  0  0  0  0  0
   -5.4862    2.0082    1.2264 C   0  0  0  0  0  0  0  0  0  0  0  0
    3.8067   -0.4490   -1.9257 H   0  0  0  0  0  0  0  0  0  0  0  0
    4.2698    2.0167   -1.4102 H   0  0  0  0  0  0  0  0  0  0  0  0
    0.5632   -3.6498   -0.5898 H   0  0  0  0  0  0  0  0  0  0  0  0
    3.0041   -3.5645   -0.6287 H   0  0  0  0  0  0  0  0  0  0  0  0
    2.1943   -3.3993   -2.2131 H   0  0  0  0  0  0  0  0  0  0  0  0
    3.8148   -2.7819   -1.9959 H   0  0  0  0  0  0  0  0  0  0  0  0
    0.7515    4.3128   -0.5415 H   0  0  0  0  0  0  0  0  0  0  0  0
    5.6468   -1.6969   -0.9205 H   0  0  0  0  0  0  0  0  0  0  0  0
    2.7968    0.3789    1.5950 H   0  0  0  0  0  0  0  0  0  0  0  0
   -1.4918   -4.6066   -0.0169 H   0  0  0  0  0  0  0  0  0  0  0  0
   -2.7232   -3.6810    0.7755 H   0  0  0  0  0  0  0  0  0  0  0  0
    7.1227   -1.9806    1.0324 H   0  0  0  0  0  0  0  0  0  0  0  0
    4.2898    0.1061    3.4987 H   0  0  0  0  0  0  0  0  0  0  0  0
    4.2741    4.4454   -1.5053 H   0  0  0  0  0  0  0  0  0  0  0  0
    2.8363    5.3776   -1.1472 H   0  0  0  0  0  0  0  0  0  0  0  0
   -2.4359    1.4587    2.6126 H   0  0  0  0  0  0  0  0  0  0  0  0
   -3.5950    1.4878   -1.5449 H   0  0  0  0  0  0  0  0  0  0  0  0
    6.4546   -1.0778    3.2444 H   0  0  0  0  0  0  0  0  0  0  0  0
   -4.7639    1.9625    3.2551 H   0  0  0  0  0  0  0  0  0  0  0  0
   -5.9176    1.9898   -0.8841 H   0  0  0  0  0  0  0  0  0  0  0  0
   -6.5101    2.2292    1.5131 H   0  0  0  0  0  0  0  0  0  0  0  0
   -6.3409   -1.3472   -0.6329 H   0  0  0  0  0  0  0  0  0  0  0  0
  1  2  1  0  0  0  0
  1  3  1  0  0  0  0
  1  4  2  0  0  0  0
  1  5  2  0  0  0  0
  2 21  1  0  0  0  0
  3 58  1  0  0  0  0
  6 10  1  0  0  0  0
  6 14  1  0  0  0  0
  6 22  1  0  0  0  0
  7 16  1  0  0  0  0
  7 20  2  0  0  0  0
  8 23  1  0  0  0  0
  8 46  1  0  0  0  0
  8 47  1  0  0  0  0
  9 25  1  0  0  0  0
  9 50  1  0  0  0  0
  9 51  1  0  0  0  0
 10 11  1  0  0  0  0
 10 17  1  0  0  0  0
 10 37  1  0  0  0  0
 11 13  2  0  0  0  0
 11 18  1  0  0  0  0
 12 13  1  0  0  0  0
 12 14  2  0  0  0  0
 12 15  1  0  0  0  0
 13 16  1  0  0  0  0
 14 19  1  0  0  0  0
 15 20  1  0  0  0  0
 15 21  2  0  0  0  0
 16 24  2  0  0  0  0
 17 26  2  0  0  0  0
 17 27  1  0  0  0  0
 18 25  2  0  0  0  0
 18 38  1  0  0  0  0
 19 23  2  0  0  0  0
 19 39  1  0  0  0  0
 20 28  1  0  0  0  0
 21 23  1  0  0  0  0
 22 40  1  0  0  0  0
 22 41  1  0  0  0  0
 22 42  1  0  0  0  0
 24 25  1  0  0  0  0
 24 43  1  0  0  0  0
 26 29  1  0  0  0  0
 26 44  1  0  0  0  0
 27 30  2  0  0  0  0
 27 45  1  0  0  0  0
 28 31  2  0  0  0  0
 28 32  1  0  0  0  0
 29 33  2  0  0  0  0
 29 48  1  0  0  0  0
 30 33  1  0  0  0  0
 30 49  1  0  0  0  0
 31 34  1  0  0  0  0
 31 52  1  0  0  0  0
 32 35  2  0  0  0  0
 32 53  1  0  0  0  0
 33 54  1  0  0  0  0
 34 36  2  0  0  0  0
 34 55  1  0  0  0  0
 35 36  1  0  0  0  0
 35 56  1  0  0  0  0
 36 57  1  0  0  0  0
M  END
> <PUBCHEM_COMPOUND_CID>
129851399

> <PUBCHEM_CONFORMER_RMSD>
0.8

> <PUBCHEM_CONFORMER_DIVERSEORDER>
3
4
2
1

> <PUBCHEM_MMFF94_PARTIAL_CHARGES>
50
1 1.67
10 0.66
11 -0.14
14 0.1
16 0.31
17 -0.14
18 -0.15
19 -0.15
2 -0.27
20 0.31
21 0.08
22 0.37
23 0.1
24 -0.15
25 0.1
26 -0.15
27 -0.15
29 -0.15
3 -0.68
30 -0.15
31 -0.15
32 -0.15
33 -0.15
34 -0.15
35 -0.15
36 -0.15
38 0.15
39 0.15
4 -0.65
43 0.15
44 0.15
45 0.15
46 0.4
47 0.4
48 0.15
49 0.15
5 -0.65
50 0.4
51 0.4
52 0.15
53 0.15
54 0.15
55 0.15
56 0.15
57 0.15
58 0.5
6 -0.84
7 -0.62
8 -0.9
9 -0.9

> <PUBCHEM_EFFECTIVE_ROTOR_COUNT>
4.4

> <PUBCHEM_PHARMACOPHORE_FEATURES>
16
1 3 acceptor
1 4 acceptor
1 5 acceptor
1 6 cation
1 7 acceptor
1 8 cation
1 8 donor
1 9 cation
1 9 donor
4 1 3 4 5 anion
6 11 13 16 18 24 25 rings
6 12 14 15 19 21 23 rings
6 17 26 27 29 30 33 rings
6 28 31 32 34 35 36 rings
6 6 10 11 12 13 14 rings
6 7 12 13 15 16 20 rings

> <PUBCHEM_HEAVY_ATOM_COUNT>
36

> <PUBCHEM_ATOM_DEF_STEREO_COUNT>
0

> <PUBCHEM_ATOM_UDEF_STEREO_COUNT>
1

> <PUBCHEM_BOND_DEF_STEREO_COUNT>
0

> <PUBCHEM_BOND_UDEF_STEREO_COUNT>
0

> <PUBCHEM_ISOTOPIC_ATOM_COUNT>
0

> <PUBCHEM_COMPONENT_COUNT>
1

> <PUBCHEM_CACTVS_TAUTO_COUNT>
26

> <PUBCHEM_CONFORMER_ID>
07BD600700000003

> <PUBCHEM_MMFF94_ENERGY>
166.8205

> <PUBCHEM_FEATURE_SELFOVERLAP>
81.391

> <PUBCHEM_SHAPE_FINGERPRINT>
10165383 225 17988918922165027682
1100329 8 18410581664637671301
11578080 2 17346596357061662339
12035758 1 18337112258972795120
12403260 363 18339639052916075575
12422481 6 18339078190232013184
12608794 3 18261103054852336861
12633257 1 18335707113256337660
12788726 201 18056205910652572049
13140716 1 18411705399860073144
13540713 5 18338243781129166485
13583140 156 16702014266605435211
13782708 43 16732997405207673537
140371 6 18270407070565044996
14117953 113 18265616472458746989
14178342 30 18271808986317765962
14466204 15 18335698304199292083
14739800 52 17984978460805761704
14955137 171 18115598036997836256
15131766 46 16953125251095913765
15475509 35 16805904934234159320
16112460 7 18335986445081336392
16728300 4 17098883946671580834
17349148 13 18340761624017353558
17980427 23 18341884204320697444
20764821 26 18338248123356686861
21033648 29 18055908793147247768
22149856 69 17987821626740351203
22182313 1 17977101254387135820
23558518 356 18117853306944538753
23559900 14 18129111043308788006
23569914 152 11676803080771293907
23569917 315 18341615872108339175
244849 19 16630260138114266846
24771293 8 18271803467654607912
25147074 1 18337117859768540964
350125 39 18339937003846028977
3680242 22 18261959539797434794
392239 28 17703788115455287731
4058900 60 17463141485035926180
460360 51 18187368787007210645
5104073 3 18337399326276623737
563151 74 16557605440933889362
56633871 153 18192146002021769498
6086070 43 17968637368484484013
6371009 1 18411691115310348391
9896288 288 17321812068867212832

> <PUBCHEM_SHAPE_MULTIPOLES>
701.31
12.48
4.42
1.74
0.11
1
1.03
-1.37
5.9
-0.75
-1.71
1.41
0.3
-2.51

> <PUBCHEM_SHAPE_SELFOVERLAP>
1592.794

> <PUBCHEM_SHAPE_VOLUME>
368.5

> <PUBCHEM_COORDINATE_TYPE>
2
5
10

$$$$
