REMARK  Name = 129851367
REMARK  6 active torsions:
REMARK  status: ('A' for Active; 'I' for Inactive)
REMARK    1  A    between atoms: C_6  and  O_27
REMARK    2  A    between atoms: C_6  and  C_29
REMARK    3  A    between atoms: C_20  and  C_31
REMARK    4  A    between atoms: C_21  and  N_24
REMARK    5  A    between atoms: C_31  and  C_32
REMARK    6  A    between atoms: C_32  and  C_33
REMARK                            x       y       z     vdW  Elec       q    Type
REMARK                         _______ _______ _______ _____ _____    ______ ____
ROOT
ATOM      1  O   UNL     1      -5.621  -0.501   0.315  0.00  0.00    -0.442 OA
ATOM      2  O   UNL     1      -2.811  -3.502  -0.687  0.00  0.00    -0.270 OA
ATOM      3  O   UNL     1      -5.897   1.433   1.420  0.00  0.00    -0.247 OA
ATOM      4  N   UNL     1      -1.047  -2.065  -0.276  0.00  0.00    -0.249 N 
ATOM      5  N   UNL     1       1.687   0.197   0.322  0.00  0.00    -0.405 NA
ATOM      6  C   UNL     1      -3.805   1.154   0.248  0.00  0.00    +0.196 C 
ATOM      7  C   UNL     1      -2.854   0.000   0.084  0.00  0.00    +0.017 C 
ATOM      8  C   UNL     1      -0.585  -0.792   0.015  0.00  0.00    +0.084 C 
ATOM      9  C   UNL     1       0.075  -3.014  -0.427  0.00  0.00    +0.127 C 
ATOM     10  C   UNL     1      -3.328  -1.224  -0.212  0.00  0.00    +0.074 C 
ATOM     11  C   UNL     1       1.262  -2.140  -0.191  0.00  0.00    +0.025 C 
ATOM     12  C   UNL     1       0.869  -0.835   0.068  0.00  0.00    +0.142 C 
ATOM     13  C   UNL     1      -1.422   0.234   0.192  0.00  0.00    +0.016 C 
ATOM     14  C   UNL     1      -2.386  -2.382  -0.416  0.00  0.00    +0.252 C 
ATOM     15  C   UNL     1      -4.790  -1.469  -0.363  0.00  0.00    +0.239 C 
ATOM     16  C   UNL     1       2.605  -2.432  -0.194  0.00  0.00    -0.014 C 
ATOM     17  C   UNL     1      -5.183   0.711   0.727  0.00  0.00    +0.346 C 
ATOM     18  C   UNL     1       3.006  -0.083   0.320  0.00  0.00    +0.114 C 
ATOM     19  C   UNL     1       3.511  -1.390   0.066  0.00  0.00    +0.109 C 
ATOM     20  C   UNL     1       3.922   0.932   0.576  0.00  0.00    +0.004 C 
ATOM     21  C   UNL     1       4.895  -1.624   0.077  0.00  0.00    +0.029 C 
ATOM     22  C   UNL     1       5.298   0.692   0.586  0.00  0.00    -0.001 C 
ATOM     23  C   UNL     1       5.785  -0.586   0.337  0.00  0.00    +0.010 C 
ENDROOT
BRANCH  21  24
ATOM     24  N   UNL     1       5.435  -2.910  -0.171  0.00  0.00    -0.360 N 
ATOM     25  H   UNL     1       4.835  -3.668  -0.358  0.00  0.00    +0.142 HD
ATOM     26  H   UNL     1       6.410  -3.046  -0.157  0.00  0.00    +0.142 HD
ENDBRANCH  21  24
BRANCH   6  27
ATOM     27  O   UNL     1      -3.332   2.026   1.277  0.00  0.00    -0.373 OA
ATOM     28  H   UNL     1      -2.449   2.353   1.044  0.00  0.00    +0.211 HD
ENDBRANCH   6  27
BRANCH   6  29
ATOM     29  C   UNL     1      -3.953   1.952  -1.049  0.00  0.00    +0.042 C 
ATOM     30  C   UNL     1      -2.623   2.521  -1.499  0.00  0.00    +0.003 C 
ENDBRANCH   6  29
BRANCH  20  31
ATOM     31  C   UNL     1       3.451   2.326   0.851  0.00  0.00    +0.029 C 
BRANCH  31  32
ATOM     32  C   UNL     1       3.032   3.056  -0.432  0.00  0.00    +0.005 C 
BRANCH  32  33
ATOM     33  C   UNL     1       2.589   4.490  -0.144  0.00  0.00    +0.000 C 
ATOM     34  C   UNL     1       2.212   5.224  -1.421  0.00  0.00    +0.000 C 
ENDBRANCH  32  33
ENDBRANCH  31  32
ENDBRANCH  20  31
TORSDOF 6
