REMARK  Name = 129851298
REMARK  8 active torsions:
REMARK  status: ('A' for Active; 'I' for Inactive)
REMARK    1  A    between atoms: C_2  and  N_8
REMARK    2  A    between atoms: C_3  and  O_19
REMARK    3  A    between atoms: C_4  and  O_21
REMARK    4  A    between atoms: C_5  and  C_25
REMARK    5  A    between atoms: C_6  and  O_23
REMARK    6  A    between atoms: C_9  and  C_11
REMARK    7  A    between atoms: C_11  and  C_13
REMARK    8  A    between atoms: C_25  and  O_26
REMARK                            x       y       z     vdW  Elec       q    Type
REMARK                         _______ _______ _______ _____ _____    ______ ____
ROOT
ATOM      1  O   UNL     1      -1.903   1.186  -0.683  0.00  0.00    -0.327 OA
ATOM      2  C   UNL     1      -1.328  -1.186  -0.634  0.00  0.00    +0.158 C 
ATOM      3  C   UNL     1      -2.613  -1.468   0.151  0.00  0.00    +0.162 C 
ATOM      4  C   UNL     1      -3.076  -0.233   0.926  0.00  0.00    +0.169 C 
ATOM      5  C   UNL     1      -3.148   0.981  -0.009  0.00  0.00    +0.176 C 
ATOM      6  C   UNL     1      -1.480   0.079  -1.485  0.00  0.00    +0.253 C 
ENDROOT
BRANCH   2   8
ATOM      7  O   UNL     1       1.393  -1.916  -1.222  0.00  0.00    -0.275 OA
ATOM      8  N   UNL     1      -0.186  -1.056   0.246  0.00  0.00    -0.299 N 
ATOM      9  C   UNL     1       1.091  -1.438  -0.131  0.00  0.00    +0.222 C 
ATOM     10  H   UNL     1      -0.322  -0.683   1.147  0.00  0.00    +0.150 HD
BRANCH   9  11
ATOM     11  C   UNL     1       2.094  -1.187   0.979  0.00  0.00    +0.122 C 
BRANCH  11  12
ATOM     12  C   UNL     1       3.192  -0.235   0.587  0.00  0.00    -0.018 C 
ATOM     13  C   UNL     1       4.367  -0.722   0.014  0.00  0.00    -0.004 C 
ATOM     14  C   UNL     1       3.035   1.135   0.797  0.00  0.00    -0.004 C 
ATOM     15  C   UNL     1       5.384   0.161  -0.349  0.00  0.00    -0.000 C 
ATOM     16  C   UNL     1       4.052   2.018   0.434  0.00  0.00    -0.000 C 
ATOM     17  C   UNL     1       5.227   1.531  -0.139  0.00  0.00    -0.000 C 
ENDBRANCH  11  12
ENDBRANCH   9  11
ENDBRANCH   2   8
BRANCH   3  18
ATOM     18  O   UNL     1      -2.403  -2.564   1.038  0.00  0.00    -0.380 OA
ATOM     19  H   UNL     1      -2.110  -3.338   0.532  0.00  0.00    +0.211 HD
ENDBRANCH   3  18
BRANCH   4  20
ATOM     20  O   UNL     1      -4.362  -0.512   1.474  0.00  0.00    -0.379 OA
ATOM     21  H   UNL     1      -4.303  -1.281   2.062  0.00  0.00    +0.211 HD
ENDBRANCH   4  20
BRANCH   6  22
ATOM     22  O   UNL     1      -2.372  -0.180  -2.566  0.00  0.00    -0.359 OA
ATOM     23  H   UNL     1      -2.469   0.621  -3.105  0.00  0.00    +0.213 HD
ENDBRANCH   6  22
BRANCH   5  24
ATOM     24  C   UNL     1      -3.462   2.268   0.749  0.00  0.00    +0.169 C 
BRANCH  24  25
ATOM     25  O   UNL     1      -3.501   3.338  -0.178  0.00  0.00    -0.379 OA
ATOM     26  H   UNL     1      -3.700   4.164   0.290  0.00  0.00    +0.211 HD
ENDBRANCH  24  25
ENDBRANCH   5  24
TORSDOF 8
