REMARK  Name = 129846908
REMARK  12 active torsions:
REMARK  status: ('A' for Active; 'I' for Inactive)
REMARK    1  A    between atoms: C_2  and  O_19
REMARK    2  A    between atoms: C_3  and  O_21
REMARK    3  A    between atoms: C_4  and  O_23
REMARK    4  A    between atoms: C_5  and  C_25
REMARK    5  A    between atoms: C_6  and  N_8
REMARK    6  A    between atoms: C_9  and  C_11
REMARK    7  A    between atoms: C_11  and  C_13
REMARK    8  A    between atoms: C_13  and  C_14
REMARK    9  A    between atoms: C_14  and  C_15
REMARK   10  A    between atoms: C_15  and  C_16
REMARK   11  A    between atoms: C_16  and  C_17
REMARK   12  A    between atoms: C_25  and  O_26
REMARK                            x       y       z     vdW  Elec       q    Type
REMARK                         _______ _______ _______ _____ _____    ______ ____
ROOT
ATOM      1  O   UNL     1       2.711   1.121  -0.299  0.00  0.00    -0.333 OA
ATOM      2  C   UNL     1       3.829  -1.502   0.021  0.00  0.00    +0.171 C 
ATOM      3  C   UNL     1       4.685  -0.291  -0.357  0.00  0.00    +0.169 C 
ATOM      4  C   UNL     1       2.358  -1.285  -0.340  0.00  0.00    +0.186 C 
ATOM      5  C   UNL     1       4.054   1.000   0.176  0.00  0.00    +0.175 C 
ATOM      6  C   UNL     1       1.867   0.071   0.165  0.00  0.00    +0.221 C 
ENDROOT
BRANCH   6   8
ATOM      7  O   UNL     1      -0.613  -0.635   1.459  0.00  0.00    -0.275 OA
ATOM      8  N   UNL     1       0.533   0.350  -0.305  0.00  0.00    -0.281 N 
ATOM      9  C   UNL     1      -0.605  -0.032   0.390  0.00  0.00    +0.220 C 
ATOM     10  H   UNL     1       0.425   0.831  -1.157  0.00  0.00    +0.152 HD
BRANCH   9  11
ATOM     11  C   UNL     1      -1.870   0.388  -0.338  0.00  0.00    +0.095 C 
BRANCH  11  12
ATOM     12  C   UNL     1      -3.137  -0.022   0.409  0.00  0.00    +0.005 C 
BRANCH  12  13
ATOM     13  C   UNL     1      -4.394   0.378  -0.365  0.00  0.00    +0.000 C 
BRANCH  13  14
ATOM     14  C   UNL     1      -5.663  -0.063   0.368  0.00  0.00    +0.000 C 
BRANCH  14  15
ATOM     15  C   UNL     1      -6.918   0.306  -0.426  0.00  0.00    +0.000 C 
BRANCH  15  16
ATOM     16  C   UNL     1      -8.217  -0.133   0.252  0.00  0.00    +0.000 C 
ATOM     17  C   UNL     1      -9.463   0.168  -0.566  0.00  0.00    +0.000 C 
ENDBRANCH  15  16
ENDBRANCH  14  15
ENDBRANCH  13  14
ENDBRANCH  12  13
ENDBRANCH  11  12
ENDBRANCH   9  11
ENDBRANCH   6   8
BRANCH   2  18
ATOM     18  O   UNL     1       4.315  -2.659  -0.663  0.00  0.00    -0.379 OA
ATOM     19  H   UNL     1       5.247  -2.800  -0.437  0.00  0.00    +0.211 HD
ENDBRANCH   2  18
BRANCH   3  20
ATOM     20  O   UNL     1       5.984  -0.477   0.198  0.00  0.00    -0.379 OA
ATOM     21  H   UNL     1       6.369  -1.298  -0.148  0.00  0.00    +0.211 HD
ENDBRANCH   3  20
BRANCH   4  22
ATOM     22  O   UNL     1       1.575  -2.314   0.262  0.00  0.00    -0.378 OA
ATOM     23  H   UNL     1       1.880  -3.179  -0.054  0.00  0.00    +0.211 HD
ENDBRANCH   4  22
BRANCH   5  24
ATOM     24  C   UNL     1       4.810   2.243  -0.283  0.00  0.00    +0.169 C 
BRANCH  24  25
ATOM     25  O   UNL     1       4.159   3.386   0.241  0.00  0.00    -0.379 OA
ATOM     26  H   UNL     1       4.629   4.185  -0.043  0.00  0.00    +0.211 HD
ENDBRANCH  24  25
ENDBRANCH   5  24
TORSDOF 12
