REMARK  Name = 129817
REMARK  6 active torsions:
REMARK  status: ('A' for Active; 'I' for Inactive)
REMARK    1  A    between atoms: S_1  and  C_2
REMARK    2  A    between atoms: S_1  and  C_11
REMARK    3  A    between atoms: C_2  and  C_5
REMARK    4  A    between atoms: C_11  and  C_12
REMARK    5  A    between atoms: C_12  and  N_13
REMARK    6  A    between atoms: N_15  and  C_16
REMARK                            x       y       z     vdW  Elec       q    Type
REMARK                         _______ _______ _______ _____ _____    ______ ____
ROOT
ATOM      1  S   UNL     1      -0.317  -0.537   0.074  0.00  0.00    -0.132 S 
ENDROOT
BRANCH   1   2
ATOM      2  C   UNL     1      -1.833  -0.859  -0.856  0.00  0.00    +0.099 C 
BRANCH   2   5
ATOM      3  N   UNL     1      -4.673   0.804   0.644  0.00  0.00    -0.319 N 
ATOM      4  N   UNL     1      -3.689  -1.185   0.736  0.00  0.00    -0.318 N 
ATOM      5  C   UNL     1      -3.038  -0.360  -0.129  0.00  0.00    +0.043 C 
ATOM      6  C   UNL     1      -3.613   0.871  -0.214  0.00  0.00    +0.033 C 
ATOM      7  C   UNL     1      -3.298   2.083  -0.988  0.00  0.00    +0.048 C 
ATOM      8  C   UNL     1      -4.679  -0.449   1.192  0.00  0.00    +0.181 C 
ATOM      9  H   UNL     1      -5.316   1.525   0.834  0.00  0.00    +0.148 HD
ATOM     10  H   UNL     1      -3.469  -2.116   0.968  0.00  0.00    +0.148 HD
ENDBRANCH   2   5
ENDBRANCH   1   2
BRANCH   1  11
ATOM     11  C   UNL     1       0.868  -1.265  -1.099  0.00  0.00    +0.082 C 
BRANCH  11  12
ATOM     12  C   UNL     1       2.298  -1.228  -0.575  0.00  0.00    +0.112 C 
BRANCH  12  13
ATOM     13  N   UNL     1       2.745   0.127  -0.359  0.00  0.00    -0.345 N 
ATOM     14  N   UNL     1       4.126   1.849   0.205  0.00  0.00    -0.370 N 
ATOM     15  C   UNL     1       4.002   0.479   0.105  0.00  0.00    +0.192 C 
ATOM     16  H   UNL     1       2.111   0.854  -0.556  0.00  0.00    +0.163 HD
ATOM     17  H   UNL     1       3.371   2.431  -0.041  0.00  0.00    +0.159 HD
ATOM     18  H   UNL     1       4.970   2.245   0.524  0.00  0.00    +0.159 HD
BRANCH  15  19
ATOM     19  N   UNL     1       4.907  -0.409   0.392  0.00  0.00    -0.238 NA
ATOM     20  C   UNL     1       6.193   0.079   0.873  0.00  0.00    +0.155 C 
ENDBRANCH  15  19
ENDBRANCH  12  13
ENDBRANCH  11  12
ENDBRANCH   1  11
TORSDOF 6
