REMARK  Name = 129850412
REMARK  11 active torsions:
REMARK  status: ('A' for Active; 'I' for Inactive)
REMARK    1  A    between atoms: C_4  and  O_9
REMARK    2  A    between atoms: C_4  and  C_12
REMARK    3  A    between atoms: C_5  and  C_20
REMARK    4  A    between atoms: C_12  and  C_13
REMARK    5  A    between atoms: C_13  and  C_14
REMARK    6  A    between atoms: C_14  and  C_15
REMARK    7  A    between atoms: C_15  and  C_16
REMARK    8  A    between atoms: C_16  and  S_17
REMARK    9  A    between atoms: C_20  and  C_21
REMARK   10  A    between atoms: C_21  and  C_22
REMARK   11  A    between atoms: C_22  and  C_23
REMARK                            x       y       z     vdW  Elec       q    Type
REMARK                         _______ _______ _______ _____ _____    ______ ____
ROOT
ATOM      1  O   UNL     1       1.317  -3.564   0.757  0.00  0.00    -0.272 OA
ATOM      2  O   UNL     1       2.621  -0.852  -2.716  0.00  0.00    -0.274 OA
ATOM      3  N   UNL     1       1.981  -2.459  -1.171  0.00  0.00    -0.253 N 
ATOM      4  C   UNL     1       1.706  -1.166   0.745  0.00  0.00    +0.223 C 
ATOM      5  C   UNL     1       2.189  -0.265  -0.401  0.00  0.00    +0.174 C 
ATOM      6  C   UNL     1       1.629  -2.549   0.150  0.00  0.00    +0.260 C 
ATOM      7  C   UNL     1       2.304  -1.193  -1.585  0.00  0.00    +0.238 C 
ATOM      8  H   UNL     1       2.000  -3.238  -1.773  0.00  0.00    +0.158 HD
ENDROOT
BRANCH   4   9
ATOM      9  O   UNL     1       2.677  -1.194   1.774  0.00  0.00    -0.371 OA
ATOM     10  H   UNL     1       2.748  -0.314   2.176  0.00  0.00    +0.211 HD
ENDBRANCH   4   9
BRANCH   4  12
ATOM     11  O   UNL     1       0.413   0.054   2.337  0.00  0.00    -0.293 OA
ATOM     12  C   UNL     1       0.415  -0.722   1.382  0.00  0.00    +0.184 C 
BRANCH  12  13
ATOM     13  C   UNL     1      -0.858  -1.288   0.777  0.00  0.00    +0.068 C 
BRANCH  13  14
ATOM     14  C   UNL     1      -2.052  -0.352   0.944  0.00  0.00    +0.009 C 
BRANCH  14  15
ATOM     15  C   UNL     1      -3.327  -0.965   0.359  0.00  0.00    +0.012 C 
BRANCH  15  16
ATOM     16  C   UNL     1      -4.506  -0.006   0.498  0.00  0.00    +0.058 C 
BRANCH  16  17
ATOM     17  S   UNL     1      -6.013  -0.746  -0.194  0.00  0.00    -0.139 S 
ATOM     18  C   UNL     1      -5.712  -0.372  -1.937  0.00  0.00    +0.069 C 
ENDBRANCH  16  17
ENDBRANCH  15  16
ENDBRANCH  14  15
ENDBRANCH  13  14
ENDBRANCH  12  13
ENDBRANCH   4  12
BRANCH   5  20
ATOM     19  O   UNL     1       0.347   0.820  -1.442  0.00  0.00    -0.295 OA
ATOM     20  C   UNL     1       1.308   0.914  -0.680  0.00  0.00    +0.162 C 
BRANCH  20  21
ATOM     21  C   UNL     1       1.676   2.205   0.028  0.00  0.00    +0.065 C 
BRANCH  21  22
ATOM     22  C   UNL     1       0.707   3.342  -0.286  0.00  0.00    +0.008 C 
BRANCH  22  23
ATOM     23  C   UNL     1       1.080   4.617   0.471  0.00  0.00    +0.000 C 
ATOM     24  C   UNL     1       0.095   5.740   0.190  0.00  0.00    +0.000 C 
ENDBRANCH  22  23
ENDBRANCH  21  22
ENDBRANCH  20  21
ENDBRANCH   5  20
TORSDOF 11
