129860729
  -OEChem-03292013293D

 58 62  0     1  0  0  0  0  0999 V2000
   -5.9675    1.3421    0.4428 O   0  0  0  0  0  0  0  0  0  0  0  0
   -2.7977    2.8875    0.7934 O   0  0  0  0  0  0  0  0  0  0  0  0
   -4.6359   -2.6441   -0.0549 O   0  0  0  0  0  0  0  0  0  0  0  0
   -5.3627    3.3835    1.1539 O   0  0  0  0  0  0  0  0  0  0  0  0
    4.4451    2.3688    0.0655 O   0  0  0  0  0  0  0  0  0  0  0  0
   -2.4250   -1.9693   -0.0053 N   0  0  0  0  0  0  0  0  0  0  0  0
    1.0105   -0.9010    0.0231 N   0  0  0  0  0  0  0  0  0  0  0  0
    4.6524    0.9825    0.0573 N   0  0  0  0  0  0  0  0  0  0  0  0
   -3.6800    2.1124   -0.0218 C   0  0  2  0  0  0  0  0  0  0  0  0
   -3.2619    0.6682    0.0086 C   0  0  0  0  0  0  0  0  0  0  0  0
   -1.4854   -0.9515    0.0091 C   0  0  0  0  0  0  0  0  0  0  0  0
   -4.1941   -0.3012   -0.0200 C   0  0  0  0  0  0  0  0  0  0  0  0
   -1.7714   -3.2943   -0.0097 C   0  0  0  0  0  0  0  0  0  0  0  0
   -1.8457    0.3344    0.0117 C   0  0  0  0  0  0  0  0  0  0  0  0
   -0.3229   -2.9318    0.0015 C   0  0  0  0  0  0  0  0  0  0  0  0
   -0.1598   -1.5539    0.0119 C   0  0  0  0  0  0  0  0  0  0  0  0
   -3.7908   -1.7527   -0.0270 C   0  0  0  0  0  0  0  0  0  0  0  0
   -3.6628    2.6743   -1.4454 C   0  0  0  0  0  0  0  0  0  0  0  0
   -5.6475    0.0271   -0.0618 C   0  0  0  0  0  0  0  0  0  0  0  0
   -5.0586    2.3344    0.5891 C   0  0  0  0  0  0  0  0  0  0  0  0
    0.8002   -3.7243    0.0030 C   0  0  0  0  0  0  0  0  0  0  0  0
    2.0564   -3.0958    0.0149 C   0  0  0  0  0  0  0  0  0  0  0  0
    2.1162   -1.6732    0.0246 C   0  0  0  0  0  0  0  0  0  0  0  0
   -2.2773    2.5900   -2.0529 C   0  0  0  0  0  0  0  0  0  0  0  0
    3.3712   -1.0734    0.0362 C   0  0  0  0  0  0  0  0  0  0  0  0
    3.2401   -3.8503    0.0172 C   0  0  0  0  0  0  0  0  0  0  0  0
    4.5455   -1.8301    0.0386 C   0  0  0  0  0  0  0  0  0  0  0  0
    4.4804   -3.2181    0.0292 C   0  0  0  0  0  0  0  0  0  0  0  0
    3.5007    0.3800    0.0465 C   0  0  0  0  0  0  0  0  0  0  0  0
    5.7143    3.0046    0.0773 C   0  0  0  0  0  0  0  0  0  0  0  0
    5.4734    4.5127    0.0782 C   0  0  0  0  0  0  0  0  0  0  0  0
    6.4807    2.5834   -1.1757 C   0  0  0  0  0  0  0  0  0  0  0  0
    6.4601    2.5789    1.3410 C   0  0  0  0  0  0  0  0  0  0  0  0
   -2.0672   -3.8322   -0.9153 H   0  0  0  0  0  0  0  0  0  0  0  0
   -2.0783   -3.8429    0.8857 H   0  0  0  0  0  0  0  0  0  0  0  0
   -1.0997    1.1200    0.0367 H   0  0  0  0  0  0  0  0  0  0  0  0
   -4.3828    2.1533   -2.0886 H   0  0  0  0  0  0  0  0  0  0  0  0
   -3.9641    3.7301   -1.4306 H   0  0  0  0  0  0  0  0  0  0  0  0
   -6.2137   -0.6733    0.5609 H   0  0  0  0  0  0  0  0  0  0  0  0
   -6.0330   -0.0456   -1.0841 H   0  0  0  0  0  0  0  0  0  0  0  0
    0.7087   -4.8063   -0.0048 H   0  0  0  0  0  0  0  0  0  0  0  0
   -1.5040    3.0182   -1.4084 H   0  0  0  0  0  0  0  0  0  0  0  0
   -2.2625    3.1652   -2.9862 H   0  0  0  0  0  0  0  0  0  0  0  0
   -2.0035    1.5681   -2.3286 H   0  0  0  0  0  0  0  0  0  0  0  0
   -3.0044    3.8284    0.6593 H   0  0  0  0  0  0  0  0  0  0  0  0
    3.2046   -4.9376    0.0098 H   0  0  0  0  0  0  0  0  0  0  0  0
    5.5280   -1.3655    0.0478 H   0  0  0  0  0  0  0  0  0  0  0  0
    5.3922   -3.8077    0.0310 H   0  0  0  0  0  0  0  0  0  0  0  0
    2.5759    0.9842    0.0450 H   0  0  0  0  0  0  0  0  0  0  0  0
    7.3961    3.1373    1.4527 H   0  0  0  0  0  0  0  0  0  0  0  0
    6.4135    5.0737    0.0872 H   0  0  0  0  0  0  0  0  0  0  0  0
    4.8972    4.8156   -0.8037 H   0  0  0  0  0  0  0  0  0  0  0  0
    4.8824    4.8122    0.9514 H   0  0  0  0  0  0  0  0  0  0  0  0
    5.8820    2.7591   -2.0770 H   0  0  0  0  0  0  0  0  0  0  0  0
    6.7407    1.5190   -1.1731 H   0  0  0  0  0  0  0  0  0  0  0  0
    6.7165    1.5136    1.3401 H   0  0  0  0  0  0  0  0  0  0  0  0
    5.8477    2.7542    2.2332 H   0  0  0  0  0  0  0  0  0  0  0  0
    7.4168    3.1447   -1.2715 H   0  0  0  0  0  0  0  0  0  0  0  0
  1 19  1  0  0  0  0
  1 20  1  0  0  0  0
  2  9  1  0  0  0  0
  2 45  1  0  0  0  0
  3 17  2  0  0  0  0
  4 20  2  0  0  0  0
  5  8  1  0  0  0  0
  5 30  1  0  0  0  0
  6 11  1  0  0  0  0
  6 13  1  0  0  0  0
  6 17  1  0  0  0  0
  7 16  1  0  0  0  0
  7 23  2  0  0  0  0
  8 29  2  0  0  0  0
  9 10  1  0  0  0  0
  9 18  1  0  0  0  0
  9 20  1  0  0  0  0
 10 12  2  0  0  0  0
 10 14  1  0  0  0  0
 11 14  2  0  0  0  0
 11 16  1  0  0  0  0
 12 17  1  0  0  0  0
 12 19  1  0  0  0  0
 13 15  1  0  0  0  0
 13 34  1  0  0  0  0
 13 35  1  0  0  0  0
 14 36  1  0  0  0  0
 15 16  2  0  0  0  0
 15 21  1  0  0  0  0
 18 24  1  0  0  0  0
 18 37  1  0  0  0  0
 18 38  1  0  0  0  0
 19 39  1  0  0  0  0
 19 40  1  0  0  0  0
 21 22  2  0  0  0  0
 21 41  1  0  0  0  0
 22 23  1  0  0  0  0
 22 26  1  0  0  0  0
 23 25  1  0  0  0  0
 24 42  1  0  0  0  0
 24 43  1  0  0  0  0
 24 44  1  0  0  0  0
 25 27  2  0  0  0  0
 25 29  1  0  0  0  0
 26 28  2  0  0  0  0
 26 46  1  0  0  0  0
 27 28  1  0  0  0  0
 27 47  1  0  0  0  0
 28 48  1  0  0  0  0
 29 49  1  0  0  0  0
 30 31  1  0  0  0  0
 30 32  1  0  0  0  0
 30 33  1  0  0  0  0
 31 51  1  0  0  0  0
 31 52  1  0  0  0  0
 31 53  1  0  0  0  0
 32 54  1  0  0  0  0
 32 55  1  0  0  0  0
 32 58  1  0  0  0  0
 33 50  1  0  0  0  0
 33 56  1  0  0  0  0
 33 57  1  0  0  0  0
M  END
> <PUBCHEM_COMPOUND_CID>
129860729

> <PUBCHEM_CONFORMER_RMSD>
0.8

> <PUBCHEM_CONFORMER_DIVERSEORDER>
1
6
3
4
2
5

> <PUBCHEM_MMFF94_PARTIAL_CHARGES>
34
1 -0.43
10 -0.14
11 0.08
12 -0.12
13 0.44
14 -0.15
15 -0.14
16 0.34
17 0.62
19 0.42
2 -0.68
20 0.66
21 -0.15
23 0.31
25 0.09
26 -0.15
27 -0.15
28 -0.15
29 0.3
3 -0.57
30 0.28
36 0.15
4 -0.57
41 0.15
45 0.4
46 0.15
47 0.15
48 0.15
49 0.06
5 -0.22
6 -0.47
7 -0.62
8 -0.51
9 0.48

> <PUBCHEM_EFFECTIVE_ROTOR_COUNT>
4.8

> <PUBCHEM_PHARMACOPHORE_FEATURES>
13
1 2 acceptor
1 2 donor
1 24 hydrophobe
1 3 acceptor
1 4 acceptor
1 7 acceptor
1 8 acceptor
4 30 31 32 33 hydrophobe
5 6 11 13 15 16 rings
6 1 9 10 12 19 20 rings
6 22 23 25 26 27 28 rings
6 6 10 11 12 14 17 rings
6 7 15 16 21 22 23 rings

> <PUBCHEM_HEAVY_ATOM_COUNT>
33

> <PUBCHEM_ATOM_DEF_STEREO_COUNT>
1

> <PUBCHEM_ATOM_UDEF_STEREO_COUNT>
0

> <PUBCHEM_BOND_DEF_STEREO_COUNT>
1

> <PUBCHEM_BOND_UDEF_STEREO_COUNT>
0

> <PUBCHEM_ISOTOPIC_ATOM_COUNT>
0

> <PUBCHEM_COMPONENT_COUNT>
1

> <PUBCHEM_CACTVS_TAUTO_COUNT>
1

> <PUBCHEM_CONFORMER_ID>
07BD847900000001

> <PUBCHEM_MMFF94_ENERGY>
98.947

> <PUBCHEM_FEATURE_SELFOVERLAP>
66.223

> <PUBCHEM_SHAPE_FINGERPRINT>
10050765 1 18411138065288946138
10439779 11 18339073925931531184
11513181 2 18272936050535877830
12758862 56 18046909273748264946
14068700 686 18338803432600744126
14251764 75 18341341040939003264
14429114 114 18412543240694920344
14790565 3 18339928104352291731
14849402 71 18337675188179379954
15001296 14 18335700507490927130
15081414 286 17908705021121795022
15289351 153 18341040909684174576
15320467 1 18411138065051549888
15347590 135 17897169237223319843
16067689 302 18342175588557456967
16990350 14 18410011066233433368
18393751 57 18259987097916415675
19053607 189 18339913905380692624
19246450 95 17537677112184137288
19611394 137 17536039105213657323
20691028 202 18341612581503682689
21033648 144 18333724706829334135
21133410 127 18113898265157968124
21315764 268 18262797346220075231
21987483 16 18113341916895919019
23559900 14 18198900306267666202
245318 6 17534075330739638988
24893989 43 13658674494956232124
350125 39 18265337196837743567
3918712 181 18266452295007825516
44249763 50 17200225139499512320
50150288 127 16844188773767305513
5104073 3 18259985963617957314
5219985 13 18269272538401022356
5265222 85 18050291667762168192
53794403 172 18411141290734655574
550186 72 18122905592965710575
5776283 40 18263380139787716942
5951187 136 18058181526720613276
6086070 43 17754996623841860063
6176135 31 18408880767890605560
6608658 132 18054778757055069350
7288768 16 18040995206548936730
7808743 9 18266734856578795314
9981440 41 18263084490865093754

> <PUBCHEM_SHAPE_MULTIPOLES>
634.83
15.96
6.36
0.96
8.14
0.62
-0.25
16.96
1.67
5.77
0
-0.2
0.98
0.04

> <PUBCHEM_SHAPE_SELFOVERLAP>
1411.356

> <PUBCHEM_SHAPE_VOLUME>
339.6

> <PUBCHEM_COORDINATE_TYPE>
2
5
10

$$$$
