REMARK  Name = 129876
REMARK  7 active torsions:
REMARK  status: ('A' for Active; 'I' for Inactive)
REMARK    1  A    between atoms: N_1  and  C1*_9
REMARK    2  A    between atoms: C_4  and  C_20
REMARK    3  A    between atoms: C_5  and  C_25
REMARK    4  A    between atoms: C2*_7  and  O2*_11
REMARK    5  A    between atoms: C3*_8  and  O3*_13
REMARK    6  A    between atoms: C4*_10  and  C5*_15
REMARK    7  A    between atoms: C5*_15  and  O5*_16
REMARK                            x       y       z     vdW  Elec       q    Type
REMARK                         _______ _______ _______ _____ _____    ______ ____
ROOT
ATOM      1  N   UNL     1      -0.114   0.614  -0.379  0.00  0.00    -0.182 N 
ATOM      2  N   UNL     1      -0.391  -0.646   0.002  0.00  0.00    -0.171 NA
ATOM      3  C   UNL     1      -1.222   1.400  -0.519  0.00  0.00    +0.093 C 
ATOM      4  C   UNL     1      -2.294   0.599  -0.210  0.00  0.00    +0.093 C 
ATOM      5  C   UNL     1      -1.723  -0.649   0.103  0.00  0.00    +0.157 C 
ENDROOT
BRANCH   1   9
ATOM      6  O4* UNL     1       2.024  -0.095  -1.128  0.00  0.00    -0.332 OA
ATOM      7  C2* UNL     1       1.985   1.493   0.671  0.00  0.00    +0.188 C 
ATOM      8  C3* UNL     1       2.858   0.306   1.030  0.00  0.00    +0.171 C 
ATOM      9  C1* UNL     1       1.275   1.020  -0.599  0.00  0.00    +0.242 C 
ATOM     10  C4* UNL     1       3.210  -0.261  -0.334  0.00  0.00    +0.176 C 
BRANCH   7  11
ATOM     11  O2* UNL     1       2.774   2.642   0.368  0.00  0.00    -0.378 OA
ATOM     12  H2* UNL     1       3.226   2.945   1.171  0.00  0.00    +0.211 HD
ENDBRANCH   7  11
BRANCH   8  13
ATOM     13  O3* UNL     1       4.007   0.657   1.772  0.00  0.00    -0.379 OA
ATOM     14  H3* UNL     1       3.739   1.013   2.634  0.00  0.00    +0.211 HD
ENDBRANCH   8  13
BRANCH  10  15
ATOM     15  C5* UNL     1       3.603  -1.727  -0.297  0.00  0.00    +0.169 C 
BRANCH  15  16
ATOM     16  O5* UNL     1       3.897  -2.151  -1.617  0.00  0.00    -0.379 OA
ATOM     17  H5* UNL     1       4.150  -3.088  -1.607  0.00  0.00    +0.211 HD
ENDBRANCH  15  16
ENDBRANCH  10  15
ENDBRANCH   1   9
BRANCH   4  20
ATOM     18  O   UNL     1      -4.613   0.246   0.087  0.00  0.00    -0.270 OA
ATOM     19  N   UNL     1      -3.953   2.325  -0.577  0.00  0.00    -0.325 N 
ATOM     20  C   UNL     1      -3.667   1.004  -0.222  0.00  0.00    +0.246 C 
ATOM     21  H   UNL     1      -4.886   2.638  -0.596  0.00  0.00    +0.145 HD
ATOM     22  H   UNL     1      -3.222   2.942  -0.808  0.00  0.00    +0.145 HD
ENDBRANCH   4  20
BRANCH   5  25
ATOM     23  O   UNL     1      -3.640  -1.942   0.594  0.00  0.00    -0.269 OA
ATOM     24  N   UNL     1      -1.617  -2.978   0.759  0.00  0.00    -0.324 N 
ATOM     25  C   UNL     1      -2.399  -1.853   0.497  0.00  0.00    +0.262 C 
ATOM     26  H   UNL     1      -2.044  -3.822   1.031  0.00  0.00    +0.145 HD
ATOM     27  H   UNL     1      -0.638  -2.928   0.671  0.00  0.00    +0.145 HD
ENDBRANCH   5  25
TORSDOF 7
