REMARK  Name = 129882134
REMARK  7 active torsions:
REMARK  status: ('A' for Active; 'I' for Inactive)
REMARK    1  A    between atoms: C_6  and  C_24
REMARK    2  A    between atoms: C_10  and  O_16
REMARK    3  A    between atoms: C_12  and  O_18
REMARK    4  A    between atoms: C_14  and  C_21
REMARK    5  A    between atoms: C_21  and  O_22
REMARK    6  A    between atoms: C_24  and  C_25
REMARK    7  A    between atoms: C_25  and  O_26
REMARK                            x       y       z     vdW  Elec       q    Type
REMARK                         _______ _______ _______ _____ _____    ______ ____
ROOT
ATOM      1  O   UNL     1       0.253  -0.932   0.273  0.00  0.00    -0.450 OA
ATOM      2  O   UNL     1       0.510   3.107  -0.334  0.00  0.00    -0.286 OA
ATOM      3  C   UNL     1       1.641   1.068   0.077  0.00  0.00    +0.107 A 
ATOM      4  C   UNL     1       1.473  -0.302   0.276  0.00  0.00    +0.151 A 
ATOM      5  C   UNL     1      -0.848   1.208  -0.145  0.00  0.00    +0.077 A 
ATOM      6  C   UNL     1       3.867  -0.547   0.513  0.00  0.00    -0.014 C 
ATOM      7  C   UNL     1      -0.871  -0.171   0.066  0.00  0.00    +0.182 A 
ATOM      8  C   UNL     1       0.449   1.900  -0.150  0.00  0.00    +0.204 A 
ATOM      9  C   UNL     1       2.590  -1.111   0.494  0.00  0.00    +0.034 C 
ATOM     10  C   UNL     1       2.917   1.637   0.094  0.00  0.00    +0.139 C 
ATOM     11  C   UNL     1       4.029   0.824   0.313  0.00  0.00    +0.033 C 
ATOM     12  C   UNL     1      -2.093  -0.848   0.074  0.00  0.00    +0.175 C 
ATOM     13  C   UNL     1      -2.036   1.915  -0.349  0.00  0.00    +0.007 C 
ATOM     14  C   UNL     1      -3.281  -0.146  -0.129  0.00  0.00    +0.112 C 
ATOM     15  C   UNL     1      -3.253   1.233  -0.339  0.00  0.00    +0.010 C 
ENDROOT
BRANCH  10  16
ATOM     16  O   UNL     1       3.131   2.968  -0.097  0.00  0.00    -0.505 OA
ATOM     17  H   UNL     1       2.405   3.542  -0.247  0.00  0.00    +0.292 HD
ENDBRANCH  10  16
BRANCH  12  18
ATOM     18  O   UNL     1      -2.123  -2.197   0.280  0.00  0.00    -0.503 OA
ATOM     19  H   UNL     1      -1.324  -2.668   0.416  0.00  0.00    +0.292 HD
ENDBRANCH  12  18
BRANCH  14  21
ATOM     20  O   UNL     1      -4.731  -2.007  -0.474  0.00  0.00    -0.245 OA
ATOM     21  C   UNL     1      -4.566  -0.832  -0.124  0.00  0.00    +0.344 C 
BRANCH  21  22
ATOM     22  O   UNL     1      -5.570  -0.014   0.316  0.00  0.00    -0.441 OA
ATOM     23  C   UNL     1      -6.885  -0.577   0.366  0.00  0.00    +0.256 C 
ENDBRANCH  21  22
ENDBRANCH  14  21
BRANCH   6  24
ATOM     24  C   UNL     1       5.059  -1.412   0.747  0.00  0.00    +0.058 C 
BRANCH  24  25
ATOM     25  C   UNL     1       5.652  -1.975  -0.548  0.00  0.00    +0.142 C 
BRANCH  25  26
ATOM     26  O   UNL     1       4.686  -2.789  -1.200  0.00  0.00    -0.382 OA
ATOM     27  H   UNL     1       5.062  -3.145  -2.020  0.00  0.00    +0.210 HD
ENDBRANCH  25  26
ENDBRANCH  24  25
ENDBRANCH   6  24
TORSDOF 7
