REMARK  Name = 129864130
REMARK  6 active torsions:
REMARK  status: ('A' for Active; 'I' for Inactive)
REMARK    1  A    between atoms: N_1  and  C_21
REMARK    2  A    between atoms: C_16  and  O_18
REMARK    3  A    between atoms: C_22  and  O_26
REMARK    4  A    between atoms: C_23  and  O_28
REMARK    5  A    between atoms: C_24  and  C_30
REMARK    6  A    between atoms: C_30  and  O_31
REMARK                            x       y       z     vdW  Elec       q    Type
REMARK                         _______ _______ _______ _____ _____    ______ ____
ROOT
ATOM      1  N   UNL     1      -1.799  -0.225   0.534  0.00  0.00    -0.250 N 
ATOM      2  N   UNL     1      -0.086  -1.650   0.607  0.00  0.00    -0.242 NA
ATOM      3  N   UNL     1      -0.602   1.842   0.088  0.00  0.00    -0.228 NA
ATOM      4  N   UNL     1       1.802   1.456  -0.073  0.00  0.00    -0.228 NA
ATOM      5  C   UNL     1      -0.676   0.521   0.309  0.00  0.00    +0.152 C 
ATOM      6  C   UNL     1      -1.393  -1.521   0.707  0.00  0.00    +0.223 C 
ATOM      7  C   UNL     1       0.374  -0.382   0.358  0.00  0.00    +0.140 C 
ATOM      8  C   UNL     1       1.652   0.129   0.156  0.00  0.00    +0.151 C 
ATOM      9  C   UNL     1       0.682   2.219  -0.093  0.00  0.00    +0.253 C 
ATOM     10  N   UNL     1       2.776  -0.714   0.188  0.00  0.00    -0.282 N 
ATOM     11  N   UNL     1       4.576   0.786  -0.221  0.00  0.00    -0.226 NA
ATOM     12  C   UNL     1       4.158  -0.477   0.021  0.00  0.00    +0.133 C 
ATOM     13  C   UNL     1       5.005  -1.569   0.119  0.00  0.00    +0.038 C 
ATOM     14  C   UNL     1       6.369  -1.351  -0.041  0.00  0.00    +0.041 C 
ATOM     15  C   UNL     1       5.908   0.959  -0.371  0.00  0.00    +0.137 C 
ATOM     16  C   UNL     1       6.837  -0.066  -0.291  0.00  0.00    +0.153 C 
ATOM     17  H   UNL     1       2.556  -1.658   0.360  0.00  0.00    +0.155 HD
ENDROOT
BRANCH   1  19
ATOM     18  O   UNL     1      -4.158  -0.829   0.765  0.00  0.00    -0.336 OA
ATOM     19  C   UNL     1      -3.241   0.281   0.586  0.00  0.00    +0.183 C 
ATOM     20  C   UNL     1      -3.667   0.940  -0.743  0.00  0.00    +0.182 C 
ATOM     21  C   UNL     1      -5.121   0.540  -0.901  0.00  0.00    +0.171 C 
ATOM     22  C   UNL     1      -5.141  -0.849  -0.288  0.00  0.00    +0.175 C 
ATOM     23  C   UNL     1      -3.408   1.184   1.818  0.00  0.00    +0.054 C 
BRANCH  20  24
ATOM     24  O   UNL     1      -3.486   2.342  -0.771  0.00  0.00    -0.378 OA
ATOM     25  H   UNL     1      -2.544   2.549  -0.666  0.00  0.00    +0.211 HD
ENDBRANCH  20  24
BRANCH  21  26
ATOM     26  O   UNL     1      -5.954   1.404  -0.133  0.00  0.00    -0.379 OA
ATOM     27  H   UNL     1      -5.943   2.293  -0.521  0.00  0.00    +0.211 HD
ENDBRANCH  21  26
BRANCH  22  28
ATOM     28  C   UNL     1      -4.766  -1.948  -1.275  0.00  0.00    +0.169 C 
BRANCH  28  29
ATOM     29  O   UNL     1      -4.804  -3.197  -0.604  0.00  0.00    -0.379 OA
ATOM     30  H   UNL     1      -4.567  -3.904  -1.224  0.00  0.00    +0.211 HD
ENDBRANCH  28  29
ENDBRANCH  22  28
ENDBRANCH   1  19
BRANCH  16  31
ATOM     31  O   UNL     1       8.162   0.176  -0.452  0.00  0.00    -0.504 OA
ATOM     32  H   UNL     1       8.777  -0.529  -0.395  0.00  0.00    +0.292 HD
ENDBRANCH  16  31
TORSDOF 6
