REMARK  Name = 12989697
REMARK  3 active torsions:
REMARK  status: ('A' for Active; 'I' for Inactive)
REMARK    1  A    between atoms: C_12  and  C_24
REMARK    2  A    between atoms: C_13  and  O_28
REMARK    3  A    between atoms: C_18  and  O_30
REMARK                            x       y       z     vdW  Elec       q    Type
REMARK                         _______ _______ _______ _____ _____    ______ ____
ROOT
ATOM      1  O   UNL     1      -0.285  -0.081   1.551  0.00  0.00    -0.312 OA
ATOM      2  O   UNL     1      -0.160  -2.778  -0.555  0.00  0.00    -0.451 OA
ATOM      3  O   UNL     1       1.576   1.600   1.542  0.00  0.00    -0.423 OA
ATOM      4  O   UNL     1      -3.607   0.545  -1.523  0.00  0.00    -0.450 OA
ATOM      5  O   UNL     1      -0.846  -2.932   1.620  0.00  0.00    -0.247 OA
ATOM      6  O   UNL     1       3.085   3.080   0.599  0.00  0.00    -0.247 OA
ATOM      7  O   UNL     1      -4.900   1.952  -0.261  0.00  0.00    -0.250 OA
ATOM      8  C   UNL     1      -0.141  -0.399  -0.841  0.00  0.00    +0.084 C 
ATOM      9  C   UNL     1       1.090   0.338  -0.313  0.00  0.00    +0.106 C 
ATOM     10  C   UNL     1      -0.898  -0.793   0.461  0.00  0.00    +0.214 C 
ATOM     11  C   UNL     1       0.336  -1.737  -1.410  0.00  0.00    +0.172 C 
ATOM     12  C   UNL     1       2.114  -0.831  -0.065  0.00  0.00    +0.013 C 
ATOM     13  C   UNL     1      -2.397  -0.495   0.214  0.00  0.00    +0.167 C 
ATOM     14  C   UNL     1      -1.174   0.322  -1.702  0.00  0.00    +0.053 C 
ATOM     15  C   UNL     1       0.481   0.951   0.927  0.00  0.00    +0.293 C 
ATOM     16  C   UNL     1       1.857  -1.714  -1.294  0.00  0.00    +0.044 C 
ATOM     17  C   UNL     1      -2.497  -0.323  -1.295  0.00  0.00    +0.197 C 
ATOM     18  C   UNL     1       1.767   1.590  -0.844  0.00  0.00    +0.216 C 
ATOM     19  C   UNL     1      -0.635  -2.271   0.615  0.00  0.00    +0.344 C 
ATOM     20  C   UNL     1      -2.991   0.813   0.740  0.00  0.00    +0.130 C 
ATOM     21  C   UNL     1       2.245   2.201   0.480  0.00  0.00    +0.346 C 
ATOM     22  C   UNL     1      -3.962   1.177  -0.361  0.00  0.00    +0.319 C 
ATOM     23  C   UNL     1      -3.671   0.721   2.096  0.00  0.00    +0.014 C 
ENDROOT
BRANCH  12  24
ATOM     24  C   UNL     1       3.606  -0.540   0.083  0.00  0.00    +0.000 C 
ATOM     25  C   UNL     1       4.386  -1.862   0.193  0.00  0.00    +0.000 C 
ATOM     26  C   UNL     1       4.108   0.243  -1.142  0.00  0.00    +0.000 C 
ATOM     27  C   UNL     1       3.849   0.296   1.351  0.00  0.00    +0.000 C 
ENDBRANCH  12  24
BRANCH  13  28
ATOM     28  O   UNL     1      -3.235  -1.588   0.588  0.00  0.00    -0.380 OA
ATOM     29  H   UNL     1      -2.855  -2.415   0.253  0.00  0.00    +0.211 HD
ENDBRANCH  13  28
BRANCH  18  30
ATOM     30  O   UNL     1       0.899   2.517  -1.454  0.00  0.00    -0.374 OA
ATOM     31  H   UNL     1       0.580   2.156  -2.296  0.00  0.00    +0.211 HD
ENDBRANCH  18  30
TORSDOF 3
