REMARK  Name = 129821263
REMARK  6 active torsions:
REMARK  status: ('A' for Active; 'I' for Inactive)
REMARK    1  A    between atoms: C_1  and  C_3
REMARK    2  A    between atoms: C_1  and  O_13
REMARK    3  A    between atoms: C_1  and  C_16
REMARK    4  A    between atoms: C_3  and  C_9
REMARK    5  A    between atoms: C_16  and  O_17
REMARK    6  A    between atoms: O_17  and  C_20
REMARK                            x       y       z     vdW  Elec       q    Type
REMARK                         _______ _______ _______ _____ _____    ______ ____
ROOT
ATOM      1  C   UNL     1       1.331   1.362  -0.940  0.00  0.00    +0.223 C 
ENDROOT
BRANCH   1   3
ATOM      2  S   UNL     1       2.952   1.477   1.261  0.00  0.00    -0.134 S 
ATOM      3  C   UNL     1       2.401   0.514  -0.232  0.00  0.00    +0.099 C 
ATOM      4  C   UNL     1       3.700   0.430  -1.086  0.00  0.00    +0.018 C 
ATOM      5  C   UNL     1       4.878   0.541  -0.166  0.00  0.00    +0.013 C 
ATOM      6  C   UNL     1       4.612   1.058   1.034  0.00  0.00    +0.058 C 
BRANCH   3   9
ATOM      7 BR   UNL     1       0.186  -4.816  -0.682  0.00  0.00    -0.042 Br
ATOM      8  S   UNL     1       1.374  -1.911  -1.208  0.00  0.00    -0.084 S 
ATOM      9  C   UNL     1       1.832  -0.881   0.080  0.00  0.00    +0.019 C 
ATOM     10  C   UNL     1       1.622  -1.466   1.309  0.00  0.00    +0.004 C 
ATOM     11  C   UNL     1       1.077  -2.777   1.192  0.00  0.00    +0.013 C 
ATOM     12  C   UNL     1       0.892  -3.144  -0.123  0.00  0.00    +0.064 C 
ENDBRANCH   3   9
ENDBRANCH   1   3
BRANCH   1  13
ATOM     13  O   UNL     1       1.899   2.626  -1.244  0.00  0.00    -0.374 OA
ATOM     14  H   UNL     1       2.677   2.503  -1.810  0.00  0.00    +0.211 HD
ENDBRANCH   1  13
BRANCH   1  16
ATOM     15  O   UNL     1       0.006   2.480   0.761  0.00  0.00    -0.247 OA
ATOM     16  C   UNL     1       0.119   1.575  -0.056  0.00  0.00    +0.345 C 
BRANCH  16  17
ATOM     17  O   UNL     1      -0.808   0.595  -0.288  0.00  0.00    -0.453 OA
BRANCH  17  20
ATOM     18  N   UNL     1      -3.939  -0.891   0.295  0.00  0.00    +0.389 N 
ATOM     19  C   UNL     1      -3.066   1.504  -0.207  0.00  0.00    +0.034 C 
ATOM     20  C   UNL     1      -1.991   0.659   0.501  0.00  0.00    +0.148 C 
ATOM     21  C   UNL     1      -4.293   1.549   0.714  0.00  0.00    -0.019 C 
ATOM     22  C   UNL     1      -3.485   0.784  -1.501  0.00  0.00    -0.019 C 
ATOM     23  C   UNL     1      -2.530  -0.764   0.732  0.00  0.00    -0.033 C 
ATOM     24  C   UNL     1      -4.758   0.113   1.010  0.00  0.00    -0.077 C 
ATOM     25  C   UNL     1      -4.010  -0.619  -1.156  0.00  0.00    -0.077 C 
ATOM     26  H   UNL     1      -4.286  -1.829   0.497  0.00  0.00    -0.080 HD
ENDBRANCH  17  20
ENDBRANCH  16  17
ENDBRANCH   1  16
TORSDOF 6
