REMARK  Name = 129892407
REMARK  11 active torsions:
REMARK  status: ('A' for Active; 'I' for Inactive)
REMARK    1  A    between atoms: C_2  and  C_23
REMARK    2  A    between atoms: C_3  and  C_10
REMARK    3  A    between atoms: C_6  and  C_27
REMARK    4  A    between atoms: C_7  and  O_20
REMARK    5  A    between atoms: C_13  and  O_16
REMARK    6  A    between atoms: C_15  and  O_18
REMARK    7  A    between atoms: C_23  and  O_24
REMARK    8  A    between atoms: O_24  and  C_25
REMARK    9  A    between atoms: C_28  and  C_30
REMARK   10  A    between atoms: C_30  and  O_31
REMARK   11  A    between atoms: O_31  and  C_32
REMARK                            x       y       z     vdW  Elec       q    Type
REMARK                         _______ _______ _______ _____ _____    ______ ____
ROOT
ATOM      1  O   UNL     1       1.575   2.287   0.153  0.00  0.00    -0.471 OA
ATOM      2  C   UNL     1       0.348   0.240   0.628  0.00  0.00    +0.168 C 
ATOM      3  C   UNL     1       1.668   1.013   0.854  0.00  0.00    +0.203 C 
ATOM      4  C   UNL     1      -0.544   1.399   0.369  0.00  0.00    +0.029 C 
ATOM      5  C   UNL     1       0.223   2.519   0.081  0.00  0.00    +0.169 C 
ATOM      6  C   UNL     1      -1.926   1.460   0.332  0.00  0.00    -0.000 C 
ATOM      7  C   UNL     1      -0.346   3.729  -0.264  0.00  0.00    +0.167 C 
ATOM      8  C   UNL     1      -2.525   2.678   0.000  0.00  0.00    +0.003 C 
ATOM      9  C   UNL     1      -1.739   3.804  -0.299  0.00  0.00    +0.040 C 
ENDROOT
BRANCH   3  10
ATOM     10  C   UNL     1       2.908   0.310   0.421  0.00  0.00    +0.021 C 
ATOM     11  C   UNL     1       3.623  -0.467   1.333  0.00  0.00    +0.039 C 
ATOM     12  C   UNL     1       3.354   0.427  -0.895  0.00  0.00    +0.003 C 
ATOM     13  C   UNL     1       4.784  -1.127   0.927  0.00  0.00    +0.167 C 
ATOM     14  C   UNL     1       4.514  -0.233  -1.301  0.00  0.00    +0.040 C 
ATOM     15  C   UNL     1       5.229  -1.010  -0.389  0.00  0.00    +0.167 C 
BRANCH  13  16
ATOM     16  O   UNL     1       5.472  -1.884   1.827  0.00  0.00    -0.503 OA
ATOM     17  H   UNL     1       5.166  -1.958   2.709  0.00  0.00    +0.292 HD
ENDBRANCH  13  16
BRANCH  15  18
ATOM     18  O   UNL     1       6.361  -1.649  -0.797  0.00  0.00    -0.503 OA
ATOM     19  H   UNL     1       6.847  -2.173  -0.191  0.00  0.00    +0.292 HD
ENDBRANCH  15  18
ENDBRANCH   3  10
BRANCH   7  20
ATOM     20  O   UNL     1       0.414   4.814  -0.555  0.00  0.00    -0.503 OA
ATOM     21  H   UNL     1       1.349   4.752  -0.529  0.00  0.00    +0.292 HD
ENDBRANCH   7  20
BRANCH   2  23
ATOM     22  O   UNL     1       0.133  -0.341  -1.700  0.00  0.00    -0.250 OA
ATOM     23  C   UNL     1       0.381  -0.685  -0.552  0.00  0.00    +0.325 C 
BRANCH  23  24
ATOM     24  O   UNL     1       0.725  -1.938  -0.140  0.00  0.00    -0.448 OA
BRANCH  24  25
ATOM     25  C   UNL     1       0.795  -2.927  -1.171  0.00  0.00    +0.209 C 
ATOM     26  C   UNL     1       1.186  -4.254  -0.557  0.00  0.00    +0.051 C 
ENDBRANCH  24  25
ENDBRANCH  23  24
ENDBRANCH   2  23
BRANCH   6  27
ATOM     27  C   UNL     1      -2.755   0.302   0.623  0.00  0.00    +0.006 C 
ATOM     28  C   UNL     1      -3.985   0.073   0.111  0.00  0.00    +0.082 C 
BRANCH  28  30
ATOM     29  O   UNL     1      -4.344  -2.007   1.261  0.00  0.00    -0.245 OA
ATOM     30  C   UNL     1      -4.737  -1.144   0.493  0.00  0.00    +0.341 C 
BRANCH  30  31
ATOM     31  O   UNL     1      -5.928  -1.116  -0.165  0.00  0.00    -0.445 OA
BRANCH  31  32
ATOM     32  C   UNL     1      -6.795  -2.226   0.086  0.00  0.00    +0.209 C 
ATOM     33  C   UNL     1      -8.069  -2.047  -0.713  0.00  0.00    +0.051 C 
ENDBRANCH  31  32
ENDBRANCH  30  31
ENDBRANCH  28  30
ENDBRANCH   6  27
TORSDOF 11
