129830
  -OEChem-03292013323D

 28 29  0     0  0  0  0  0  0999 V2000
   -3.1247   -1.6980    0.1357 S   0  0  0  0  0  0  0  0  0  0  0  0
    4.6373   -0.4352   -0.2923 S   0  0  0  0  0  0  0  0  0  0  0  0
   -3.9134   -1.3204   -1.2443 O   0  0  0  0  0  0  0  0  0  0  0  0
    5.1624   -0.8445    1.2010 O   0  0  0  0  0  0  0  0  0  0  0  0
   -2.5830   -3.0368   -0.0345 O   0  0  0  0  0  0  0  0  0  0  0  0
   -3.9943   -1.3830    1.2567 O   0  0  0  0  0  0  0  0  0  0  0  0
    4.5435   -1.6674   -1.0616 O   0  0  0  0  0  0  0  0  0  0  0  0
    5.4475    0.6757   -0.7670 O   0  0  0  0  0  0  0  0  0  0  0  0
   -3.2674    1.2912    0.6444 N   0  0  0  0  0  0  0  0  0  0  0  0
   -3.8047    1.6576   -0.4227 N   0  3  0  0  0  0  0  0  0  0  0  0
   -4.3025    1.9947   -1.3929 N   0  5  0  0  0  0  0  0  0  0  0  0
    0.6221   -0.2126    0.0748 C   0  0  0  0  0  0  0  0  0  0  0  0
    0.4178    1.1660    0.3207 C   0  0  0  0  0  0  0  0  0  0  0  0
   -1.7788   -0.5811    0.2109 C   0  0  0  0  0  0  0  0  0  0  0  0
   -0.4868   -1.0728    0.0228 C   0  0  0  0  0  0  0  0  0  0  0  0
    1.9294   -0.6904   -0.1124 C   0  0  0  0  0  0  0  0  0  0  0  0
    3.0196    0.1785   -0.0573 C   0  0  0  0  0  0  0  0  0  0  0  0
   -0.8896    1.6438    0.5075 C   0  0  0  0  0  0  0  0  0  0  0  0
   -1.9797    0.7746    0.4528 C   0  0  0  0  0  0  0  0  0  0  0  0
    1.5267    2.0262    0.3728 C   0  0  0  0  0  0  0  0  0  0  0  0
    2.8187    1.5340    0.1850 C   0  0  0  0  0  0  0  0  0  0  0  0
   -0.3178   -2.1299   -0.1696 H   0  0  0  0  0  0  0  0  0  0  0  0
    2.0870   -1.7516   -0.2941 H   0  0  0  0  0  0  0  0  0  0  0  0
   -1.0585    2.7025    0.6986 H   0  0  0  0  0  0  0  0  0  0  0  0
    1.3932    3.0893    0.5623 H   0  0  0  0  0  0  0  0  0  0  0  0
    3.6525    2.2281    0.2403 H   0  0  0  0  0  0  0  0  0  0  0  0
   -3.3889   -1.4228   -2.0730 H   0  0  0  0  0  0  0  0  0  0  0  0
    4.6421   -1.5495    1.6535 H   0  0  0  0  0  0  0  0  0  0  0  0
  1  3  1  0  0  0  0
  1  5  2  0  0  0  0
  1  6  2  0  0  0  0
  1 14  1  0  0  0  0
  2  4  1  0  0  0  0
  2  7  2  0  0  0  0
  2  8  2  0  0  0  0
  2 17  1  0  0  0  0
  3 27  1  0  0  0  0
  4 28  1  0  0  0  0
  9 10  2  0  0  0  0
  9 19  1  0  0  0  0
 10 11  2  0  0  0  0
 12 13  1  0  0  0  0
 12 15  2  0  0  0  0
 12 16  1  0  0  0  0
 13 18  2  0  0  0  0
 13 20  1  0  0  0  0
 14 15  1  0  0  0  0
 14 19  2  0  0  0  0
 15 22  1  0  0  0  0
 16 17  2  0  0  0  0
 16 23  1  0  0  0  0
 17 21  1  0  0  0  0
 18 19  1  0  0  0  0
 18 24  1  0  0  0  0
 20 21  2  0  0  0  0
 20 25  1  0  0  0  0
 21 26  1  0  0  0  0
M  CHG  2  10   1  11  -1
M  END
> <PUBCHEM_COMPOUND_CID>
129830

> <PUBCHEM_CONFORMER_RMSD>
0.6

> <PUBCHEM_CONFORMER_DIVERSEORDER>
1
7
3
6
5
2
4

> <PUBCHEM_MMFF94_PARTIAL_CHARGES>
26
1 1.49
10 0.69
11 -0.37
14 -0.01
15 -0.15
16 -0.15
17 -0.01
18 -0.15
19 0.18
2 1.49
20 -0.15
21 -0.15
22 0.15
23 0.15
24 0.15
25 0.15
26 0.15
27 0.5
28 0.5
3 -0.68
4 -0.68
5 -0.65
6 -0.65
7 -0.65
8 -0.65
9 -0.5

> <PUBCHEM_EFFECTIVE_ROTOR_COUNT>
3

> <PUBCHEM_PHARMACOPHORE_FEATURES>
10
1 3 acceptor
1 4 acceptor
1 5 acceptor
1 6 acceptor
1 7 acceptor
1 8 acceptor
4 1 3 5 6 anion
4 2 4 7 8 anion
6 12 13 14 15 18 19 rings
6 12 13 16 17 20 21 rings

> <PUBCHEM_HEAVY_ATOM_COUNT>
21

> <PUBCHEM_ATOM_DEF_STEREO_COUNT>
0

> <PUBCHEM_ATOM_UDEF_STEREO_COUNT>
0

> <PUBCHEM_BOND_DEF_STEREO_COUNT>
0

> <PUBCHEM_BOND_UDEF_STEREO_COUNT>
0

> <PUBCHEM_ISOTOPIC_ATOM_COUNT>
0

> <PUBCHEM_COMPONENT_COUNT>
1

> <PUBCHEM_CACTVS_TAUTO_COUNT>
1

> <PUBCHEM_CONFORMER_ID>
0001FB2600000001

> <PUBCHEM_MMFF94_ENERGY>
39.4936

> <PUBCHEM_FEATURE_SELFOVERLAP>
50.888

> <PUBCHEM_SHAPE_FINGERPRINT>
10062212 137 18409165510909439546
12236239 1 17967817137759186170
12555020 224 18340764819604767271
13140716 1 18342742939739182817
13583140 156 16271628066869675058
13675066 3 18059853987127950602
13760787 19 18113900438225802162
14790565 3 17908717132629188369
14911166 2 18340764836795594917
15099037 51 18338796715065814117
15196674 1 18411985771562652856
16752209 62 18337940273102018235
16945 1 18269845224328249217
17804303 29 18342182175960888648
1813 80 17895204319838996454
18186145 218 17822005440883677192
200 152 17346874533650967781
20871999 31 18260548948131102212
21267235 1 18340499957382514539
221490 88 18267871764233544880
23366157 5 18044093677766481616
23402539 116 18408319973972947020
23557571 272 17988378013081656868
23559900 14 18271249331485248286
2748010 2 18341891943741105145
3004659 81 18261115132912354622
335352 9 18340772537508290109
34934 24 18336824178399420218
350125 39 18337680797190241313
3759504 43 17749677298824937619
4214541 1 18411140246609203168
5104073 3 18413109485167742368
559249 180 18261385599212905986
633830 44 16732988630515893752
9709674 26 18341049734623415363

> <PUBCHEM_SHAPE_MULTIPOLES>
389.71
10.3
2.44
0.97
6.96
0.34
0.09
1.94
1.65
-2.11
0.14
-0.32
0.02
0.67

> <PUBCHEM_SHAPE_SELFOVERLAP>
823.843

> <PUBCHEM_SHAPE_VOLUME>
218.5

> <PUBCHEM_COORDINATE_TYPE>
2
5
10

$$$$
