REMARK  Name = 129834125
REMARK  6 active torsions:
REMARK  status: ('A' for Active; 'I' for Inactive)
REMARK    1  A    between atoms: C_3  and  C_13
REMARK    2  A    between atoms: C_9  and  O_25
REMARK    3  A    between atoms: C_10  and  O_27
REMARK    4  A    between atoms: C_13  and  O_21
REMARK    5  A    between atoms: C_14  and  O_19
REMARK    6  A    between atoms: O_21  and  C_22
REMARK                            x       y       z     vdW  Elec       q    Type
REMARK                         _______ _______ _______ _____ _____    ______ ____
ROOT
ATOM      1  O   UNL     1      -0.399  -0.672  -0.305  0.00  0.00    -0.455 OA
ATOM      2  O   UNL     1      -2.251   2.434   1.572  0.00  0.00    -0.286 OA
ATOM      3  C   UNL     1       0.310   0.387   0.237  0.00  0.00    +0.156 C 
ATOM      4  C   UNL     1      -0.252   1.432   0.863  0.00  0.00    +0.078 C 
ATOM      5  C   UNL     1      -1.767  -0.663  -0.200  0.00  0.00    +0.154 C 
ATOM      6  C   UNL     1      -2.471   0.364   0.427  0.00  0.00    +0.107 C 
ATOM      7  C   UNL     1      -1.720   1.490   1.003  0.00  0.00    +0.204 C 
ATOM      8  C   UNL     1      -2.456  -1.742  -0.754  0.00  0.00    +0.074 C 
ATOM      9  C   UNL     1      -3.865   0.321   0.506  0.00  0.00    +0.143 C 
ATOM     10  C   UNL     1      -3.848  -1.789  -0.678  0.00  0.00    +0.140 C 
ATOM     11  C   UNL     1      -4.551  -0.760  -0.049  0.00  0.00    +0.073 C 
ENDROOT
BRANCH   3  13
ATOM     12  O   UNL     1       5.230  -1.974   0.833  0.00  0.00    -0.291 OA
ATOM     13  C   UNL     1       1.798   0.266   0.059  0.00  0.00    +0.186 C 
ATOM     14  C   UNL     1       2.518   0.377   1.419  0.00  0.00    +0.154 C 
ATOM     15  C   UNL     1       4.004   0.032   1.312  0.00  0.00    +0.102 C 
ATOM     16  C   UNL     1       2.170  -0.997  -0.675  0.00  0.00    +0.013 C 
ATOM     17  C   UNL     1       4.231  -1.292   0.610  0.00  0.00    +0.175 C 
ATOM     18  C   UNL     1       3.258  -1.731  -0.418  0.00  0.00    +0.036 C 
BRANCH  14  19
ATOM     19  O   UNL     1       1.924  -0.470   2.406  0.00  0.00    -0.381 OA
ATOM     20  H   UNL     1       0.980  -0.262   2.484  0.00  0.00    +0.210 HD
ENDBRANCH  14  19
BRANCH  13  21
ATOM     21  O   UNL     1       2.229   1.369  -0.750  0.00  0.00    -0.347 OA
BRANCH  21  22
ATOM     22  C   UNL     1       1.598   1.345  -2.017  0.00  0.00    +0.116 C 
ATOM     23  C   UNL     1       2.657   1.206  -3.101  0.00  0.00    +0.032 C 
ATOM     24  C   UNL     1       0.773   2.611  -2.190  0.00  0.00    +0.032 C 
ENDBRANCH  21  22
ENDBRANCH  13  21
ENDBRANCH   3  13
BRANCH   9  25
ATOM     25  O   UNL     1      -4.597   1.299   1.108  0.00  0.00    -0.505 OA
ATOM     26  H   UNL     1      -4.166   2.038   1.490  0.00  0.00    +0.292 HD
ENDBRANCH   9  25
BRANCH  10  27
ATOM     27  O   UNL     1      -4.523  -2.841  -1.218  0.00  0.00    -0.505 OA
ATOM     28  H   UNL     1      -4.053  -3.533  -1.640  0.00  0.00    +0.292 HD
ENDBRANCH  10  27
TORSDOF 6
