REMARK  Name = 129883793
REMARK  9 active torsions:
REMARK  status: ('A' for Active; 'I' for Inactive)
REMARK    1  A    between atoms: C_1  and  C_3
REMARK    2  A    between atoms: C_1  and  C_13
REMARK    3  A    between atoms: C_3  and  O_4
REMARK    4  A    between atoms: O_4  and  C_5
REMARK    5  A    between atoms: C_5  and  C_6
REMARK    6  A    between atoms: C_6  and  P_7
REMARK    7  A    between atoms: P_7  and  O_9
REMARK    8  A    between atoms: P_7  and  O_11
REMARK    9  A    between atoms: C_13  and  C_18
REMARK                            x       y       z     vdW  Elec       q    Type
REMARK                         _______ _______ _______ _____ _____    ______ ____
ROOT
ATOM      1  C   UNL     1       0.453   1.725  -0.234  0.00  0.00    +0.084 C 
ENDROOT
BRANCH   1   3
ATOM      2  F   UNL     1       1.024  -0.113  -1.579  0.00  0.00    -0.204 F 
ATOM      3  C   UNL     1       0.885   0.264  -0.280  0.00  0.00    +0.280 C 
BRANCH   3   4
ATOM      4  O   UNL     1       2.159   0.145   0.350  0.00  0.00    -0.326 OA
BRANCH   4   5
ATOM      5  C   UNL     1       2.631  -1.195   0.346  0.00  0.00    +0.158 C 
BRANCH   5   6
ATOM      6  C   UNL     1       3.983  -1.244   1.029  0.00  0.00    +0.148 C 
BRANCH   6   7
ATOM      7  P   UNL     1       5.214  -0.211   0.195  0.00  0.00    +0.339 P 
ATOM      8  O   UNL     1       4.841   1.228   0.138  0.00  0.00    -0.258 OA
BRANCH   7   9
ATOM      9  O   UNL     1       5.390  -0.959  -1.218  0.00  0.00    -0.324 OA
ATOM     10  H   UNL     1       6.040  -0.482  -1.758  0.00  0.00    +0.220 HD
ENDBRANCH   7   9
BRANCH   7  11
ATOM     11  O   UNL     1       6.563  -0.568   0.997  0.00  0.00    -0.324 OA
ATOM     12  H   UNL     1       7.302  -0.061   0.627  0.00  0.00    +0.220 HD
ENDBRANCH   7  11
ENDBRANCH   6   7
ENDBRANCH   5   6
ENDBRANCH   4   5
ENDBRANCH   3   4
ENDBRANCH   1   3
BRANCH   1  13
ATOM     13  C   UNL     1      -0.887   1.986  -0.927  0.00  0.00    +0.118 C 
BRANCH  13  18
ATOM     14  N   UNL     1      -2.447   0.139  -1.046  0.00  0.00    -0.339 NA
ATOM     15  N   UNL     1      -2.518   1.686   0.839  0.00  0.00    -0.185 NA
ATOM     16  N   UNL     1      -5.032  -0.993   0.997  0.00  0.00    -0.312 N 
ATOM     17  N   UNL     1      -4.113  -1.628  -0.932  0.00  0.00    -0.290 N 
ATOM     18  C   UNL     1      -2.038   1.212  -0.335  0.00  0.00    +0.065 C 
ATOM     19  C   UNL     1      -4.036  -0.093   0.747  0.00  0.00    +0.111 C 
ATOM     20  C   UNL     1      -3.481  -0.508  -0.456  0.00  0.00    +0.207 C 
ATOM     21  C   UNL     1      -3.549   1.020   1.405  0.00  0.00    +0.128 C 
ATOM     22  C   UNL     1      -5.040  -1.893  -0.036  0.00  0.00    +0.184 C 
ATOM     23  H   UNL     1      -5.634  -0.995   1.776  0.00  0.00    +0.149 HD
ATOM     24  H   UNL     1      -3.918  -2.123  -1.760  0.00  0.00    +0.151 HD
ENDBRANCH  13  18
ENDBRANCH   1  13
TORSDOF 9
