129851298
  -OEChem-03292013293D

 40 41  0     1  0  0  0  0  0999 V2000
   -1.9032    1.1859   -0.6833 O   0  0  0  0  0  0  0  0  0  0  0  0
   -2.4031   -2.5640    1.0380 O   0  0  0  0  0  0  0  0  0  0  0  0
   -4.3622   -0.5118    1.4737 O   0  0  0  0  0  0  0  0  0  0  0  0
   -2.3722   -0.1798   -2.5663 O   0  0  0  0  0  0  0  0  0  0  0  0
   -3.5009    3.3381   -0.1777 O   0  0  0  0  0  0  0  0  0  0  0  0
    1.3931   -1.9159   -1.2215 O   0  0  0  0  0  0  0  0  0  0  0  0
   -0.1859   -1.0561    0.2464 N   0  0  0  0  0  0  0  0  0  0  0  0
   -1.3280   -1.1856   -0.6345 C   0  0  1  0  0  0  0  0  0  0  0  0
   -2.6128   -1.4682    0.1508 C   0  0  2  0  0  0  0  0  0  0  0  0
   -3.0761   -0.2330    0.9256 C   0  0  1  0  0  0  0  0  0  0  0  0
   -3.1485    0.9813   -0.0092 C   0  0  1  0  0  0  0  0  0  0  0  0
   -1.4805    0.0789   -1.4850 C   0  0  2  0  0  0  0  0  0  0  0  0
   -3.4624    2.2682    0.7486 C   0  0  0  0  0  0  0  0  0  0  0  0
    1.0915   -1.4382   -0.1308 C   0  0  0  0  0  0  0  0  0  0  0  0
    2.0940   -1.1874    0.9792 C   0  0  1  0  0  0  0  0  0  0  0  0
    3.1923   -0.2348    0.5872 C   0  0  0  0  0  0  0  0  0  0  0  0
    4.3670   -0.7220    0.0141 C   0  0  0  0  0  0  0  0  0  0  0  0
    3.0348    1.1351    0.7974 C   0  0  0  0  0  0  0  0  0  0  0  0
    5.3843    0.1607   -0.3487 C   0  0  0  0  0  0  0  0  0  0  0  0
    4.0520    2.0179    0.4345 C   0  0  0  0  0  0  0  0  0  0  0  0
    5.2268    1.5307   -0.1385 C   0  0  0  0  0  0  0  0  0  0  0  0
   -1.1369   -2.0441   -1.2915 H   0  0  0  0  0  0  0  0  0  0  0  0
   -3.4072   -1.7775   -0.5406 H   0  0  0  0  0  0  0  0  0  0  0  0
   -2.4014   -0.0422    1.7677 H   0  0  0  0  0  0  0  0  0  0  0  0
   -3.9313    0.8417   -0.7666 H   0  0  0  0  0  0  0  0  0  0  0  0
   -0.5123    0.3502   -1.9215 H   0  0  0  0  0  0  0  0  0  0  0  0
   -0.3270   -0.6077    1.1462 H   0  0  0  0  0  0  0  0  0  0  0  0
   -2.6792    2.4891    1.4815 H   0  0  0  0  0  0  0  0  0  0  0  0
   -4.4284    2.2061    1.2588 H   0  0  0  0  0  0  0  0  0  0  0  0
   -2.1043   -3.3201    0.5045 H   0  0  0  0  0  0  0  0  0  0  0  0
   -4.9810   -0.6486    0.7362 H   0  0  0  0  0  0  0  0  0  0  0  0
   -2.1330    0.4277   -3.2867 H   0  0  0  0  0  0  0  0  0  0  0  0
    1.6043   -0.8216    1.8900 H   1  0  0  0  0  0  0  0  0  0  0  0
    2.5224   -2.1597    1.2553 H   0  0  0  0  0  0  0  0  0  0  0  0
   -3.6984    4.1464    0.3254 H   0  0  0  0  0  0  0  0  0  0  0  0
    4.5010   -1.7869   -0.1563 H   0  0  0  0  0  0  0  0  0  0  0  0
    2.1230    1.5264    1.2409 H   0  0  0  0  0  0  0  0  0  0  0  0
    6.2988   -0.2185   -0.7953 H   0  0  0  0  0  0  0  0  0  0  0  0
    3.9292    3.0846    0.5975 H   0  0  0  0  0  0  0  0  0  0  0  0
    6.0187    2.2180   -0.4213 H   0  0  0  0  0  0  0  0  0  0  0  0
  1 11  1  0  0  0  0
  1 12  1  0  0  0  0
  2  9  1  0  0  0  0
  2 30  1  0  0  0  0
  3 10  1  0  0  0  0
  3 31  1  0  0  0  0
  4 12  1  0  0  0  0
  4 32  1  0  0  0  0
  5 13  1  0  0  0  0
  5 35  1  0  0  0  0
  6 14  2  0  0  0  0
  7  8  1  0  0  0  0
  7 14  1  0  0  0  0
  7 27  1  0  0  0  0
  8  9  1  0  0  0  0
  8 12  1  0  0  0  0
  8 22  1  0  0  0  0
  9 10  1  0  0  0  0
  9 23  1  0  0  0  0
 10 11  1  0  0  0  0
 10 24  1  0  0  0  0
 11 13  1  0  0  0  0
 11 25  1  0  0  0  0
 12 26  1  0  0  0  0
 13 28  1  0  0  0  0
 13 29  1  0  0  0  0
 14 15  1  0  0  0  0
 15 16  1  0  0  0  0
 15 33  1  0  0  0  0
 15 34  1  0  0  0  0
 16 17  2  0  0  0  0
 16 18  1  0  0  0  0
 17 19  1  0  0  0  0
 17 36  1  0  0  0  0
 18 20  2  0  0  0  0
 18 37  1  0  0  0  0
 19 21  2  0  0  0  0
 19 38  1  0  0  0  0
 20 21  1  0  0  0  0
 20 39  1  0  0  0  0
 21 40  1  0  0  0  0
M  ISO  1  33   2
M  END
> <PUBCHEM_COMPOUND_CID>
129851298

> <PUBCHEM_CONFORMER_RMSD>
0.8

> <PUBCHEM_CONFORMER_DIVERSEORDER>
1
7
38
31
16
34
2
12
40
13
41
5
36
30
15
11
6
3
18
26
44
27
42
23
25
32
24
9
43
14
47
10
4
35
20
8
46
37
17
48
33
28
19
21
45
29
22
39

> <PUBCHEM_MMFF94_PARTIAL_CHARGES>
31
1 -0.56
10 0.28
11 0.28
12 0.56
13 0.28
14 0.57
15 0.2
16 -0.14
17 -0.15
18 -0.15
19 -0.15
2 -0.68
20 -0.15
21 -0.15
27 0.37
3 -0.68
30 0.4
31 0.4
32 0.4
35 0.4
36 0.15
37 0.15
38 0.15
39 0.15
4 -0.68
40 0.15
5 -0.68
6 -0.57
7 -0.73
8 0.3
9 0.28

> <PUBCHEM_EFFECTIVE_ROTOR_COUNT>
6.2

> <PUBCHEM_PHARMACOPHORE_FEATURES>
13
1 1 acceptor
1 2 acceptor
1 2 donor
1 3 acceptor
1 3 donor
1 4 acceptor
1 4 donor
1 5 acceptor
1 5 donor
1 6 acceptor
1 7 donor
6 1 8 9 10 11 12 rings
6 16 17 18 19 20 21 rings

> <PUBCHEM_HEAVY_ATOM_COUNT>
21

> <PUBCHEM_ATOM_DEF_STEREO_COUNT>
4

> <PUBCHEM_ATOM_UDEF_STEREO_COUNT>
2

> <PUBCHEM_BOND_DEF_STEREO_COUNT>
0

> <PUBCHEM_BOND_UDEF_STEREO_COUNT>
0

> <PUBCHEM_ISOTOPIC_ATOM_COUNT>
1

> <PUBCHEM_COMPONENT_COUNT>
1

> <PUBCHEM_CACTVS_TAUTO_COUNT>
4

> <PUBCHEM_CONFORMER_ID>
07BD5FA200000001

> <PUBCHEM_MMFF94_ENERGY>
46.7434

> <PUBCHEM_FEATURE_SELFOVERLAP>
66.027

> <PUBCHEM_SHAPE_FINGERPRINT>
10366900 7 18341044215828174459
10498660 4 17968358131381088724
11370993 144 18188210892755333658
11405975 8 18334571309709077922
11552529 35 18188207731522591922
11615756 256 18409448098588719148
12173636 292 18411695504286922231
12346177 29 11167952363390340570
12633257 1 18043232566724257570
12824470 246 11242551976798381581
13224815 77 18113609114883800348
13544653 18 9151179774819129166
13994607 96 18272368642590823653
14289901 80 16226036791522789114
14341114 176 18261119594723927386
14787075 74 18343013377356466849
15163728 17 16413805778256326465
17834072 32 18340205180876348448
18186145 218 18410004473247812826
19862831 5 15267059242229672762
19930381 70 17402047193830263945
20626108 58 11023821739687137718
20681651 13 17386267853325365963
20775530 9 11533066090146568417
21250096 35 10809335659723122802
21475661 188 17834673799538387045
21652331 79 18410293644141227856
21864079 5 18342165666322893568
221357 26 18200872984714446872
22182937 141 18411138017516090345
23227448 37 18413389838978613709
23403322 49 9151170947985907832
23557571 272 18262241139328709939
23559900 14 18054229830375577510
2637199 183 18411422826104567970
27216 239 18408604760205997147
3009799 131 17603859045085618591
339767 52 7997689753754645408
474 4 18269263565486490077
5104073 3 18260258656150828120
5161694 15 12751240311247194722
5281201 14 18272657878826262750
633830 44 18411415095068769182
6442390 28 17822014259280172706
9882013 296 15285352934135969858

> <PUBCHEM_SHAPE_MULTIPOLES>
391.97
10.7
2.62
1.36
9.17
1.33
-0.59
4.91
1.34
-1.83
0.26
-1.22
-0.27
0.38

> <PUBCHEM_SHAPE_SELFOVERLAP>
813.803

> <PUBCHEM_SHAPE_VOLUME>
220.8

> <PUBCHEM_COORDINATE_TYPE>
2
5
10

$$$$
