REMARK  Name = 129800705
REMARK  10 active torsions:
REMARK  status: ('A' for Active; 'I' for Inactive)
REMARK    1  A    between atoms: C_2  and  N_8
REMARK    2  A    between atoms: C_3  and  O_16
REMARK    3  A    between atoms: C_4  and  O_18
REMARK    4  A    between atoms: C_5  and  C_22
REMARK    5  A    between atoms: C_6  and  O_20
REMARK    6  A    between atoms: C_9  and  C_11
REMARK    7  A    between atoms: C_11  and  C_12
REMARK    8  A    between atoms: C_12  and  C_13
REMARK    9  A    between atoms: C_13  and  C_14
REMARK   10  A    between atoms: C_22  and  O_23
REMARK                            x       y       z     vdW  Elec       q    Type
REMARK                         _______ _______ _______ _____ _____    ______ ____
ROOT
ATOM      1  O   UNL     1      -1.812  -1.212   0.529  0.00  0.00    -0.327 OA
ATOM      2  C   UNL     1      -0.521   0.845   0.778  0.00  0.00    +0.158 C 
ATOM      3  C   UNL     1      -1.557   1.583  -0.077  0.00  0.00    +0.162 C 
ATOM      4  C   UNL     1      -2.294   0.623  -1.013  0.00  0.00    +0.169 C 
ATOM      5  C   UNL     1      -2.847  -0.568  -0.220  0.00  0.00    +0.176 C 
ATOM      6  C   UNL     1      -1.156  -0.362   1.475  0.00  0.00    +0.253 C 
ENDROOT
BRANCH   2   8
ATOM      7  O   UNL     1       2.222   0.609   1.650  0.00  0.00    -0.275 OA
ATOM      8  N   UNL     1       0.614   0.419  -0.015  0.00  0.00    -0.299 N 
ATOM      9  C   UNL     1       1.899   0.339   0.497  0.00  0.00    +0.223 C 
ATOM     10  H   UNL     1       0.466   0.177  -0.957  0.00  0.00    +0.150 HD
BRANCH   9  11
ATOM     11  C   UNL     1       2.886  -0.136  -0.554  0.00  0.00    +0.085 C 
BRANCH  11  12
ATOM     12  C   UNL     1       4.311  -0.234  -0.015  0.00  0.00    +0.009 C 
BRANCH  12  13
ATOM     13  C   UNL     1       5.276  -0.751  -1.082  0.00  0.00    -0.004 C 
ATOM     14  C   UNL     1       6.689  -0.886  -0.537  0.00  0.00    +0.005 C 
ENDBRANCH  12  13
ENDBRANCH  11  12
ENDBRANCH   9  11
ENDBRANCH   2   8
BRANCH   3  15
ATOM     15  O   UNL     1      -0.917   2.615  -0.824  0.00  0.00    -0.380 OA
ATOM     16  H   UNL     1      -0.454   3.214  -0.217  0.00  0.00    +0.211 HD
ENDBRANCH   3  15
BRANCH   4  17
ATOM     17  O   UNL     1      -3.358   1.341  -1.633  0.00  0.00    -0.379 OA
ATOM     18  H   UNL     1      -2.996   2.091  -2.130  0.00  0.00    +0.211 HD
ENDBRANCH   4  17
BRANCH   6  19
ATOM     19  O   UNL     1      -2.037   0.090   2.500  0.00  0.00    -0.359 OA
ATOM     20  H   UNL     1      -2.439  -0.674   2.942  0.00  0.00    +0.213 HD
ENDBRANCH   6  19
BRANCH   5  21
ATOM     21  C   UNL     1      -3.461  -1.626  -1.132  0.00  0.00    +0.169 C 
BRANCH  21  22
ATOM     22  O   UNL     1      -3.936  -2.691  -0.330  0.00  0.00    -0.379 OA
ATOM     23  H   UNL     1      -4.330  -3.373  -0.897  0.00  0.00    +0.211 HD
ENDBRANCH  21  22
ENDBRANCH   5  21
TORSDOF 9
