REMARK  Name = 129835632
REMARK  7 active torsions:
REMARK  status: ('A' for Active; 'I' for Inactive)
REMARK    1  A    between atoms: C_2  and  N_6
REMARK    2  A    between atoms: C_2  and  C_22
REMARK    3  A    between atoms: C_3  and  O_18
REMARK    4  A    between atoms: C_4  and  O_20
REMARK    5  A    between atoms: C_5  and  C_30
REMARK    6  A    between atoms: C_23  and  C_24
REMARK    7  A    between atoms: C_30  and  O_31
REMARK                            x       y       z     vdW  Elec       q    Type
REMARK                         _______ _______ _______ _____ _____    ______ ____
ROOT
ATOM      1  O   UNL     1       0.284   2.400   0.951  0.00  0.00    -0.327 OA
ATOM      2  C   UNL     1       0.051   1.317   0.013  0.00  0.00    +0.240 C 
ATOM      3  C   UNL     1      -0.017   2.013  -1.361  0.00  0.00    +0.195 C 
ATOM      4  C   UNL     1       0.851   3.244  -1.187  0.00  0.00    +0.172 C 
ATOM      5  C   UNL     1       0.556   3.633   0.252  0.00  0.00    +0.176 C 
ENDROOT
BRANCH   2   6
ATOM      6  N   UNL     1      -1.243   0.588   0.367  0.00  0.00    -0.241 N 
ATOM      7  N   UNL     1      -3.133   0.101   1.442  0.00  0.00    -0.242 NA
ATOM      8  N   UNL     1      -1.257  -1.164  -1.315  0.00  0.00    -0.228 NA
ATOM      9  N   UNL     1      -3.223  -2.593  -1.090  0.00  0.00    -0.228 NA
ATOM     10  C   UNL     1      -1.765  -0.506  -0.263  0.00  0.00    +0.153 C 
ATOM     11  C   UNL     1      -2.100   0.914   1.384  0.00  0.00    +0.224 C 
ATOM     12  C   UNL     1      -2.937  -0.791   0.419  0.00  0.00    +0.140 C 
ATOM     13  C   UNL     1      -3.676  -1.881  -0.030  0.00  0.00    +0.146 C 
ATOM     14  C   UNL     1      -2.058  -2.196  -1.658  0.00  0.00    +0.253 C 
ATOM     15  N   UNL     1      -4.878  -2.243   0.602  0.00  0.00    -0.316 N 
ATOM     16  C   UNL     1      -5.679  -3.354   0.181  0.00  0.00    +0.110 C 
ATOM     17  H   UNL     1      -5.185  -1.708   1.369  0.00  0.00    +0.148 HD
ENDBRANCH   2   6
BRANCH   3  18
ATOM     18  O   UNL     1       0.395   1.203  -2.446  0.00  0.00    -0.377 OA
ATOM     19  H   UNL     1      -0.190   0.432  -2.514  0.00  0.00    +0.211 HD
ENDBRANCH   3  18
BRANCH   4  20
ATOM     20  O   UNL     1       2.227   2.891  -1.306  0.00  0.00    -0.379 OA
ATOM     21  H   UNL     1       2.418   2.642  -2.224  0.00  0.00    +0.211 HD
ENDBRANCH   4  20
BRANCH   2  22
ATOM     22  C   UNL     1       1.193   0.384   0.123  0.00  0.00    -0.039 C 
ATOM     23  C   UNL     1       2.120  -0.374   0.213  0.00  0.00    -0.060 C 
BRANCH  23  24
ATOM     24  C   UNL     1       3.224  -1.277   0.321  0.00  0.00    +0.042 C 
ATOM     25  C   UNL     1       3.078  -2.479   1.014  0.00  0.00    +0.008 C 
ATOM     26  C   UNL     1       4.447  -0.957  -0.269  0.00  0.00    +0.008 C 
ATOM     27  C   UNL     1       4.155  -3.360   1.118  0.00  0.00    +0.001 C 
ATOM     28  C   UNL     1       5.524  -1.837  -0.165  0.00  0.00    +0.001 C 
ATOM     29  C   UNL     1       5.377  -3.039   0.529  0.00  0.00    +0.000 C 
ENDBRANCH  23  24
ENDBRANCH   2  22
BRANCH   5  30
ATOM     30  C   UNL     1      -0.662   4.536   0.395  0.00  0.00    +0.169 C 
BRANCH  30  31
ATOM     31  O   UNL     1      -0.853   4.827   1.768  0.00  0.00    -0.379 OA
ATOM     32  H   UNL     1      -1.626   5.402   1.873  0.00  0.00    +0.211 HD
ENDBRANCH  30  31
ENDBRANCH   5  30
TORSDOF 7
