129874
  -OEChem-03292013323D

 33 34  0     1  0  0  0  0  0999 V2000
    2.0057   -0.1130   -1.1193 O   0  0  0  0  0  0  0  0  0  0  0  0
    3.9886    0.6713    1.7725 O   0  0  0  0  0  0  0  0  0  0  0  0
    2.6934    2.6326    0.3912 O   0  0  0  0  0  0  0  0  0  0  0  0
    3.9299   -2.1147   -1.6359 O   0  0  0  0  0  0  0  0  0  0  0  0
   -4.5494    0.3853    0.0394 O   0  0  0  0  0  0  0  0  0  0  0  0
   -3.7229   -1.8989    0.5752 O   0  0  0  0  0  0  0  0  0  0  0  0
   -0.1447    0.5334   -0.3497 N   0  0  0  0  0  0  0  0  0  0  0  0
   -1.1763    1.3793   -0.5092 N   0  0  0  0  0  0  0  0  0  0  0  0
   -0.4067   -0.7304    0.0235 N   0  0  0  0  0  0  0  0  0  0  0  0
   -3.7400    2.4152   -0.6090 N   0  0  0  0  0  0  0  0  0  0  0  0
   -1.7534   -3.0303    0.7670 N   0  0  0  0  0  0  0  0  0  0  0  0
    2.8447    0.2948    1.0362 C   0  0  1  0  0  0  0  0  0  0  0  0
    1.9372    1.4607    0.6913 C   0  0  2  0  0  0  0  0  0  0  0  0
    3.2014   -0.2529   -0.3347 C   0  0  1  0  0  0  0  0  0  0  0  0
    1.2313    0.9781   -0.5770 C   0  0  1  0  0  0  0  0  0  0  0  0
    3.6336   -1.7081   -0.3113 C   0  0  0  0  0  0  0  0  0  0  0  0
   -2.2067    0.5833   -0.2099 C   0  0  0  0  0  0  0  0  0  0  0  0
   -1.7392   -0.6981    0.1139 C   0  0  0  0  0  0  0  0  0  0  0  0
   -3.5506    1.0787   -0.2494 C   0  0  0  0  0  0  0  0  0  0  0  0
   -2.4761   -1.8663    0.4951 C   0  0  0  0  0  0  0  0  0  0  0  0
    2.2751   -0.4457    1.6115 H   0  0  0  0  0  0  0  0  0  0  0  0
    1.2608    1.7151    1.5137 H   0  0  0  0  0  0  0  0  0  0  0  0
    3.9821    0.3501   -0.8164 H   0  0  0  0  0  0  0  0  0  0  0  0
    1.1821    1.7563   -1.3478 H   0  0  0  0  0  0  0  0  0  0  0  0
    2.8376   -2.3582    0.0664 H   0  0  0  0  0  0  0  0  0  0  0  0
    4.5279   -1.8514    0.3016 H   0  0  0  0  0  0  0  0  0  0  0  0
    2.0623    3.3289    0.1410 H   0  0  0  0  0  0  0  0  0  0  0  0
    4.5277   -0.1258    1.9101 H   0  0  0  0  0  0  0  0  0  0  0  0
    3.1287   -1.9807   -2.1705 H   0  0  0  0  0  0  0  0  0  0  0  0
   -2.9636    3.0254   -0.8440 H   0  0  0  0  0  0  0  0  0  0  0  0
   -4.6703    2.8184   -0.6451 H   0  0  0  0  0  0  0  0  0  0  0  0
   -0.7404   -3.0619    0.7083 H   0  0  0  0  0  0  0  0  0  0  0  0
   -2.2265   -3.8873    1.0337 H   0  0  0  0  0  0  0  0  0  0  0  0
  1 14  1  0  0  0  0
  1 15  1  0  0  0  0
  2 12  1  0  0  0  0
  2 28  1  0  0  0  0
  3 13  1  0  0  0  0
  3 27  1  0  0  0  0
  4 16  1  0  0  0  0
  4 29  1  0  0  0  0
  5 19  2  0  0  0  0
  6 20  2  0  0  0  0
  7  8  1  0  0  0  0
  7  9  1  0  0  0  0
  7 15  1  0  0  0  0
  8 17  2  0  0  0  0
  9 18  2  0  0  0  0
 10 19  1  0  0  0  0
 10 30  1  0  0  0  0
 10 31  1  0  0  0  0
 11 20  1  0  0  0  0
 11 32  1  0  0  0  0
 11 33  1  0  0  0  0
 12 13  1  0  0  0  0
 12 14  1  0  0  0  0
 12 21  1  0  0  0  0
 13 15  1  0  0  0  0
 13 22  1  0  0  0  0
 14 16  1  0  0  0  0
 14 23  1  0  0  0  0
 15 24  1  0  0  0  0
 16 25  1  0  0  0  0
 16 26  1  0  0  0  0
 17 18  1  0  0  0  0
 17 19  1  0  0  0  0
 18 20  1  0  0  0  0
M  END
> <PUBCHEM_COMPOUND_CID>
129874

> <PUBCHEM_CONFORMER_RMSD>
0.8

> <PUBCHEM_CONFORMER_DIVERSEORDER>
1
25
32
17
14
29
15
16
5
31
3
8
27
24
18
11
33
2
22
20
9
21
7
26
12
10
23
6
4
30
19
13
28

> <PUBCHEM_MMFF94_PARTIAL_CHARGES>
27
1 -0.56
10 -0.8
11 -0.8
12 0.28
13 0.28
14 0.28
15 0.54
16 0.28
17 0.2
18 0.2
19 0.72
2 -0.68
20 0.72
27 0.4
28 0.4
29 0.4
3 -0.68
30 0.37
31 0.37
32 0.37
33 0.37
4 -0.68
5 -0.57
6 -0.57
7 0.58
8 -0.71
9 -0.71

> <PUBCHEM_EFFECTIVE_ROTOR_COUNT>
5

> <PUBCHEM_PHARMACOPHORE_FEATURES>
15
1 1 acceptor
1 10 donor
1 11 donor
1 2 acceptor
1 2 donor
1 3 acceptor
1 3 donor
1 4 acceptor
1 4 donor
1 5 acceptor
1 6 acceptor
1 8 acceptor
1 9 acceptor
5 1 12 13 14 15 rings
5 7 8 9 17 18 rings

> <PUBCHEM_HEAVY_ATOM_COUNT>
20

> <PUBCHEM_ATOM_DEF_STEREO_COUNT>
4

> <PUBCHEM_ATOM_UDEF_STEREO_COUNT>
0

> <PUBCHEM_BOND_DEF_STEREO_COUNT>
0

> <PUBCHEM_BOND_UDEF_STEREO_COUNT>
0

> <PUBCHEM_ISOTOPIC_ATOM_COUNT>
0

> <PUBCHEM_COMPONENT_COUNT>
1

> <PUBCHEM_CACTVS_TAUTO_COUNT>
3

> <PUBCHEM_CONFORMER_ID>
0001FB5200000001

> <PUBCHEM_MMFF94_ENERGY>
42.927

> <PUBCHEM_FEATURE_SELFOVERLAP>
76.22

> <PUBCHEM_SHAPE_FINGERPRINT>
10366900 7 17984700292457164961
10608611 8 18411697729164468497
1100329 8 16539049832903906720
12346177 29 18334564763967480359
12403259 415 18336827485978419013
12500047 106 18407757027792260068
12507560 40 18343017826415025680
12633257 1 18189593047812536352
13134695 92 17275097293935706400
13296908 3 18341052998819717870
13544592 145 18340207375804797878
13583140 156 17131255999786513411
13675066 3 18342734104975441729
14115302 16 18261687969184029580
14178342 30 18187070789264932442
14223421 5 18194965377099089616
14289901 80 17916862551063877993
14866123 147 17047121022342633730
15219456 202 18343582975112121120
16752209 62 18187083975089051795
17804303 29 18336553724213813118
18186145 218 18269552754493840341
19049666 15 18342458140341382840
20510252 161 18339363080135200193
20645477 70 17560798797501058470
20832881 197 17912082746448050470
21065199 12 18340483468965973256
21521239 73 18128797704560260055
22943178 12 18413387661187341680
23402539 116 18337657716441940941
23557571 272 18337390551521014792
23559900 14 18412827958788378564
495365 180 17774426214312263514
59755656 215 18190460464092525951
6049 1 18341622541600731464
633830 44 18270105808911346293
69090 78 18342168982211453143
74978 22 18408325488225911624
81228 2 18042407014033307329
8809292 202 18410299077195716367
9709674 26 18412261778539755975

> <PUBCHEM_SHAPE_MULTIPOLES>
351.47
8.33
2.68
1.08
0.86
0.79
0.06
0.47
0.13
0.75
0.13
-1.18
0.14
1.98

> <PUBCHEM_SHAPE_SELFOVERLAP>
744.267

> <PUBCHEM_SHAPE_VOLUME>
195.1

> <PUBCHEM_COORDINATE_TYPE>
2
5
10

$$$$
