129882134
  -OEChem-03292013293D

 38 40  0     0  0  0  0  0  0999 V2000
    0.2525   -0.9316    0.2734 O   0  0  0  0  0  0  0  0  0  0  0  0
    3.1305    2.9684   -0.0968 O   0  0  0  0  0  0  0  0  0  0  0  0
    0.5097    3.1069   -0.3335 O   0  0  0  0  0  0  0  0  0  0  0  0
   -2.1227   -2.1966    0.2798 O   0  0  0  0  0  0  0  0  0  0  0  0
    4.6856   -2.7892   -1.2001 O   0  0  0  0  0  0  0  0  0  0  0  0
   -5.5697   -0.0143    0.3159 O   0  0  0  0  0  0  0  0  0  0  0  0
   -4.7308   -2.0072   -0.4739 O   0  0  0  0  0  0  0  0  0  0  0  0
    1.6409    1.0679    0.0770 C   0  0  0  0  0  0  0  0  0  0  0  0
    1.4729   -0.3022    0.2764 C   0  0  0  0  0  0  0  0  0  0  0  0
   -0.8483    1.2078   -0.1455 C   0  0  0  0  0  0  0  0  0  0  0  0
    3.8669   -0.5473    0.5128 C   0  0  0  0  0  0  0  0  0  0  0  0
   -0.8714   -0.1705    0.0661 C   0  0  0  0  0  0  0  0  0  0  0  0
    0.4494    1.9001   -0.1496 C   0  0  0  0  0  0  0  0  0  0  0  0
    2.5904   -1.1106    0.4945 C   0  0  0  0  0  0  0  0  0  0  0  0
    2.9172    1.6366    0.0937 C   0  0  0  0  0  0  0  0  0  0  0  0
    5.0592   -1.4123    0.7467 C   0  0  0  0  0  0  0  0  0  0  0  0
    4.0295    0.8237    0.3128 C   0  0  0  0  0  0  0  0  0  0  0  0
   -2.0927   -0.8477    0.0739 C   0  0  0  0  0  0  0  0  0  0  0  0
   -2.0361    1.9152   -0.3488 C   0  0  0  0  0  0  0  0  0  0  0  0
   -3.2815   -0.1457   -0.1286 C   0  0  0  0  0  0  0  0  0  0  0  0
   -3.2529    1.2330   -0.3394 C   0  0  0  0  0  0  0  0  0  0  0  0
    5.6524   -1.9753   -0.5483 C   0  0  0  0  0  0  0  0  0  0  0  0
   -4.5660   -0.8322   -0.1242 C   0  0  0  0  0  0  0  0  0  0  0  0
   -6.8851   -0.5771    0.3658 C   0  0  0  0  0  0  0  0  0  0  0  0
    2.4596   -2.1789    0.6508 H   0  0  0  0  0  0  0  0  0  0  0  0
    4.7747   -2.2426    1.4062 H   0  0  0  0  0  0  0  0  0  0  0  0
    5.8307   -0.8486    1.2856 H   0  0  0  0  0  0  0  0  0  0  0  0
    5.0240    1.2640    0.3246 H   0  0  0  0  0  0  0  0  0  0  0  0
   -2.0339    2.9883   -0.5178 H   0  0  0  0  0  0  0  0  0  0  0  0
   -4.1611    1.8043   -0.5141 H   0  0  0  0  0  0  0  0  0  0  0  0
    6.5298   -2.5898   -0.3239 H   0  0  0  0  0  0  0  0  0  0  0  0
    5.9472   -1.1709   -1.2304 H   0  0  0  0  0  0  0  0  0  0  0  0
    2.2897    3.4294   -0.2400 H   0  0  0  0  0  0  0  0  0  0  0  0
   -3.0359   -2.5192    0.3333 H   0  0  0  0  0  0  0  0  0  0  0  0
    5.1000   -3.1294   -2.0113 H   0  0  0  0  0  0  0  0  0  0  0  0
   -7.5702    0.1907    0.7348 H   0  0  0  0  0  0  0  0  0  0  0  0
   -6.9053   -1.4278    1.0534 H   0  0  0  0  0  0  0  0  0  0  0  0
   -7.2030   -0.8817   -0.6357 H   0  0  0  0  0  0  0  0  0  0  0  0
  1  9  1  0  0  0  0
  1 12  1  0  0  0  0
  2 15  1  0  0  0  0
  2 33  1  0  0  0  0
  3 13  2  0  0  0  0
  4 18  1  0  0  0  0
  4 34  1  0  0  0  0
  5 22  1  0  0  0  0
  5 35  1  0  0  0  0
  6 23  1  0  0  0  0
  6 24  1  0  0  0  0
  7 23  2  0  0  0  0
  8  9  1  0  0  0  0
  8 13  1  0  0  0  0
  8 15  2  0  0  0  0
  9 14  2  0  0  0  0
 10 12  2  0  0  0  0
 10 13  1  0  0  0  0
 10 19  1  0  0  0  0
 11 14  1  0  0  0  0
 11 16  1  0  0  0  0
 11 17  2  0  0  0  0
 12 18  1  0  0  0  0
 14 25  1  0  0  0  0
 15 17  1  0  0  0  0
 16 22  1  0  0  0  0
 16 26  1  0  0  0  0
 16 27  1  0  0  0  0
 17 28  1  0  0  0  0
 18 20  2  0  0  0  0
 19 21  2  0  0  0  0
 19 29  1  0  0  0  0
 20 21  1  0  0  0  0
 20 23  1  0  0  0  0
 21 30  1  0  0  0  0
 22 31  1  0  0  0  0
 22 32  1  0  0  0  0
 24 36  1  0  0  0  0
 24 37  1  0  0  0  0
 24 38  1  0  0  0  0
M  END
> <PUBCHEM_COMPOUND_CID>
129882134

> <PUBCHEM_CONFORMER_RMSD>
0.8

> <PUBCHEM_CONFORMER_DIVERSEORDER>
1
6
4
5
3
2

> <PUBCHEM_MMFF94_PARTIAL_CHARGES>
31
1 -0.17
10 0.09
11 -0.14
12 0.08
13 0.4
14 -0.15
15 0.08
16 0.14
17 -0.15
18 0.08
19 -0.15
2 -0.53
20 0.09
21 -0.15
22 0.28
23 0.63
24 0.28
25 0.15
28 0.15
29 0.15
3 -0.57
30 0.15
33 0.45
34 0.45
35 0.4
4 -0.53
5 -0.68
6 -0.43
7 -0.57
8 0.09
9 0.08

> <PUBCHEM_EFFECTIVE_ROTOR_COUNT>
4

> <PUBCHEM_PHARMACOPHORE_FEATURES>
10
1 1 acceptor
1 2 donor
1 3 acceptor
1 4 donor
1 5 acceptor
1 5 donor
1 7 acceptor
6 1 8 9 10 12 13 rings
6 10 12 18 19 20 21 rings
6 8 9 11 14 15 17 rings

> <PUBCHEM_HEAVY_ATOM_COUNT>
24

> <PUBCHEM_ATOM_DEF_STEREO_COUNT>
0

> <PUBCHEM_ATOM_UDEF_STEREO_COUNT>
0

> <PUBCHEM_BOND_DEF_STEREO_COUNT>
0

> <PUBCHEM_BOND_UDEF_STEREO_COUNT>
0

> <PUBCHEM_ISOTOPIC_ATOM_COUNT>
0

> <PUBCHEM_COMPONENT_COUNT>
1

> <PUBCHEM_CACTVS_TAUTO_COUNT>
48

> <PUBCHEM_CONFORMER_ID>
07BDD81600000001

> <PUBCHEM_MMFF94_ENERGY>
74.6371

> <PUBCHEM_FEATURE_SELFOVERLAP>
50.804

> <PUBCHEM_SHAPE_FINGERPRINT>
10366900 7 17386009433775077384
10411042 1 18337389332330427776
10622 236 17842814875688685399
10967382 1 18263640826146716544
11578080 2 17271995760258559243
12107183 9 18198070188200366065
12166972 35 17676210160449074084
12236239 1 18201720695848214379
12403259 226 18336537257526250980
12403259 327 15769482206113523870
12553582 1 18263346049730208338
13009979 54 18130232557948786288
13140716 1 18410571765001999816
13533116 47 18272932751604900169
13551218 46 18413670214638882047
13583140 156 15266489617870453178
13685833 64 18409730642854089618
13862211 1 18335132072954368211
14341114 176 18409450306222839545
14866123 147 17837776629678005776
15196674 1 18408881836883326673
15536298 74 18410851084042102328
17492 89 18266458895887074330
17804303 29 18337108969407556740
17980427 23 12606815056918988810
1813 80 17240478113446228740
19141452 34 18202278130383736903
19591789 44 18408317770158975410
20028762 73 18343295985588255255
20403669 9 18410856525755305134
20645477 70 18409163337998748958
21130935 74 18272652385415956843
21267235 1 18408608041197118259
21279426 13 18334568006815774357
21682296 61 18341057315636831863
21792934 111 18338785767869481697
221357 26 18407758123072282476
221490 88 18334861666545755050
22182313 1 18116407350254390388
2297311 6 18339085878424134502
23402539 116 18341322349736865215
23522609 53 18120969193849190428
23559900 14 18410004472519702248
25147074 1 18337689541274722576
2871803 45 18114174241900370192
3004659 81 18186802465947430758
335352 9 18409164394824370325
34797466 226 13190343439616395083
350125 39 18408603647551387661
4214541 1 18409444756914239353
465052 167 18342179959984630334
5104073 3 18411131424683431825
59755656 215 18262234418000336391
8863177 126 17823151175498568059
9709674 26 18336265733924922482
9981440 41 17183057484427776809

> <PUBCHEM_SHAPE_MULTIPOLES>
452.82
12.99
2.85
0.74
7.66
0.94
0.04
-8.43
-0.12
-2.28
0.54
-0.41
-0.21
0.61

> <PUBCHEM_SHAPE_SELFOVERLAP>
1003.829

> <PUBCHEM_SHAPE_VOLUME>
243.5

> <PUBCHEM_COORDINATE_TYPE>
2
5
10

$$$$
