REMARK  Name = 129838
REMARK  7 active torsions:
REMARK  status: ('A' for Active; 'I' for Inactive)
REMARK    1  A    between atoms: C_1  and  C_8
REMARK    2  A    between atoms: C_1  and  N_15
REMARK    3  A    between atoms: C_1  and  C_25
REMARK    4  A    between atoms: C_4  and  C_11
REMARK    5  A    between atoms: C_16  and  C_20
REMARK    6  A    between atoms: C_25  and  C_26
REMARK    7  A    between atoms: C_31  and  O_32
REMARK                            x       y       z     vdW  Elec       q    Type
REMARK                         _______ _______ _______ _____ _____    ______ ____
ROOT
ATOM      1  C   UNL     1       0.516   0.248  -0.531  0.00  0.00    +0.153 C 
ENDROOT
BRANCH   1   8
ATOM      2  O   UNL     1       2.165  -0.892  -1.815  0.00  0.00    -0.273 OA
ATOM      3  N   UNL     1       2.911   0.403  -0.048  0.00  0.00    -0.272 N 
ATOM      4  C   UNL     1       4.334   0.265  -0.330  0.00  0.00    +0.152 C 
ATOM      5  C   UNL     1       5.001   1.351   0.506  0.00  0.00    +0.031 C 
ATOM      6  C   UNL     1       2.682   1.300   1.082  0.00  0.00    +0.094 C 
ATOM      7  C   UNL     1       4.058   1.514   1.696  0.00  0.00    +0.024 C 
ATOM      8  C   UNL     1       1.934  -0.137  -0.869  0.00  0.00    +0.244 C 
BRANCH   4  11
ATOM      9  O   UNL     1       3.946  -1.892   0.625  0.00  0.00    -0.274 OA
ATOM     10  N   UNL     1       6.073  -1.384  -0.089  0.00  0.00    -0.327 N 
ATOM     11  C   UNL     1       4.741  -1.108   0.114  0.00  0.00    +0.237 C 
ATOM     12  H   UNL     1       6.439  -2.261   0.169  0.00  0.00    +0.145 HD
ATOM     13  H   UNL     1       6.660  -0.705  -0.493  0.00  0.00    +0.145 HD
ENDBRANCH   4  11
ENDBRANCH   1   8
BRANCH   1  15
ATOM     14  O   UNL     1      -0.937  -1.440   1.332  0.00  0.00    -0.273 OA
ATOM     15  N   UNL     1      -0.238  -0.935  -0.832  0.00  0.00    -0.297 N 
ATOM     16  C   UNL     1      -0.906  -1.685   0.129  0.00  0.00    +0.241 C 
ATOM     17  H   UNL     1      -0.285  -1.231  -1.770  0.00  0.00    +0.150 HD
BRANCH  16  20
ATOM     18  O   UNL     1      -4.421  -3.640   1.570  0.00  0.00    -0.275 OA
ATOM     19  N   UNL     1      -2.278  -3.528   0.635  0.00  0.00    -0.298 N 
ATOM     20  C   UNL     1      -1.634  -2.853  -0.457  0.00  0.00    +0.149 C 
ATOM     21  C   UNL     1      -2.784  -2.438  -1.354  0.00  0.00    +0.039 C 
ATOM     22  C   UNL     1      -3.973  -2.298  -0.404  0.00  0.00    +0.087 C 
ATOM     23  C   UNL     1      -3.636  -3.242   0.724  0.00  0.00    +0.223 C 
ATOM     24  H   UNL     1      -1.807  -4.130   1.255  0.00  0.00    +0.150 HD
ENDBRANCH  16  20
ENDBRANCH   1  15
BRANCH   1  25
ATOM     25  C   UNL     1       0.086   1.453  -1.357  0.00  0.00    +0.055 C 
BRANCH  25  26
ATOM     26  C   UNL     1      -1.107   2.157  -0.757  0.00  0.00    -0.020 C 
ATOM     27  C   UNL     1      -2.398   1.778  -1.125  0.00  0.00    -0.001 C 
ATOM     28  C   UNL     1      -0.918   3.187   0.164  0.00  0.00    -0.001 C 
ATOM     29  C   UNL     1      -3.500   2.428  -0.570  0.00  0.00    +0.036 C 
ATOM     30  C   UNL     1      -2.020   3.838   0.718  0.00  0.00    +0.036 C 
ATOM     31  C   UNL     1      -3.311   3.458   0.351  0.00  0.00    +0.134 C 
BRANCH  31  32
ATOM     32  O   UNL     1      -4.387   4.093   0.892  0.00  0.00    -0.506 OA
ATOM     33  H   UNL     1      -5.254   3.838   0.645  0.00  0.00    +0.292 HD
ENDBRANCH  31  32
ENDBRANCH  25  26
ENDBRANCH   1  25
TORSDOF 7
