REMARK  Name = 129830
REMARK  2 active torsions:
REMARK  status: ('A' for Active; 'I' for Inactive)
REMARK    1  A    between atoms: C_3  and  S_11
REMARK    2  A    between atoms: C_6  and  S_15
REMARK                            x       y       z     vdW  Elec       q    Type
REMARK                         _______ _______ _______ _____ _____    ______ ____
ROOT
ATOM      1  C   UNL     1       0.622  -0.213   0.075  0.00  0.00    +0.003 C 
ATOM      2  C   UNL     1       0.418   1.166   0.321  0.00  0.00    +0.000 C 
ATOM      3  C   UNL     1      -1.779  -0.581   0.211  0.00  0.00    +0.112 C 
ATOM      4  C   UNL     1      -0.487  -1.073   0.023  0.00  0.00    +0.019 C 
ATOM      5  C   UNL     1       1.929  -0.690  -0.112  0.00  0.00    +0.019 C 
ATOM      6  C   UNL     1       3.020   0.178  -0.057  0.00  0.00    +0.112 C 
ATOM      7  C   UNL     1      -0.890   1.644   0.507  0.00  0.00    +0.001 C 
ATOM      8  C   UNL     1      -1.980   0.775   0.453  0.00  0.00    +0.019 C 
ATOM      9  C   UNL     1       1.527   2.026   0.373  0.00  0.00    +0.001 C 
ATOM     10  C   UNL     1       2.819   1.534   0.185  0.00  0.00    +0.019 C 
ENDROOT
BRANCH   3  11
ATOM     11  S   UNL     1      -3.125  -1.698   0.136  0.00  0.00    +0.042 S 
ATOM     12  O   UNL     1      -3.913  -1.320  -1.244  0.00  0.00    -0.065 OA
ATOM     13  O   UNL     1      -2.583  -3.037  -0.035  0.00  0.00    -0.065 OA
ATOM     14  O   UNL     1      -3.994  -1.383   1.257  0.00  0.00    -0.065 OA
ENDBRANCH   3  11
BRANCH   6  15
ATOM     15  S   UNL     1       4.637  -0.435  -0.292  0.00  0.00    +0.042 S 
ATOM     16  O   UNL     1       5.162  -0.845   1.201  0.00  0.00    -0.065 OA
ATOM     17  O   UNL     1       4.543  -1.667  -1.062  0.00  0.00    -0.065 OA
ATOM     18  O   UNL     1       5.447   0.676  -0.767  0.00  0.00    -0.065 OA
ENDBRANCH   6  15
TORSDOF 2
REMARK  Name = 129830
REMARK  2 active torsions:
REMARK  status: ('A' for Active; 'I' for Inactive)
REMARK    1  A    between atoms: C_3  and  S_11
REMARK    2  A    between atoms: C_6  and  S_15
REMARK                            x       y       z     vdW  Elec       q    Type
REMARK                         _______ _______ _______ _____ _____    ______ ____
ROOT
ATOM      1  N   UNL     1      -3.805   1.658  -0.423  0.00  0.00    +0.000 NA
ATOM      2  N   UNL     1      -4.303   1.995  -1.393  0.00  0.00    +0.000 NA
ENDROOT
TORSDOF 0
