129850569
  -OEChem-03292013293D

 52 53  0     1  0  0  0  0  0999 V2000
    2.9134   -0.3713    0.9310 O   0  0  0  0  0  0  0  0  0  0  0  0
    0.8384    0.4604    1.5992 O   0  0  0  0  0  0  0  0  0  0  0  0
    3.4529    2.7308   -1.7058 O   0  0  0  0  0  0  0  0  0  0  0  0
    5.0631    0.3423   -1.9470 O   0  0  0  0  0  0  0  0  0  0  0  0
    0.7537    2.0613   -0.7327 O   0  0  0  0  0  0  0  0  0  0  0  0
    4.5393   -2.5836    1.0646 O   0  0  0  0  0  0  0  0  0  0  0  0
   -3.0173   -2.2491   -1.6667 O   0  0  0  0  0  0  0  0  0  0  0  0
   -4.1423    1.7219    0.7629 O   0  0  0  0  0  0  0  0  0  0  0  0
   -4.7460   -0.1360   -1.2009 O   0  0  0  0  0  0  0  0  0  0  0  0
    3.0133    1.4333   -1.3011 C   0  0  1  0  0  0  0  0  0  0  0  0
    4.2355    0.6464   -0.8274 C   0  0  1  0  0  0  0  0  0  0  0  0
    1.9777    1.5719   -0.1852 C   0  0  2  0  0  0  0  0  0  0  0  0
    3.8115   -0.6554   -0.1432 C   0  0  1  0  0  0  0  0  0  0  0  0
    1.6985    0.2265    0.4845 C   0  0  1  0  0  0  0  0  0  0  0  0
    5.0067   -1.4012    0.4415 C   0  0  0  0  0  0  0  0  0  0  0  0
   -0.0010   -0.6566    1.8466 C   0  0  2  0  0  0  0  0  0  0  0  0
   -1.2662   -0.5175    1.0340 C   0  0  0  0  0  0  0  0  0  0  0  0
   -0.2884   -0.7584    3.3405 C   0  0  0  0  0  0  0  0  0  0  0  0
   -2.1339    0.5485    1.2711 C   0  0  0  0  0  0  0  0  0  0  0  0
   -1.5671   -1.4551    0.0460 C   0  0  0  0  0  0  0  0  0  0  0  0
   -2.7356   -1.3268   -0.7048 C   0  0  0  0  0  0  0  0  0  0  0  0
   -3.3024    0.6771    0.5202 C   0  0  0  0  0  0  0  0  0  0  0  0
   -3.6033   -0.2607   -0.4677 C   0  0  0  0  0  0  0  0  0  0  0  0
   -2.0776   -3.3075   -1.8447 C   0  0  0  0  0  0  0  0  0  0  0  0
   -3.7603    2.6351    1.7897 C   0  0  0  0  0  0  0  0  0  0  0  0
   -4.6625    0.6239   -2.4044 C   0  0  0  0  0  0  0  0  0  0  0  0
    2.5707    0.9699   -2.1907 H   0  0  0  0  0  0  0  0  0  0  0  0
    4.8277    1.2637   -0.1409 H   0  0  0  0  0  0  0  0  0  0  0  0
    2.3088    2.3081    0.5567 H   0  0  0  0  0  0  0  0  0  0  0  0
    3.3069   -1.3270   -0.8513 H   0  0  0  0  0  0  0  0  0  0  0  0
    1.2114   -0.4389   -0.2416 H   0  0  0  0  0  0  0  0  0  0  0  0
    5.5074   -0.7974    1.2057 H   0  0  0  0  0  0  0  0  0  0  0  0
    5.7284   -1.6745   -0.3342 H   0  0  0  0  0  0  0  0  0  0  0  0
    0.5217   -1.5858    1.5787 H   0  0  0  0  0  0  0  0  0  0  0  0
    3.8359    3.1758   -0.9307 H   0  0  0  0  0  0  0  0  0  0  0  0
    4.5511   -0.2166   -2.5561 H   0  0  0  0  0  0  0  0  0  0  0  0
    0.4346    1.4145   -1.3851 H   0  0  0  0  0  0  0  0  0  0  0  0
   -0.7091    0.1691    3.7436 H   0  0  0  0  0  0  0  0  0  0  0  0
    0.6450   -0.9298    3.8887 H   0  0  0  0  0  0  0  0  0  0  0  0
   -0.9769   -1.5799    3.5640 H   0  0  0  0  0  0  0  0  0  0  0  0
    5.3150   -3.0400    1.4328 H   0  0  0  0  0  0  0  0  0  0  0  0
   -1.8468    1.2568    2.0400 H   0  0  0  0  0  0  0  0  0  0  0  0
   -0.8567   -2.2624   -0.0954 H   0  0  0  0  0  0  0  0  0  0  0  0
   -1.1035   -2.9314   -2.1756 H   0  0  0  0  0  0  0  0  0  0  0  0
   -2.0020   -3.9354   -0.9503 H   0  0  0  0  0  0  0  0  0  0  0  0
   -2.4603   -3.9455   -2.6482 H   0  0  0  0  0  0  0  0  0  0  0  0
   -4.5427    3.3990    1.8480 H   0  0  0  0  0  0  0  0  0  0  0  0
   -3.7199    2.1478    2.7699 H   0  0  0  0  0  0  0  0  0  0  0  0
   -2.8284    3.1547    1.5418 H   0  0  0  0  0  0  0  0  0  0  0  0
   -5.6499    0.6313   -2.8740 H   0  0  0  0  0  0  0  0  0  0  0  0
   -3.9487    0.1691   -3.0986 H   0  0  0  0  0  0  0  0  0  0  0  0
   -4.3702    1.6565   -2.1888 H   0  0  0  0  0  0  0  0  0  0  0  0
  1 13  1  0  0  0  0
  1 14  1  0  0  0  0
  2 14  1  0  0  0  0
  2 16  1  0  0  0  0
  3 10  1  0  0  0  0
  3 35  1  0  0  0  0
  4 11  1  0  0  0  0
  4 36  1  0  0  0  0
  5 12  1  0  0  0  0
  5 37  1  0  0  0  0
  6 15  1  0  0  0  0
  6 41  1  0  0  0  0
  7 21  1  0  0  0  0
  7 24  1  0  0  0  0
  8 22  1  0  0  0  0
  8 25  1  0  0  0  0
  9 23  1  0  0  0  0
  9 26  1  0  0  0  0
 10 11  1  0  0  0  0
 10 12  1  0  0  0  0
 10 27  1  0  0  0  0
 11 13  1  0  0  0  0
 11 28  1  0  0  0  0
 12 14  1  0  0  0  0
 12 29  1  0  0  0  0
 13 15  1  0  0  0  0
 13 30  1  0  0  0  0
 14 31  1  0  0  0  0
 15 32  1  0  0  0  0
 15 33  1  0  0  0  0
 16 17  1  0  0  0  0
 16 18  1  0  0  0  0
 16 34  1  0  0  0  0
 17 19  2  0  0  0  0
 17 20  1  0  0  0  0
 18 38  1  0  0  0  0
 18 39  1  0  0  0  0
 18 40  1  0  0  0  0
 19 22  1  0  0  0  0
 19 42  1  0  0  0  0
 20 21  2  0  0  0  0
 20 43  1  0  0  0  0
 21 23  1  0  0  0  0
 22 23  2  0  0  0  0
 24 44  1  0  0  0  0
 24 45  1  0  0  0  0
 24 46  1  0  0  0  0
 25 47  1  0  0  0  0
 25 48  1  0  0  0  0
 25 49  1  0  0  0  0
 26 50  1  0  0  0  0
 26 51  1  0  0  0  0
 26 52  1  0  0  0  0
M  END
> <PUBCHEM_COMPOUND_CID>
129850569

> <PUBCHEM_CONFORMER_RMSD>
1

> <PUBCHEM_CONFORMER_DIVERSEORDER>
2
69
45
23
28
91
64
80
62
70
44
59
11
114
37
9
8
116
31
109
20
60
67
94
38
86
42
32
17
103
39
25
34
3
106
4
75
50
82
85
51
78
30
15
63
84
1
55
96
21
99
97
14
111
88
22
102
73
35
61
18
77
79
115
13
98
26
24
72
52
43
112
41
104
92
53
47
12
49
33
46
16
57
110
95
10
93
76
6
87
74
113
107
56
65
58
36
68
89
90
40
27
83
105
7
108
54
71
66
5
100
19
48
29
101
81

> <PUBCHEM_MMFF94_PARTIAL_CHARGES>
31
1 -0.56
10 0.28
11 0.28
12 0.28
13 0.28
14 0.56
15 0.28
16 0.42
17 -0.14
19 -0.15
2 -0.56
20 -0.15
21 0.08
22 0.08
23 0.08
24 0.28
25 0.28
26 0.28
3 -0.68
35 0.4
36 0.4
37 0.4
4 -0.68
41 0.4
42 0.15
43 0.15
5 -0.68
6 -0.68
7 -0.36
8 -0.36
9 -0.36

> <PUBCHEM_EFFECTIVE_ROTOR_COUNT>
8.2

> <PUBCHEM_PHARMACOPHORE_FEATURES>
15
1 1 acceptor
1 2 acceptor
1 3 acceptor
1 3 donor
1 4 acceptor
1 4 donor
1 5 acceptor
1 5 donor
1 6 acceptor
1 6 donor
1 7 acceptor
1 8 acceptor
1 9 acceptor
6 1 10 11 12 13 14 rings
6 17 19 20 21 22 23 rings

> <PUBCHEM_HEAVY_ATOM_COUNT>
26

> <PUBCHEM_ATOM_DEF_STEREO_COUNT>
5

> <PUBCHEM_ATOM_UDEF_STEREO_COUNT>
1

> <PUBCHEM_BOND_DEF_STEREO_COUNT>
0

> <PUBCHEM_BOND_UDEF_STEREO_COUNT>
0

> <PUBCHEM_ISOTOPIC_ATOM_COUNT>
0

> <PUBCHEM_COMPONENT_COUNT>
1

> <PUBCHEM_CACTVS_TAUTO_COUNT>
1

> <PUBCHEM_CONFORMER_ID>
07BD5CC900000002

> <PUBCHEM_MMFF94_ENERGY>
101.4512

> <PUBCHEM_FEATURE_SELFOVERLAP>
76.2

> <PUBCHEM_SHAPE_FINGERPRINT>
10369192 42 16157972757114066956
11578080 2 18060133267514270864
12156800 1 12819301064327057678
12363563 72 15482397542067130787
12714826 92 17416979485401168491
13544653 18 13254796819594184170
15664445 248 17049624035051769019
16752209 62 17775566437856176775
17349148 13 17560806515351651654
17818456 19 18127980702479653312
18186145 218 16877663482942220954
20511986 3 18341599409529296186
20600515 1 16773800281440082658
20626108 58 18201708596551249770
20645477 56 15792023324032703850
21033648 144 17895484729590282748
21033648 29 16370727049485902972
21781051 124 18271238431075256679
22122407 14 17387125369954587093
22393880 68 18199476630991093636
23536364 44 16736062702166772314
23557571 272 17840846779996700179
23559900 14 17702647994953860912
3729539 64 16227732109694135426
508706 21 17774736298055538799
5283173 99 15337723647386675273
574716 61 18261386810076958006
633830 44 17313371344747540359
7399639 24 16812671539819409088
9981440 41 17543624692011007640

> <PUBCHEM_SHAPE_MULTIPOLES>
482.24
10.7
2.76
2.51
5.22
1.02
-0.68
0.24
4.6
-1.73
0.72
0.01
-0.27
-3.11

> <PUBCHEM_SHAPE_SELFOVERLAP>
997.497

> <PUBCHEM_SHAPE_VOLUME>
277.4

> <PUBCHEM_COORDINATE_TYPE>
2
5
10

$$$$
