129848727
  -OEChem-03292013293D

 29 28  0     1  0  0  0  0  0999 V2000
    0.8576   -0.7940    0.1190 O   0  0  0  0  0  0  0  0  0  0  0  0
   -0.8331    1.2399    1.2857 O   0  0  0  0  0  0  0  0  0  0  0  0
   -1.9835   -1.1798   -1.1573 O   0  0  0  0  0  0  0  0  0  0  0  0
    0.9498    2.4698   -1.5129 O   0  0  0  0  0  0  0  0  0  0  0  0
   -4.3018   -1.1364    0.3335 O   0  0  0  0  0  0  0  0  0  0  0  0
    1.5198    3.2079    0.9800 O   0  0  0  0  0  0  0  0  0  0  0  0
   -1.0044    0.7021   -0.0298 C   0  0  1  0  0  0  0  0  0  0  0  0
    0.3635    0.3261   -0.6255 C   0  0  1  0  0  0  0  0  0  0  0  0
   -2.0172   -0.4475    0.0764 C   0  0  1  0  0  0  0  0  0  0  0  0
    1.4301    1.4285   -0.6694 C   0  0  2  0  0  0  0  0  0  0  0  0
   -3.4569    0.0101    0.2843 C   0  0  0  0  0  0  0  0  0  0  0  0
    1.7385    2.0374    0.6830 C   0  0  0  0  0  0  0  0  0  0  0  0
    1.7792   -1.5496   -0.6476 C   0  0  0  0  0  0  0  0  0  0  0  0
    2.2752   -2.6893    0.1244 C   0  0  0  0  0  0  0  0  0  0  0  0
    2.6831   -3.6251    0.7562 C   0  0  0  0  0  0  0  0  0  0  0  0
   -1.4338    1.4957   -0.6534 H   0  0  0  0  0  0  0  0  0  0  0  0
    0.1707    0.0141   -1.6620 H   0  0  0  0  0  0  0  0  0  0  0  0
   -1.7346   -1.1425    0.8763 H   0  0  0  0  0  0  0  0  0  0  0  0
    2.3788    1.0873   -1.0882 H   0  0  0  0  0  0  0  0  0  0  0  0
   -3.7944    0.6327   -0.5508 H   0  0  0  0  0  0  0  0  0  0  0  0
   -3.5717    0.5639    1.2202 H   0  0  0  0  0  0  0  0  0  0  0  0
   -1.6733    1.6492    1.5522 H   0  0  0  0  0  0  0  0  0  0  0  0
    2.2000    1.3512    1.4141 H   0  0  0  0  0  0  0  0  0  0  0  0
   -2.6112   -1.9180   -1.0741 H   0  0  0  0  0  0  0  0  0  0  0  0
    1.2862   -1.9200   -1.5543 H   0  0  0  0  0  0  0  0  0  0  0  0
    2.6388   -0.9448   -0.9482 H   0  0  0  0  0  0  0  0  0  0  0  0
    0.1632    2.8643   -1.1007 H   0  0  0  0  0  0  0  0  0  0  0  0
   -5.2104   -0.8147    0.4620 H   0  0  0  0  0  0  0  0  0  0  0  0
    3.0450   -4.4551    1.3168 H   0  0  0  0  0  0  0  0  0  0  0  0
  1  8  1  0  0  0  0
  1 13  1  0  0  0  0
  2  7  1  0  0  0  0
  2 22  1  0  0  0  0
  3  9  1  0  0  0  0
  3 24  1  0  0  0  0
  4 10  1  0  0  0  0
  4 27  1  0  0  0  0
  5 11  1  0  0  0  0
  5 28  1  0  0  0  0
  6 12  2  0  0  0  0
  7  8  1  0  0  0  0
  7  9  1  0  0  0  0
  7 16  1  0  0  0  0
  8 10  1  0  0  0  0
  8 17  1  0  0  0  0
  9 11  1  0  0  0  0
  9 18  1  0  0  0  0
 10 12  1  0  0  0  0
 10 19  1  0  0  0  0
 11 20  1  0  0  0  0
 11 21  1  0  0  0  0
 12 23  1  0  0  0  0
 13 14  1  0  0  0  0
 13 25  1  0  0  0  0
 13 26  1  0  0  0  0
 14 15  3  0  0  0  0
 15 29  1  0  0  0  0
M  END
> <PUBCHEM_COMPOUND_CID>
129848727

> <PUBCHEM_CONFORMER_RMSD>
0.8

> <PUBCHEM_CONFORMER_DIVERSEORDER>
1
121
92
106
63
49
90
79
37
69
96
50
103
33
5
114
53
42
116
11
64
26
35
44
47
110
85
55
113
108
83
30
43
36
82
18
115
105
75
6
109
45
81
88
70
15
102
72
94
51
25
68
41
62
59
84
22
80
76
100
86
98
27
56
71
66
87
14
7
65
54
67
101
77
118
119
78
99
95
38
120
58
31
57
89
122
73
104
97
52
34
91
111
93
24
46
10
28
48
74
40
117
21
61
23
8
107
4
32
29
13
39
60
20
2
17
112
19
12
3
16
9

> <PUBCHEM_MMFF94_PARTIAL_CHARGES>
21
1 -0.56
10 0.34
11 0.28
12 0.45
13 0.48
14 -0.2
15 -0.18
2 -0.68
22 0.4
23 0.06
24 0.4
27 0.4
28 0.4
29 0.18
3 -0.68
4 -0.68
5 -0.68
6 -0.57
7 0.28
8 0.28
9 0.28

> <PUBCHEM_EFFECTIVE_ROTOR_COUNT>
7

> <PUBCHEM_PHARMACOPHORE_FEATURES>
11
1 1 acceptor
1 15 hydrophobe
1 2 acceptor
1 2 donor
1 3 acceptor
1 3 donor
1 4 acceptor
1 4 donor
1 5 acceptor
1 5 donor
1 6 acceptor

> <PUBCHEM_HEAVY_ATOM_COUNT>
15

> <PUBCHEM_ATOM_DEF_STEREO_COUNT>
4

> <PUBCHEM_ATOM_UDEF_STEREO_COUNT>
0

> <PUBCHEM_BOND_DEF_STEREO_COUNT>
0

> <PUBCHEM_BOND_UDEF_STEREO_COUNT>
0

> <PUBCHEM_ISOTOPIC_ATOM_COUNT>
0

> <PUBCHEM_COMPONENT_COUNT>
1

> <PUBCHEM_CACTVS_TAUTO_COUNT>
4

> <PUBCHEM_CONFORMER_ID>
07BD559700000001

> <PUBCHEM_MMFF94_ENERGY>
30.2757

> <PUBCHEM_FEATURE_SELFOVERLAP>
55.846

> <PUBCHEM_SHAPE_FINGERPRINT>
1 1 18267019642685036764
12532896 13 17693940000258798772
14817 1 16826162641559339068
16945 1 18341878723515101012
17841504 4 18410296865556701147
18410436 195 18268145353491953500
19021347 4 17762614397107730650
20645477 70 18261387884668490895
20671657 53 18263085422762038247
20871998 184 17694775225395739982
21296965 67 18118684318354578502
21650355 55 17907291053326065042
22112679 90 17983599419414478574
23419403 2 18049131437732796916
23526113 38 17458356207850313795
23557571 272 17836922301049213166
257057 1 18193274096361247498
305870 269 18268986673113517453
3071541 236 17259043620726234576
3250762 1 18118384173524628844
458136 41 18046652236691037427
57672749 33 18341885295194781386
58554843 112 18338804523516623395
7364860 26 18342460365113362510
81228 2 17546449977295246214

> <PUBCHEM_SHAPE_MULTIPOLES>
273.48
4.94
3.88
1.1
1.82
1.99
0.09
-6.49
-0.97
-2.47
-0.66
-0.08
0.49
-0.36

> <PUBCHEM_SHAPE_SELFOVERLAP>
524.961

> <PUBCHEM_SHAPE_VOLUME>
164.9

> <PUBCHEM_COORDINATE_TYPE>
2
5
10

$$$$
