REMARK  Name = 129844003
REMARK  10 active torsions:
REMARK  status: ('A' for Active; 'I' for Inactive)
REMARK    1  A    between atoms: C_3  and  C_16
REMARK    2  A    between atoms: C_5  and  C_9
REMARK    3  A    between atoms: N_8  and  CA_11
REMARK    4  A    between atoms: CA_11  and  C_13
REMARK    5  A    between atoms: C_13  and  O_14
REMARK    6  A    between atoms: C_16  and  C_17
REMARK    7  A    between atoms: C_17  and  C_18
REMARK    8  A    between atoms: C_18  and  N_19
REMARK    9  A    between atoms: C_18  and  C_24
REMARK   10  A    between atoms: C_24  and  O_25
REMARK                            x       y       z     vdW  Elec       q    Type
REMARK                         _______ _______ _______ _____ _____    ______ ____
ROOT
ATOM      1  O   UNK A   1      -0.101   0.845  -0.407  0.00  0.00    -0.275 OA
ATOM      2  N   UNK A   1      -0.069  -1.346   0.383  0.00  0.00    -0.284 N 
ATOM      3  C   UNK A   1      -0.670  -0.132   0.072  0.00  0.00    +0.226 C 
ATOM      4  H   UNK A   1      -0.631  -2.059   0.764  0.00  0.00    +0.155 HD
ATOM      5  C   UNK A   1       1.256  -1.606   0.189  0.00  0.00    +0.082 C 
ATOM      6  C   UNK A   1       1.785  -2.794   0.506  0.00  0.00    +0.052 C 
ENDROOT
BRANCH   5   9
ATOM      7  O   UNK A   1       2.311  -0.476  -1.621  0.00  0.00    -0.269 OA
ATOM      8  N   GLY A   2       2.748   0.265   0.528  0.00  0.00    -0.291 N 
ATOM      9  C   UNK A   1       2.144  -0.559  -0.406  0.00  0.00    +0.256 C 
ATOM     10  H   GLY A   2       2.553   0.122   1.483  0.00  0.00    +0.150 HD
BRANCH   8  11
ATOM     11  CA  GLY A   2       3.655   1.326   0.155  0.00  0.00    +0.201 C 
BRANCH  11  13
ATOM     12  OXT GLY A   2       6.018   1.622  -0.199  0.00  0.00    -0.248 OA
ATOM     13  C   GLY A   2       5.092   0.875   0.090  0.00  0.00    +0.334 C 
BRANCH  13  14
ATOM     14  O   GLY A   2       5.261  -0.436   0.382  0.00  0.00    -0.479 OA
ATOM     15  H   GLY A   2       4.520  -0.967   0.597  0.00  0.00    +0.295 HD
ENDBRANCH  13  14
ENDBRANCH  11  13
ENDBRANCH   8  11
ENDBRANCH   5   9
BRANCH   3  16
ATOM     16  C   UNK A   1      -2.153  -0.147   0.407  0.00  0.00    +0.084 C 
BRANCH  16  17
ATOM     17  C   UNK A   1      -2.840   1.178   0.074  0.00  0.00    -0.001 C 
BRANCH  17  18
ATOM     18  C   UNK A   1      -4.351   1.150   0.334  0.00  0.00    +0.036 C 
BRANCH  18  19
ATOM     19  N   UNK A   1      -4.641   0.932   1.751  0.00  0.00    +0.389 N 
ATOM     20  H   UNK A   1      -4.214   1.677   2.303  0.00  0.00    -0.088 HD
ATOM     21  H   UNK A   1      -4.259   0.032   2.041  0.00  0.00    -0.088 HD
ATOM     22  H   UNK A   1      -5.650   0.937   1.896  0.00  0.00    -0.088 HD
ENDBRANCH  18  19
BRANCH  18  24
ATOM     23  O   UNK A   1      -5.600  -0.924   0.021  0.00  0.00    -0.253 OA
ATOM     24  C   UNK A   1      -4.999   0.028  -0.459  0.00  0.00    +0.293 C 
BRANCH  24  25
ATOM     25  O   UNK A   1      -4.846   0.199  -1.799  0.00  0.00    -0.482 OA
ATOM     26  H   UNK A   1      -4.378   0.943  -2.125  0.00  0.00    +0.295 HD
ENDBRANCH  24  25
ENDBRANCH  18  24
ENDBRANCH  17  18
ENDBRANCH  16  17
ENDBRANCH   3  16
TORSDOF 10
