REMARK  Name = 129849435
REMARK  9 active torsions:
REMARK  status: ('A' for Active; 'I' for Inactive)
REMARK    1  A    between atoms: C_1  and  N_2
REMARK    2  A    between atoms: C_1  and  P_10
REMARK    3  A    between atoms: C_1  and  C_17
REMARK    4  A    between atoms: N_2  and  C_5
REMARK    5  A    between atoms: P_10  and  O_12
REMARK    6  A    between atoms: P_10  and  O_14
REMARK    7  A    between atoms: C_17  and  O_18
REMARK    8  A    between atoms: O_18  and  C_19
REMARK    9  A    between atoms: C_19  and  C_20
REMARK                            x       y       z     vdW  Elec       q    Type
REMARK                         _______ _______ _______ _____ _____    ______ ____
ROOT
ATOM      1  C   UNL     1       1.780  -0.202   0.289  0.00  0.00    +0.307 C 
ENDROOT
BRANCH   1   2
ATOM      2  P   UNL     1       3.446  -0.814   0.070  0.00  0.00    +0.370 P 
ATOM      3  O   UNL     1       3.844  -1.082  -1.352  0.00  0.00    -0.256 OA
BRANCH   2   4
ATOM      4  O   UNL     1       4.368   0.262   0.847  0.00  0.00    -0.322 OA
ATOM      5  H   UNL     1       5.300   0.001   0.775  0.00  0.00    +0.220 HD
ENDBRANCH   2   4
BRANCH   2   6
ATOM      6  O   UNL     1       3.500  -2.103   1.045  0.00  0.00    -0.322 OA
ATOM      7  H   UNL     1       4.379  -2.510   0.995  0.00  0.00    +0.220 HD
ENDBRANCH   2   6
ENDBRANCH   1   2
BRANCH   1   9
ATOM      8  O   UNL     1       0.920  -2.236  -0.700  0.00  0.00    -0.247 OA
ATOM      9  C   UNL     1       0.705  -1.133  -0.216  0.00  0.00    +0.352 C 
BRANCH   9  10
ATOM     10  O   UNL     1      -0.525  -0.571  -0.025  0.00  0.00    -0.442 OA
BRANCH  10  11
ATOM     11  C   UNL     1      -1.639  -1.369  -0.438  0.00  0.00    +0.235 C 
BRANCH  11  12
ATOM     12  C   UNL     1      -2.909  -0.617  -0.164  0.00  0.00    +0.021 C 
ATOM     13  C   UNL     1      -3.554  -0.762   1.064  0.00  0.00    -0.001 C 
ATOM     14  C   UNL     1      -3.444   0.226  -1.138  0.00  0.00    -0.001 C 
ATOM     15  C   UNL     1      -4.734  -0.064   1.319  0.00  0.00    -0.000 C 
ATOM     16  C   UNL     1      -4.624   0.924  -0.883  0.00  0.00    -0.000 C 
ATOM     17  C   UNL     1      -5.269   0.779   0.345  0.00  0.00    -0.000 C 
ENDBRANCH  11  12
ENDBRANCH  10  11
ENDBRANCH   9  10
ENDBRANCH   1   9
BRANCH   1  18
ATOM     18  N   UNL     1       1.715   0.984  -0.554  0.00  0.00    -0.219 NA
BRANCH  18  21
ATOM     19  N   UNL     1       2.391   2.263   1.254  0.00  0.00    -0.370 N 
ATOM     20  N   UNL     1       2.014   3.368  -0.698  0.00  0.00    -0.370 N 
ATOM     21  C   UNL     1       2.015   2.146  -0.064  0.00  0.00    +0.190 C 
ATOM     22  H   UNL     1       2.436   1.464   1.826  0.00  0.00    +0.159 HD
ATOM     23  H   UNL     1       2.616   3.147   1.625  0.00  0.00    +0.159 HD
ATOM     24  H   UNL     1       1.763   3.429  -1.649  0.00  0.00    +0.159 HD
ATOM     25  H   UNL     1       2.263   4.180  -0.202  0.00  0.00    +0.159 HD
ENDBRANCH  18  21
ENDBRANCH   1  18
TORSDOF 9
