REMARK  Name = 129851399
REMARK  6 active torsions:
REMARK  status: ('A' for Active; 'I' for Inactive)
REMARK    1  A    between atoms: C_3  and  C_18
REMARK    2  A    between atoms: C_12  and  C_24
REMARK    3  A    between atoms: C_13  and  O_36
REMARK    4  A    between atoms: C_15  and  N_30
REMARK    5  A    between atoms: C_17  and  N_33
REMARK    6  A    between atoms: O_36  and  S_37
REMARK                            x       y       z     vdW  Elec       q    Type
REMARK                         _______ _______ _______ _____ _____    ______ ____
ROOT
ATOM      1  N   UNL     1       2.298  -1.621  -1.067  0.00  0.00    -0.300 N 
ATOM      2  N   UNL     1      -0.797   2.284  -0.090  0.00  0.00    -0.402 NA
ATOM      3  C   UNL     1       3.212  -0.464  -1.001  0.00  0.00    +0.045 C 
ATOM      4  C   UNL     1       2.499   0.876  -0.934  0.00  0.00    -0.001 C 
ATOM      5  C   UNL     1       0.394  -0.243  -0.425  0.00  0.00    +0.008 C 
ATOM      6  C   UNL     1       1.135   0.938  -0.604  0.00  0.00    +0.025 C 
ATOM      7  C   UNL     1       0.973  -1.518  -0.644  0.00  0.00    +0.119 C 
ATOM      8  C   UNL     1      -0.961  -0.134  -0.049  0.00  0.00    +0.066 C 
ATOM      9  C   UNL     1       0.494   2.187  -0.443  0.00  0.00    +0.132 C 
ATOM     10  C   UNL     1       3.215   2.061  -1.150  0.00  0.00    +0.068 C 
ATOM     11  C   UNL     1       0.158  -2.650  -0.445  0.00  0.00    +0.015 C 
ATOM     12  C   UNL     1      -1.490   1.142   0.106  0.00  0.00    +0.134 C 
ATOM     13  C   UNL     1      -1.737  -1.282   0.145  0.00  0.00    +0.190 C 
ATOM     14  C   UNL     1       2.852  -2.905  -1.489  0.00  0.00    +0.113 C 
ATOM     15  C   UNL     1      -1.175  -2.536  -0.050  0.00  0.00    +0.077 C 
ATOM     16  C   UNL     1       1.236   3.344  -0.656  0.00  0.00    +0.042 C 
ATOM     17  C   UNL     1       2.582   3.290  -1.015  0.00  0.00    +0.026 C 
ENDROOT
BRANCH   3  18
ATOM     18  C   UNL     1       4.117  -0.635   0.184  0.00  0.00    +0.013 C 
ATOM     19  C   UNL     1       5.333  -1.303   0.042  0.00  0.00    +0.001 C 
ATOM     20  C   UNL     1       3.742  -0.126   1.428  0.00  0.00    +0.001 C 
ATOM     21  C   UNL     1       6.175  -1.462   1.143  0.00  0.00    +0.000 C 
ATOM     22  C   UNL     1       4.584  -0.285   2.529  0.00  0.00    +0.000 C 
ATOM     23  C   UNL     1       5.800  -0.953   2.387  0.00  0.00    +0.000 C 
ENDBRANCH   3  18
BRANCH  12  24
ATOM     24  C   UNL     1      -2.857   1.438   0.489  0.00  0.00    +0.030 C 
ATOM     25  C   UNL     1      -3.190   1.573   1.837  0.00  0.00    +0.003 C 
ATOM     26  C   UNL     1      -3.838   1.589  -0.490  0.00  0.00    +0.003 C 
ATOM     27  C   UNL     1      -4.504   1.858   2.206  0.00  0.00    +0.000 C 
ATOM     28  C   UNL     1      -5.153   1.873  -0.121  0.00  0.00    +0.000 C 
ATOM     29  C   UNL     1      -5.486   2.008   1.226  0.00  0.00    +0.000 C 
ENDBRANCH  12  24
BRANCH  15  30
ATOM     30  N   UNL     1      -1.937  -3.711   0.140  0.00  0.00    -0.355 N 
ATOM     31  H   UNL     1      -1.525  -4.593  -0.002  0.00  0.00    +0.142 HD
ATOM     32  H   UNL     1      -2.880  -3.647   0.414  0.00  0.00    +0.142 HD
ENDBRANCH  15  30
BRANCH  17  33
ATOM     33  N   UNL     1       3.302   4.484  -1.228  0.00  0.00    -0.360 N 
ATOM     34  H   UNL     1       4.253   4.446  -1.482  0.00  0.00    +0.142 HD
ATOM     35  H   UNL     1       2.854   5.354  -1.124  0.00  0.00    +0.142 HD
ENDBRANCH  17  33
BRANCH  13  36
ATOM     36  O   UNL     1      -3.050  -1.237   0.519  0.00  0.00    -0.321 OA
BRANCH  36  37
ATOM     37  S   UNL     1      -4.178  -1.903  -0.471  0.00  0.00    +0.282 S 
ATOM     38  O   UNL     1      -5.550  -1.099  -0.100  0.00  0.00    -0.105 OA
ATOM     39  O   UNL     1      -3.840  -1.596  -1.849  0.00  0.00    -0.105 OA
ATOM     40  O   UNL     1      -4.360  -3.283  -0.060  0.00  0.00    -0.012 OA
ENDBRANCH  36  37
ENDBRANCH  13  36
TORSDOF 6
