REMARK  Name = 129878031
REMARK  9 active torsions:
REMARK  status: ('A' for Active; 'I' for Inactive)
REMARK    1  A    between atoms: C_2  and  N_8
REMARK    2  A    between atoms: C_3  and  O_15
REMARK    3  A    between atoms: C_4  and  O_17
REMARK    4  A    between atoms: C_5  and  C_21
REMARK    5  A    between atoms: C_6  and  O_19
REMARK    6  A    between atoms: C_9  and  C_11
REMARK    7  A    between atoms: C_11  and  C_12
REMARK    8  A    between atoms: C_12  and  C_13
REMARK    9  A    between atoms: C_21  and  O_22
REMARK                            x       y       z     vdW  Elec       q    Type
REMARK                         _______ _______ _______ _____ _____    ______ ____
ROOT
ATOM      1  O   UNL     1      -1.480  -1.246   0.351  0.00  0.00    -0.327 OA
ATOM      2  C   UNL     1      -0.045   0.662   0.859  0.00  0.00    +0.158 C 
ATOM      3  C   UNL     1      -1.062   1.590   0.187  0.00  0.00    +0.162 C 
ATOM      4  C   UNL     1      -1.900   0.841  -0.852  0.00  0.00    +0.169 C 
ATOM      5  C   UNL     1      -2.499  -0.429  -0.232  0.00  0.00    +0.176 C 
ATOM      6  C   UNL     1      -0.731  -0.603   1.386  0.00  0.00    +0.253 C 
ENDROOT
BRANCH   2   8
ATOM      7  O   UNL     1       2.688   0.131   1.563  0.00  0.00    -0.275 OA
ATOM      8  N   UNL     1       1.026   0.304  -0.048  0.00  0.00    -0.299 N 
ATOM      9  C   UNL     1       2.317   0.067   0.394  0.00  0.00    +0.223 C 
ATOM     10  H   UNL     1       0.830   0.226  -1.010  0.00  0.00    +0.150 HD
BRANCH   9  11
ATOM     11  C   UNL     1       3.241  -0.290  -0.756  0.00  0.00    +0.085 C 
BRANCH  11  12
ATOM     12  C   UNL     1       4.671  -0.556  -0.294  0.00  0.00    +0.005 C 
ATOM     13  C   UNL     1       5.585  -0.878  -1.465  0.00  0.00    +0.005 C 
ENDBRANCH  11  12
ENDBRANCH   9  11
ENDBRANCH   2   8
BRANCH   3  14
ATOM     14  O   UNL     1      -0.385   2.689  -0.417  0.00  0.00    -0.380 OA
ATOM     15  H   UNL     1       0.140   3.153   0.254  0.00  0.00    +0.211 HD
ENDBRANCH   3  14
BRANCH   4  16
ATOM     16  O   UNL     1      -2.938   1.712  -1.294  0.00  0.00    -0.379 OA
ATOM     17  H   UNL     1      -2.547   2.510  -1.683  0.00  0.00    +0.211 HD
ENDBRANCH   4  16
BRANCH   6  18
ATOM     18  O   UNL     1      -1.537  -0.272   2.514  0.00  0.00    -0.359 OA
ATOM     19  H   UNL     1      -1.971  -1.072   2.847  0.00  0.00    +0.213 HD
ENDBRANCH   6  18
BRANCH   5  20
ATOM     20  C   UNL     1      -3.220  -1.285  -1.269  0.00  0.00    +0.169 C 
BRANCH  20  21
ATOM     21  O   UNL     1      -3.732  -2.437  -0.625  0.00  0.00    -0.379 OA
ATOM     22  H   UNL     1      -4.193  -2.992  -1.273  0.00  0.00    +0.211 HD
ENDBRANCH  20  21
ENDBRANCH   5  20
TORSDOF 8
