REMARK  Name = 129856
REMARK  9 active torsions:
REMARK  status: ('A' for Active; 'I' for Inactive)
REMARK    1  A    between atoms: C_5  and  C_8
REMARK    2  A    between atoms: C_6  and  C_23
REMARK    3  A    between atoms: C_7  and  C_30
REMARK    4  A    between atoms: C_8  and  N_12
REMARK    5  A    between atoms: C_14  and  O_15
REMARK    6  A    between atoms: O_15  and  C_16
REMARK    7  A    between atoms: C_16  and  C_17
REMARK    8  A    between atoms: C_23  and  N_26
REMARK    9  A    between atoms: C_30  and  N_32
REMARK                            x       y       z     vdW  Elec       q    Type
REMARK                         _______ _______ _______ _____ _____    ______ ____
ROOT
ATOM      1  O   UNL     1       3.059  -2.029   0.662  0.00  0.00    -0.272 OA
ATOM      2  O   UNL     1       0.035   0.211   1.340  0.00  0.00    -0.276 OA
ATOM      3  O   UNL     1       3.632   1.812   1.088  0.00  0.00    -0.276 OA
ATOM      4  N   UNL     1       2.176   0.089   0.519  0.00  0.00    -0.180 N 
ATOM      5  C   UNL     1       2.117  -1.295   0.342  0.00  0.00    +0.253 C 
ATOM      6  C   UNL     1       0.978   0.763   0.758  0.00  0.00    +0.218 C 
ATOM      7  C   UNL     1       3.397   0.778   0.458  0.00  0.00    +0.217 C 
ENDROOT
BRANCH   5   8
ATOM      8  C   UNL     1       0.948  -1.848  -0.505  0.00  0.00    +0.133 C 
ATOM      9  C   UNL     1       1.417  -3.136  -1.198  0.00  0.00    +0.029 C 
ATOM     10  C   UNL     1       0.512  -0.835  -1.566  0.00  0.00    +0.029 C 
BRANCH   8  12
ATOM     11  O   UNL     1      -1.839  -2.280  -1.255  0.00  0.00    -0.226 OA
ATOM     12  N   UNL     1      -0.165  -2.171   0.358  0.00  0.00    -0.239 N 
ATOM     13  C   UNL     1       0.167  -2.584   1.723  0.00  0.00    +0.119 C 
ATOM     14  C   UNL     1      -1.494  -2.094  -0.089  0.00  0.00    +0.406 C 
BRANCH  14  15
ATOM     15  O   UNL     1      -2.380  -1.787   0.910  0.00  0.00    -0.430 OA
BRANCH  15  16
ATOM     16  C   UNL     1      -3.757  -1.690   0.526  0.00  0.00    +0.237 C 
BRANCH  16  17
ATOM     17  C   UNL     1      -4.054  -0.276   0.124  0.00  0.00    +0.021 C 
ATOM     18  C   UNL     1      -4.492   0.644   1.077  0.00  0.00    -0.001 C 
ATOM     19  C   UNL     1      -3.893   0.121  -1.204  0.00  0.00    -0.001 C 
ATOM     20  C   UNL     1      -4.769   1.959   0.703  0.00  0.00    -0.000 C 
ATOM     21  C   UNL     1      -4.170   1.436  -1.578  0.00  0.00    -0.000 C 
ATOM     22  C   UNL     1      -4.607   2.355  -0.624  0.00  0.00    -0.000 C 
ENDBRANCH  16  17
ENDBRANCH  15  16
ENDBRANCH  14  15
ENDBRANCH   8  12
ENDBRANCH   5   8
BRANCH   6  23
ATOM     23  C   UNL     1       0.780   2.162   0.125  0.00  0.00    +0.023 C 
ATOM     24  C   UNL     1       1.461   2.397  -1.224  0.00  0.00    -0.013 C 
ATOM     25  C   UNL     1       1.305   3.213   1.119  0.00  0.00    -0.013 C 
BRANCH  23  26
ATOM     26  N   UNL     1      -0.664   2.372  -0.017  0.00  0.00    +0.388 N 
ATOM     27  H   UNL     1      -1.045   1.689  -0.671  0.00  0.00    -0.088 HD
ATOM     28  H   UNL     1      -0.838   3.314  -0.369  0.00  0.00    -0.088 HD
ATOM     29  H   UNL     1      -1.115   2.261   0.892  0.00  0.00    -0.088 HD
ENDBRANCH  23  26
ENDBRANCH   6  23
BRANCH   7  30
ATOM     30  C   UNL     1       4.404   0.239  -0.560  0.00  0.00    +0.014 C 
ATOM     31  C   UNL     1       5.823   0.630  -0.164  0.00  0.00    -0.015 C 
BRANCH  30  32
ATOM     32  N   UNL     1       4.074   0.844  -1.849  0.00  0.00    +0.387 N 
ATOM     33  H   UNL     1       3.125   0.583  -2.115  0.00  0.00    -0.089 HD
ATOM     34  H   UNL     1       4.729   0.514  -2.557  0.00  0.00    -0.089 HD
ATOM     35  H   UNL     1       4.139   1.859  -1.774  0.00  0.00    -0.089 HD
ENDBRANCH  30  32
ENDBRANCH   7  30
TORSDOF 9
