REMARK  Name = 129850569
REMARK  11 active torsions:
REMARK  status: ('A' for Active; 'I' for Inactive)
REMARK    1  A    between atoms: O_1  and  C_7
REMARK    2  A    between atoms: O_1  and  C_17
REMARK    3  A    between atoms: C_3  and  O_8
REMARK    4  A    between atoms: C_4  and  O_10
REMARK    5  A    between atoms: C_5  and  O_12
REMARK    6  A    between atoms: C_6  and  C_14
REMARK    7  A    between atoms: C_14  and  O_15
REMARK    8  A    between atoms: C_17  and  C_19
REMARK    9  A    between atoms: C_22  and  O_25
REMARK   10  A    between atoms: C_23  and  O_27
REMARK   11  A    between atoms: C_24  and  O_29
REMARK                            x       y       z     vdW  Elec       q    Type
REMARK                         _______ _______ _______ _____ _____    ______ ____
ROOT
ATOM      1  O   UNL     1       0.838   0.460   1.599  0.00  0.00    -0.327 OA
ENDROOT
BRANCH   1   7
ATOM      2  O   UNL     1       2.913  -0.371   0.931  0.00  0.00    -0.326 OA
ATOM      3  C   UNL     1       3.013   1.433  -1.301  0.00  0.00    +0.172 C 
ATOM      4  C   UNL     1       4.236   0.646  -0.827  0.00  0.00    +0.169 C 
ATOM      5  C   UNL     1       1.978   1.572  -0.185  0.00  0.00    +0.196 C 
ATOM      6  C   UNL     1       3.812  -0.655  -0.143  0.00  0.00    +0.176 C 
ATOM      7  C   UNL     1       1.698   0.227   0.484  0.00  0.00    +0.266 C 
BRANCH   3   8
ATOM      8  O   UNL     1       3.453   2.731  -1.706  0.00  0.00    -0.379 OA
ATOM      9  H   UNL     1       4.110   2.643  -2.414  0.00  0.00    +0.211 HD
ENDBRANCH   3   8
BRANCH   4  10
ATOM     10  O   UNL     1       5.063   0.342  -1.947  0.00  0.00    -0.379 OA
ATOM     11  H   UNL     1       5.333   1.166  -2.383  0.00  0.00    +0.211 HD
ENDBRANCH   4  10
BRANCH   5  12
ATOM     12  O   UNL     1       0.754   2.061  -0.733  0.00  0.00    -0.378 OA
ATOM     13  H   UNL     1       0.911   2.916  -1.163  0.00  0.00    +0.211 HD
ENDBRANCH   5  12
BRANCH   6  14
ATOM     14  C   UNL     1       5.007  -1.401   0.442  0.00  0.00    +0.169 C 
BRANCH  14  15
ATOM     15  O   UNL     1       4.539  -2.584   1.065  0.00  0.00    -0.379 OA
ATOM     16  H   UNL     1       5.290  -3.069   1.442  0.00  0.00    +0.211 HD
ENDBRANCH  14  15
ENDBRANCH   6  14
ENDBRANCH   1   7
BRANCH   1  17
ATOM     17  C   UNL     1      -0.001  -0.657   1.847  0.00  0.00    +0.140 C 
ATOM     18  C   UNL     1      -0.288  -0.758   3.341  0.00  0.00    +0.037 C 
BRANCH  17  19
ATOM     19  C   UNL     1      -1.266  -0.517   1.034  0.00  0.00    +0.011 C 
ATOM     20  C   UNL     1      -2.134   0.548   1.271  0.00  0.00    +0.038 C 
ATOM     21  C   UNL     1      -1.567  -1.455   0.046  0.00  0.00    +0.038 C 
ATOM     22  C   UNL     1      -2.736  -1.327  -0.705  0.00  0.00    +0.175 C 
ATOM     23  C   UNL     1      -3.302   0.677   0.520  0.00  0.00    +0.175 C 
ATOM     24  C   UNL     1      -3.603  -0.261  -0.468  0.00  0.00    +0.206 C 
BRANCH  22  25
ATOM     25  O   UNL     1      -3.017  -2.249  -1.667  0.00  0.00    -0.468 OA
ATOM     26  C   UNL     1      -2.078  -3.308  -1.845  0.00  0.00    +0.253 C 
ENDBRANCH  22  25
BRANCH  23  27
ATOM     27  O   UNL     1      -4.142   1.722   0.763  0.00  0.00    -0.468 OA
ATOM     28  C   UNL     1      -3.760   2.635   1.790  0.00  0.00    +0.253 C 
ENDBRANCH  23  27
BRANCH  24  29
ATOM     29  O   UNL     1      -4.746  -0.136  -1.201  0.00  0.00    -0.465 OA
ATOM     30  C   UNL     1      -4.662   0.624  -2.404  0.00  0.00    +0.253 C 
ENDBRANCH  24  29
ENDBRANCH  17  19
ENDBRANCH   1  17
TORSDOF 11
