REMARK  Name = 129825683
REMARK  7 active torsions:
REMARK  status: ('A' for Active; 'I' for Inactive)
REMARK    1  A    between atoms: C_7  and  O_22
REMARK    2  A    between atoms: C_7  and  C_27
REMARK    3  A    between atoms: C_10  and  O_24
REMARK    4  A    between atoms: C_11  and  C_32
REMARK    5  A    between atoms: C_27  and  C_28
REMARK    6  A    between atoms: C_28  and  O_29
REMARK    7  A    between atoms: C_32  and  O_33
REMARK                            x       y       z     vdW  Elec       q    Type
REMARK                         _______ _______ _______ _____ _____    ______ ____
ROOT
ATOM      1  F   UNL     1       1.764  -0.923  -0.741  0.00  0.00    -0.237 F 
ATOM      2  O   UNL     1       6.565  -0.660  -1.486  0.00  0.00    -0.287 OA
ATOM      3  C   UNL     1      -1.347  -0.196   0.733  0.00  0.00    +0.032 C 
ATOM      4  C   UNL     1      -0.637   0.554  -0.410  0.00  0.00    +0.006 C 
ATOM      5  C   UNL     1       0.753   1.078  -0.019  0.00  0.00    +0.033 C 
ATOM      6  C   UNL     1       1.664  -0.131   0.394  0.00  0.00    +0.164 C 
ATOM      7  C   UNL     1      -2.724  -0.491   0.067  0.00  0.00    +0.151 C 
ATOM      8  C   UNL     1      -0.480  -1.420   1.099  0.00  0.00    +0.035 C 
ATOM      9  C   UNL     1      -1.691   1.550  -0.889  0.00  0.00    +0.014 C 
ATOM     10  C   UNL     1       0.982  -1.058   1.446  0.00  0.00    +0.141 C 
ATOM     11  C   UNL     1      -3.015   0.756  -0.820  0.00  0.00    +0.130 C 
ATOM     12  C   UNL     1       3.140   0.329   0.719  0.00  0.00    +0.064 C 
ATOM     13  C   UNL     1       1.373   1.867  -1.189  0.00  0.00    +0.007 C 
ATOM     14  C   UNL     1      -1.569   0.670   2.004  0.00  0.00    +0.003 C 
ATOM     15  C   UNL     1       2.802   2.309  -0.897  0.00  0.00    +0.023 C 
ATOM     16  C   UNL     1       3.645   1.129  -0.489  0.00  0.00    -0.035 C 
ATOM     17  C   UNL     1       3.260   1.226   1.972  0.00  0.00    +0.011 C 
ATOM     18  C   UNL     1       4.021  -0.883   0.982  0.00  0.00    -0.017 C 
ATOM     19  C   UNL     1       4.741   0.805  -1.193  0.00  0.00    +0.034 C 
ATOM     20  C   UNL     1       5.113  -1.211   0.284  0.00  0.00    +0.038 C 
ATOM     21  C   UNL     1       5.556  -0.378  -0.848  0.00  0.00    +0.195 C 
ENDROOT
BRANCH   7  22
ATOM     22  O   UNL     1      -3.750  -0.808   0.994  0.00  0.00    -0.379 OA
ATOM     23  H   UNL     1      -3.858  -0.075   1.620  0.00  0.00    +0.211 HD
ENDBRANCH   7  22
BRANCH  10  24
ATOM     24  O   UNL     1       1.045  -0.502   2.751  0.00  0.00    -0.382 OA
ATOM     25  H   UNL     1       1.964  -0.277   2.963  0.00  0.00    +0.210 HD
ENDBRANCH  10  24
BRANCH   7  27
ATOM     26  O   UNL     1      -2.369  -1.674  -1.978  0.00  0.00    -0.291 OA
ATOM     27  C   UNL     1      -2.712  -1.725  -0.798  0.00  0.00    +0.204 C 
BRANCH  27  28
ATOM     28  C   UNL     1      -3.144  -3.014  -0.133  0.00  0.00    +0.204 C 
BRANCH  28  29
ATOM     29  O   UNL     1      -3.076  -4.092  -1.043  0.00  0.00    -0.375 OA
ATOM     30  H   UNL     1      -3.356  -4.908  -0.599  0.00  0.00    +0.211 HD
ENDBRANCH  28  29
ENDBRANCH  27  28
ENDBRANCH   7  27
BRANCH  11  32
ATOM     31  O   UNL     1      -4.011   2.784   0.015  0.00  0.00    -0.250 OA
ATOM     32  C   UNL     1      -4.140   1.616  -0.327  0.00  0.00    +0.319 C 
BRANCH  32  33
ATOM     33  O   UNL     1      -5.297   0.895  -0.325  0.00  0.00    -0.444 OA
ATOM     34  C   UNL     1      -6.459   1.599   0.126  0.00  0.00    +0.256 C 
ENDBRANCH  32  33
ENDBRANCH  11  32
TORSDOF 7
