REMARK  Name = 129821848
REMARK  4 active torsions:
REMARK  status: ('A' for Active; 'I' for Inactive)
REMARK    1  A    between atoms: N_2  and  C_16
REMARK    2  A    between atoms: C_10  and  O_23
REMARK    3  A    between atoms: C_19  and  C_20
REMARK    4  A    between atoms: C_20  and  O_21
REMARK                            x       y       z     vdW  Elec       q    Type
REMARK                         _______ _______ _______ _____ _____    ______ ____
ROOT
ATOM      1 CL   UNL     1       3.564  -1.967   1.177  0.00  0.00    -0.056 Cl
ATOM      2  N   UNL     1      -0.442  -0.002   0.029  0.00  0.00    -0.210 NA
ATOM      3  N   UNL     1       1.475   1.464   0.319  0.00  0.00    -0.291 N 
ATOM      4  N   UNL     1       0.687  -1.899  -0.375  0.00  0.00    -0.252 NA
ATOM      5  N   UNL     1       3.642   0.446   0.095  0.00  0.00    -0.201 NA
ATOM      6  N   UNL     1       3.386   2.728   0.562  0.00  0.00    -0.331 N 
ATOM      7  C   UNL     1       0.877   0.292   0.085  0.00  0.00    +0.179 C 
ATOM      8  C   UNL     1       1.557  -0.867  -0.154  0.00  0.00    +0.128 C 
ATOM      9  C   UNL     1      -0.509  -1.348  -0.255  0.00  0.00    +0.204 C 
ATOM     10  C   UNL     1       3.046  -0.902  -0.176  0.00  0.00    +0.282 C 
ATOM     11  C   UNL     1       2.870   1.480   0.311  0.00  0.00    +0.179 C 
ATOM     12  H   UNL     1       0.953   2.281   0.489  0.00  0.00    +0.151 HD
ATOM     13  H   UNL     1       2.781   3.488   0.721  0.00  0.00    +0.145 HD
ATOM     14  H   UNL     1       4.361   2.862   0.583  0.00  0.00    +0.145 HD
ENDROOT
BRANCH   2  16
ATOM     15  O   UNL     1      -2.739   0.236   0.800  0.00  0.00    -0.341 OA
ATOM     16  C   UNL     1      -1.616   0.932   0.225  0.00  0.00    +0.179 C 
ATOM     17  C   UNL     1      -2.102   1.560  -1.080  0.00  0.00    +0.049 C 
ATOM     18  C   UNL     1      -3.320   0.735  -1.426  0.00  0.00    +0.036 C 
ATOM     19  C   UNL     1      -3.881   0.429  -0.051  0.00  0.00    +0.146 C 
BRANCH  19  20
ATOM     20  C   UNL     1      -4.766  -0.801  -0.016  0.00  0.00    +0.167 C 
BRANCH  20  21
ATOM     21  O   UNL     1      -5.225  -1.000   1.312  0.00  0.00    -0.379 OA
ATOM     22  H   UNL     1      -5.793  -1.785   1.344  0.00  0.00    +0.211 HD
ENDBRANCH  20  21
ENDBRANCH  19  20
ENDBRANCH   2  16
BRANCH  10  23
ATOM     23  O   UNL     1       3.497  -1.515  -1.383  0.00  0.00    -0.352 OA
ATOM     24  H   UNL     1       4.466  -1.536  -1.392  0.00  0.00    +0.214 HD
ENDBRANCH  10  23
TORSDOF 4
