129821848
  -OEChem-03292013293D

 33 35  0     1  0  0  0  0  0999 V2000
    3.5643   -1.9670    1.1775 Cl  0  0  0  0  0  0  0  0  0  0  0  0
   -2.7392    0.2356    0.7999 O   0  0  0  0  0  0  0  0  0  0  0  0
   -5.2250   -0.9997    1.3122 O   0  0  0  0  0  0  0  0  0  0  0  0
    3.4966   -1.5154   -1.3826 O   0  0  0  0  0  0  0  0  0  0  0  0
   -0.4422   -0.0022    0.0286 N   0  0  0  0  0  0  0  0  0  0  0  0
    1.4749    1.4635    0.3189 N   0  0  0  0  0  0  0  0  0  0  0  0
    0.6868   -1.8987   -0.3746 N   0  0  0  0  0  0  0  0  0  0  0  0
    3.6417    0.4457    0.0953 N   0  0  0  0  0  0  0  0  0  0  0  0
    3.3859    2.7278    0.5622 N   0  0  0  0  0  0  0  0  0  0  0  0
   -1.6158    0.9322    0.2245 C   0  0  1  0  0  0  0  0  0  0  0  0
   -2.1024    1.5598   -1.0797 C   0  0  0  0  0  0  0  0  0  0  0  0
   -3.3198    0.7350   -1.4262 C   0  0  0  0  0  0  0  0  0  0  0  0
   -3.8806    0.4291   -0.0507 C   0  0  1  0  0  0  0  0  0  0  0  0
    0.8774    0.2916    0.0850 C   0  0  0  0  0  0  0  0  0  0  0  0
   -4.7661   -0.8007   -0.0157 C   0  0  0  0  0  0  0  0  0  0  0  0
    1.5571   -0.8669   -0.1541 C   0  0  0  0  0  0  0  0  0  0  0  0
   -0.5090   -1.3476   -0.2554 C   0  0  0  0  0  0  0  0  0  0  0  0
    3.0459   -0.9021   -0.1765 C   0  0  2  0  0  0  0  0  0  0  0  0
    2.8696    1.4802    0.3113 C   0  0  0  0  0  0  0  0  0  0  0  0
   -1.2675    1.6848    0.9402 H   0  0  0  0  0  0  0  0  0  0  0  0
   -1.3526    1.5760   -1.8761 H   0  0  0  0  0  0  0  0  0  0  0  0
   -2.4117    2.5949   -0.8894 H   0  0  0  0  0  0  0  0  0  0  0  0
   -4.0306    1.2621   -2.0685 H   0  0  0  0  0  0  0  0  0  0  0  0
   -3.0083   -0.1832   -1.9381 H   0  0  0  0  0  0  0  0  0  0  0  0
   -4.4239    1.2946    0.3490 H   0  0  0  0  0  0  0  0  0  0  0  0
   -4.2070   -1.6950   -0.3097 H   0  0  0  0  0  0  0  0  0  0  0  0
   -5.6314   -0.6811   -0.6748 H   0  0  0  0  0  0  0  0  0  0  0  0
   -1.4498   -1.8689   -0.3671 H   0  0  0  0  0  0  0  0  0  0  0  0
    0.9593    2.3207    0.4910 H   0  0  0  0  0  0  0  0  0  0  0  0
   -5.7884   -1.7922    1.3044 H   0  0  0  0  0  0  0  0  0  0  0  0
    4.4656   -1.5612   -1.3206 H   0  0  0  0  0  0  0  0  0  0  0  0
    4.3874    2.8854    0.5870 H   0  0  0  0  0  0  0  0  0  0  0  0
    2.7837    3.5265    0.7293 H   0  0  0  0  0  0  0  0  0  0  0  0
  1 18  1  0  0  0  0
  2 10  1  0  0  0  0
  2 13  1  0  0  0  0
  3 15  1  0  0  0  0
  3 30  1  0  0  0  0
  4 18  1  0  0  0  0
  4 31  1  0  0  0  0
  5 10  1  0  0  0  0
  5 14  1  0  0  0  0
  5 17  1  0  0  0  0
  6 14  1  0  0  0  0
  6 19  1  0  0  0  0
  6 29  1  0  0  0  0
  7 16  1  0  0  0  0
  7 17  2  0  0  0  0
  8 18  1  0  0  0  0
  8 19  2  0  0  0  0
  9 19  1  0  0  0  0
  9 32  1  0  0  0  0
  9 33  1  0  0  0  0
 10 11  1  0  0  0  0
 10 20  1  0  0  0  0
 11 12  1  0  0  0  0
 11 21  1  0  0  0  0
 11 22  1  0  0  0  0
 12 13  1  0  0  0  0
 12 23  1  0  0  0  0
 12 24  1  0  0  0  0
 13 15  1  0  0  0  0
 13 25  1  0  0  0  0
 14 16  2  0  0  0  0
 15 26  1  0  0  0  0
 15 27  1  0  0  0  0
 16 18  1  0  0  0  0
 17 28  1  0  0  0  0
M  END
> <PUBCHEM_COMPOUND_CID>
129821848

> <PUBCHEM_CONFORMER_RMSD>
0.6

> <PUBCHEM_CONFORMER_DIVERSEORDER>
1
14
9
5
21
15
4
11
19
16
8
13
2
3
20
18
12
10
6
17
7

> <PUBCHEM_MMFF94_PARTIAL_CHARGES>
23
1 -0.29
10 0.54
13 0.28
14 -0.07
15 0.28
16 0.05
17 0.04
18 1
19 0.55
2 -0.56
28 0.15
29 0.4
3 -0.68
30 0.4
31 0.4
32 0.4
33 0.4
4 -0.68
5 0.05
6 -0.53
7 -0.57
8 -0.7
9 -0.85

> <PUBCHEM_EFFECTIVE_ROTOR_COUNT>
3.4

> <PUBCHEM_PHARMACOPHORE_FEATURES>
12
1 2 acceptor
1 3 acceptor
1 3 donor
1 4 acceptor
1 4 donor
1 6 donor
1 9 donor
3 5 7 17 cation
4 6 8 9 19 cation
5 2 10 11 12 13 rings
5 5 7 14 16 17 rings
6 6 8 14 16 18 19 rings

> <PUBCHEM_HEAVY_ATOM_COUNT>
19

> <PUBCHEM_ATOM_DEF_STEREO_COUNT>
2

> <PUBCHEM_ATOM_UDEF_STEREO_COUNT>
1

> <PUBCHEM_BOND_DEF_STEREO_COUNT>
0

> <PUBCHEM_BOND_UDEF_STEREO_COUNT>
0

> <PUBCHEM_ISOTOPIC_ATOM_COUNT>
0

> <PUBCHEM_COMPONENT_COUNT>
1

> <PUBCHEM_CACTVS_TAUTO_COUNT>
5

> <PUBCHEM_CONFORMER_ID>
07BCEC9800000001

> <PUBCHEM_MMFF94_ENERGY>
43.0303

> <PUBCHEM_FEATURE_SELFOVERLAP>
61.062

> <PUBCHEM_SHAPE_FINGERPRINT>
10366900 7 18040729042745241546
10608611 8 18335976485052352253
11405975 8 18335697179424438297
11615757 297 18273216374339363841
12032990 46 18269277872075495470
12236239 1 17060623299845995665
12403259 226 18261948527596259276
12403259 415 18333448738021880005
12670546 56 13623526857326328439
12916754 54 18412545384157504641
13140716 1 18412538846975103018
13583140 156 17969203591029196903
13675066 3 17131830907029022699
14178342 30 17841149952673462658
14350574 20 18341342118870065550
15219456 202 18335415764466265957
16945 1 18270116791042085766
18186145 218 18342737382014175340
19422 9 17489868228688379645
200 152 18201990007271924965
20645477 70 18413672404966590990
20681677 76 18260255339898388069
21065201 7 17095515163456145913
21079973 296 18041000678616404691
21501502 16 18199454631810154070
21639500 275 18272355495358288092
221490 88 18337673022771901782
22854114 111 18411132532953415084
22854114 59 18410573998337143913
22959321 4 18410290285603331235
23402539 116 17312820451352686615
23532345 42 17676208009103111429
23557571 272 17603866668309353413
23559900 14 17603864468579222067
2748010 2 18339647844856308254
296302 2 10519693505919169991
312423 11 18271539605990436704
3286 77 18187640250494113286
5104073 3 18408885110038628313
6333272 397 18411979182650122306
633830 44 18201721717375379693
7364860 26 18201718470870759456
7495541 125 18261114058384560058
77492 1 17203604878591020965

> <PUBCHEM_SHAPE_MULTIPOLES>
350.37
9.12
2.17
1.07
6.58
0.49
0.12
-1.53
-1.34
-2.07
-0.24
0.27
-0.16
1.04

> <PUBCHEM_SHAPE_SELFOVERLAP>
742.598

> <PUBCHEM_SHAPE_VOLUME>
195.9

> <PUBCHEM_COORDINATE_TYPE>
2
5
10

$$$$
