REMARK  Name = 129862
REMARK  7 active torsions:
REMARK  status: ('A' for Active; 'I' for Inactive)
REMARK    1  A    between atoms: N_1  and  C1*_15
REMARK    2  A    between atoms: C_9  and  S_25
REMARK    3  A    between atoms: C2*_14  and  O2*_18
REMARK    4  A    between atoms: C3*_16  and  O3*_20
REMARK    5  A    between atoms: C4*_17  and  C5*_22
REMARK    6  A    between atoms: C5*_22  and  O5*_23
REMARK    7  A    between atoms: S_25  and  N_26
REMARK                            x       y       z     vdW  Elec       q    Type
REMARK                         _______ _______ _______ _____ _____    ______ ____
ROOT
ATOM      1  N   UNL     1       0.275  -0.334  -0.142  0.00  0.00    -0.236 N 
ATOM      2  N   UNL     1      -1.115  -2.032   0.261  0.00  0.00    -0.241 NA
ATOM      3  N   UNL     1      -1.335   1.463  -0.419  0.00  0.00    -0.311 NA
ATOM      4  N   UNL     1      -3.622   0.657  -0.148  0.00  0.00    -0.319 NA
ATOM      5  N   UNL     1      -3.167   2.906  -0.617  0.00  0.00    -0.283 N 
ATOM      6  C   UNL     1      -0.987   0.190  -0.184  0.00  0.00    +0.221 C 
ATOM      7  C   UNL     1       0.144  -1.672   0.128  0.00  0.00    +0.224 C 
ATOM      8  C   UNL     1      -1.833  -0.878   0.069  0.00  0.00    +0.160 C 
ATOM      9  C   UNL     1      -3.198  -0.609   0.082  0.00  0.00    +0.205 C 
ATOM     10  C   UNL     1      -2.678   1.601  -0.381  0.00  0.00    +0.198 C 
ATOM     11  H   UNL     1      -2.537   3.643  -0.794  0.00  0.00    +0.156 HD
ATOM     12  H   UNL     1      -4.136   3.079  -0.605  0.00  0.00    +0.156 HD
ENDROOT
BRANCH   1  15
ATOM     13  O4* UNL     1       2.492  -0.488  -0.975  0.00  0.00    -0.333 OA
ATOM     14  C2* UNL     1       2.182   0.873   0.938  0.00  0.00    +0.187 C 
ATOM     15  C1* UNL     1       1.532   0.383  -0.346  0.00  0.00    +0.226 C 
ATOM     16  C3* UNL     1       3.638   0.964   0.524  0.00  0.00    +0.171 C 
ATOM     17  C4* UNL     1       3.792  -0.249  -0.388  0.00  0.00    +0.175 C 
BRANCH  14  18
ATOM     18  O2* UNL     1       1.648   2.112   1.360  0.00  0.00    -0.378 OA
ATOM     19  H2* UNL     1       0.719   1.994   1.612  0.00  0.00    +0.211 HD
ENDBRANCH  14  18
BRANCH  16  20
ATOM     20  O3* UNL     1       3.840   2.148  -0.247  0.00  0.00    -0.379 OA
ATOM     21  H3* UNL     1       3.744   2.926   0.325  0.00  0.00    +0.211 HD
ENDBRANCH  16  20
BRANCH  17  22
ATOM     22  C5* UNL     1       4.219  -1.504   0.360  0.00  0.00    +0.169 C 
BRANCH  22  23
ATOM     23  O5* UNL     1       4.324  -2.571  -0.566  0.00  0.00    -0.379 OA
ATOM     24  H5* UNL     1       4.596  -3.378  -0.101  0.00  0.00    +0.211 HD
ENDBRANCH  22  23
ENDBRANCH  17  22
ENDBRANCH   1  15
BRANCH   9  25
ATOM     25  S   UNL     1      -4.359  -1.895   0.393  0.00  0.00    -0.011 S 
BRANCH  25  26
ATOM     26  N   UNL     1      -5.792  -1.063   0.298  0.00  0.00    -0.271 NA
ATOM     27  H   UNL     1      -6.568  -1.704   0.463  0.00  0.00    +0.132 HD
ATOM     28  H   UNL     1      -5.884  -0.649  -0.629  0.00  0.00    +0.132 HD
ENDBRANCH  25  26
ENDBRANCH   9  25
TORSDOF 7
