129848817
  -OEChem-03292013293D

 37 38  0     0  0  0  0  0  0999 V2000
   -2.1910    2.7888    0.1845 S   0  0  0  0  0  0  0  0  0  0  0  0
   -2.8034   -0.2350    0.2508 O   0  0  0  0  0  0  0  0  0  0  0  0
   -1.3365   -2.5963    0.1766 O   0  0  0  0  0  0  0  0  0  0  0  0
    0.4935    0.6071   -2.7854 O   0  0  0  0  0  0  0  0  0  0  0  0
    1.2335   -2.4842    1.2769 O   0  0  0  0  0  0  0  0  0  0  0  0
    4.0157    0.2309    1.5164 O   0  5  0  0  0  0  0  0  0  0  0  0
    3.8355   -0.3247   -0.5998 O   0  0  0  0  0  0  0  0  0  0  0  0
   -0.4855    1.2878   -2.0818 N   0  0  0  0  0  0  0  0  0  0  0  0
    1.5933    0.3223   -1.9944 N   0  0  0  0  0  0  0  0  0  0  0  0
    3.3680    0.2130    0.4376 N   0  3  0  0  0  0  0  0  0  0  0  0
   -3.1312    1.8455    1.4257 C   0  0  0  0  0  0  0  0  0  0  0  0
   -3.7906    0.6213    0.8101 C   0  0  0  0  0  0  0  0  0  0  0  0
   -0.5973    2.0564    0.2769 C   0  0  0  0  0  0  0  0  0  0  0  0
   -0.0076    1.4364   -0.8401 C   0  0  0  0  0  0  0  0  0  0  0  0
   -3.3790   -1.4279   -0.2640 C   0  0  0  0  0  0  0  0  0  0  0  0
    1.3137    0.8227   -0.7844 C   0  0  0  0  0  0  0  0  0  0  0  0
   -2.2801   -2.2970   -0.8447 C   0  0  0  0  0  0  0  0  0  0  0  0
    2.0885    0.8091    0.3900 C   0  0  0  0  0  0  0  0  0  0  0  0
    0.1937    2.0315    1.4399 C   0  0  0  0  0  0  0  0  0  0  0  0
    1.4804    1.4340    1.4940 C   0  0  0  0  0  0  0  0  0  0  0  0
   -0.2922   -3.4293   -0.3074 C   0  0  0  0  0  0  0  0  0  0  0  0
    0.6787   -3.7126    0.8227 C   0  0  0  0  0  0  0  0  0  0  0  0
   -2.4748    1.5516    2.2502 H   0  0  0  0  0  0  0  0  0  0  0  0
   -3.9022    2.5048    1.8369 H   0  0  0  0  0  0  0  0  0  0  0  0
   -4.5048    0.9191    0.0325 H   0  0  0  0  0  0  0  0  0  0  0  0
   -4.3415    0.0847    1.5918 H   0  0  0  0  0  0  0  0  0  0  0  0
   -4.1133   -1.1853   -1.0399 H   0  0  0  0  0  0  0  0  0  0  0  0
   -3.8772   -1.9626    0.5531 H   0  0  0  0  0  0  0  0  0  0  0  0
   -1.7687   -1.7566   -1.6498 H   0  0  0  0  0  0  0  0  0  0  0  0
   -2.7084   -3.2229   -1.2439 H   0  0  0  0  0  0  0  0  0  0  0  0
   -0.1807    2.4948    2.3528 H   0  0  0  0  0  0  0  0  0  0  0  0
    2.0020    1.4762    2.4501 H   0  0  0  0  0  0  0  0  0  0  0  0
   -0.7085   -4.3696   -0.6847 H   0  0  0  0  0  0  0  0  0  0  0  0
    0.2283   -2.9093   -1.1201 H   0  0  0  0  0  0  0  0  0  0  0  0
    1.4900   -4.3633    0.4838 H   0  0  0  0  0  0  0  0  0  0  0  0
    0.1626   -4.1794    1.6674 H   0  0  0  0  0  0  0  0  0  0  0  0
    1.8517   -2.6987    1.9960 H   0  0  0  0  0  0  0  0  0  0  0  0
  1 11  1  0  0  0  0
  1 13  1  0  0  0  0
  2 12  1  0  0  0  0
  2 15  1  0  0  0  0
  3 17  1  0  0  0  0
  3 21  1  0  0  0  0
  4  8  1  0  0  0  0
  4  9  1  0  0  0  0
  5 22  1  0  0  0  0
  5 37  1  0  0  0  0
  6 10  1  0  0  0  0
  7 10  2  0  0  0  0
  8 14  2  0  0  0  0
  9 16  2  0  0  0  0
 10 18  1  0  0  0  0
 11 12  1  0  0  0  0
 11 23  1  0  0  0  0
 11 24  1  0  0  0  0
 12 25  1  0  0  0  0
 12 26  1  0  0  0  0
 13 14  1  0  0  0  0
 13 19  2  0  0  0  0
 14 16  1  0  0  0  0
 15 17  1  0  0  0  0
 15 27  1  0  0  0  0
 15 28  1  0  0  0  0
 16 18  1  0  0  0  0
 17 29  1  0  0  0  0
 17 30  1  0  0  0  0
 18 20  2  0  0  0  0
 19 20  1  0  0  0  0
 19 31  1  0  0  0  0
 20 32  1  0  0  0  0
 21 22  1  0  0  0  0
 21 33  1  0  0  0  0
 21 34  1  0  0  0  0
 22 35  1  0  0  0  0
 22 36  1  0  0  0  0
M  CHG  2   6  -1  10   1
M  END
> <PUBCHEM_COMPOUND_CID>
129848817

> <PUBCHEM_CONFORMER_RMSD>
1

> <PUBCHEM_CONFORMER_DIVERSEORDER>
1
13
34
40
35
52
77
91
24
89
68
49
53
10
44
88
28
72
36
48
61
21
57
54
42
70
3
96
67
23
15
55
56
59
78
6
29
2
31
51
84
19
39
30
50
7
22
71
41
92
93
100
73
85
17
62
64
65
33
69
9
5
90
82
95
37
83
38
16
60
4
12
86
94
98
58
99
101
76
20
63
8
47
32
66
18
74
45
11
14
97
79
26
25
81
87
46
80
75
27
43

> <PUBCHEM_MMFF94_PARTIAL_CHARGES>
25
1 -0.33
10 0.91
11 0.23
12 0.28
13 0.1
14 0.29
15 0.28
16 0.29
17 0.28
18 0.13
19 -0.15
2 -0.56
20 -0.15
21 0.28
22 0.28
3 -0.56
31 0.15
32 0.15
37 0.4
4 0.24
5 -0.68
6 -0.52
7 -0.52
8 -0.41
9 -0.41

> <PUBCHEM_EFFECTIVE_ROTOR_COUNT>
10

> <PUBCHEM_PHARMACOPHORE_FEATURES>
11
1 2 acceptor
1 3 acceptor
1 5 acceptor
1 5 donor
1 6 acceptor
1 6 anion
1 7 acceptor
1 8 acceptor
1 9 acceptor
5 4 8 9 14 16 rings
6 13 14 16 18 19 20 rings

> <PUBCHEM_HEAVY_ATOM_COUNT>
22

> <PUBCHEM_ATOM_DEF_STEREO_COUNT>
0

> <PUBCHEM_ATOM_UDEF_STEREO_COUNT>
0

> <PUBCHEM_BOND_DEF_STEREO_COUNT>
0

> <PUBCHEM_BOND_UDEF_STEREO_COUNT>
0

> <PUBCHEM_ISOTOPIC_ATOM_COUNT>
0

> <PUBCHEM_COMPONENT_COUNT>
1

> <PUBCHEM_CACTVS_TAUTO_COUNT>
1

> <PUBCHEM_CONFORMER_ID>
07BD55F100000001

> <PUBCHEM_MMFF94_ENERGY>
56.7652

> <PUBCHEM_FEATURE_SELFOVERLAP>
56.095

> <PUBCHEM_SHAPE_FINGERPRINT>
12422481 6 17971741178119752642
12633257 1 17917722335103347561
13583140 156 18054210043540450872
14251740 79 17550438047787683022
19930381 70 12213065129332757624
20397935 3 17980216484107848109
20600515 1 18342470260723911093
20905425 154 18197232360186785647
21421861 104 17121441445744538937
23419403 2 17474343300550615532
57091435 65 18053113830405003019

> <PUBCHEM_SHAPE_MULTIPOLES>
406.44
5.45
4.16
1.85
0.37
4.45
1
-0.76
-1.67
-1.43
-1.05
0.71
-0.56
-0.7

> <PUBCHEM_SHAPE_SELFOVERLAP>
821.067

> <PUBCHEM_SHAPE_VOLUME>
237.9

> <PUBCHEM_COORDINATE_TYPE>
2
5
10

$$$$
