REMARK  Name = 129829
REMARK  10 active torsions:
REMARK  status: ('A' for Active; 'I' for Inactive)
REMARK    1  A    between atoms: P_1  and  N_16
REMARK    2  A    between atoms: C_5  and  S_9
REMARK    3  A    between atoms: S_9  and  C_10
REMARK    4  A    between atoms: C_10  and  C_11
REMARK    5  A    between atoms: C_11  and  C_13
REMARK    6  A    between atoms: C_13  and  O_14
REMARK    7  A    between atoms: N_16  and  C_17
REMARK    8  A    between atoms: N_16  and  C_20
REMARK    9  A    between atoms: C_17  and  C_19
REMARK   10  A    between atoms: C_20  and  C_22
REMARK                            x       y       z     vdW  Elec       q    Type
REMARK                         _______ _______ _______ _____ _____    ______ ____
ROOT
ATOM      1  P   UNL     1      -1.801  -0.408  -0.888  0.00  0.00    +0.349 P 
ATOM      2  O   UNL     1      -2.578  -1.756  -0.395  0.00  0.00    -0.292 OA
ATOM      3  O   UNL     1      -2.400   0.091  -2.180  0.00  0.00    -0.254 OA
ATOM      4  N   UNL     1      -0.206  -0.877  -0.995  0.00  0.00    -0.214 NA
ATOM      5  C   UNL     1       0.323  -1.683   0.108  0.00  0.00    +0.113 C 
ATOM      6  C   UNL     1      -0.568  -2.913   0.341  0.00  0.00    +0.060 C 
ATOM      7  C   UNL     1      -2.008  -2.514   0.668  0.00  0.00    +0.154 C 
ATOM      8  H   UNL     1       0.361  -0.031  -1.058  0.00  0.00    +0.134 HD
ENDROOT
BRANCH   5   9
ATOM      9  S   UNL     1       2.033  -2.207  -0.244  0.00  0.00    -0.124 S 
BRANCH   9  10
ATOM     10  C   UNL     1       2.862  -0.652   0.152  0.00  0.00    +0.071 C 
BRANCH  10  11
ATOM     11  C   UNL     1       4.375  -0.761   0.020  0.00  0.00    +0.121 C 
BRANCH  11  13
ATOM     12  O   UNL     1       4.489   1.547   0.722  0.00  0.00    -0.250 OA
ATOM     13  C   UNL     1       5.074   0.530   0.373  0.00  0.00    +0.315 C 
BRANCH  13  14
ATOM     14  O   UNL     1       6.422   0.455   0.245  0.00  0.00    -0.480 OA
ATOM     15  H   UNL     1       6.823  -0.347  -0.025  0.00  0.00    +0.295 HD
ENDBRANCH  13  14
ENDBRANCH  11  13
ENDBRANCH  10  11
ENDBRANCH   9  10
ENDBRANCH   5   9
BRANCH   1  16
ATOM     16  N   UNL     1      -1.910   0.667   0.373  0.00  0.00    -0.196 NA
BRANCH  16  17
ATOM     17  C   UNL     1      -0.819   1.630   0.508  0.00  0.00    +0.099 C 
BRANCH  17  19
ATOM     18 CL   UNL     1       0.673   3.590  -0.629  0.00  0.00    -0.112 Cl
ATOM     19  C   UNL     1      -0.666   2.427  -0.778  0.00  0.00    +0.113 C 
ENDBRANCH  17  19
ENDBRANCH  16  17
BRANCH  16  20
ATOM     20  C   UNL     1      -3.193   1.345   0.548  0.00  0.00    +0.099 C 
BRANCH  20  22
ATOM     21 CL   UNL     1      -5.837   1.151   1.123  0.00  0.00    -0.112 Cl
ATOM     22  C   UNL     1      -4.266   0.337   0.927  0.00  0.00    +0.113 C 
ENDBRANCH  20  22
ENDBRANCH  16  20
ENDBRANCH   1  16
TORSDOF 10
