129850412
  -OEChem-03292013293D

 45 45  0     1  0  0  0  0  0999 V2000
   -6.0126   -0.7455   -0.1942 S   0  0  0  0  0  0  0  0  0  0  0  0
    2.6768   -1.1944    1.7741 O   0  0  0  0  0  0  0  0  0  0  0  0
    0.4130    0.0538    2.3365 O   0  0  0  0  0  0  0  0  0  0  0  0
    1.3173   -3.5640    0.7570 O   0  0  0  0  0  0  0  0  0  0  0  0
    2.6213   -0.8517   -2.7161 O   0  0  0  0  0  0  0  0  0  0  0  0
    0.3473    0.8202   -1.4421 O   0  0  0  0  0  0  0  0  0  0  0  0
    1.9810   -2.4588   -1.1714 N   0  0  0  0  0  0  0  0  0  0  0  0
    1.7063   -1.1659    0.7452 C   0  0  2  0  0  0  0  0  0  0  0  0
    2.1892   -0.2648   -0.4011 C   0  0  1  0  0  0  0  0  0  0  0  0
    0.4150   -0.7223    1.3823 C   0  0  0  0  0  0  0  0  0  0  0  0
    1.6294   -2.5491    0.1505 C   0  0  0  0  0  0  0  0  0  0  0  0
    2.3037   -1.1927   -1.5855 C   0  0  0  0  0  0  0  0  0  0  0  0
    1.3083    0.9136   -0.6800 C   0  0  0  0  0  0  0  0  0  0  0  0
   -0.8577   -1.2885    0.7775 C   0  0  0  0  0  0  0  0  0  0  0  0
    1.6764    2.2055    0.0283 C   0  0  0  0  0  0  0  0  0  0  0  0
   -2.0520   -0.3516    0.9435 C   0  0  0  0  0  0  0  0  0  0  0  0
    0.7069    3.3425   -0.2858 C   0  0  0  0  0  0  0  0  0  0  0  0
   -3.3271   -0.9646    0.3594 C   0  0  0  0  0  0  0  0  0  0  0  0
    1.0802    4.6166    0.4706 C   0  0  0  0  0  0  0  0  0  0  0  0
   -4.5060   -0.0061    0.4979 C   0  0  0  0  0  0  0  0  0  0  0  0
    0.0949    5.7401    0.1904 C   0  0  0  0  0  0  0  0  0  0  0  0
   -5.7116   -0.3722   -1.9369 C   0  0  0  0  0  0  0  0  0  0  0  0
    3.2063    0.1016   -0.2093 H   0  0  0  0  0  0  0  0  0  0  0  0
   -0.7111   -1.4649   -0.2930 H   0  0  0  0  0  0  0  0  0  0  0  0
   -1.0601   -2.2501    1.2616 H   0  0  0  0  0  0  0  0  0  0  0  0
    1.9957   -3.2606   -1.7921 H   0  0  0  0  0  0  0  0  0  0  0  0
    2.6865    2.4863   -0.2907 H   0  0  0  0  0  0  0  0  0  0  0  0
    1.6962    2.0184    1.1063 H   0  0  0  0  0  0  0  0  0  0  0  0
   -1.8382    0.6067    0.4545 H   0  0  0  0  0  0  0  0  0  0  0  0
   -2.2075   -0.1326    2.0072 H   0  0  0  0  0  0  0  0  0  0  0  0
    0.7026    3.5389   -1.3652 H   0  0  0  0  0  0  0  0  0  0  0  0
   -0.3129    3.0399   -0.0163 H   0  0  0  0  0  0  0  0  0  0  0  0
    2.3865   -1.8307    2.4502 H   0  0  0  0  0  0  0  0  0  0  0  0
   -3.5431   -1.9074    0.8778 H   0  0  0  0  0  0  0  0  0  0  0  0
   -3.1495   -1.2055   -0.6953 H   0  0  0  0  0  0  0  0  0  0  0  0
    1.0992    4.4181    1.5486 H   0  0  0  0  0  0  0  0  0  0  0  0
    2.0873    4.9390    0.1820 H   0  0  0  0  0  0  0  0  0  0  0  0
   -4.3033    0.9552    0.0144 H   0  0  0  0  0  0  0  0  0  0  0  0
   -4.6938    0.1962    1.5579 H   0  0  0  0  0  0  0  0  0  0  0  0
    0.0727    5.9853   -0.8762 H   0  0  0  0  0  0  0  0  0  0  0  0
   -0.9172    5.4608    0.5003 H   0  0  0  0  0  0  0  0  0  0  0  0
    0.3818    6.6418    0.7405 H   0  0  0  0  0  0  0  0  0  0  0  0
   -6.5702   -0.7071   -2.5254 H   0  0  0  0  0  0  0  0  0  0  0  0
   -4.8243   -0.8947   -2.3018 H   0  0  0  0  0  0  0  0  0  0  0  0
   -5.5940    0.7045   -2.0850 H   0  0  0  0  0  0  0  0  0  0  0  0
  1 20  1  0  0  0  0
  1 22  1  0  0  0  0
  2  8  1  0  0  0  0
  2 33  1  0  0  0  0
  3 10  2  0  0  0  0
  4 11  2  0  0  0  0
  5 12  2  0  0  0  0
  6 13  2  0  0  0  0
  7 11  1  0  0  0  0
  7 12  1  0  0  0  0
  7 26  1  0  0  0  0
  8  9  1  0  0  0  0
  8 10  1  0  0  0  0
  8 11  1  0  0  0  0
  9 12  1  0  0  0  0
  9 13  1  0  0  0  0
  9 23  1  0  0  0  0
 10 14  1  0  0  0  0
 13 15  1  0  0  0  0
 14 16  1  0  0  0  0
 14 24  1  0  0  0  0
 14 25  1  0  0  0  0
 15 17  1  0  0  0  0
 15 27  1  0  0  0  0
 15 28  1  0  0  0  0
 16 18  1  0  0  0  0
 16 29  1  0  0  0  0
 16 30  1  0  0  0  0
 17 19  1  0  0  0  0
 17 31  1  0  0  0  0
 17 32  1  0  0  0  0
 18 20  1  0  0  0  0
 18 34  1  0  0  0  0
 18 35  1  0  0  0  0
 19 21  1  0  0  0  0
 19 36  1  0  0  0  0
 19 37  1  0  0  0  0
 20 38  1  0  0  0  0
 20 39  1  0  0  0  0
 21 40  1  0  0  0  0
 21 41  1  0  0  0  0
 21 42  1  0  0  0  0
 22 43  1  0  0  0  0
 22 44  1  0  0  0  0
 22 45  1  0  0  0  0
M  END
> <PUBCHEM_COMPOUND_CID>
129850412

> <PUBCHEM_CONFORMER_RMSD>
1.2

> <PUBCHEM_CONFORMER_DIVERSEORDER>
1
92
125
30
64
161
151
50
86
38
76
155
71
61
163
54
110
17
89
36
82
78
136
41
81
128
142
114
32
63
100
21
145
48
69
141
28
147
75
88
18
59
115
156
66
49
68
106
108
33
35
90
83
138
97
51
93
70
4
91
131
56
45
12
23
105
40
84
135
113
60
47
107
6
27
133
26
80
58
96
25
130
111
31
52
22
157
37
132
144
95
85
44
150
24
127
109
139
140
53
7
11
72
101
43
134
46
129
153
19
34
146
103
55
137
65
112
149
162
118
8
143
119
20
104
10
62
123
13
79
3
98
102
5
99
152
87
120
94
158
159
42
39
15
14
16
124
160
9
57
122
29
73
77
116
154
67
148
2
117
121
126
74

> <PUBCHEM_MMFF94_PARTIAL_CHARGES>
19
1 -0.46
10 0.45
11 0.57
12 0.57
13 0.45
14 0.06
15 0.06
2 -0.68
20 0.23
22 0.23
26 0.37
3 -0.57
33 0.4
4 -0.57
5 -0.57
6 -0.57
7 -0.49
8 0.4
9 0.12

> <PUBCHEM_EFFECTIVE_ROTOR_COUNT>
10.6

> <PUBCHEM_PHARMACOPHORE_FEATURES>
12
1 2 acceptor
1 2 donor
1 21 hydrophobe
1 22 hydrophobe
1 3 acceptor
1 4 acceptor
1 5 acceptor
1 6 acceptor
1 7 donor
1 9 anion
5 1 14 16 18 20 hydrophobe
5 7 8 9 11 12 rings

> <PUBCHEM_HEAVY_ATOM_COUNT>
22

> <PUBCHEM_ATOM_DEF_STEREO_COUNT>
0

> <PUBCHEM_ATOM_UDEF_STEREO_COUNT>
2

> <PUBCHEM_BOND_DEF_STEREO_COUNT>
0

> <PUBCHEM_BOND_UDEF_STEREO_COUNT>
0

> <PUBCHEM_ISOTOPIC_ATOM_COUNT>
0

> <PUBCHEM_COMPONENT_COUNT>
1

> <PUBCHEM_CACTVS_TAUTO_COUNT>
26

> <PUBCHEM_CONFORMER_ID>
07BD5C2C00000001

> <PUBCHEM_MMFF94_ENERGY>
20.4611

> <PUBCHEM_FEATURE_SELFOVERLAP>
60.908

> <PUBCHEM_SHAPE_FINGERPRINT>
11578080 2 17621886388420660202
12293681 160 18043842894646459430
12788726 201 17833571002044130925
13134695 92 18334850610804244667
14004458 79 17979933608982289732
17980427 23 17981859111461572394
21304303 282 16832031795731517216
21860390 5 18412542145757899917
22620623 9 17406309558319371878
23419403 2 17242979489899333306
238 59 18124607624027540233
3060560 45 18409737274051882286
495365 180 18189332532307514223
5939293 188 18337955696155199456

> <PUBCHEM_SHAPE_MULTIPOLES>
422.27
7.82
5.44
1.86
22
10.11
0.56
-1.08
3.02
-6.24
-0.59
-0.49
-0.91
0.53

> <PUBCHEM_SHAPE_SELFOVERLAP>
836.069

> <PUBCHEM_SHAPE_VOLUME>
252.9

> <PUBCHEM_COORDINATE_TYPE>
2
5
10

$$$$
