REMARK  Name = 129937
REMARK  5 active torsions:
REMARK  status: ('A' for Active; 'I' for Inactive)
REMARK    1  A    between atoms: C_6  and  C_12
REMARK    2  A    between atoms: C_7  and  O_15
REMARK    3  A    between atoms: C_12  and  O_13
REMARK    4  A    between atoms: O_15  and  S_16
REMARK    5  A    between atoms: S_16  and  C_22
REMARK                            x       y       z     vdW  Elec       q    Type
REMARK                         _______ _______ _______ _____ _____    ______ ____
ROOT
ATOM      1  S   UNL     1      -1.489  -2.107   0.399  0.00  0.00    -0.118 S 
ATOM      2  O   UNL     1      -0.630   1.996   1.756  0.00  0.00    -0.272 OA
ATOM      3  N   UNL     1      -1.354   0.468   0.110  0.00  0.00    -0.258 N 
ATOM      4  C   UNL     1      -0.490  -0.683  -0.170  0.00  0.00    +0.163 C 
ATOM      5  C   UNL     1      -3.069  -1.224  -0.043  0.00  0.00    +0.068 C 
ATOM      6  C   UNL     1      -2.773   0.250   0.306  0.00  0.00    +0.184 C 
ATOM      7  C   UNL     1       0.510  -0.094   0.834  0.00  0.00    +0.247 C 
ATOM      8  C   UNL     1      -0.514   1.044   1.018  0.00  0.00    +0.259 C 
ATOM      9  C   UNL     1      -3.353  -1.482  -1.530  0.00  0.00    +0.013 C 
ATOM     10  C   UNL     1      -4.207  -1.783   0.812  0.00  0.00    +0.013 C 
ENDROOT
BRANCH   6  12
ATOM     11  O   UNL     1      -2.959   2.058  -1.284  0.00  0.00    -0.248 OA
ATOM     12  C   UNL     1      -3.494   1.262  -0.527  0.00  0.00    +0.333 C 
BRANCH  12  13
ATOM     13  O   UNL     1      -4.833   1.179  -0.327  0.00  0.00    -0.479 OA
ATOM     14  H   UNL     1      -5.179   0.545   0.269  0.00  0.00    +0.295 HD
ENDBRANCH  12  13
ENDBRANCH   6  12
BRANCH   7  15
ATOM     15  O   UNL     1       1.795   0.356   0.354  0.00  0.00    -0.226 OA
BRANCH  15  16
ATOM     16  S   UNL     1       2.970  -0.755   0.117  0.00  0.00    +0.079 S 
ATOM     17  O   UNL     1       3.388  -1.291   1.396  0.00  0.00    -0.064 OA
ATOM     18  O   UNL     1       2.605  -1.610  -0.994  0.00  0.00    -0.064 OA
BRANCH  16  22
ATOM     19  F   UNL     1       5.407  -0.251  -0.583  0.00  0.00    -0.150 F 
ATOM     20  F   UNL     1       3.892   0.912  -1.638  0.00  0.00    -0.150 F 
ATOM     21  F   UNL     1       4.389   1.389   0.433  0.00  0.00    -0.150 F 
ATOM     22  C   UNL     1       4.210   0.368  -0.439  0.00  0.00    +0.526 C 
ENDBRANCH  16  22
ENDBRANCH  15  16
ENDBRANCH   7  15
TORSDOF 5
