REMARK  Name = 129916
REMARK  7 active torsions:
REMARK  status: ('A' for Active; 'I' for Inactive)
REMARK    1  A    between atoms: C_2  and  C_12
REMARK    2  A    between atoms: C_5  and  O_8
REMARK    3  A    between atoms: C_7  and  O_10
REMARK    4  A    between atoms: C_12  and  CA_13
REMARK    5  A    between atoms: CA_13  and  N_14
REMARK    6  A    between atoms: CA_13  and  C_19
REMARK    7  A    between atoms: C_19  and  O_20
REMARK                            x       y       z     vdW  Elec       q    Type
REMARK                         _______ _______ _______ _____ _____    ______ ____
ROOT
ATOM      1  F   UNL     1      -0.066  -1.559   0.999  0.00  0.00    -0.201 F 
ATOM      2  C   UNL     1       0.137   0.747   0.485  0.00  0.00    +0.007 C 
ATOM      3  C   UNL     1       0.671  -0.529   0.559  0.00  0.00    +0.173 C 
ATOM      4  C   UNL     1       0.887   1.819   0.033  0.00  0.00    +0.001 C 
ATOM      5  C   UNL     1       1.994  -0.738   0.169  0.00  0.00    +0.195 C 
ATOM      6  C   UNL     1       2.210   1.610  -0.357  0.00  0.00    +0.040 C 
ATOM      7  C   UNL     1       2.764   0.332  -0.288  0.00  0.00    +0.170 C 
ENDROOT
BRANCH   5   8
ATOM      8  O   UNL     1       2.525  -1.990   0.240  0.00  0.00    -0.501 OA
ATOM      9  H   UNL     1       2.002  -2.704   0.549  0.00  0.00    +0.292 HD
ENDBRANCH   5   8
BRANCH   7  10
ATOM     10  O   UNL     1       4.057   0.141  -0.671  0.00  0.00    -0.503 OA
ATOM     11  H   UNL     1       4.436  -0.715  -0.628  0.00  0.00    +0.292 HD
ENDBRANCH   7  10
BRANCH   2  12
ATOM     12  C   UNL     1      -1.297   0.977   0.906  0.00  0.00    +0.018 C 
BRANCH  12  13
ATOM     13  CA  UNL     1      -2.293   0.811  -0.252  0.00  0.00    +0.040 C 
BRANCH  13  14
ATOM     14  N   UNL     1      -3.545   1.492   0.072  0.00  0.00    +0.389 N 
ATOM     15  H1  UNL     1      -3.359   2.479   0.248  0.00  0.00    -0.088 HD
ATOM     16  H2  UNL     1      -3.956   1.069   0.904  0.00  0.00    -0.088 HD
ATOM     17  H3  UNL     1      -4.193   1.402  -0.711  0.00  0.00    -0.088 HD
ENDBRANCH  13  14
BRANCH  13  19
ATOM     18  OXT UNL     1      -3.550  -1.253   0.054  0.00  0.00    -0.253 OA
ATOM     19  C   UNL     1      -2.643  -0.646  -0.501  0.00  0.00    +0.293 C 
BRANCH  19  20
ATOM     20  O   UNL     1      -1.851  -1.213  -1.448  0.00  0.00    -0.482 OA
ATOM     21  H   UNL     1      -1.167  -0.713  -1.848  0.00  0.00    +0.295 HD
ENDBRANCH  19  20
ENDBRANCH  13  19
ENDBRANCH  12  13
ENDBRANCH   2  12
TORSDOF 7
