REMARK  Name = 129966
REMARK  11 active torsions:
REMARK  status: ('A' for Active; 'I' for Inactive)
REMARK    1  A    between atoms: C_2  and  O_3
REMARK    2  A    between atoms: C_2  and  C_18
REMARK    3  A    between atoms: O_3  and  C_4
REMARK    4  A    between atoms: C_4  and  C_5
REMARK    5  A    between atoms: C_18  and  C_19
REMARK    6  A    between atoms: C_19  and  C_20
REMARK    7  A    between atoms: C_20  and  N_22
REMARK    8  A    between atoms: C_20  and  C_31
REMARK    9  A    between atoms: C_23  and  O_25
REMARK   10  A    between atoms: O_25  and  C_26
REMARK   11  A    between atoms: C_31  and  O_32
REMARK                            x       y       z     vdW  Elec       q    Type
REMARK                         _______ _______ _______ _____ _____    ______ ____
ROOT
ATOM      1  O   UNK A   1       0.442  -3.915  -0.680  0.00  0.00    -0.250 OA
ATOM      2  C   UNK A   1       0.342  -2.731  -0.978  0.00  0.00    +0.317 C 
ENDROOT
BRANCH   2   3
ATOM      3  O   UNK A   1       1.078  -1.707  -0.443  0.00  0.00    -0.448 OA
BRANCH   3   4
ATOM      4  C   UNK A   1       2.033  -2.073   0.536  0.00  0.00    +0.217 C 
BRANCH   4   5
ATOM      5  C   UNK A   1       2.750  -0.816   1.012  0.00  0.00    +0.088 C 
ATOM      6  C   UNK A   1       3.365  -0.022  -0.132  0.00  0.00    -0.015 C 
ATOM      7  C   UNK A   1       1.800   0.208   1.617  0.00  0.00    -0.015 C 
ATOM      8  C   UNK A   1       2.840   1.290  -0.160  0.00  0.00    -0.004 C 
ATOM      9  C   UNK A   1       1.880   1.431   0.913  0.00  0.00    -0.004 C 
ATOM     10  C   UNK A   1       4.318  -0.435  -1.049  0.00  0.00    -0.004 C 
ATOM     11  C   UNK A   1       0.957   0.060   2.706  0.00  0.00    -0.004 C 
ATOM     12  C   UNK A   1       3.263   2.198  -1.117  0.00  0.00    -0.000 C 
ATOM     13  C   UNK A   1       1.106   2.515   1.293  0.00  0.00    -0.000 C 
ATOM     14  C   UNK A   1       4.744   0.481  -2.013  0.00  0.00    -0.000 C 
ATOM     15  C   UNK A   1       0.177   1.153   3.089  0.00  0.00    -0.000 C 
ATOM     16  C   UNK A   1       4.221   1.784  -2.047  0.00  0.00    -0.000 C 
ATOM     17  C   UNK A   1       0.250   2.368   2.389  0.00  0.00    -0.000 C 
ENDBRANCH   4   5
ENDBRANCH   3   4
ENDBRANCH   2   3
BRANCH   2  18
ATOM     18  C   UNK A   1      -0.652  -2.201  -1.980  0.00  0.00    +0.112 C 
BRANCH  18  19
ATOM     19  C   UNK A   1      -2.074  -2.591  -1.577  0.00  0.00    +0.043 C 
BRANCH  19  20
ATOM     20  C   UNK A   1      -2.529  -2.010  -0.233  0.00  0.00    +0.174 C 
BRANCH  20  22
ATOM     21  O   UNK A   0      -4.075   0.302  -1.072  0.00  0.00    -0.226 OA
ATOM     22  N   UNK A   1      -2.180  -0.620  -0.100  0.00  0.00    -0.262 N 
ATOM     23  C   UNK A   0      -2.981   0.421  -0.530  0.00  0.00    +0.402 C 
ATOM     24  H   UNK A   1      -1.319  -0.397   0.322  0.00  0.00    +0.153 HD
BRANCH  23  25
ATOM     25  O   UNK A   0      -2.374   1.615  -0.263  0.00  0.00    -0.442 OA
BRANCH  25  26
ATOM     26  C   UNK A   0      -3.098   2.786  -0.658  0.00  0.00    +0.138 C 
ATOM     27  C   UNK A   0      -3.305   2.742  -2.171  0.00  0.00    +0.044 C 
ATOM     28  C   UNK A   0      -2.258   4.000  -0.267  0.00  0.00    +0.044 C 
ATOM     29  C   UNK A   0      -4.438   2.800   0.075  0.00  0.00    +0.044 C 
ENDBRANCH  25  26
ENDBRANCH  23  25
ENDBRANCH  20  22
BRANCH  20  31
ATOM     30  O   UNK A   1      -2.301  -4.030   1.077  0.00  0.00    -0.248 OA
ATOM     31  C   UNK A   1      -2.032  -2.842   0.938  0.00  0.00    +0.332 C 
BRANCH  31  32
ATOM     32  O   UNK A   1      -1.271  -2.162   1.829  0.00  0.00    -0.479 OA
ATOM     33  H   UNK A   1      -1.085  -1.254   1.690  0.00  0.00    +0.295 HD
ENDBRANCH  31  32
ENDBRANCH  20  31
ENDBRANCH  19  20
ENDBRANCH  18  19
ENDBRANCH   2  18
TORSDOF 11
