REMARK  Name = 129903
REMARK  8 active torsions:
REMARK  status: ('A' for Active; 'I' for Inactive)
REMARK    1  A    between atoms: C_2  and  O_13
REMARK    2  A    between atoms: C_3  and  O_15
REMARK    3  A    between atoms: C_4  and  C_17
REMARK    4  A    between atoms: C_5  and  N_6
REMARK    5  A    between atoms: C_10  and  C_12
REMARK    6  A    between atoms: C_17  and  O_18
REMARK    7  A    between atoms: O_18  and  S_19
REMARK    8  A    between atoms: S_19  and  N_22
REMARK                            x       y       z     vdW  Elec       q    Type
REMARK                         _______ _______ _______ _____ _____    ______ ____
ROOT
ATOM      1  O   UNL     1       0.430  -0.707   1.055  0.00  0.00    -0.332 OA
ATOM      2  C   UNL     1       0.832  -2.624  -0.299  0.00  0.00    +0.171 C 
ATOM      3  C   UNL     1      -0.474  -1.982  -0.724  0.00  0.00    +0.188 C 
ATOM      4  C   UNL     1       1.499  -1.507   0.497  0.00  0.00    +0.178 C 
ATOM      5  C   UNL     1      -0.823  -1.160   0.507  0.00  0.00    +0.240 C 
ENDROOT
BRANCH   5   6
ATOM      6  N   UNL     1      -1.684  -0.012   0.233  0.00  0.00    -0.172 N 
ATOM      7  N   UNL     1      -3.017  -0.106   0.355  0.00  0.00    -0.114 NA
ATOM      8  N   UNL     1      -2.377   1.989  -0.303  0.00  0.00    -0.186 NA
ATOM      9  C   UNL     1      -1.312   1.236  -0.158  0.00  0.00    +0.251 C 
ATOM     10  C   UNL     1      -3.389   1.131   0.019  0.00  0.00    +0.121 C 
BRANCH  10  12
ATOM     11  N   UNL     1      -5.884   1.837  -0.010  0.00  0.00    -0.180 NA
ATOM     12  C   UNL     1      -4.752   1.517   0.003  0.00  0.00    +0.174 C 
ENDBRANCH  10  12
ENDBRANCH   5   6
BRANCH   2  13
ATOM     13  O   UNL     1       0.561  -3.716   0.580  0.00  0.00    -0.379 OA
ATOM     14  H   UNL     1       0.136  -4.433   0.083  0.00  0.00    +0.211 HD
ENDBRANCH   2  13
BRANCH   3  15
ATOM     15  O   UNL     1      -1.481  -2.925  -1.030  0.00  0.00    -0.378 OA
ATOM     16  H   UNL     1      -1.223  -3.428  -1.819  0.00  0.00    +0.211 HD
ENDBRANCH   3  15
BRANCH   4  17
ATOM     17  C   UNL     1       2.373  -0.606  -0.363  0.00  0.00    +0.206 C 
BRANCH  17  18
ATOM     18  O   UNL     1       2.937   0.400   0.460  0.00  0.00    -0.227 OA
BRANCH  18  19
ATOM     19  S   UNL     1       3.931   1.526  -0.191  0.00  0.00    +0.045 S 
ATOM     20  O   UNL     1       5.129   0.861  -0.669  0.00  0.00    -0.056 OA
ATOM     21  O   UNL     1       3.137   2.333  -1.100  0.00  0.00    -0.056 OA
BRANCH  19  22
ATOM     22  N   UNL     1       4.366   2.518   1.139  0.00  0.00    -0.204 NA
ATOM     23  H   UNL     1       4.927   1.977   1.797  0.00  0.00    +0.144 HD
ATOM     24  H   UNL     1       3.522   2.851   1.604  0.00  0.00    +0.144 HD
ENDBRANCH  19  22
ENDBRANCH  18  19
ENDBRANCH  17  18
ENDBRANCH   4  17
TORSDOF 8
