REMARK  Name = 129991
REMARK  9 active torsions:
REMARK  status: ('A' for Active; 'I' for Inactive)
REMARK    1  A    between atoms: C_2  and  N_9
REMARK    2  A    between atoms: C_3  and  N_18
REMARK    3  A    between atoms: C_7  and  C_27
REMARK    4  A    between atoms: C_10  and  C_12
REMARK    5  A    between atoms: C_12  and  O_13
REMARK    6  A    between atoms: O_13  and  C_15
REMARK    7  A    between atoms: C_19  and  C_21
REMARK    8  A    between atoms: C_21  and  O_22
REMARK    9  A    between atoms: O_22  and  C_24
REMARK                            x       y       z     vdW  Elec       q    Type
REMARK                         _______ _______ _______ _____ _____    ______ ____
ROOT
ATOM      1 CL   UNL     1       0.000  -2.366  -0.001  0.00  0.00    -0.080 Cl
ATOM      2  C   UNL     1       1.208   0.067   0.001  0.00  0.00    +0.063 C 
ATOM      3  C   UNL     1      -1.208   0.067  -0.004  0.00  0.00    +0.063 C 
ATOM      4  C   UNL     1       0.000  -0.631  -0.002  0.00  0.00    +0.085 C 
ATOM      5  C   UNL     1       1.208   1.462   0.001  0.00  0.00    +0.026 C 
ATOM      6  C   UNL     1      -1.208   1.462  -0.003  0.00  0.00    +0.026 C 
ATOM      7  C   UNL     1       0.000   2.159   0.000  0.00  0.00    +0.071 C 
ENDROOT
BRANCH   2   9
ATOM      8  O   UNL     1       4.013   1.155  -0.001  0.00  0.00    -0.271 OA
ATOM      9  N   UNL     1       2.439  -0.598   0.002  0.00  0.00    -0.280 N 
ATOM     10  C   UNL     1       3.721  -0.037   0.004  0.00  0.00    +0.271 C 
ATOM     11  H   UNL     1       2.398  -1.581   0.001  0.00  0.00    +0.155 HD
BRANCH  10  12
ATOM     12  C   UNL     1       4.804  -1.094   0.004  0.00  0.00    +0.293 C 
BRANCH  12  13
ATOM     13  O   UNL     1       6.064  -0.455   0.000  0.00  0.00    -0.438 OA
BRANCH  13  15
ATOM     14  O   UNL     1       7.133  -2.503   0.004  0.00  0.00    -0.250 OA
ATOM     15  C   UNL     1       7.160  -1.280   0.000  0.00  0.00    +0.318 C 
ATOM     16  C   UNL     1       8.419  -0.468  -0.005  0.00  0.00    +0.121 C 
ENDBRANCH  13  15
ENDBRANCH  12  13
ENDBRANCH  10  12
ENDBRANCH   2   9
BRANCH   3  18
ATOM     17  O   UNL     1      -4.013   1.155   0.002  0.00  0.00    -0.271 OA
ATOM     18  N   UNL     1      -2.439  -0.597  -0.004  0.00  0.00    -0.280 N 
ATOM     19  C   UNL     1      -3.721  -0.037  -0.004  0.00  0.00    +0.271 C 
ATOM     20  H   UNL     1      -2.398  -1.581  -0.004  0.00  0.00    +0.155 HD
BRANCH  19  21
ATOM     21  C   UNL     1      -4.804  -1.093  -0.005  0.00  0.00    +0.293 C 
BRANCH  21  22
ATOM     22  O   UNL     1      -6.064  -0.455   0.001  0.00  0.00    -0.438 OA
BRANCH  22  24
ATOM     23  O   UNL     1      -7.133  -2.503  -0.003  0.00  0.00    -0.250 OA
ATOM     24  C   UNL     1      -7.160  -1.279   0.002  0.00  0.00    +0.318 C 
ATOM     25  C   UNL     1      -8.420  -0.468   0.009  0.00  0.00    +0.121 C 
ENDBRANCH  22  24
ENDBRANCH  21  22
ENDBRANCH  19  21
ENDBRANCH   3  18
BRANCH   7  27
ATOM     26  N   UNL     1       0.000   4.749   0.001  0.00  0.00    -0.191 NA
ATOM     27  C   UNL     1       0.000   3.588   0.000  0.00  0.00    +0.100 C 
ENDBRANCH   7  27
TORSDOF 9
