REMARK  Name = 129976
REMARK  12 active torsions:
REMARK  status: ('A' for Active; 'I' for Inactive)
REMARK    1  A    between atoms: C_1  and  N_3
REMARK    2  A    between atoms: C_1  and  C_19
REMARK    3  A    between atoms: C_4  and  C_6
REMARK    4  A    between atoms: C_6  and  N_7
REMARK    5  A    between atoms: C_6  and  C_11
REMARK    6  A    between atoms: C_11  and  C_14
REMARK    7  A    between atoms: N_18  and  C_21
REMARK    8  A    between atoms: C_21  and  C_25
REMARK    9  A    between atoms: C_26  and  O_28
REMARK   10  A    between atoms: O_28  and  C_29
REMARK   11  A    between atoms: C_29  and  C_30
REMARK   12  A    between atoms: C_30  and  C_31
REMARK                            x       y       z     vdW  Elec       q    Type
REMARK                         _______ _______ _______ _____ _____    ______ ____
ROOT
ATOM      1  C   UNL     1      -2.521   1.857   0.378  0.00  0.00    +0.176 C 
ENDROOT
BRANCH   1   3
ATOM      2  O   UNL     1      -3.473  -0.861   0.650  0.00  0.00    -0.277 OA
ATOM      3  N   UNL     1      -3.581   1.222  -0.371  0.00  0.00    -0.298 N 
ATOM      4  C   UNL     1      -3.972  -0.095  -0.172  0.00  0.00    +0.203 C 
ATOM      5  H   UNL     1      -4.050   1.750  -1.058  0.00  0.00    +0.150 HD
BRANCH   4   6
ATOM      6  C   UNL     1      -5.128  -0.500  -1.083  0.00  0.00    +0.022 C 
BRANCH   6   7
ATOM      7  N   UNL     1      -4.507  -0.987  -2.317  0.00  0.00    +0.388 N 
ATOM      8  H   UNL     1      -5.232  -1.276  -2.972  0.00  0.00    -0.089 HD
ATOM      9  H   UNL     1      -3.905  -1.782  -2.103  0.00  0.00    -0.089 HD
ATOM     10  H   UNL     1      -3.949  -0.241  -2.733  0.00  0.00    -0.089 HD
ENDBRANCH   6   7
BRANCH   6  11
ATOM     11  C   UNL     1      -5.995  -1.605  -0.468  0.00  0.00    +0.072 C 
BRANCH  11  14
ATOM     12  O   UNL     1      -7.149   0.122   0.793  0.00  0.00    -0.275 OA
ATOM     13  N   UNL     1      -7.809  -2.065   1.046  0.00  0.00    -0.329 N 
ATOM     14  C   UNL     1      -7.026  -1.066   0.509  0.00  0.00    +0.218 C 
ATOM     15  H   UNL     1      -8.516  -1.842   1.694  0.00  0.00    +0.145 HD
ATOM     16  H   UNL     1      -7.662  -3.002   0.782  0.00  0.00    +0.145 HD
ENDBRANCH  11  14
ENDBRANCH   6  11
ENDBRANCH   4   6
ENDBRANCH   1   3
BRANCH   1  19
ATOM     17  O   UNL     1      -1.090   0.983  -1.363  0.00  0.00    -0.273 OA
ATOM     18  N   UNL     1      -0.156   2.259   0.341  0.00  0.00    -0.295 N 
ATOM     19  C   UNL     1      -1.202   1.650  -0.337  0.00  0.00    +0.243 C 
ATOM     20  H   UNL     1      -0.362   2.771   1.156  0.00  0.00    +0.150 HD
BRANCH  18  21
ATOM     21  C   UNL     1       1.221   2.180  -0.091  0.00  0.00    +0.176 C 
BRANCH  21  25
ATOM     22  O   UNL     1       1.300   0.174   1.256  0.00  0.00    -0.273 OA
ATOM     23  O   UNL     1       3.819  -1.091   1.241  0.00  0.00    -0.226 OA
ATOM     24  N   UNL     1       3.229   0.882   0.153  0.00  0.00    -0.220 N 
ATOM     25  C   UNL     1       1.891   0.977   0.538  0.00  0.00    +0.251 C 
ATOM     26  C   UNL     1       4.099  -0.134   0.525  0.00  0.00    +0.407 C 
ATOM     27  H   UNL     1       3.585   1.593  -0.428  0.00  0.00    +0.161 HD
BRANCH  26  28
ATOM     28  O   UNL     1       5.327   0.088  -0.029  0.00  0.00    -0.434 OA
BRANCH  28  29
ATOM     29  C   UNL     1       6.332  -0.888   0.270  0.00  0.00    +0.210 C 
BRANCH  29  30
ATOM     30  C   UNL     1       7.627  -0.488  -0.423  0.00  0.00    +0.048 C 
BRANCH  30  31
ATOM     31  C   UNL     1       8.742  -1.497  -0.159  0.00  0.00    +0.004 C 
ATOM     32  C   UNL     1      10.021  -1.117  -0.887  0.00  0.00    +0.000 C 
ENDBRANCH  30  31
ENDBRANCH  29  30
ENDBRANCH  28  29
ENDBRANCH  26  28
ENDBRANCH  21  25
ENDBRANCH  18  21
ENDBRANCH   1  19
TORSDOF 12
