REMARK  Name = 129985
REMARK  10 active torsions:
REMARK  status: ('A' for Active; 'I' for Inactive)
REMARK    1  A    between atoms: C_3  and  N_10
REMARK    2  A    between atoms: C_4  and  C_21
REMARK    3  A    between atoms: C_21  and  O_22
REMARK    4  A    between atoms: O_22  and  C_23
REMARK    5  A    between atoms: C_23  and  C_24
REMARK    6  A    between atoms: C_24  and  C_25
REMARK    7  A    between atoms: C_25  and  C_26
REMARK    8  A    between atoms: C_26  and  C_27
REMARK    9  A    between atoms: C_27  and  C_28
REMARK   10  A    between atoms: C_28  and  O_29
REMARK                            x       y       z     vdW  Elec       q    Type
REMARK                         _______ _______ _______ _____ _____    ______ ____
ROOT
ATOM      1  O   UNL     1      -0.709   1.314  -1.042  0.00  0.00    -0.330 OA
ATOM      2  O   UNL     1      -1.997   3.223   1.652  0.00  0.00    -0.287 OA
ATOM      3  C   UNL     1      -1.329   1.375   0.232  0.00  0.00    +0.243 C 
ATOM      4  C   UNL     1       0.675   1.680  -1.050  0.00  0.00    +0.169 C 
ATOM      5  C   UNL     1      -1.175   2.747   0.873  0.00  0.00    +0.216 C 
ATOM      6  C   UNL     1       0.925   2.959  -0.303  0.00  0.00    +0.009 C 
ATOM      7  C   UNL     1       0.068   3.491   0.573  0.00  0.00    +0.039 C 
ENDROOT
BRANCH   3  10
ATOM      8  O   UNL     1      -6.800  -0.858  -0.398  0.00  0.00    -0.268 OA
ATOM      9  O   UNL     1      -3.158  -3.723   0.410  0.00  0.00    -0.252 OA
ATOM     10  N   UNL     1      -2.741   1.014   0.050  0.00  0.00    -0.203 NA
ATOM     11  N   UNL     1      -2.741  -1.437   0.269  0.00  0.00    -0.245 N 
ATOM     12  N   UNL     1      -4.987  -2.317   0.006  0.00  0.00    -0.208 N 
ATOM     13  N   UNL     1      -4.918   1.356  -0.310  0.00  0.00    -0.249 NA
ATOM     14  C   UNL     1      -3.336  -0.212   0.070  0.00  0.00    +0.187 C 
ATOM     15  C   UNL     1      -4.662   0.022  -0.153  0.00  0.00    +0.143 C 
ATOM     16  C   UNL     1      -3.737   1.929  -0.182  0.00  0.00    +0.204 C 
ATOM     17  C   UNL     1      -5.606  -1.055  -0.200  0.00  0.00    +0.272 C 
ATOM     18  C   UNL     1      -3.584  -2.575   0.242  0.00  0.00    +0.315 C 
ATOM     19  C   UNL     1      -1.306  -1.558   0.497  0.00  0.00    +0.118 C 
ATOM     20  C   UNL     1      -5.847  -3.494  -0.020  0.00  0.00    +0.125 C 
ENDBRANCH   3  10
BRANCH   4  21
ATOM     21  C   UNL     1       1.546   0.536  -0.540  0.00  0.00    +0.176 C 
BRANCH  21  22
ATOM     22  O   UNL     1       2.913   0.884  -0.711  0.00  0.00    -0.351 OA
BRANCH  22  23
ATOM     23  C   UNL     1       3.776  -0.148  -0.252  0.00  0.00    +0.142 C 
BRANCH  23  24
ATOM     24  C   UNL     1       5.219   0.278  -0.481  0.00  0.00    +0.032 C 
BRANCH  24  25
ATOM     25  C   UNL     1       6.204  -0.782   0.006  0.00  0.00    +0.003 C 
BRANCH  25  26
ATOM     26  C   UNL     1       7.651  -0.329  -0.189  0.00  0.00    +0.003 C 
BRANCH  26  27
ATOM     27  C   UNL     1       8.636  -1.403   0.267  0.00  0.00    +0.032 C 
BRANCH  27  28
ATOM     28  C   UNL     1      10.079  -0.943   0.116  0.00  0.00    +0.137 C 
BRANCH  28  29
ATOM     29  O   UNL     1      10.941  -1.977   0.570  0.00  0.00    -0.382 OA
ATOM     30  H   UNL     1      11.864  -1.693   0.477  0.00  0.00    +0.210 HD
ENDBRANCH  28  29
ENDBRANCH  27  28
ENDBRANCH  26  27
ENDBRANCH  25  26
ENDBRANCH  24  25
ENDBRANCH  23  24
ENDBRANCH  22  23
ENDBRANCH  21  22
ENDBRANCH   4  21
TORSDOF 10
