REMARK  Name = 129912
REMARK  5 active torsions:
REMARK  status: ('A' for Active; 'I' for Inactive)
REMARK    1  A    between atoms: C_3  and  C_16
REMARK    2  A    between atoms: C_7  and  O_14
REMARK    3  A    between atoms: C_9  and  N_13
REMARK    4  A    between atoms: C_16  and  O_17
REMARK    5  A    between atoms: O_17  and  N_20
REMARK                            x       y       z     vdW  Elec       q    Type
REMARK                         _______ _______ _______ _____ _____    ______ ____
ROOT
ATOM      1  O   UNL     1       0.754  -0.006   0.158  0.00  0.00    -0.465 OA
ATOM      2  O   UNL     1      -0.057   2.745  -0.115  0.00  0.00    -0.468 OA
ATOM      3  C   UNL     1       1.652   1.033  -0.255  0.00  0.00    +0.256 C 
ATOM      4  C   UNL     1       1.230   2.355   0.372  0.00  0.00    +0.253 C 
ATOM      5  C   UNL     1      -0.558   0.374   0.055  0.00  0.00    +0.208 C 
ATOM      6  C   UNL     1      -0.951   1.707  -0.089  0.00  0.00    +0.176 C 
ATOM      7  C   UNL     1      -1.519  -0.636   0.109  0.00  0.00    +0.194 C 
ATOM      8  C   UNL     1      -2.302   2.026  -0.223  0.00  0.00    +0.042 C 
ATOM      9  C   UNL     1      -2.871  -0.314  -0.011  0.00  0.00    +0.180 C 
ATOM     10  C   UNL     1      -3.261   1.014  -0.182  0.00  0.00    +0.031 C 
ENDROOT
BRANCH   9  13
ATOM     11  O   UNL     1      -5.069  -0.995  -0.087  0.00  0.00    -0.126 OA
ATOM     12  O   UNL     1      -3.506  -2.519   0.185  0.00  0.00    -0.126 OA
ATOM     13  N   UNL     1      -3.867  -1.329   0.031  0.00  0.00    +0.061 N 
ENDBRANCH   9  13
BRANCH   7  14
ATOM     14  O   UNL     1      -1.130  -1.935   0.267  0.00  0.00    -0.502 OA
ATOM     15  H   UNL     1      -0.221  -2.145   0.347  0.00  0.00    +0.292 HD
ENDBRANCH   7  14
BRANCH   3  16
ATOM     16  C   UNL     1       3.054   0.635   0.183  0.00  0.00    +0.290 C 
BRANCH  16  17
ATOM     17  O   UNL     1       3.385  -0.603  -0.423  0.00  0.00    -0.332 OA
BRANCH  17  20
ATOM     18  O   UNL     1       5.288  -0.323   0.680  0.00  0.00    -0.090 OA
ATOM     19  O   UNL     1       5.042  -2.151  -0.573  0.00  0.00    -0.090 OA
ATOM     20  N   UNL     1       4.684  -1.078  -0.083  0.00  0.00    +0.218 N 
ENDBRANCH  17  20
ENDBRANCH  16  17
ENDBRANCH   3  16
TORSDOF 5
