129924
  -OEChem-03292013323D

 52 55  0     1  0  0  0  0  0999 V2000
   -0.1844   -1.9382    2.2104 S   0  0  0  0  0  0  0  0  0  0  0  0
   -1.2718    1.1577   -0.5752 O   0  0  0  0  0  0  0  0  0  0  0  0
   -0.2557    1.6304   -2.6009 O   0  0  0  0  0  0  0  0  0  0  0  0
    4.1026   -1.3049    1.1631 O   0  5  0  0  0  0  0  0  0  0  0  0
    4.8201   -0.6407   -0.8104 O   0  0  0  0  0  0  0  0  0  0  0  0
    2.6153    2.7627    0.6458 N   0  0  0  0  0  0  0  0  0  0  0  0
    4.0899   -0.5465    0.1849 N   0  3  0  0  0  0  0  0  0  0  0  0
    0.3795   -3.8193   -1.8153 N   0  0  0  0  0  0  0  0  0  0  0  0
    1.8204    0.2562   -0.4573 C   0  0  2  0  0  0  0  0  0  0  0  0
    0.9897    1.5423   -0.5863 C   0  0  0  0  0  0  0  0  0  0  0  0
    1.0587   -0.7672    0.3066 C   0  0  0  0  0  0  0  0  0  0  0  0
    3.1552    0.5276    0.2065 C   0  0  0  0  0  0  0  0  0  0  0  0
    1.3995    2.7051   -0.0241 C   0  0  0  0  0  0  0  0  0  0  0  0
    3.5171    1.7111    0.7360 C   0  0  0  0  0  0  0  0  0  0  0  0
    0.6544   -2.0322   -0.2333 C   0  0  0  0  0  0  0  0  0  0  0  0
    0.6708   -0.5902    1.6121 C   0  0  0  0  0  0  0  0  0  0  0  0
   -0.2364    1.4552   -1.3968 C   0  0  0  0  0  0  0  0  0  0  0  0
   -0.0448   -2.7842    0.7152 C   0  0  0  0  0  0  0  0  0  0  0  0
    0.6348    4.0014   -0.0580 C   0  0  0  0  0  0  0  0  0  0  0  0
    4.8132    2.0405    1.4252 C   0  0  0  0  0  0  0  0  0  0  0  0
    0.8503   -2.5902   -1.5066 C   0  0  0  0  0  0  0  0  0  0  0  0
   -2.5435    1.0377   -1.2211 C   0  0  1  0  0  0  0  0  0  0  0  0
   -0.5390   -4.0584    0.4120 C   0  0  0  0  0  0  0  0  0  0  0  0
   -3.5963    0.7063   -0.1904 C   0  0  0  0  0  0  0  0  0  0  0  0
   -2.8581    2.3300   -1.9665 C   0  0  0  0  0  0  0  0  0  0  0  0
   -0.2892   -4.5105   -0.8717 C   0  0  0  0  0  0  0  0  0  0  0  0
   -3.4556    1.1858    1.1020 C   0  0  0  0  0  0  0  0  0  0  0  0
   -4.6839   -0.0706   -0.5564 C   0  0  0  0  0  0  0  0  0  0  0  0
   -4.4280    0.8799    2.0540 C   0  0  0  0  0  0  0  0  0  0  0  0
   -5.6564   -0.3762    0.3957 C   0  0  0  0  0  0  0  0  0  0  0  0
   -5.5284    0.0991    1.7009 C   0  0  0  0  0  0  0  0  0  0  0  0
    2.0274   -0.0800   -1.4815 H   0  0  0  0  0  0  0  0  0  0  0  0
    2.8881    3.6520    1.0491 H   0  0  0  0  0  0  0  0  0  0  0  0
    0.8424    0.2634    2.2533 H   0  0  0  0  0  0  0  0  0  0  0  0
    1.2328    4.7801   -0.5436 H   0  0  0  0  0  0  0  0  0  0  0  0
    0.4037    4.3292    0.9613 H   0  0  0  0  0  0  0  0  0  0  0  0
   -0.3106    3.9273   -0.6015 H   0  0  0  0  0  0  0  0  0  0  0  0
    5.4965    1.1895    1.4920 H   0  0  0  0  0  0  0  0  0  0  0  0
    4.6192    2.3848    2.4469 H   0  0  0  0  0  0  0  0  0  0  0  0
    5.3340    2.8393    0.8861 H   0  0  0  0  0  0  0  0  0  0  0  0
   -2.4797    0.2013   -1.9302 H   0  0  0  0  0  0  0  0  0  0  0  0
    1.3791   -2.0827   -2.3050 H   0  0  0  0  0  0  0  0  0  0  0  0
   -1.0833   -4.6563    1.1332 H   0  0  0  0  0  0  0  0  0  0  0  0
   -2.6224    3.2101   -1.3575 H   0  0  0  0  0  0  0  0  0  0  0  0
   -3.9225    2.3817   -2.2253 H   0  0  0  0  0  0  0  0  0  0  0  0
   -2.3230    2.4309   -2.9131 H   0  0  0  0  0  0  0  0  0  0  0  0
   -0.6398   -5.4891   -1.1851 H   0  0  0  0  0  0  0  0  0  0  0  0
   -2.6144    1.8058    1.3978 H   0  0  0  0  0  0  0  0  0  0  0  0
   -4.7934   -0.4437   -1.5705 H   0  0  0  0  0  0  0  0  0  0  0  0
   -4.3300    1.2521    3.0696 H   0  0  0  0  0  0  0  0  0  0  0  0
   -6.5136   -0.9838    0.1207 H   0  0  0  0  0  0  0  0  0  0  0  0
   -6.2861   -0.1383    2.4419 H   0  0  0  0  0  0  0  0  0  0  0  0
  1 16  1  0  0  0  0
  1 18  1  0  0  0  0
  2 17  1  0  0  0  0
  2 22  1  0  0  0  0
  3 17  2  0  0  0  0
  4  7  1  0  0  0  0
  5  7  2  0  0  0  0
  6 13  1  0  0  0  0
  6 14  1  0  0  0  0
  6 33  1  0  0  0  0
  7 12  1  0  0  0  0
  8 21  2  0  0  0  0
  8 26  1  0  0  0  0
  9 10  1  0  0  0  0
  9 11  1  0  0  0  0
  9 12  1  0  0  0  0
  9 32  1  0  0  0  0
 10 13  2  0  0  0  0
 10 17  1  0  0  0  0
 11 15  1  0  0  0  0
 11 16  2  0  0  0  0
 12 14  2  0  0  0  0
 13 19  1  0  0  0  0
 14 20  1  0  0  0  0
 15 18  2  0  0  0  0
 15 21  1  0  0  0  0
 16 34  1  0  0  0  0
 18 23  1  0  0  0  0
 19 35  1  0  0  0  0
 19 36  1  0  0  0  0
 19 37  1  0  0  0  0
 20 38  1  0  0  0  0
 20 39  1  0  0  0  0
 20 40  1  0  0  0  0
 21 42  1  0  0  0  0
 22 24  1  0  0  0  0
 22 25  1  0  0  0  0
 22 41  1  0  0  0  0
 23 26  2  0  0  0  0
 23 43  1  0  0  0  0
 24 27  2  0  0  0  0
 24 28  1  0  0  0  0
 25 44  1  0  0  0  0
 25 45  1  0  0  0  0
 25 46  1  0  0  0  0
 26 47  1  0  0  0  0
 27 29  1  0  0  0  0
 27 48  1  0  0  0  0
 28 30  2  0  0  0  0
 28 49  1  0  0  0  0
 29 31  2  0  0  0  0
 29 50  1  0  0  0  0
 30 31  1  0  0  0  0
 30 51  1  0  0  0  0
 31 52  1  0  0  0  0
M  CHG  2   4  -1   7   1
M  END
> <PUBCHEM_COMPOUND_CID>
129924

> <PUBCHEM_CONFORMER_RMSD>
0.8

> <PUBCHEM_CONFORMER_DIVERSEORDER>
1
78
115
151
52
68
139
61
45
56
90
128
167
11
103
106
38
155
165
109
119
143
41
134
28
146
157
36
76
123
105
107
91
59
158
18
108
122
112
141
7
87
145
33
94
4
81
125
14
54
114
24
166
153
60
71
2
66
163
142
13
5
97
99
50
111
135
148
82
164
34
161
149
131
138
27
98
85
110
132
159
101
129
20
74
150
15
137
9
8
12
17
147
95
63
58
53
144
160
48
3
26
88
47
46
64
154
29
116
62
152
130
44
75
120
162
31
10
77
126
6
51
79
89
22
127
39
30
83
57
69
37
86
102
117
35
16
43
21
121
72
136
93
32
113
80
92
84
23
118
156
104
124
19
70
40
55
25
96
73
49
65
133
140
100
67
42

> <PUBCHEM_MMFF94_PARTIAL_CHARGES>
39
1 -0.08
10 -0.12
11 -0.18
12 0.07
13 -0.04
14 -0.04
16 -0.11
17 0.71
18 0.04
19 0.14
2 -0.43
20 0.14
21 0.16
22 0.42
23 -0.15
24 -0.14
26 0.16
27 -0.15
28 -0.15
29 -0.15
3 -0.57
30 -0.15
31 -0.15
33 0.4
34 0.15
4 -0.52
42 0.15
43 0.15
47 0.15
48 0.15
49 0.15
5 -0.52
50 0.15
51 0.15
52 0.15
6 -0.6
7 0.84
8 -0.62
9 0.46

> <PUBCHEM_EFFECTIVE_ROTOR_COUNT>
6.4

> <PUBCHEM_PHARMACOPHORE_FEATURES>
11
1 3 acceptor
1 4 acceptor
1 4 anion
1 5 acceptor
1 6 cation
1 6 donor
1 8 acceptor
5 1 11 15 16 18 rings
6 24 27 28 29 30 31 rings
6 6 9 10 12 13 14 rings
6 8 15 18 21 23 26 rings

> <PUBCHEM_HEAVY_ATOM_COUNT>
31

> <PUBCHEM_ATOM_DEF_STEREO_COUNT>
0

> <PUBCHEM_ATOM_UDEF_STEREO_COUNT>
2

> <PUBCHEM_BOND_DEF_STEREO_COUNT>
0

> <PUBCHEM_BOND_UDEF_STEREO_COUNT>
0

> <PUBCHEM_ISOTOPIC_ATOM_COUNT>
0

> <PUBCHEM_COMPONENT_COUNT>
1

> <PUBCHEM_CACTVS_TAUTO_COUNT>
2

> <PUBCHEM_CONFORMER_ID>
0001FB8400000001

> <PUBCHEM_MMFF94_ENERGY>
88.4932

> <PUBCHEM_FEATURE_SELFOVERLAP>
55.966

> <PUBCHEM_SHAPE_FINGERPRINT>
10076449 9 18335433327173023702
11112662 9 18341610486076067783
11115154 58 17049897800526365535
11421498 54 17632019650416045587
11488393 25 18122343471704100722
11578080 2 17628626759528262024
12035758 1 18410288117140648000
12156800 1 17904795466757777679
12422481 6 17974596850731128411
131258 38 15793712276550229723
13402501 40 18040439880346640273
14863182 85 18336847319894168863
14932701 244 17190129036585603878
15324884 4 17824235203584904900
17138139 8 17411303884210363887
19591789 44 18336253557829684486
1979834 28 18262822725930569457
20028762 73 18273210911178601551
20739085 24 18339090310699080136
20905425 154 17751631053166355097
21197605 99 18047764968819774123
27425 322 16844424151249651625
3383291 50 18194674879452080098
3633792 109 18341327787861975877
3737641 26 17981058422315407655
469060 322 16952229131638751879
57307002 85 17677916542397735587
6287921 2 18340223903372008019
6438718 38 18120375620804594906
81228 2 17754717648941660886

> <PUBCHEM_SHAPE_MULTIPOLES>
603.39
9
4.92
1.99
6.03
4
-0.07
-4.12
3.98
-1.74
-1.39
0.99
0.07
0.96

> <PUBCHEM_SHAPE_SELFOVERLAP>
1311.845

> <PUBCHEM_SHAPE_VOLUME>
332.8

> <PUBCHEM_COORDINATE_TYPE>
2
5
10

$$$$
