REMARK  Name = 129924
REMARK  6 active torsions:
REMARK  status: ('A' for Active; 'I' for Inactive)
REMARK    1  A    between atoms: C_2  and  C_12
REMARK    2  A    between atoms: C_3  and  C_23
REMARK    3  A    between atoms: C_4  and  N_21
REMARK    4  A    between atoms: C_23  and  O_24
REMARK    5  A    between atoms: O_24  and  C_25
REMARK    6  A    between atoms: C_25  and  C_27
REMARK                            x       y       z     vdW  Elec       q    Type
REMARK                         _______ _______ _______ _____ _____    ______ ____
ROOT
ATOM      1  N   UNL     1       2.615   2.763   0.646  0.00  0.00    -0.332 N 
ATOM      2  C   UNL     1       1.820   0.256  -0.457  0.00  0.00    +0.028 C 
ATOM      3  C   UNL     1       0.990   1.542  -0.586  0.00  0.00    +0.073 C 
ATOM      4  C   UNL     1       3.155   0.528   0.206  0.00  0.00    +0.152 C 
ATOM      5  C   UNL     1       1.399   2.705  -0.024  0.00  0.00    +0.098 C 
ATOM      6  C   UNL     1       3.517   1.711   0.736  0.00  0.00    +0.045 C 
ATOM      7  C   UNL     1       0.635   4.001  -0.058  0.00  0.00    +0.026 C 
ATOM      8  C   UNL     1       4.813   2.041   1.425  0.00  0.00    +0.049 C 
ATOM      9  H   UNL     1       2.854   3.609   1.088  0.00  0.00    +0.147 HD
ENDROOT
BRANCH   2  12
ATOM     10  S   UNL     1      -0.184  -1.938   2.210  0.00  0.00    -0.086 S 
ATOM     11  N   UNL     1       0.380  -3.819  -1.815  0.00  0.00    -0.242 NA
ATOM     12  C   UNL     1       1.059  -0.767   0.307  0.00  0.00    +0.010 C 
ATOM     13  C   UNL     1       0.654  -2.032  -0.233  0.00  0.00    +0.026 C 
ATOM     14  C   UNL     1       0.671  -0.590   1.612  0.00  0.00    +0.036 C 
ATOM     15  C   UNL     1      -0.045  -2.784   0.715  0.00  0.00    +0.033 C 
ATOM     16  C   UNL     1       0.850  -2.590  -1.507  0.00  0.00    +0.099 C 
ATOM     17  C   UNL     1      -0.539  -4.058   0.412  0.00  0.00    +0.027 C 
ATOM     18  C   UNL     1      -0.289  -4.511  -0.872  0.00  0.00    +0.099 C 
ENDBRANCH   2  12
BRANCH   4  21
ATOM     19  O   UNL     1       4.103  -1.305   1.163  0.00  0.00    -0.126 OA
ATOM     20  O   UNL     1       4.820  -0.641  -0.810  0.00  0.00    -0.126 OA
ATOM     21  N   UNL     1       4.090  -0.546   0.185  0.00  0.00    +0.059 N 
ENDBRANCH   4  21
BRANCH   3  23
ATOM     22  O   UNL     1      -0.256   1.630  -2.601  0.00  0.00    -0.245 OA
ATOM     23  C   UNL     1      -0.236   1.455  -1.397  0.00  0.00    +0.339 C 
BRANCH  23  24
ATOM     24  O   UNL     1      -1.272   1.158  -0.575  0.00  0.00    -0.445 OA
BRANCH  24  25
ATOM     25  C   UNL     1      -2.543   1.038  -1.221  0.00  0.00    +0.192 C 
ATOM     26  C   UNL     1      -2.858   2.330  -1.966  0.00  0.00    +0.052 C 
BRANCH  25  27
ATOM     27  C   UNL     1      -3.596   0.706  -0.190  0.00  0.00    +0.017 C 
ATOM     28  C   UNL     1      -3.456   1.186   1.102  0.00  0.00    -0.001 C 
ATOM     29  C   UNL     1      -4.684  -0.071  -0.556  0.00  0.00    -0.001 C 
ATOM     30  C   UNL     1      -4.428   0.880   2.054  0.00  0.00    -0.000 C 
ATOM     31  C   UNL     1      -5.656  -0.376   0.396  0.00  0.00    -0.000 C 
ATOM     32  C   UNL     1      -5.528   0.099   1.701  0.00  0.00    -0.000 C 
ENDBRANCH  25  27
ENDBRANCH  24  25
ENDBRANCH  23  24
ENDBRANCH   3  23
TORSDOF 6
