129914
  -OEChem-03292013323D

 43 42  0     1  0  0  0  0  0999 V2000
    0.3071    0.1129    2.2029 O   0  0  0  0  0  0  0  0  0  0  0  0
   -0.9780   -3.1543    0.3415 O   0  0  0  0  0  0  0  0  0  0  0  0
    4.4688   -2.4418   -0.8077 O   0  0  0  0  0  0  0  0  0  0  0  0
    0.6823    3.3652   -0.0585 O   0  0  0  0  0  0  0  0  0  0  0  0
   -5.3677   -0.1554   -1.8281 O   0  0  0  0  0  0  0  0  0  0  0  0
   -0.7600   -0.4114    0.2078 N   0  0  0  0  0  0  0  0  0  0  0  0
    2.0506    1.6851    0.7940 N   0  0  0  0  0  0  0  0  0  0  0  0
   -2.3649   -2.9196    2.1575 N   0  0  0  0  0  0  0  0  0  0  0  0
    5.6565   -0.9239   -2.0599 N   0  0  0  0  0  0  0  0  0  0  0  0
   -5.0324    2.1089   -1.6240 N   0  0  0  0  0  0  0  0  0  0  0  0
    1.4458    0.5696    0.1123 C   0  0  1  0  0  0  0  0  0  0  0  0
   -1.9628   -0.9756    0.7766 C   0  0  1  0  0  0  0  0  0  0  0  0
    2.4414   -0.5732   -0.1246 C   0  0  0  0  0  0  0  0  0  0  0  0
   -3.1684   -0.8212   -0.1589 C   0  0  0  0  0  0  0  0  0  0  0  0
    0.2830    0.0898    0.9741 C   0  0  0  0  0  0  0  0  0  0  0  0
    3.6284   -0.1732   -1.0032 C   0  0  0  0  0  0  0  0  0  0  0  0
   -3.5218    0.6357   -0.4652 C   0  0  0  0  0  0  0  0  0  0  0  0
   -1.6893   -2.4476    1.0517 C   0  0  0  0  0  0  0  0  0  0  0  0
    4.5974   -1.3106   -1.2667 C   0  0  0  0  0  0  0  0  0  0  0  0
    1.6147    2.9937    0.6494 C   0  0  0  0  0  0  0  0  0  0  0  0
   -4.7352    0.7885   -1.3634 C   0  0  0  0  0  0  0  0  0  0  0  0
    2.4048    3.9582    1.4927 C   0  0  0  0  0  0  0  0  0  0  0  0
    1.0585    0.9277   -0.8496 H   0  0  0  0  0  0  0  0  0  0  0  0
   -2.1638   -0.4640    1.7260 H   0  0  0  0  0  0  0  0  0  0  0  0
    2.8167   -0.9440    0.8389 H   0  0  0  0  0  0  0  0  0  0  0  0
    1.9186   -1.4208   -0.5867 H   0  0  0  0  0  0  0  0  0  0  0  0
   -4.0401   -1.3181    0.2869 H   0  0  0  0  0  0  0  0  0  0  0  0
   -2.9751   -1.3492   -1.1028 H   0  0  0  0  0  0  0  0  0  0  0  0
   -0.6465   -0.4638   -0.8006 H   0  0  0  0  0  0  0  0  0  0  0  0
    3.2632    0.1917   -1.9709 H   0  0  0  0  0  0  0  0  0  0  0  0
    4.1915    0.6404   -0.5308 H   0  0  0  0  0  0  0  0  0  0  0  0
   -3.7240    1.1697    0.4711 H   0  0  0  0  0  0  0  0  0  0  0  0
   -2.6785    1.1338   -0.9580 H   0  0  0  0  0  0  0  0  0  0  0  0
    2.7848    1.4881    1.4685 H   0  0  0  0  0  0  0  0  0  0  0  0
   -2.2806   -3.8891    2.4442 H   0  0  0  0  0  0  0  0  0  0  0  0
   -2.9668   -2.3289    2.7224 H   0  0  0  0  0  0  0  0  0  0  0  0
    2.2204    4.9808    1.1519 H   0  0  0  0  0  0  0  0  0  0  0  0
    2.0959    3.8641    2.5372 H   0  0  0  0  0  0  0  0  0  0  0  0
    3.4754    3.7506    1.4091 H   0  0  0  0  0  0  0  0  0  0  0  0
    5.7465    0.0198   -2.4228 H   0  0  0  0  0  0  0  0  0  0  0  0
    6.3872   -1.5812   -2.3116 H   0  0  0  0  0  0  0  0  0  0  0  0
   -4.4906    2.8741   -1.2352 H   0  0  0  0  0  0  0  0  0  0  0  0
   -5.8155    2.3600   -2.2182 H   0  0  0  0  0  0  0  0  0  0  0  0
  1 15  2  0  0  0  0
  2 18  2  0  0  0  0
  3 19  2  0  0  0  0
  4 20  2  0  0  0  0
  5 21  2  0  0  0  0
  6 12  1  0  0  0  0
  6 15  1  0  0  0  0
  6 29  1  0  0  0  0
  7 11  1  0  0  0  0
  7 20  1  0  0  0  0
  7 34  1  0  0  0  0
  8 18  1  0  0  0  0
  8 35  1  0  0  0  0
  8 36  1  0  0  0  0
  9 19  1  0  0  0  0
  9 40  1  0  0  0  0
  9 41  1  0  0  0  0
 10 21  1  0  0  0  0
 10 42  1  0  0  0  0
 10 43  1  0  0  0  0
 11 13  1  0  0  0  0
 11 15  1  0  0  0  0
 11 23  1  0  0  0  0
 12 14  1  0  0  0  0
 12 18  1  0  0  0  0
 12 24  1  0  0  0  0
 13 16  1  0  0  0  0
 13 25  1  0  0  0  0
 13 26  1  0  0  0  0
 14 17  1  0  0  0  0
 14 27  1  0  0  0  0
 14 28  1  0  0  0  0
 16 19  1  0  0  0  0
 16 30  1  0  0  0  0
 16 31  1  0  0  0  0
 17 21  1  0  0  0  0
 17 32  1  0  0  0  0
 17 33  1  0  0  0  0
 20 22  1  0  0  0  0
 22 37  1  0  0  0  0
 22 38  1  0  0  0  0
 22 39  1  0  0  0  0
M  END
> <PUBCHEM_COMPOUND_CID>
129914

> <PUBCHEM_CONFORMER_RMSD>
1

> <PUBCHEM_CONFORMER_DIVERSEORDER>
1
218
211
23
144
217
89
75
155
18
83
159
64
166
41
132
10
12
46
137
70
97
147
79
136
78
210
198
130
16
154
178
116
206
171
153
34
188
85
48
106
182
215
134
67
185
39
163
183
118
90
133
63
68
212
173
81
15
80
29
99
197
208
101
107
117
131
214
115
150
55
57
32
66
168
170
47
105
176
114
127
49
122
205
31
193
76
129
77
200
62
6
93
187
191
86
72
7
207
96
125
108
143
4
88
123
104
8
203
14
161
169
142
44
82
94
164
27
59
30
103
74
216
110
141
13
113
180
100
111
35
186
204
69
51
43
145
40
162
50
54
199
58
121
167
138
157
179
172
102
201
26
71
194
165
196
17
25
112
45
61
120
65
148
209
22
140
202
84
181
9
124
56
146
177
21
135
174
38
156
195
52
36
5
190
119
24
149
37
53
184
160
28
60
126
175
95
189
87
11
151
92
158
73
42
152
3
91
98
213
20
33
128
192
19
139
109
2

> <PUBCHEM_MMFF94_PARTIAL_CHARGES>
28
1 -0.57
10 -0.8
11 0.36
12 0.36
15 0.57
16 0.06
17 0.06
18 0.57
19 0.57
2 -0.57
20 0.57
21 0.57
22 0.06
29 0.37
3 -0.57
34 0.37
35 0.37
36 0.37
4 -0.57
40 0.37
41 0.37
42 0.37
43 0.37
5 -0.57
6 -0.73
7 -0.73
8 -0.8
9 -0.8

> <PUBCHEM_EFFECTIVE_ROTOR_COUNT>
12

> <PUBCHEM_PHARMACOPHORE_FEATURES>
10
1 1 acceptor
1 10 donor
1 2 acceptor
1 3 acceptor
1 4 acceptor
1 5 acceptor
1 6 donor
1 7 donor
1 8 donor
1 9 donor

> <PUBCHEM_HEAVY_ATOM_COUNT>
22

> <PUBCHEM_ATOM_DEF_STEREO_COUNT>
2

> <PUBCHEM_ATOM_UDEF_STEREO_COUNT>
0

> <PUBCHEM_BOND_DEF_STEREO_COUNT>
0

> <PUBCHEM_BOND_UDEF_STEREO_COUNT>
0

> <PUBCHEM_ISOTOPIC_ATOM_COUNT>
0

> <PUBCHEM_COMPONENT_COUNT>
1

> <PUBCHEM_CACTVS_TAUTO_COUNT>
32

> <PUBCHEM_CONFORMER_ID>
0001FB7A00000001

> <PUBCHEM_MMFF94_ENERGY>
40.1306

> <PUBCHEM_FEATURE_SELFOVERLAP>
50.752

> <PUBCHEM_SHAPE_FINGERPRINT>
12553582 1 18269858453397356578
12788726 201 18122627150436208642
13083527 12 13254498877845099619
13540713 4 18192433189051464403
14251757 5 18260841362368384548
14347329 18 17313938602917482021
14508225 48 18200042737909429892
15806764 133 18189346821415860025
18186145 218 18411694405365852593
18222031 100 17560804291133547054
18915476 22 18056485190737763208
19784866 240 16559032683903059527
20645477 70 17988369281339537870
20871999 31 18339368439932670988
21069387 34 17632863026915402591
21756936 100 15140972780621171646
22182313 1 18192434292873831689
22943178 12 18192716867277858595
23557571 272 17826228781326553977
23559900 14 18272087240512149042
458136 41 17261061199056982032
6049 1 18119260690238737395
621550 34 17618794994802686363
633830 44 18268125661911141381
6442390 28 8069729824373381000
7399639 24 17547014486110630816
9709674 26 18194678387690436287

> <PUBCHEM_SHAPE_MULTIPOLES>
398.5
10.37
4.08
1.9
1.84
2.61
-0.08
-1.73
9.17
-2.16
-1.78
0.51
-0.31
4.19

> <PUBCHEM_SHAPE_SELFOVERLAP>
780.04

> <PUBCHEM_SHAPE_VOLUME>
236.5

> <PUBCHEM_COORDINATE_TYPE>
2
5
10

$$$$
