REMARK  Name = 129905127
REMARK  10 active torsions:
REMARK  status: ('A' for Active; 'I' for Inactive)
REMARK    1  A    between atoms: C_2  and  C_9
REMARK    2  A    between atoms: C_2  and  C_21
REMARK    3  A    between atoms: C_6  and  C_34
REMARK    4  A    between atoms: C_12  and  C_18
REMARK    5  A    between atoms: C_14  and  O_15
REMARK    6  A    between atoms: C_18  and  O_19
REMARK    7  A    between atoms: C_24  and  O_27
REMARK    8  A    between atoms: C_25  and  C_30
REMARK    9  A    between atoms: C_30  and  O_31
REMARK   10  A    between atoms: C_34  and  O_35
REMARK                            x       y       z     vdW  Elec       q    Type
REMARK                         _______ _______ _______ _____ _____    ______ ____
ROOT
ATOM      1  O   UNL     1      -2.263  -4.950  -0.521  0.00  0.00    -0.286 OA
ATOM      2  C   UNL     1       0.153  -0.176   0.304  0.00  0.00    +0.000 C 
ATOM      3  C   UNL     1      -0.452  -1.358   0.099  0.00  0.00    +0.000 C 
ATOM      4  C   UNL     1      -1.905  -1.457   0.144  0.00  0.00    +0.010 C 
ATOM      5  C   UNL     1       0.340  -2.547  -0.167  0.00  0.00    +0.003 C 
ATOM      6  C   UNL     1      -2.524  -2.630  -0.057  0.00  0.00    +0.114 C 
ATOM      7  C   UNL     1      -0.245  -3.734  -0.372  0.00  0.00    +0.042 C 
ATOM      8  C   UNL     1      -1.727  -3.862  -0.333  0.00  0.00    +0.202 C 
ENDROOT
BRANCH   2   9
ATOM      9  C   UNL     1      -0.698   1.012   0.573  0.00  0.00    +0.000 C 
ATOM     10  C   UNL     1      -1.146   1.803  -0.485  0.00  0.00    +0.009 C 
ATOM     11  C   UNL     1      -1.047   1.339   1.883  0.00  0.00    +0.003 C 
ATOM     12  C   UNL     1      -1.943   2.920  -0.233  0.00  0.00    +0.109 C 
ATOM     13  C   UNL     1      -1.843   2.455   2.136  0.00  0.00    +0.037 C 
ATOM     14  C   UNL     1      -2.292   3.246   1.078  0.00  0.00    +0.140 C 
BRANCH  14  15
ATOM     15  O   UNL     1      -3.068   4.333   1.345  0.00  0.00    -0.505 OA
ATOM     16  H   UNL     1      -3.376   4.873   0.644  0.00  0.00    +0.292 HD
ENDBRANCH  14  15
BRANCH  12  18
ATOM     17  O   UNL     1      -2.630   4.944  -1.308  0.00  0.00    -0.245 OA
ATOM     18  C   UNL     1      -2.401   3.732  -1.352  0.00  0.00    +0.341 C 
BRANCH  18  19
ATOM     19  O   UNL     1      -2.557   3.005  -2.491  0.00  0.00    -0.477 OA
ATOM     20  H   UNL     1      -2.374   2.086  -2.489  0.00  0.00    +0.295 HD
ENDBRANCH  18  19
ENDBRANCH  12  18
ENDBRANCH   2   9
BRANCH   2  21
ATOM     21  C   UNL     1       1.637  -0.127   0.250  0.00  0.00    +0.003 C 
ATOM     22  C   UNL     1       2.285   0.129  -0.958  0.00  0.00    +0.037 C 
ATOM     23  C   UNL     1       2.383  -0.335   1.411  0.00  0.00    +0.000 C 
ATOM     24  C   UNL     1       3.678   0.177  -1.007  0.00  0.00    +0.140 C 
ATOM     25  C   UNL     1       4.424  -0.031   0.153  0.00  0.00    +0.109 C 
ATOM     26  C   UNL     1       3.776  -0.287   1.362  0.00  0.00    +0.009 C 
BRANCH  24  27
ATOM     27  O   UNL     1       4.292   0.426  -2.198  0.00  0.00    -0.505 OA
ATOM     28  H   UNL     1       3.779   0.564  -2.970  0.00  0.00    +0.292 HD
ENDBRANCH  24  27
BRANCH  25  30
ATOM     29  O   UNL     1       6.583  -0.294  -0.844  0.00  0.00    -0.245 OA
ATOM     30  C   UNL     1       5.879   0.010   0.124  0.00  0.00    +0.341 C 
BRANCH  30  31
ATOM     31  O   UNL     1       6.410   0.429   1.304  0.00  0.00    -0.477 OA
ATOM     32  H   UNL     1       5.846   0.652   2.019  0.00  0.00    +0.295 HD
ENDBRANCH  30  31
ENDBRANCH  25  30
ENDBRANCH   2  21
BRANCH   6  34
ATOM     33  O   UNL     1      -4.696  -1.692  -0.287  0.00  0.00    -0.245 OA
ATOM     34  C   UNL     1      -3.988  -2.638   0.008  0.00  0.00    +0.341 C 
BRANCH  34  35
ATOM     35  O   UNL     1      -4.415  -3.842   0.440  0.00  0.00    -0.477 OA
ATOM     36  H   UNL     1      -3.794  -4.513   0.645  0.00  0.00    +0.295 HD
ENDBRANCH  34  35
ENDBRANCH   6  34
TORSDOF 10
