REMARK  Name = 129982
REMARK  10 active torsions:
REMARK  status: ('A' for Active; 'I' for Inactive)
REMARK    1  A    between atoms: C_3  and  N_10
REMARK    2  A    between atoms: C_4  and  C_21
REMARK    3  A    between atoms: C_21  and  O_22
REMARK    4  A    between atoms: O_22  and  C_23
REMARK    5  A    between atoms: C_23  and  C_24
REMARK    6  A    between atoms: C_24  and  C_25
REMARK    7  A    between atoms: C_25  and  C_26
REMARK    8  A    between atoms: C_26  and  C_27
REMARK    9  A    between atoms: C_27  and  C_29
REMARK   10  A    between atoms: C_29  and  O_30
REMARK                            x       y       z     vdW  Elec       q    Type
REMARK                         _______ _______ _______ _____ _____    ______ ____
ROOT
ATOM      1  O   UNL     1      -0.679   0.664  -1.131  0.00  0.00    -0.330 OA
ATOM      2  O   UNL     1      -1.297   3.105   1.363  0.00  0.00    -0.287 OA
ATOM      3  C   UNL     1      -1.238   1.024   0.122  0.00  0.00    +0.243 C 
ATOM      4  C   UNL     1       0.750   0.591  -1.149  0.00  0.00    +0.169 C 
ATOM      5  C   UNL     1      -0.667   2.335   0.642  0.00  0.00    +0.216 C 
ATOM      6  C   UNL     1       1.385   1.795  -0.514  0.00  0.00    +0.009 C 
ATOM      7  C   UNL     1       0.739   2.638   0.298  0.00  0.00    +0.039 C 
ENDROOT
BRANCH   3  10
ATOM      8  O   UNL     1      -7.135   0.509  -0.398  0.00  0.00    -0.268 OA
ATOM      9  O   UNL     1      -4.527  -3.243   0.719  0.00  0.00    -0.252 OA
ATOM     10  N   UNL     1      -2.695   1.093  -0.050  0.00  0.00    -0.203 NA
ATOM     11  N   UNL     1      -3.436  -1.213   0.384  0.00  0.00    -0.245 N 
ATOM     12  N   UNL     1      -5.846  -1.390   0.163  0.00  0.00    -0.208 N 
ATOM     13  N   UNL     1      -4.669   2.046  -0.475  0.00  0.00    -0.249 NA
ATOM     14  C   UNL     1      -3.634   0.112   0.067  0.00  0.00    +0.187 C 
ATOM     15  C   UNL     1      -4.829   0.716  -0.196  0.00  0.00    +0.143 C 
ATOM     16  C   UNL     1      -3.369   2.243  -0.379  0.00  0.00    +0.204 C 
ATOM     17  C   UNL     1      -6.055  -0.023  -0.164  0.00  0.00    +0.272 C 
ATOM     18  C   UNL     1      -4.586  -2.039   0.444  0.00  0.00    +0.315 C 
ATOM     19  C   UNL     1      -2.104  -1.742   0.645  0.00  0.00    +0.118 C 
ATOM     20  C   UNL     1      -7.024  -2.248   0.227  0.00  0.00    +0.125 C 
ENDBRANCH   3  10
BRANCH   4  21
ATOM     21  C   UNL     1       1.238  -0.713  -0.526  0.00  0.00    +0.176 C 
BRANCH  21  22
ATOM     22  O   UNL     1       2.639  -0.804  -0.709  0.00  0.00    -0.351 OA
BRANCH  22  23
ATOM     23  C   UNL     1       3.168  -2.001  -0.150  0.00  0.00    +0.142 C 
BRANCH  23  24
ATOM     24  C   UNL     1       4.665  -2.088  -0.422  0.00  0.00    +0.032 C 
BRANCH  24  25
ATOM     25  C   UNL     1       5.489  -0.945   0.182  0.00  0.00    +0.003 C 
BRANCH  25  26
ATOM     26  C   UNL     1       6.983  -0.958  -0.152  0.00  0.00    +0.012 C 
BRANCH  26  27
ATOM     27  C   UNL     1       7.764   0.173   0.517  0.00  0.00    +0.109 C 
BRANCH  27  29
ATOM     28  O   UNL     1       9.785  -0.780  -0.452  0.00  0.00    -0.250 OA
ATOM     29  C   UNL     1       9.247   0.073   0.239  0.00  0.00    +0.314 C 
BRANCH  29  30
ATOM     30  O   UNL     1       9.935   1.070   0.856  0.00  0.00    -0.480 OA
ATOM     31  H   UNL     1       9.479   1.702   1.377  0.00  0.00    +0.295 HD
ENDBRANCH  29  30
ENDBRANCH  27  29
ENDBRANCH  26  27
ENDBRANCH  25  26
ENDBRANCH  24  25
ENDBRANCH  23  24
ENDBRANCH  22  23
ENDBRANCH  21  22
ENDBRANCH   4  21
TORSDOF 10
