REMARK  Name = 12997926
REMARK  6 active torsions:
REMARK  status: ('A' for Active; 'I' for Inactive)
REMARK    1  A    between atoms: N_1  and  C1*_20
REMARK    2  A    between atoms: N_5  and  C_12
REMARK    3  A    between atoms: C2*_19  and  O2*_23
REMARK    4  A    between atoms: C3*_21  and  O3*_25
REMARK    5  A    between atoms: C4*_22  and  C5*_27
REMARK    6  A    between atoms: C5*_27  and  O5*_28
REMARK                            x       y       z     vdW  Elec       q    Type
REMARK                         _______ _______ _______ _____ _____    ______ ____
ROOT
ATOM      1  N   UNL     1      -1.362   0.747  -0.128  0.00  0.00    -0.236 N 
ATOM      2  N   UNL     1      -1.585   2.963  -0.020  0.00  0.00    -0.240 NA
ATOM      3  N   UNL     1       1.060   0.569  -0.077  0.00  0.00    -0.311 NA
ATOM      4  N   UNL     1       2.108   2.769   0.062  0.00  0.00    -0.311 NA
ATOM      5  N   UNL     1       3.387   0.807  -0.005  0.00  0.00    -0.238 N 
ATOM      6  C   UNL     1      -0.094   1.252  -0.070  0.00  0.00    +0.221 C 
ATOM      7  C   UNL     1      -2.222   1.813  -0.095  0.00  0.00    +0.224 C 
ATOM      8  C   UNL     1      -0.254   2.627  -0.004  0.00  0.00    +0.167 C 
ATOM      9  C   UNL     1       0.906   3.393   0.064  0.00  0.00    +0.212 C 
ATOM     10  C   UNL     1       2.111   1.415  -0.007  0.00  0.00    +0.206 C 
ATOM     11  H   UNL     1       4.132   1.449   0.047  0.00  0.00    +0.166 HD
ATOM     12  N   UNL     1       0.837   4.795   0.135  0.00  0.00    -0.331 N 
ATOM     13  H   UNL     1       1.665   5.327   0.183  0.00  0.00    +0.145 HD
ATOM     14  H   UNL     1      -0.038   5.246   0.137  0.00  0.00    +0.145 HD
ENDROOT
BRANCH   5  15
ATOM     15  C   UNL     1       3.800  -0.536  -0.062  0.00  0.00    +0.058 C 
ATOM     16  C   UNL     1       5.021  -0.870  -0.652  0.00  0.00    +0.015 C 
ATOM     17  C   UNL     1       2.991  -1.542   0.472  0.00  0.00    +0.015 C 
ATOM     18  C   UNL     1       5.430  -2.202  -0.709  0.00  0.00    +0.001 C 
ATOM     19  C   UNL     1       3.400  -2.874   0.415  0.00  0.00    +0.001 C 
ATOM     20  C   UNL     1       4.620  -3.204  -0.176  0.00  0.00    +0.000 C 
ENDBRANCH   5  15
BRANCH   1  23
ATOM     21  O4* UNL     1      -2.934  -0.796  -1.004  0.00  0.00    -0.333 OA
ATOM     22  C2* UNL     1      -2.013  -1.305   1.154  0.00  0.00    +0.187 C 
ATOM     23  C1* UNL     1      -1.741  -0.665  -0.210  0.00  0.00    +0.226 C 
ATOM     24  C3* UNL     1      -3.510  -1.552   1.156  0.00  0.00    +0.171 C 
ATOM     25  C4* UNL     1      -3.824  -1.699  -0.328  0.00  0.00    +0.175 C 
BRANCH  22  26
ATOM     26  O2* UNL     1      -1.314  -2.545   1.243  0.00  0.00    -0.378 OA
ATOM     27  H2* UNL     1      -0.359  -2.379   1.241  0.00  0.00    +0.211 HD
ENDBRANCH  22  26
BRANCH  24  28
ATOM     28  O3* UNL     1      -4.177  -0.419   1.698  0.00  0.00    -0.379 OA
ATOM     29  H3* UNL     1      -3.966  -0.340   2.642  0.00  0.00    +0.211 HD
ENDBRANCH  24  28
BRANCH  25  30
ATOM     30  C5* UNL     1      -5.255  -1.385  -0.726  0.00  0.00    +0.169 C 
BRANCH  30  31
ATOM     31  O5* UNL     1      -5.388  -1.556  -2.128  0.00  0.00    -0.379 OA
ATOM     32  H5* UNL     1      -6.300  -1.358  -2.392  0.00  0.00    +0.211 HD
ENDBRANCH  30  31
ENDBRANCH  25  30
ENDBRANCH   1  23
TORSDOF 6
