REMARK  Name = 129903012
REMARK  10 active torsions:
REMARK  status: ('A' for Active; 'I' for Inactive)
REMARK    1  A    between atoms: C_2  and  C_3
REMARK    2  A    between atoms: C_2  and  O_18
REMARK    3  A    between atoms: C_5  and  O_10
REMARK    4  A    between atoms: C_6  and  C_15
REMARK    5  A    between atoms: C_8  and  O_12
REMARK    6  A    between atoms: C_15  and  O_16
REMARK    7  A    between atoms: O_18  and  C_20
REMARK    8  A    between atoms: C_22  and  C_30
REMARK    9  A    between atoms: C_23  and  O_27
REMARK   10  A    between atoms: C_30  and  O_31
REMARK                            x       y       z     vdW  Elec       q    Type
REMARK                         _______ _______ _______ _____ _____    ______ ____
ROOT
ATOM      1  O   UNL     1       0.212   0.885  -1.595  0.00  0.00    -0.244 OA
ATOM      2  C   UNL     1       0.794   0.518  -0.568  0.00  0.00    +0.348 C 
ENDROOT
BRANCH   2   3
ATOM      3  C   UNL     1       2.237   0.601  -0.369  0.00  0.00    +0.106 C 
ATOM      4  C   UNL     1       2.881   1.837  -0.418  0.00  0.00    -0.010 C 
ATOM      5  C   UNL     1       2.973  -0.560  -0.129  0.00  0.00    +0.149 C 
ATOM      6  C   UNL     1       4.353  -0.484   0.061  0.00  0.00    +0.143 C 
ATOM      7  C   UNL     1       4.261   1.913  -0.227  0.00  0.00    +0.033 C 
ATOM      8  C   UNL     1       4.996   0.753   0.013  0.00  0.00    +0.142 C 
ATOM      9  C   UNL     1       2.119   3.097  -0.673  0.00  0.00    +0.031 C 
BRANCH   5  10
ATOM     10  O   UNL     1       2.343  -1.770  -0.082  0.00  0.00    -0.505 OA
ATOM     11  H   UNL     1       1.417  -1.821  -0.210  0.00  0.00    +0.292 HD
ENDBRANCH   5  10
BRANCH   8  12
ATOM     12  O   UNL     1       6.344   0.850   0.196  0.00  0.00    -0.505 OA
ATOM     13  H   UNL     1       6.851   0.079   0.358  0.00  0.00    +0.292 HD
ENDBRANCH   8  12
BRANCH   6  15
ATOM     14  O   UNL     1       4.956  -2.463   1.262  0.00  0.00    -0.245 OA
ATOM     15  C   UNL     1       5.125  -1.696   0.312  0.00  0.00    +0.344 C 
BRANCH  15  16
ATOM     16  O   UNL     1       6.078  -1.905  -0.634  0.00  0.00    -0.477 OA
ATOM     17  H   UNL     1       6.177  -1.300  -1.342  0.00  0.00    +0.295 HD
ENDBRANCH  15  16
ENDBRANCH   6  15
ENDBRANCH   2   3
BRANCH   2  18
ATOM     18  O   UNL     1       0.172  -0.039   0.545  0.00  0.00    -0.421 OA
BRANCH  18  20
ATOM     19  C   UNL     1      -2.054   0.887   0.836  0.00  0.00    +0.047 C 
ATOM     20  C   UNL     1      -1.216  -0.149   0.423  0.00  0.00    +0.147 C 
ATOM     21  C   UNL     1      -3.144  -1.442  -0.247  0.00  0.00    -0.010 C 
ATOM     22  C   UNL     1      -3.982  -0.406   0.165  0.00  0.00    +0.105 C 
ATOM     23  C   UNL     1      -3.437   0.758   0.707  0.00  0.00    +0.138 C 
ATOM     24  C   UNL     1      -1.761  -1.314  -0.118  0.00  0.00    +0.033 C 
ATOM     25  C   UNL     1      -1.467   2.134   1.414  0.00  0.00    +0.037 C 
ATOM     26  C   UNL     1      -3.698  -2.701  -0.831  0.00  0.00    +0.031 C 
BRANCH  23  27
ATOM     27  O   UNL     1      -4.253   1.775   1.110  0.00  0.00    -0.506 OA
ATOM     28  H   UNL     1      -3.885   2.556   1.473  0.00  0.00    +0.292 HD
ENDBRANCH  23  27
BRANCH  22  30
ATOM     29  O   UNL     1      -6.102  -1.418   0.570  0.00  0.00    -0.245 OA
ATOM     30  C   UNL     1      -5.428  -0.535   0.029  0.00  0.00    +0.344 C 
BRANCH  30  31
ATOM     31  O   UNL     1      -5.943   0.446  -0.771  0.00  0.00    -0.441 OA
ATOM     32  C   UNL     1      -7.359   0.426  -0.982  0.00  0.00    +0.256 C 
ENDBRANCH  30  31
ENDBRANCH  22  30
ENDBRANCH  18  20
ENDBRANCH   2  18
TORSDOF 10
