129985
  -OEChem-03292013323D

 55 57  0     1  0  0  0  0  0999 V2000
   -0.7086    1.3142   -1.0422 O   0  0  0  0  0  0  0  0  0  0  0  0
    2.9135    0.8839   -0.7111 O   0  0  0  0  0  0  0  0  0  0  0  0
   -1.9971    3.2228    1.6523 O   0  0  0  0  0  0  0  0  0  0  0  0
   -6.7998   -0.8575   -0.3979 O   0  0  0  0  0  0  0  0  0  0  0  0
   -3.1584   -3.7232    0.4099 O   0  0  0  0  0  0  0  0  0  0  0  0
   10.9414   -1.9770    0.5700 O   0  0  0  0  0  0  0  0  0  0  0  0
   -2.7410    1.0143    0.0503 N   0  0  0  0  0  0  0  0  0  0  0  0
   -2.7408   -1.4366    0.2688 N   0  0  0  0  0  0  0  0  0  0  0  0
   -4.9865   -2.3165    0.0059 N   0  0  0  0  0  0  0  0  0  0  0  0
   -4.9177    1.3558   -0.3101 N   0  0  0  0  0  0  0  0  0  0  0  0
   -1.3292    1.3755    0.2319 C   0  0  2  0  0  0  0  0  0  0  0  0
    0.6752    1.6801   -1.0504 C   0  0  2  0  0  0  0  0  0  0  0  0
   -3.3361   -0.2121    0.0695 C   0  0  0  0  0  0  0  0  0  0  0  0
    1.5459    0.5363   -0.5404 C   0  0  0  0  0  0  0  0  0  0  0  0
   -4.6624    0.0216   -0.1526 C   0  0  0  0  0  0  0  0  0  0  0  0
   -1.1750    2.7469    0.8729 C   0  0  0  0  0  0  0  0  0  0  0  0
    6.2038   -0.7821    0.0064 C   0  0  0  0  0  0  0  0  0  0  0  0
    5.2187    0.2782   -0.4813 C   0  0  0  0  0  0  0  0  0  0  0  0
    0.9253    2.9590   -0.3032 C   0  0  0  0  0  0  0  0  0  0  0  0
   -3.7374    1.9290   -0.1823 C   0  0  0  0  0  0  0  0  0  0  0  0
    3.7755   -0.1480   -0.2518 C   0  0  0  0  0  0  0  0  0  0  0  0
    7.6514   -0.3290   -0.1893 C   0  0  0  0  0  0  0  0  0  0  0  0
    0.0678    3.4915    0.5725 C   0  0  0  0  0  0  0  0  0  0  0  0
   -5.6059   -1.0550   -0.2003 C   0  0  0  0  0  0  0  0  0  0  0  0
   -3.5845   -2.5746    0.2422 C   0  0  0  0  0  0  0  0  0  0  0  0
    8.6364   -1.4030    0.2673 C   0  0  0  0  0  0  0  0  0  0  0  0
   -1.3065   -1.5575    0.4973 C   0  0  0  0  0  0  0  0  0  0  0  0
   -5.8474   -3.4942   -0.0199 C   0  0  0  0  0  0  0  0  0  0  0  0
   10.0795   -0.9429    0.1155 C   0  0  0  0  0  0  0  0  0  0  0  0
   -0.8732    0.7039    0.9520 H   0  0  0  0  0  0  0  0  0  0  0  0
    0.9315    1.8679   -2.1002 H   0  0  0  0  0  0  0  0  0  0  0  0
    1.3250   -0.3753   -1.1082 H   0  0  0  0  0  0  0  0  0  0  0  0
    1.3475    0.3275    0.5176 H   0  0  0  0  0  0  0  0  0  0  0  0
    6.0262   -0.9897    1.0686 H   0  0  0  0  0  0  0  0  0  0  0  0
    6.0334   -1.7183   -0.5389 H   0  0  0  0  0  0  0  0  0  0  0  0
    5.3740    0.4797   -1.5485 H   0  0  0  0  0  0  0  0  0  0  0  0
    5.4005    1.2302    0.0332 H   0  0  0  0  0  0  0  0  0  0  0  0
    1.8547    3.4850   -0.5059 H   0  0  0  0  0  0  0  0  0  0  0  0
   -3.5634    2.9912   -0.2887 H   0  0  0  0  0  0  0  0  0  0  0  0
    7.8250    0.5947    0.3759 H   0  0  0  0  0  0  0  0  0  0  0  0
    7.8261   -0.0983   -1.2473 H   0  0  0  0  0  0  0  0  0  0  0  0
    3.6002   -0.3224    0.8163 H   0  0  0  0  0  0  0  0  0  0  0  0
    3.5663   -1.0738   -0.8003 H   0  0  0  0  0  0  0  0  0  0  0  0
    0.2626    4.4253    1.0838 H   0  0  0  0  0  0  0  0  0  0  0  0
    8.4857   -2.3261   -0.3063 H   0  0  0  0  0  0  0  0  0  0  0  0
    8.4499   -1.6678    1.3156 H   0  0  0  0  0  0  0  0  0  0  0  0
   -1.0523   -1.1686    1.4855 H   0  0  0  0  0  0  0  0  0  0  0  0
   -0.7535   -1.1100   -0.3260 H   0  0  0  0  0  0  0  0  0  0  0  0
   -1.0249   -2.6161    0.5092 H   0  0  0  0  0  0  0  0  0  0  0  0
   -6.8940   -3.2409   -0.2039 H   0  0  0  0  0  0  0  0  0  0  0  0
   -5.4959   -4.1699   -0.8062 H   0  0  0  0  0  0  0  0  0  0  0  0
   -5.7647   -4.0115    0.9413 H   0  0  0  0  0  0  0  0  0  0  0  0
   10.3131   -0.7294   -0.9324 H   0  0  0  0  0  0  0  0  0  0  0  0
   10.2684   -0.0454    0.7130 H   0  0  0  0  0  0  0  0  0  0  0  0
   11.8530   -1.6566    0.4616 H   0  0  0  0  0  0  0  0  0  0  0  0
  1 11  1  0  0  0  0
  1 12  1  0  0  0  0
  2 14  1  0  0  0  0
  2 21  1  0  0  0  0
  3 16  2  0  0  0  0
  4 24  2  0  0  0  0
  5 25  2  0  0  0  0
  6 29  1  0  0  0  0
  6 55  1  0  0  0  0
  7 11  1  0  0  0  0
  7 13  1  0  0  0  0
  7 20  1  0  0  0  0
  8 13  1  0  0  0  0
  8 25  1  0  0  0  0
  8 27  1  0  0  0  0
  9 24  1  0  0  0  0
  9 25  1  0  0  0  0
  9 28  1  0  0  0  0
 10 15  1  0  0  0  0
 10 20  2  0  0  0  0
 11 16  1  0  0  0  0
 11 30  1  0  0  0  0
 12 14  1  0  0  0  0
 12 19  1  0  0  0  0
 12 31  1  0  0  0  0
 13 15  2  0  0  0  0
 14 32  1  0  0  0  0
 14 33  1  0  0  0  0
 15 24  1  0  0  0  0
 16 23  1  0  0  0  0
 17 18  1  0  0  0  0
 17 22  1  0  0  0  0
 17 34  1  0  0  0  0
 17 35  1  0  0  0  0
 18 21  1  0  0  0  0
 18 36  1  0  0  0  0
 18 37  1  0  0  0  0
 19 23  2  0  0  0  0
 19 38  1  0  0  0  0
 20 39  1  0  0  0  0
 21 42  1  0  0  0  0
 21 43  1  0  0  0  0
 22 26  1  0  0  0  0
 22 40  1  0  0  0  0
 22 41  1  0  0  0  0
 23 44  1  0  0  0  0
 26 29  1  0  0  0  0
 26 45  1  0  0  0  0
 26 46  1  0  0  0  0
 27 47  1  0  0  0  0
 27 48  1  0  0  0  0
 27 49  1  0  0  0  0
 28 50  1  0  0  0  0
 28 51  1  0  0  0  0
 28 52  1  0  0  0  0
 29 53  1  0  0  0  0
 29 54  1  0  0  0  0
M  END
> <PUBCHEM_COMPOUND_CID>
129985

> <PUBCHEM_CONFORMER_RMSD>
1

> <PUBCHEM_CONFORMER_DIVERSEORDER>
1
41
63
113
5
52
39
109
38
107
29
103
62
70
118
7
25
35
93
69
75
6
112
37
15
91
65
64
71
77
115
100
76
117
11
105
90
88
26
116
59
82
13
66
19
94
83
44
102
96
68
48
30
86
23
42
84
21
114
54
58
61
101
2
53
89
20
79
50
56
14
51
36
108
22
16
67
98
33
32
3
40
10
28
27
111
87
92
45
12
99
95
80
55
34
85
73
8
24
110
60
81
31
4
18
9
43
74
97
49
104
72
47
106
17
57
78
46

> <PUBCHEM_MMFF94_PARTIAL_CHARGES>
29
1 -0.56
10 -0.57
11 0.6
12 0.42
13 -0.09
14 0.28
15 0.14
16 0.49
19 -0.29
2 -0.56
20 0.04
21 0.28
23 -0.14
24 0.72
25 0.69
27 0.3
28 0.3
29 0.28
3 -0.57
38 0.15
39 0.15
4 -0.57
44 0.15
5 -0.57
55 0.4
6 -0.68
7 0.05
8 -0.42
9 -0.42

> <PUBCHEM_EFFECTIVE_ROTOR_COUNT>
9.6

> <PUBCHEM_PHARMACOPHORE_FEATURES>
12
1 1 acceptor
1 2 acceptor
1 3 acceptor
1 4 acceptor
1 5 acceptor
1 6 acceptor
1 6 donor
3 7 10 20 cation
4 17 18 22 26 hydrophobe
5 7 10 13 15 20 rings
6 1 11 12 16 19 23 rings
6 8 9 13 15 24 25 rings

> <PUBCHEM_HEAVY_ATOM_COUNT>
29

> <PUBCHEM_ATOM_DEF_STEREO_COUNT>
2

> <PUBCHEM_ATOM_UDEF_STEREO_COUNT>
0

> <PUBCHEM_BOND_DEF_STEREO_COUNT>
0

> <PUBCHEM_BOND_UDEF_STEREO_COUNT>
0

> <PUBCHEM_ISOTOPIC_ATOM_COUNT>
0

> <PUBCHEM_COMPONENT_COUNT>
1

> <PUBCHEM_CACTVS_TAUTO_COUNT>
2

> <PUBCHEM_CONFORMER_ID>
0001FBC100000001

> <PUBCHEM_MMFF94_ENERGY>
54.6081

> <PUBCHEM_FEATURE_SELFOVERLAP>
61.019

> <PUBCHEM_SHAPE_FINGERPRINT>
10100884 174 18334574660195486874
10165383 225 18116146681096605901
10411042 1 18339361993466100473
10693767 8 17552063423134199543
11135609 99 18410856594801329870
11315181 36 18408889508359692024
11578080 2 14332030079140437793
11963148 33 17549258585159250487
12643181 29 18409164389944002756
12838863 1 18272364330433493023
13631057 29 18409448073124558856
13974486 27 17476079026154778406
14068700 675 18333452049937764892
14394314 77 18337392621722222808
14866123 147 18342187661604810241
17492 89 17976261562690480471
17686467 74 18413101780777478672
19611394 137 18201719566277434904
21315759 40 18113904815636246820
23559900 14 18194116550561221869
23569943 247 18196377151069579667
3004659 81 18113615724780687036
335352 9 18410011062049236181
3383291 50 18410578409063634187
4280585 95 18409168805260528076
5104073 3 17916318302152938353
559249 180 18334858320776735463
59682541 35 18060411418834334616
6138700 20 18334857238255514287
9709674 26 17977949313402684741
9896288 288 18059019354676222384
9953998 17 17917150499015766296

> <PUBCHEM_SHAPE_MULTIPOLES>
541.67
24.59
4.14
0.86
82.76
0.14
0.07
-24.6
1.39
-5.63
1.02
-0.01
0.44
-0.8

> <PUBCHEM_SHAPE_SELFOVERLAP>
1131.174

> <PUBCHEM_SHAPE_VOLUME>
305.2

> <PUBCHEM_COORDINATE_TYPE>
2
5
10

$$$$
