REMARK  Name = 129974
REMARK  4 active torsions:
REMARK  status: ('A' for Active; 'I' for Inactive)
REMARK    1  A    between atoms: C_9  and  O_16
REMARK    2  A    between atoms: C_10  and  O_18
REMARK    3  A    between atoms: C_13  and  O_20
REMARK    4  A    between atoms: C_14  and  O_22
REMARK                            x       y       z     vdW  Elec       q    Type
REMARK                         _______ _______ _______ _____ _____    ______ ____
ROOT
ATOM      1  O   UNL     1      -3.847  -1.200  -0.107  0.00  0.00    -0.431 OA
ATOM      2  O   UNL     1      -3.847   1.200   0.107  0.00  0.00    -0.431 OA
ATOM      3  O   UNL     1       1.104  -2.662  -0.243  0.00  0.00    -0.283 OA
ATOM      4  O   UNL     1       1.105   2.663   0.237  0.00  0.00    -0.283 OA
ATOM      5  C   UNL     1      -0.207  -0.700  -0.063  0.00  0.00    +0.085 A 
ATOM      6  C   UNL     1      -0.207   0.701   0.063  0.00  0.00    +0.085 A 
ATOM      7  C   UNL     1      -2.588  -0.685  -0.061  0.00  0.00    +0.213 A 
ATOM      8  C   UNL     1      -2.588   0.685   0.061  0.00  0.00    +0.213 A 
ATOM      9  C   UNL     1      -1.415  -1.409  -0.126  0.00  0.00    +0.174 A 
ATOM     10  C   UNL     1      -1.416   1.409   0.126  0.00  0.00    +0.174 A 
ATOM     11  C   UNL     1       1.066  -1.442  -0.130  0.00  0.00    +0.236 C 
ATOM     12  C   UNL     1       1.066   1.442   0.129  0.00  0.00    +0.236 C 
ATOM     13  C   UNL     1       2.328  -0.666  -0.059  0.00  0.00    +0.214 C 
ATOM     14  C   UNL     1       2.329   0.666   0.060  0.00  0.00    +0.214 C 
ATOM     15  C   UNL     1      -4.640   0.000   0.002  0.00  0.00    +0.430 C 
ENDROOT
BRANCH   9  16
ATOM     16  O   UNL     1      -1.487  -2.760  -0.247  0.00  0.00    -0.503 OA
ATOM     17  H   UNL     1      -0.701  -3.269  -0.292  0.00  0.00    +0.292 HD
ENDBRANCH   9  16
BRANCH  10  18
ATOM     18  O   UNL     1      -1.487   2.761   0.246  0.00  0.00    -0.503 OA
ATOM     19  H   UNL     1      -0.701   3.269   0.292  0.00  0.00    +0.292 HD
ENDBRANCH  10  18
BRANCH  13  20
ATOM     20  O   UNL     1       3.475  -1.433  -0.130  0.00  0.00    -0.465 OA
ATOM     21  C   UNL     1       3.890  -1.831   1.162  0.00  0.00    +0.253 C 
ENDBRANCH  13  20
BRANCH  14  22
ATOM     22  O   UNL     1       3.475   1.433   0.132  0.00  0.00    -0.465 OA
ATOM     23  C   UNL     1       3.893   1.831  -1.159  0.00  0.00    +0.253 C 
ENDBRANCH  14  22
TORSDOF 4
