REMARK  Name = 129935
REMARK  6 active torsions:
REMARK  status: ('A' for Active; 'I' for Inactive)
REMARK    1  A    between atoms: C_4  and  C_13
REMARK    2  A    between atoms: C_7  and  C_10
REMARK    3  A    between atoms: C_8  and  C_17
REMARK    4  A    between atoms: C_10  and  O_11
REMARK    5  A    between atoms: C_13  and  O_15
REMARK    6  A    between atoms: C_17  and  N_18
REMARK                            x       y       z     vdW  Elec       q    Type
REMARK                         _______ _______ _______ _____ _____    ______ ____
ROOT
ATOM      1  S   UNL     1       0.282  -2.204   0.342  0.00  0.00    -0.098 S 
ATOM      2  O   UNL     1      -0.985   1.907  -0.967  0.00  0.00    -0.274 OA
ATOM      3  N   UNL     1      -0.114   0.379   0.611  0.00  0.00    -0.244 N 
ATOM      4  C   UNL     1      -1.870  -0.371  -0.209  0.00  0.00    +0.133 C 
ATOM      5  C   UNL     1      -0.862  -0.866   0.844  0.00  0.00    +0.142 C 
ATOM      6  C   UNL     1      -0.995   0.902  -0.292  0.00  0.00    +0.235 C 
ATOM      7  C   UNL     1       1.228   0.197   0.393  0.00  0.00    +0.130 C 
ATOM      8  C   UNL     1       1.633  -1.079   0.266  0.00  0.00    +0.003 C 
ENDROOT
BRANCH   7  10
ATOM      9  O   UNL     1       3.075   1.429  -0.458  0.00  0.00    -0.244 OA
ATOM     10  C   UNL     1       2.087   1.371   0.256  0.00  0.00    +0.352 C 
BRANCH  10  11
ATOM     11  O   UNL     1       1.621   2.370   1.036  0.00  0.00    -0.476 OA
ATOM     12  H   UNL     1       0.852   2.240   1.555  0.00  0.00    +0.295 HD
ENDBRANCH  10  11
ENDBRANCH   7  10
BRANCH   4  13
ATOM     13  C   UNL     1      -3.311  -0.116   0.171  0.00  0.00    +0.122 C 
ATOM     14  C   UNL     1      -4.004   0.764  -0.862  0.00  0.00    +0.032 C 
BRANCH  13  15
ATOM     15  O   UNL     1      -4.004  -1.360   0.264  0.00  0.00    -0.384 OA
ATOM     16  H   UNL     1      -3.567  -1.925   0.921  0.00  0.00    +0.210 HD
ENDBRANCH  13  15
ENDBRANCH   4  13
BRANCH   8  17
ATOM     17  C   UNL     1       3.001  -1.617   0.013  0.00  0.00    -0.051 C 
BRANCH  17  18
ATOM     18  N   UNL     1       3.218  -1.707  -1.406  0.00  0.00    +0.384 N 
ATOM     19  H   UNL     1       4.153  -2.075  -1.584  0.00  0.00    -0.089 HD
ATOM     20  H   UNL     1       3.132  -0.780  -1.823  0.00  0.00    -0.089 HD
ATOM     21  H   UNL     1       2.523  -2.331  -1.817  0.00  0.00    -0.089 HD
ENDBRANCH  17  18
ENDBRANCH   8  17
TORSDOF 6
