REMARK  Name = 129914
REMARK  10 active torsions:
REMARK  status: ('A' for Active; 'I' for Inactive)
REMARK    1  A    between atoms: N_2  and  C_18
REMARK    2  A    between atoms: C_3  and  C_5
REMARK    3  A    between atoms: C_5  and  N_7
REMARK    4  A    between atoms: C_5  and  C_11
REMARK    5  A    between atoms: C_11  and  C_12
REMARK    6  A    between atoms: C_12  and  C_15
REMARK    7  A    between atoms: C_18  and  C_21
REMARK    8  A    between atoms: C_18  and  C_24
REMARK    9  A    between atoms: C_24  and  C_25
REMARK   10  A    between atoms: C_25  and  C_28
REMARK                            x       y       z     vdW  Elec       q    Type
REMARK                         _______ _______ _______ _____ _____    ______ ____
ROOT
ATOM      1  O   UNL     1       0.307   0.113   2.203  0.00  0.00    -0.273 OA
ATOM      2  N   UNL     1      -0.760  -0.411   0.208  0.00  0.00    -0.297 N 
ATOM      3  C   UNL     1       0.283   0.090   0.974  0.00  0.00    +0.241 C 
ATOM      4  H   UNL     1      -0.676  -0.381  -0.773  0.00  0.00    +0.150 HD
ENDROOT
BRANCH   3   5
ATOM      5  C   UNL     1       1.446   0.570   0.112  0.00  0.00    +0.149 C 
BRANCH   5   7
ATOM      6  O   UNL     1       0.682   3.365  -0.059  0.00  0.00    -0.275 OA
ATOM      7  N   UNL     1       2.051   1.685   0.794  0.00  0.00    -0.298 N 
ATOM      8  C   UNL     1       1.615   2.994   0.649  0.00  0.00    +0.223 C 
ATOM      9  C   UNL     1       2.405   3.958   1.493  0.00  0.00    +0.095 C 
ATOM     10  H   UNL     1       2.812   1.510   1.393  0.00  0.00    +0.150 HD
ENDBRANCH   5   7
BRANCH   5  11
ATOM     11  C   UNL     1       2.441  -0.573  -0.125  0.00  0.00    +0.039 C 
BRANCH  11  12
ATOM     12  C   UNL     1       3.628  -0.173  -1.003  0.00  0.00    +0.087 C 
BRANCH  12  15
ATOM     13  O   UNL     1       4.469  -2.442  -0.808  0.00  0.00    -0.275 OA
ATOM     14  N   UNL     1       5.657  -0.924  -2.060  0.00  0.00    -0.329 N 
ATOM     15  C   UNL     1       4.597  -1.311  -1.267  0.00  0.00    +0.219 C 
ATOM     16  H   UNL     1       6.354  -1.575  -2.302  0.00  0.00    +0.145 HD
ATOM     17  H   UNL     1       5.715   0.004  -2.385  0.00  0.00    +0.145 HD
ENDBRANCH  12  15
ENDBRANCH  11  12
ENDBRANCH   5  11
ENDBRANCH   3   5
BRANCH   2  18
ATOM     18  C   UNL     1      -1.963  -0.976   0.777  0.00  0.00    +0.149 C 
BRANCH  18  21
ATOM     19  O   UNL     1      -0.978  -3.154   0.342  0.00  0.00    -0.274 OA
ATOM     20  N   UNL     1      -2.365  -2.920   2.158  0.00  0.00    -0.327 N 
ATOM     21  C   UNL     1      -1.689  -2.448   1.052  0.00  0.00    +0.237 C 
ATOM     22  H   UNL     1      -2.264  -3.860   2.432  0.00  0.00    +0.145 HD
ATOM     23  H   UNL     1      -2.948  -2.316   2.673  0.00  0.00    +0.145 HD
ENDBRANCH  18  21
BRANCH  18  24
ATOM     24  C   UNL     1      -3.168  -0.821  -0.159  0.00  0.00    +0.039 C 
BRANCH  24  25
ATOM     25  C   UNL     1      -3.522   0.636  -0.465  0.00  0.00    +0.087 C 
BRANCH  25  28
ATOM     26  O   UNL     1      -5.368  -0.155  -1.828  0.00  0.00    -0.275 OA
ATOM     27  N   UNL     1      -5.032   2.109  -1.624  0.00  0.00    -0.329 N 
ATOM     28  C   UNL     1      -4.735   0.788  -1.363  0.00  0.00    +0.219 C 
ATOM     29  H   UNL     1      -5.800   2.337  -2.196  0.00  0.00    +0.145 HD
ATOM     30  H   UNL     1      -4.477   2.824  -1.238  0.00  0.00    +0.145 HD
ENDBRANCH  25  28
ENDBRANCH  24  25
ENDBRANCH  18  24
ENDBRANCH   2  18
TORSDOF 10
