REMARK  Name = 129905
REMARK  7 active torsions:
REMARK  status: ('A' for Active; 'I' for Inactive)
REMARK    1  A    between atoms: N_2  and  C_14
REMARK    2  A    between atoms: C_14  and  O_15
REMARK    3  A    between atoms: O_15  and  C_16
REMARK    4  A    between atoms: C_16  and  C_17
REMARK    5  A    between atoms: C_16  and  C_20
REMARK    6  A    between atoms: C_17  and  O_18
REMARK    7  A    between atoms: C_20  and  O_21
REMARK                            x       y       z     vdW  Elec       q    Type
REMARK                         _______ _______ _______ _____ _____    ______ ____
ROOT
ATOM      1 BR   UNL     1      -3.278  -2.941  -0.046  0.00  0.00    -0.051 Br
ATOM      2  N   UNL     1      -0.071  -0.567  -0.724  0.00  0.00    -0.248 N 
ATOM      3  N   UNL     1      -0.663   1.714  -0.216  0.00  0.00    -0.233 NA
ATOM      4  N   UNL     1      -2.964   1.951   0.545  0.00  0.00    -0.234 NA
ATOM      5  C   UNL     1      -0.945   0.403  -0.311  0.00  0.00    +0.122 C 
ATOM      6  C   UNL     1      -2.156  -0.209  -0.015  0.00  0.00    +0.137 C 
ATOM      7  C   UNL     1      -0.696  -1.787  -0.699  0.00  0.00    +0.071 C 
ATOM      8  C   UNL     1      -1.990  -1.596  -0.263  0.00  0.00    +0.041 C 
ATOM      9  C   UNL     1      -3.185   0.622   0.427  0.00  0.00    +0.110 C 
ATOM     10  C   UNL     1      -1.734   2.409   0.221  0.00  0.00    +0.252 C 
ATOM     11  N   UNL     1      -4.454   0.114   0.757  0.00  0.00    -0.346 N 
ATOM     12  H   UNL     1      -5.163   0.723   1.067  0.00  0.00    +0.143 HD
ATOM     13  H   UNL     1      -4.634  -0.851   0.678  0.00  0.00    +0.143 HD
ENDROOT
BRANCH   2  14
ATOM     14  C   UNL     1       1.301  -0.351  -1.128  0.00  0.00    +0.245 C 
BRANCH  14  15
ATOM     15  O   UNL     1       2.111  -0.468   0.034  0.00  0.00    -0.331 OA
BRANCH  15  16
ATOM     16  C   UNL     1       3.488  -0.297  -0.274  0.00  0.00    +0.175 C 
BRANCH  16  17
ATOM     17  C   UNL     1       4.279  -0.437   1.020  0.00  0.00    +0.169 C 
BRANCH  17  18
ATOM     18  O   UNL     1       4.038  -1.727   1.572  0.00  0.00    -0.379 OA
ATOM     19  H   UNL     1       4.539  -1.824   2.397  0.00  0.00    +0.211 HD
ENDBRANCH  17  18
ENDBRANCH  16  17
BRANCH  16  20
ATOM     20  C   UNL     1       3.682   1.079  -0.900  0.00  0.00    +0.169 C 
BRANCH  20  21
ATOM     21  O   UNL     1       3.238   2.087   0.001  0.00  0.00    -0.379 OA
ATOM     22  H   UNL     1       3.364   2.960  -0.403  0.00  0.00    +0.211 HD
ENDBRANCH  20  21
ENDBRANCH  16  20
ENDBRANCH  15  16
ENDBRANCH  14  15
ENDBRANCH   2  14
TORSDOF 7
