REMARK  Name = 130048
REMARK  4 active torsions:
REMARK  status: ('A' for Active; 'I' for Inactive)
REMARK    1  A    between atoms: C_4  and  C_14
REMARK    2  A    between atoms: C_14  and  O_15
REMARK    3  A    between atoms: O_15  and  C_17
REMARK    4  A    between atoms: C_17  and  O_18
REMARK                            x       y       z     vdW  Elec       q    Type
REMARK                         _______ _______ _______ _____ _____    ______ ____
ROOT
ATOM      1  O   UNL     1      -3.331  -1.974   0.645  0.00  0.00    -0.266 OA
ATOM      2  N   UNL     1      -2.934   0.881  -1.196  0.00  0.00    -0.300 N 
ATOM      3  N   UNL     1      -3.642  -0.252  -0.928  0.00  0.00    -0.266 N 
ATOM      4  C   UNL     1       0.515   0.430   1.193  0.00  0.00    +0.105 C 
ATOM      5  C   UNL     1       0.168   1.869   0.761  0.00  0.00    +0.018 C 
ATOM      6  C   UNL     1      -0.730  -0.449   1.420  0.00  0.00    +0.044 C 
ATOM      7  C   UNL     1      -0.768   1.944  -0.460  0.00  0.00    +0.045 C 
ATOM      8  C   UNL     1      -1.800  -0.134   0.447  0.00  0.00    +0.048 A 
ATOM      9  C   UNL     1      -1.833   0.909  -0.392  0.00  0.00    +0.050 A 
ATOM     10  C   UNL     1      -3.006  -0.931   0.106  0.00  0.00    +0.269 A 
ATOM     11  H   UNL     1      -3.178   1.566  -1.859  0.00  0.00    +0.186 HD
ATOM     12  H   UNL     1      -4.463  -0.541  -1.388  0.00  0.00    +0.190 HD
ENDROOT
BRANCH   4  14
ATOM     13  O   UNL     1       1.031  -0.864  -0.767  0.00  0.00    -0.250 OA
ATOM     14  C   UNL     1       1.428  -0.193   0.175  0.00  0.00    +0.326 C 
BRANCH  14  15
ATOM     15  O   UNL     1       2.721   0.119   0.489  0.00  0.00    -0.361 OA
BRANCH  15  17
ATOM     16  O   UNL     1       3.581  -1.050  -1.327  0.00  0.00    -0.203 OA
ATOM     17  C   UNL     1       3.701  -0.360  -0.325  0.00  0.00    +0.515 C 
BRANCH  17  18
ATOM     18  O   UNL     1       4.899   0.057   0.157  0.00  0.00    -0.449 OA
ATOM     19  H   UNL     1       5.691  -0.183  -0.284  0.00  0.00    +0.299 HD
ENDBRANCH  17  18
ENDBRANCH  15  17
ENDBRANCH  14  15
ENDBRANCH   4  14
TORSDOF 4
