REMARK  Name = 130082
REMARK  8 active torsions:
REMARK  status: ('A' for Active; 'I' for Inactive)
REMARK    1  A    between atoms: C_1  and  N_3
REMARK    2  A    between atoms: C_1  and  C_15
REMARK    3  A    between atoms: C_1  and  C_25
REMARK    4  A    between atoms: C_4  and  C_7
REMARK    5  A    between atoms: N_14  and  C_17
REMARK    6  A    between atoms: C_17  and  C_21
REMARK    7  A    between atoms: N_20  and  O_23
REMARK    8  A    between atoms: C_25  and  C_26
REMARK                            x       y       z     vdW  Elec       q    Type
REMARK                         _______ _______ _______ _____ _____    ______ ____
ROOT
ATOM      1  C   UNL     1       0.120   1.018   0.010  0.00  0.00    +0.148 C 
ENDROOT
BRANCH   1   3
ATOM      2  O   UNL     1       1.865  -0.654   1.618  0.00  0.00    -0.277 OA
ATOM      3  N   UNL     1       1.503   0.703  -0.239  0.00  0.00    -0.300 N 
ATOM      4  C   UNL     1       2.261  -0.110   0.590  0.00  0.00    +0.203 C 
ATOM      5  H   UNL     1       1.932   1.084  -1.039  0.00  0.00    +0.150 HD
BRANCH   4   7
ATOM      6  N   UNL     1       4.344  -1.175   1.032  0.00  0.00    +0.391 N 
ATOM      7  C   UNL     1       3.655  -0.294   0.089  0.00  0.00    +0.017 C 
ATOM      8  C   UNL     1       3.709  -1.000  -1.263  0.00  0.00    -0.015 C 
ATOM      9  C   UNL     1       4.477  -2.286  -0.999  0.00  0.00    -0.025 C 
ATOM     10  C   UNL     1       5.281  -1.968   0.244  0.00  0.00    -0.081 C 
ATOM     11  H   UNL     1       3.673  -1.784   1.501  0.00  0.00    -0.084 HD
ATOM     12  H   UNL     1       4.827  -0.639   1.754  0.00  0.00    -0.084 HD
ENDBRANCH   4   7
ENDBRANCH   1   3
BRANCH   1  15
ATOM     13  O   UNL     1      -0.394  -0.677  -1.647  0.00  0.00    -0.273 OA
ATOM     14  N   UNL     1      -1.827  -0.406   0.160  0.00  0.00    -0.297 N 
ATOM     15  C   UNL     1      -0.714  -0.099  -0.610  0.00  0.00    +0.241 C 
ATOM     16  H   UNL     1      -1.992   0.121   0.975  0.00  0.00    +0.150 HD
BRANCH  14  17
ATOM     17  C   UNL     1      -2.757  -1.461  -0.176  0.00  0.00    +0.151 C 
ATOM     18  C   UNL     1      -2.344  -2.783   0.452  0.00  0.00    +0.031 C 
BRANCH  17  21
ATOM     19  O   UNL     1      -4.423  -0.898   1.491  0.00  0.00    -0.271 OA
ATOM     20  N   UNL     1      -5.020  -0.878  -0.738  0.00  0.00    -0.196 N 
ATOM     21  C   UNL     1      -4.138  -1.040   0.304  0.00  0.00    +0.262 C 
ATOM     22  H   UNL     1      -4.749  -1.003  -1.676  0.00  0.00    +0.182 HD
BRANCH  20  23
ATOM     23  O   UNL     1      -6.329  -0.526  -0.384  0.00  0.00    -0.295 OA
ATOM     24  H   UNL     1      -6.868  -0.436  -1.186  0.00  0.00    +0.241 HD
ENDBRANCH  20  23
ENDBRANCH  17  21
ENDBRANCH  14  17
ENDBRANCH   1  15
BRANCH   1  25
ATOM     25  C   UNL     1      -0.283   2.373  -0.585  0.00  0.00    +0.029 C 
BRANCH  25  26
ATOM     26  C   UNL     1       0.530   3.576  -0.065  0.00  0.00    +0.002 C 
ATOM     27  C   UNL     1       0.122   4.889  -0.735  0.00  0.00    +0.000 C 
ATOM     28  C   UNL     1       0.361   3.696   1.452  0.00  0.00    +0.000 C 
ENDBRANCH  25  26
ENDBRANCH   1  25
TORSDOF 8
