130092
  -OEChem-03292013323D

 31 32  0     1  0  0  0  0  0999 V2000
    1.5274   -1.2206   -0.1812 O   0  0  0  0  0  0  0  0  0  0  0  0
   -0.8857    0.1172    0.4186 O   0  0  0  0  0  0  0  0  0  0  0  0
   -2.3906   -1.0213   -0.9726 O   0  0  0  0  0  0  0  0  0  0  0  0
    2.0069    2.2178   -1.0674 O   0  0  0  0  0  0  0  0  0  0  0  0
    3.7416    1.1599    1.2803 O   0  0  0  0  0  0  0  0  0  0  0  0
    3.7446   -1.8749    0.3297 O   0  0  0  0  0  0  0  0  0  0  0  0
   -4.4691    0.2846    0.2885 O   0  0  0  0  0  0  0  0  0  0  0  0
   -2.8438    1.8692    0.5605 O   0  0  0  0  0  0  0  0  0  0  0  0
    1.1429   -0.0377   -0.9007 C   0  0  1  0  0  0  0  0  0  0  0  0
   -0.3700    0.0841   -0.9159 C   0  0  1  0  0  0  0  0  0  0  0  0
    1.8325    1.1179   -0.1957 C   0  0  1  0  0  0  0  0  0  0  0  0
    3.1495    0.4828    0.1863 C   0  0  2  0  0  0  0  0  0  0  0  0
    2.7169   -0.9249    0.5707 C   0  0  1  0  0  0  0  0  0  0  0  0
   -1.0756   -1.1034   -1.5254 C   0  0  0  0  0  0  0  0  0  0  0  0
   -2.2037   -0.4202    0.3099 C   0  0  1  0  0  0  0  0  0  0  0  0
   -2.4368   -1.4380    1.4121 C   0  0  0  0  0  0  0  0  0  0  0  0
   -3.1871    0.7075    0.4022 C   0  0  0  0  0  0  0  0  0  0  0  0
    1.5071   -0.1368   -1.9316 H   0  0  0  0  0  0  0  0  0  0  0  0
   -0.6801    1.0112   -1.4143 H   0  0  0  0  0  0  0  0  0  0  0  0
    1.2902    1.4603    0.6933 H   0  0  0  0  0  0  0  0  0  0  0  0
    3.8615    0.5000   -0.6471 H   0  0  0  0  0  0  0  0  0  0  0  0
    2.4591   -0.9903    1.6334 H   0  0  0  0  0  0  0  0  0  0  0  0
   -1.1182   -1.0640   -2.6172 H   0  0  0  0  0  0  0  0  0  0  0  0
   -0.6479   -2.0642   -1.2201 H   0  0  0  0  0  0  0  0  0  0  0  0
    2.5586    2.8714   -0.6048 H   0  0  0  0  0  0  0  0  0  0  0  0
   -2.3599   -0.9758    2.4022 H   0  0  0  0  0  0  0  0  0  0  0  0
   -3.4159   -1.9203    1.3232 H   0  0  0  0  0  0  0  0  0  0  0  0
   -1.6814   -2.2310    1.3652 H   0  0  0  0  0  0  0  0  0  0  0  0
    4.5251    0.6498    1.5478 H   0  0  0  0  0  0  0  0  0  0  0  0
    4.2174   -1.6164   -0.4787 H   0  0  0  0  0  0  0  0  0  0  0  0
   -5.1069    1.0274    0.3493 H   0  0  0  0  0  0  0  0  0  0  0  0
  1  9  1  0  0  0  0
  1 13  1  0  0  0  0
  2 10  1  0  0  0  0
  2 15  1  0  0  0  0
  3 14  1  0  0  0  0
  3 15  1  0  0  0  0
  4 11  1  0  0  0  0
  4 25  1  0  0  0  0
  5 12  1  0  0  0  0
  5 29  1  0  0  0  0
  6 13  1  0  0  0  0
  6 30  1  0  0  0  0
  7 17  1  0  0  0  0
  7 31  1  0  0  0  0
  8 17  2  0  0  0  0
  9 10  1  0  0  0  0
  9 11  1  0  0  0  0
  9 18  1  0  0  0  0
 10 14  1  0  0  0  0
 10 19  1  0  0  0  0
 11 12  1  0  0  0  0
 11 20  1  0  0  0  0
 12 13  1  0  0  0  0
 12 21  1  0  0  0  0
 13 22  1  0  0  0  0
 14 23  1  0  0  0  0
 14 24  1  0  0  0  0
 15 16  1  0  0  0  0
 15 17  1  0  0  0  0
 16 26  1  0  0  0  0
 16 27  1  0  0  0  0
 16 28  1  0  0  0  0
M  END
> <PUBCHEM_COMPOUND_CID>
130092

> <PUBCHEM_CONFORMER_RMSD>
0.6

> <PUBCHEM_CONFORMER_DIVERSEORDER>
2
13
17
14
9
11
12
1
10
15
16
3
18
6
4
7
8
5

> <PUBCHEM_MMFF94_PARTIAL_CHARGES>
20
1 -0.56
10 0.28
11 0.28
12 0.28
13 0.56
14 0.28
15 0.62
17 0.66
2 -0.56
25 0.4
29 0.4
3 -0.56
30 0.4
31 0.5
4 -0.68
5 -0.68
6 -0.68
7 -0.65
8 -0.57
9 0.28

> <PUBCHEM_EFFECTIVE_ROTOR_COUNT>
4

> <PUBCHEM_PHARMACOPHORE_FEATURES>
14
1 1 acceptor
1 2 acceptor
1 3 acceptor
1 4 acceptor
1 4 donor
1 5 acceptor
1 5 donor
1 6 acceptor
1 6 donor
1 7 acceptor
1 8 acceptor
3 7 8 17 anion
5 1 9 11 12 13 rings
5 2 3 10 14 15 rings

> <PUBCHEM_HEAVY_ATOM_COUNT>
17

> <PUBCHEM_ATOM_DEF_STEREO_COUNT>
5

> <PUBCHEM_ATOM_UDEF_STEREO_COUNT>
1

> <PUBCHEM_BOND_DEF_STEREO_COUNT>
0

> <PUBCHEM_BOND_UDEF_STEREO_COUNT>
0

> <PUBCHEM_ISOTOPIC_ATOM_COUNT>
0

> <PUBCHEM_COMPONENT_COUNT>
1

> <PUBCHEM_CACTVS_TAUTO_COUNT>
1

> <PUBCHEM_CONFORMER_ID>
0001FC2C00000002

> <PUBCHEM_MMFF94_ENERGY>
41.8546

> <PUBCHEM_FEATURE_SELFOVERLAP>
71.204

> <PUBCHEM_SHAPE_FINGERPRINT>
10618630 7 13695585559481460625
10799339 124 18412544292977381288
11759241 127 12319155305347416146
12162725 195 18412550886005569961
12251169 10 18333453157305564701
12507560 40 18412266116387906361
12633257 1 17531518880068128584
12696612 119 18408325505664172556
12932764 1 17988370372118591720
13705890 14 11025797596267812194
13764800 53 15841003272509865747
14178342 30 18264477546322387610
14289901 80 18264214771242601307
15375462 478 18411140234025053221
15527383 91 18339074896525016034
15775835 57 17846215591789687648
15852999 172 16702302313029756967
16945 1 18196940087097634510
20279233 1 17023168449093882238
20281407 28 15646774483201395739
20281475 54 17603305942811517242
20361792 2 14490476430073183207
20559304 39 18409738382269229388
20871999 31 11239417248300756609
22169311 14 18260834778014837915
23402539 116 18341325614238960405
23419403 2 14831844008909963701
23557571 272 14907614687642035173
23559900 14 18335424555863413835
2871803 45 10015568481441676265
3248919 1 18187362185441802286
7097593 13 18409727357088011470
74978 22 18186528712799672323

> <PUBCHEM_SHAPE_MULTIPOLES>
302.9
6.92
1.77
1.23
0.37
0.28
0.13
0.47
-2.3
-0.67
-0.07
0.16
-0.18
-0.27

> <PUBCHEM_SHAPE_SELFOVERLAP>
635.474

> <PUBCHEM_SHAPE_VOLUME>
171.5

> <PUBCHEM_COORDINATE_TYPE>
2
5
10

$$$$
