REMARK  Name = 130081
REMARK  3 active torsions:
REMARK  status: ('A' for Active; 'I' for Inactive)
REMARK    1  A    between atoms: C_3  and  C_6
REMARK    2  A    between atoms: C_9  and  O_12
REMARK    3  A    between atoms: C_16  and  C_22
REMARK                            x       y       z     vdW  Elec       q    Type
REMARK                         _______ _______ _______ _____ _____    ______ ____
ROOT
ATOM      1  S   UNL     1       0.843  -2.282   0.188  0.00  0.00    -0.073 S 
ATOM      2  N   UNL     1       0.093   0.184  -0.009  0.00  0.00    -0.384 NA
ATOM      3  C   UNL     1       1.149  -0.597   0.066  0.00  0.00    +0.159 C 
ATOM      4  C   UNL     1      -1.045  -0.597   0.032  0.00  0.00    +0.175 C 
ATOM      5  C   UNL     1      -0.840  -1.956   0.138  0.00  0.00    +0.139 C 
ATOM      6  O   UNL     1      -3.717  -1.868   0.086  0.00  0.00    -0.258 OA
ATOM      7  N   UNL     1      -2.294  -0.016  -0.031  0.00  0.00    -0.250 N 
ATOM      8  C   UNL     1      -3.547  -0.656  -0.002  0.00  0.00    +0.317 C 
ATOM      9  H   UNL     1      -2.312   0.966  -0.105  0.00  0.00    +0.158 HD
ENDROOT
BRANCH   3  10
ATOM     10  C   UNL     1       2.517  -0.141   0.053  0.00  0.00    +0.036 C 
ATOM     11  C   UNL     1       2.814   1.184   0.372  0.00  0.00    +0.006 C 
ATOM     12  C   UNL     1       3.543  -1.025  -0.279  0.00  0.00    +0.006 C 
ATOM     13  C   UNL     1       5.164   0.741   0.027  0.00  0.00    +0.139 C 
ATOM     14  C   UNL     1       4.137   1.625   0.359  0.00  0.00    +0.037 C 
ATOM     15  C   UNL     1       4.867  -0.584  -0.292  0.00  0.00    +0.037 C 
BRANCH  13  16
ATOM     16  O   UNL     1       6.455   1.171   0.015  0.00  0.00    -0.471 OA
ATOM     17  C   UNL     1       7.455   0.215  -0.334  0.00  0.00    +0.252 C 
ENDBRANCH  13  16
ENDBRANCH   3  10
BRANCH   8  22
ATOM     18  N   UNL     1      -5.931  -0.224  -0.025  0.00  0.00    -0.105 NA
ATOM     19  N   UNL     1      -4.566   1.581  -0.107  0.00  0.00    -0.082 NA
ATOM     20  N   UNL     1      -6.578   0.949  -0.082  0.00  0.00    -0.140 N 
ATOM     21  N   UNL     1      -5.809   2.045  -0.131  0.00  0.00    -0.022 NA
ATOM     22  C   UNL     1      -4.707   0.250  -0.045  0.00  0.00    +0.128 C 
ATOM     23  H   UNL     1      -7.561   1.001  -0.086  0.00  0.00    +0.197 HD
ENDBRANCH   8  22
TORSDOF 3
