REMARK  Name = 130092
REMARK  6 active torsions:
REMARK  status: ('A' for Active; 'I' for Inactive)
REMARK    1  A    between atoms: C_2  and  C_8
REMARK    2  A    between atoms: C_3  and  O_16
REMARK    3  A    between atoms: C_4  and  O_18
REMARK    4  A    between atoms: C_5  and  O_20
REMARK    5  A    between atoms: C_10  and  C_13
REMARK    6  A    between atoms: C_13  and  O_14
REMARK                            x       y       z     vdW  Elec       q    Type
REMARK                         _______ _______ _______ _____ _____    ______ ____
ROOT
ATOM      1  O   UNL     1       1.527  -1.221  -0.181  0.00  0.00    -0.326 OA
ATOM      2  C   UNL     1       1.143  -0.038  -0.901  0.00  0.00    +0.177 C 
ATOM      3  C   UNL     1       1.833   1.118  -0.196  0.00  0.00    +0.172 C 
ATOM      4  C   UNL     1       3.150   0.483   0.186  0.00  0.00    +0.196 C 
ATOM      5  C   UNL     1       2.717  -0.925   0.571  0.00  0.00    +0.262 C 
ENDROOT
BRANCH   2   8
ATOM      6  O   UNL     1      -0.886   0.117   0.419  0.00  0.00    -0.323 OA
ATOM      7  O   UNL     1      -2.391  -1.021  -0.973  0.00  0.00    -0.323 OA
ATOM      8  C   UNL     1      -0.370   0.084  -0.916  0.00  0.00    +0.177 C 
ATOM      9  C   UNL     1      -1.076  -1.103  -1.525  0.00  0.00    +0.177 C 
ATOM     10  C   UNL     1      -2.204  -0.420   0.310  0.00  0.00    +0.280 C 
ATOM     11  C   UNL     1      -2.437  -1.438   1.412  0.00  0.00    +0.074 C 
BRANCH  10  13
ATOM     12  O   UNL     1      -2.844   1.869   0.560  0.00  0.00    -0.245 OA
ATOM     13  C   UNL     1      -3.187   0.708   0.402  0.00  0.00    +0.366 C 
BRANCH  13  14
ATOM     14  O   UNL     1      -4.469   0.285   0.288  0.00  0.00    -0.477 OA
ATOM     15  H   UNL     1      -4.653  -0.626   0.169  0.00  0.00    +0.295 HD
ENDBRANCH  13  14
ENDBRANCH  10  13
ENDBRANCH   2   8
BRANCH   3  16
ATOM     16  O   UNL     1       2.007   2.218  -1.067  0.00  0.00    -0.379 OA
ATOM     17  H   UNL     1       1.141   2.596  -1.288  0.00  0.00    +0.211 HD
ENDBRANCH   3  16
BRANCH   4  18
ATOM     18  O   UNL     1       3.742   1.160   1.280  0.00  0.00    -0.378 OA
ATOM     19  H   UNL     1       4.006   2.051   1.004  0.00  0.00    +0.211 HD
ENDBRANCH   4  18
BRANCH   5  20
ATOM     20  O   UNL     1       3.745  -1.875   0.330  0.00  0.00    -0.358 OA
ATOM     21  H   UNL     1       3.435  -2.758   0.585  0.00  0.00    +0.213 HD
ENDBRANCH   5  20
TORSDOF 6
