130060
  -OEChem-03292013323D

 44 47  0     1  0  0  0  0  0999 V2000
    3.1484    0.1540    1.0464 O   0  0  0  0  0  0  0  0  0  0  0  0
    2.8538   -2.5755   -0.6140 O   0  0  0  0  0  0  0  0  0  0  0  0
    4.9132   -1.2128   -1.7691 O   0  0  0  0  0  0  0  0  0  0  0  0
    5.6428    1.2279    1.8215 O   0  0  0  0  0  0  0  0  0  0  0  0
   -2.9295    2.6141   -0.5890 O   0  0  0  0  0  0  0  0  0  0  0  0
    0.9871    0.4264    0.1034 N   0  0  0  0  0  0  0  0  0  0  0  0
   -1.0765   -0.8904    0.3289 N   0  0  0  0  0  0  0  0  0  0  0  0
   -3.0535    0.3990   -0.0601 N   0  0  0  0  0  0  0  0  0  0  0  0
    0.0700    2.4083   -0.4130 N   0  0  0  0  0  0  0  0  0  0  0  0
   -3.3742   -1.7555    0.4493 N   0  0  0  0  0  0  0  0  0  0  0  0
    2.0630   -0.5266    0.3810 C   0  0  1  0  0  0  0  0  0  0  0  0
    2.6332   -1.1903   -0.8739 C   0  0  1  0  0  0  0  0  0  0  0  0
    3.9439   -0.4541   -1.0782 C   0  0  1  0  0  0  0  0  0  0  0  0
    4.3675   -0.1473    0.3477 C   0  0  1  0  0  0  0  0  0  0  0  0
   -0.3606    0.2404    0.0886 C   0  0  0  0  0  0  0  0  0  0  0  0
    5.3253    1.0257    0.4556 C   0  0  0  0  0  0  0  0  0  0  0  0
   -0.8963    1.4666   -0.2287 C   0  0  0  0  0  0  0  0  0  0  0  0
    1.1967    1.7512   -0.2061 C   0  0  0  0  0  0  0  0  0  0  0  0
   -2.4532   -0.8298    0.2610 C   0  0  0  0  0  0  0  0  0  0  0  0
   -2.3306    1.5837   -0.3167 C   0  0  0  0  0  0  0  0  0  0  0  0
   -4.4081    0.2004   -0.0660 C   0  0  0  0  0  0  0  0  0  0  0  0
   -0.4452   -2.1580    0.6575 C   0  0  0  0  0  0  0  0  0  0  0  0
   -4.5777   -1.1268    0.2493 C   0  0  0  0  0  0  0  0  0  0  0  0
   -5.4040    1.2489   -0.3584 C   0  0  0  0  0  0  0  0  0  0  0  0
   -5.8357   -1.8793    0.3832 C   0  0  0  0  0  0  0  0  0  0  0  0
    1.7200   -1.2409    1.1223 H   0  0  0  0  0  0  0  0  0  0  0  0
    1.9865   -1.1219   -1.7551 H   0  0  0  0  0  0  0  0  0  0  0  0
    3.7537    0.4729   -1.6330 H   0  0  0  0  0  0  0  0  0  0  0  0
    4.8137   -1.0261    0.8311 H   0  0  0  0  0  0  0  0  0  0  0  0
    4.8755    1.9497    0.0779 H   0  0  0  0  0  0  0  0  0  0  0  0
    6.2540    0.8364   -0.0897 H   0  0  0  0  0  0  0  0  0  0  0  0
    2.1850    2.1857   -0.2733 H   0  0  0  0  0  0  0  0  0  0  0  0
    2.0382   -3.0560   -0.8288 H   0  0  0  0  0  0  0  0  0  0  0  0
    5.7264   -0.6823   -1.8158 H   0  0  0  0  0  0  0  0  0  0  0  0
    0.0121   -2.1306    1.6508 H   0  0  0  0  0  0  0  0  0  0  0  0
    0.2585   -2.4601   -0.1154 H   0  0  0  0  0  0  0  0  0  0  0  0
   -1.1784   -2.9737    0.7008 H   0  0  0  0  0  0  0  0  0  0  0  0
    4.8097    1.3931    2.2954 H   0  0  0  0  0  0  0  0  0  0  0  0
   -6.4241    0.8548   -0.3044 H   0  0  0  0  0  0  0  0  0  0  0  0
   -5.3348    2.0684    0.3640 H   0  0  0  0  0  0  0  0  0  0  0  0
   -5.2655    1.6514   -1.3670 H   0  0  0  0  0  0  0  0  0  0  0  0
   -6.4633   -1.4464    1.1686 H   0  0  0  0  0  0  0  0  0  0  0  0
   -6.3968   -1.8646   -0.5564 H   0  0  0  0  0  0  0  0  0  0  0  0
   -5.6443   -2.9250    0.6441 H   0  0  0  0  0  0  0  0  0  0  0  0
  1 11  1  0  0  0  0
  1 14  1  0  0  0  0
  2 12  1  0  0  0  0
  2 33  1  0  0  0  0
  3 13  1  0  0  0  0
  3 34  1  0  0  0  0
  4 16  1  0  0  0  0
  4 38  1  0  0  0  0
  5 20  2  0  0  0  0
  6 11  1  0  0  0  0
  6 15  1  0  0  0  0
  6 18  1  0  0  0  0
  7 15  1  0  0  0  0
  7 19  1  0  0  0  0
  7 22  1  0  0  0  0
  8 19  1  0  0  0  0
  8 20  1  0  0  0  0
  8 21  1  0  0  0  0
  9 17  1  0  0  0  0
  9 18  2  0  0  0  0
 10 19  2  0  0  0  0
 10 23  1  0  0  0  0
 11 12  1  0  0  0  0
 11 26  1  0  0  0  0
 12 13  1  0  0  0  0
 12 27  1  0  0  0  0
 13 14  1  0  0  0  0
 13 28  1  0  0  0  0
 14 16  1  0  0  0  0
 14 29  1  0  0  0  0
 15 17  2  0  0  0  0
 16 30  1  0  0  0  0
 16 31  1  0  0  0  0
 17 20  1  0  0  0  0
 18 32  1  0  0  0  0
 21 23  2  0  0  0  0
 21 24  1  0  0  0  0
 22 35  1  0  0  0  0
 22 36  1  0  0  0  0
 22 37  1  0  0  0  0
 23 25  1  0  0  0  0
 24 39  1  0  0  0  0
 24 40  1  0  0  0  0
 24 41  1  0  0  0  0
 25 42  1  0  0  0  0
 25 43  1  0  0  0  0
 25 44  1  0  0  0  0
M  END
> <PUBCHEM_COMPOUND_CID>
130060

> <PUBCHEM_CONFORMER_RMSD>
0.6

> <PUBCHEM_CONFORMER_DIVERSEORDER>
2
1
11
3
7
4
9
6
10
8
5

> <PUBCHEM_MMFF94_PARTIAL_CHARGES>
29
1 -0.56
10 -0.57
11 0.54
12 0.28
13 0.28
14 0.28
15 -0.07
16 0.28
17 0.14
18 0.04
19 0.27
2 -0.68
20 0.67
21 -0.33
22 0.37
23 0.05
24 0.18
25 0.18
3 -0.68
32 0.15
33 0.4
34 0.4
38 0.4
4 -0.68
5 -0.57
6 0.05
7 -0.54
8 0.29
9 -0.57

> <PUBCHEM_EFFECTIVE_ROTOR_COUNT>
3

> <PUBCHEM_PHARMACOPHORE_FEATURES>
13
1 1 acceptor
1 2 acceptor
1 2 donor
1 3 acceptor
1 3 donor
1 4 acceptor
1 4 donor
1 5 acceptor
3 6 9 18 cation
5 1 11 12 13 14 rings
5 6 9 15 17 18 rings
5 8 10 19 21 23 rings
6 7 8 15 17 19 20 rings

> <PUBCHEM_HEAVY_ATOM_COUNT>
25

> <PUBCHEM_ATOM_DEF_STEREO_COUNT>
3

> <PUBCHEM_ATOM_UDEF_STEREO_COUNT>
1

> <PUBCHEM_BOND_DEF_STEREO_COUNT>
0

> <PUBCHEM_BOND_UDEF_STEREO_COUNT>
0

> <PUBCHEM_ISOTOPIC_ATOM_COUNT>
0

> <PUBCHEM_COMPONENT_COUNT>
1

> <PUBCHEM_CACTVS_TAUTO_COUNT>
1

> <PUBCHEM_CONFORMER_ID>
0001FC0C00000002

> <PUBCHEM_MMFF94_ENERGY>
64.2675

> <PUBCHEM_FEATURE_SELFOVERLAP>
66.22

> <PUBCHEM_SHAPE_FINGERPRINT>
10 15 18268697468187510096
10319926 262 18192971778767982920
10498660 4 18261955133161001988
10906281 52 18261971733452388992
11112241 14 17058627772352010016
11578080 2 13972313888940359297
12236239 1 17167858660592427928
12516196 113 18272933855596202369
12730499 353 17917995001676795550
13140716 1 18047470316028369706
13402501 40 18411981377362742202
13583140 156 16486680493794947403
13862211 1 18261670463108762635
14386348 63 18413673508525272686
15196674 1 18408885105490446115
15375358 24 18411135853248004074
15788980 27 15864065455787309372
15961568 22 18115029718626316124
17804303 29 18408605877119208853
1813 80 17821450174679600413
18681886 176 18334585672453969940
19141452 34 18131072675448635231
200 152 17775565338650068881
20028762 73 18198908200766060375
20871999 31 18262248724182361092
21033648 29 17703494541629693569
21033650 10 17242467018490839996
21267235 1 18335148630934099859
21279426 13 18264487274649627263
2215653 11 18271241630324011317
22182313 1 18412536596412051532
22224240 67 17916294108538362490
23402539 116 18335411391809666071
23557571 272 18410859854607926716
23559900 14 18266462006202285734
239999 70 18273220790135677454
3004659 81 18040723584131841876
335352 9 18335702724712371389
3411729 13 18046061829455785352
34934 24 18410567383850391003
350125 39 18334857246930156805
3680242 22 18186800249369669250
3886686 26 17036381023333627082
4325135 7 18187365476136168820
474 4 14906457967667347690
5104073 3 18270116808100571426
59755656 215 18333448742965933887
9709674 26 18409453608604511506

> <PUBCHEM_SHAPE_MULTIPOLES>
460.24
12.56
2.45
1.01
0.95
0.17
-0.01
-1.52
0.89
-1.24
-0.24
1.56
-0.1
1.8

> <PUBCHEM_SHAPE_SELFOVERLAP>
1013.257

> <PUBCHEM_SHAPE_VOLUME>
248.7

> <PUBCHEM_COORDINATE_TYPE>
2
5
10

$$$$
