REMARK  Name = 130096
REMARK  9 active torsions:
REMARK  status: ('A' for Active; 'I' for Inactive)
REMARK    1  A    between atoms: C_1  and  C_3
REMARK    2  A    between atoms: C_1  and  O_11
REMARK    3  A    between atoms: C_1  and  C_13
REMARK    4  A    between atoms: C_6  and  N_9
REMARK    5  A    between atoms: C_13  and  N_14
REMARK    6  A    between atoms: N_14  and  N_16
REMARK    7  A    between atoms: N_14  and  C_17
REMARK    8  A    between atoms: C_17  and  C_18
REMARK    9  A    between atoms: C_18  and  C_19
REMARK                            x       y       z     vdW  Elec       q    Type
REMARK                         _______ _______ _______ _____ _____    ______ ____
ROOT
ATOM      1  C   UNL     1      -0.293   1.458   1.475  0.00  0.00    +0.150 C 
ENDROOT
BRANCH   1   3
ATOM      2  O   UNL     1       4.039  -0.640  -1.317  0.00  0.00    -0.285 OA
ATOM      3  C   UNL     1       0.884   0.882   0.719  0.00  0.00    +0.007 C 
ATOM      4  C   UNL     1       1.210  -0.452   0.888  0.00  0.00    +0.019 C 
ATOM      5  C   UNL     1       1.610   1.703  -0.127  0.00  0.00    +0.001 C 
ATOM      6  C   UNL     1       2.295  -0.983   0.191  0.00  0.00    +0.125 C 
ATOM      7  C   UNL     1       2.695   1.172  -0.825  0.00  0.00    +0.043 C 
ATOM      8  C   UNL     1       3.038  -0.171  -0.666  0.00  0.00    +0.212 C 
BRANCH   6   9
ATOM      9  N   UNL     1       2.598  -2.322   0.379  0.00  0.00    -0.126 NA
ATOM     10  N   UNL     1       2.836  -3.372   0.526  0.00  0.00    +0.004 NA
ENDBRANCH   6   9
ENDBRANCH   1   3
BRANCH   1  11
ATOM     11  O   UNL     1       0.196   2.460   2.365  0.00  0.00    -0.379 OA
ATOM     12  H   UNL     1      -0.545   2.842   2.860  0.00  0.00    +0.211 HD
ENDBRANCH   1  11
BRANCH   1  13
ATOM     13  C   UNL     1      -1.335   2.055   0.522  0.00  0.00    +0.126 C 
BRANCH  13  14
ATOM     14  N   UNL     1      -1.852   1.029  -0.399  0.00  0.00    -0.173 NA
BRANCH  14  16
ATOM     15  O   UNL     1      -1.102   1.493  -2.319  0.00  0.00    -0.082 OA
ATOM     16  N   UNL     1      -2.114   1.485  -1.608  0.00  0.00    +0.032 NA
ENDBRANCH  14  16
BRANCH  14  17
ATOM     17  C   UNL     1      -3.002   0.362   0.202  0.00  0.00    +0.093 C 
BRANCH  17  18
ATOM     18  C   UNL     1      -3.075  -1.091  -0.264  0.00  0.00    +0.019 C 
BRANCH  18  19
ATOM     19  C   UNL     1      -4.263  -1.815   0.372  0.00  0.00    +0.001 C 
ATOM     20  C   UNL     1      -4.364  -3.252  -0.114  0.00  0.00    +0.000 C 
ENDBRANCH  18  19
ENDBRANCH  17  18
ENDBRANCH  14  17
ENDBRANCH  13  14
ENDBRANCH   1  13
TORSDOF 9
