130064
  -OEChem-03292013323D

 69 70  0     1  0  0  0  0  0999 V2000
    3.5223   -0.3498    2.3821 O   0  0  0  0  0  0  0  0  0  0  0  0
    0.0112   -0.9172   -0.7865 O   0  0  0  0  0  0  0  0  0  0  0  0
   -7.4865   -1.5232    0.1131 O   0  0  0  0  0  0  0  0  0  0  0  0
   -6.7373   -2.4284   -1.8664 O   0  0  0  0  0  0  0  0  0  0  0  0
    2.2259   -0.1135    0.4631 N   0  0  0  0  0  0  0  0  0  0  0  0
    8.2054   -4.0325   -1.4080 N   0  0  0  0  0  0  0  0  0  0  0  0
   -1.3915   -0.2042    0.9542 N   0  0  0  0  0  0  0  0  0  0  0  0
    0.4706    4.7701   -0.9199 N   0  0  0  0  0  0  0  0  0  0  0  0
    0.1953    6.8117   -1.9821 N   0  0  0  0  0  0  0  0  0  0  0  0
    0.1490    6.8162    0.2967 N   0  0  0  0  0  0  0  0  0  0  0  0
    7.0435   -2.2121   -0.2378 C   0  0  0  0  0  0  0  0  0  0  0  0
    4.5322   -0.7187    0.2520 C   0  0  0  0  0  0  0  0  0  0  0  0
    5.7151   -2.6495   -0.8697 C   0  0  0  0  0  0  0  0  0  0  0  0
    7.0490   -0.7015    0.0319 C   0  0  0  0  0  0  0  0  0  0  0  0
    4.5191   -2.2229   -0.0212 C   0  0  0  0  0  0  0  0  0  0  0  0
    5.8532   -0.2765    0.8815 C   0  0  0  0  0  0  0  0  0  0  0  0
    8.2200   -2.6050   -1.1297 C   0  0  0  0  0  0  0  0  0  0  0  0
    3.3934   -0.3713    1.1609 C   0  0  0  0  0  0  0  0  0  0  0  0
    0.9774    0.2230    1.1083 C   0  0  1  0  0  0  0  0  0  0  0  0
    0.8402    1.7336    1.3345 C   0  0  0  0  0  0  0  0  0  0  0  0
   -0.1768   -0.3626    0.2927 C   0  0  0  0  0  0  0  0  0  0  0  0
    0.7485    2.5545    0.0428 C   0  0  0  0  0  0  0  0  0  0  0  0
    0.5520    4.0363    0.3440 C   0  0  0  0  0  0  0  0  0  0  0  0
   -2.6730   -0.6156    0.5171 C   0  0  0  0  0  0  0  0  0  0  0  0
   -2.8163   -1.2649   -0.7091 C   0  0  0  0  0  0  0  0  0  0  0  0
   -3.7928   -0.3706    1.3118 C   0  0  0  0  0  0  0  0  0  0  0  0
    0.2831    6.0507   -0.8402 C   0  0  0  0  0  0  0  0  0  0  0  0
   -4.0795   -1.6694   -1.1404 C   0  0  0  0  0  0  0  0  0  0  0  0
   -5.0560   -0.7750    0.8803 C   0  0  0  0  0  0  0  0  0  0  0  0
   -5.1995   -1.4245   -0.3457 C   0  0  0  0  0  0  0  0  0  0  0  0
   -6.5163   -1.8469   -0.7958 C   0  0  0  0  0  0  0  0  0  0  0  0
   -8.8305   -1.8897   -0.2169 C   0  0  0  0  0  0  0  0  0  0  0  0
   -9.7503   -1.4506    0.9023 C   0  0  0  0  0  0  0  0  0  0  0  0
    7.1492   -2.7288    0.7268 H   0  0  0  0  0  0  0  0  0  0  0  0
    4.4132   -0.1816   -0.6987 H   0  0  0  0  0  0  0  0  0  0  0  0
    5.6742   -3.7383   -0.9879 H   0  0  0  0  0  0  0  0  0  0  0  0
    5.6168   -2.2156   -1.8733 H   0  0  0  0  0  0  0  0  0  0  0  0
    7.0297   -0.1514   -0.9177 H   0  0  0  0  0  0  0  0  0  0  0  0
    7.9757   -0.4167    0.5444 H   0  0  0  0  0  0  0  0  0  0  0  0
    4.5287   -2.7786    0.9259 H   0  0  0  0  0  0  0  0  0  0  0  0
    3.5916   -2.5067   -0.5337 H   0  0  0  0  0  0  0  0  0  0  0  0
    5.8629    0.8131    1.0088 H   0  0  0  0  0  0  0  0  0  0  0  0
    5.9676   -0.7067    1.8851 H   0  0  0  0  0  0  0  0  0  0  0  0
    9.1652   -2.3409   -0.6420 H   0  0  0  0  0  0  0  0  0  0  0  0
    8.1794   -2.0593   -2.0794 H   0  0  0  0  0  0  0  0  0  0  0  0
    2.2376   -0.1521   -0.5523 H   0  0  0  0  0  0  0  0  0  0  0  0
    0.9678   -0.2736    2.0874 H   0  0  0  0  0  0  0  0  0  0  0  0
    8.2763   -4.5545   -0.5355 H   0  0  0  0  0  0  0  0  0  0  0  0
    9.0278   -4.2799   -1.9567 H   0  0  0  0  0  0  0  0  0  0  0  0
   -0.0460    1.9392    1.9469 H   0  0  0  0  0  0  0  0  0  0  0  0
    1.7011    2.0878    1.9164 H   0  0  0  0  0  0  0  0  0  0  0  0
    1.6592    2.4201   -0.5536 H   0  0  0  0  0  0  0  0  0  0  0  0
   -0.0866    2.2031   -0.5747 H   0  0  0  0  0  0  0  0  0  0  0  0
   -0.3713    4.1676    0.9212 H   0  0  0  0  0  0  0  0  0  0  0  0
    1.3971    4.3997    0.9411 H   0  0  0  0  0  0  0  0  0  0  0  0
   -1.3785    0.2470    1.8657 H   0  0  0  0  0  0  0  0  0  0  0  0
   -1.9991   -1.4881   -1.3802 H   0  0  0  0  0  0  0  0  0  0  0  0
   -3.6944    0.1350    2.2690 H   0  0  0  0  0  0  0  0  0  0  0  0
   -4.1705   -2.1735   -2.0991 H   0  0  0  0  0  0  0  0  0  0  0  0
   -5.8992   -0.5633    1.5318 H   0  0  0  0  0  0  0  0  0  0  0  0
    0.0497    7.8145   -1.9414 H   0  0  0  0  0  0  0  0  0  0  0  0
    0.2755    6.3890   -2.9005 H   0  0  0  0  0  0  0  0  0  0  0  0
    0.0046    7.8185    0.2377 H   0  0  0  0  0  0  0  0  0  0  0  0
    0.1901    6.4153    1.2269 H   0  0  0  0  0  0  0  0  0  0  0  0
   -9.1220   -1.3987   -1.1519 H   0  0  0  0  0  0  0  0  0  0  0  0
   -8.8904   -2.9764   -0.3427 H   0  0  0  0  0  0  0  0  0  0  0  0
  -10.7882   -1.7157    0.6825 H   0  0  0  0  0  0  0  0  0  0  0  0
   -9.6856   -0.3678    1.0517 H   0  0  0  0  0  0  0  0  0  0  0  0
   -9.4578   -1.9197    1.8476 H   0  0  0  0  0  0  0  0  0  0  0  0
  1 18  2  0  0  0  0
  2 21  2  0  0  0  0
  3 31  1  0  0  0  0
  3 32  1  0  0  0  0
  4 31  2  0  0  0  0
  5 18  1  0  0  0  0
  5 19  1  0  0  0  0
  5 46  1  0  0  0  0
  6 17  1  0  0  0  0
  6 48  1  0  0  0  0
  6 49  1  0  0  0  0
  7 21  1  0  0  0  0
  7 24  1  0  0  0  0
  7 56  1  0  0  0  0
  8 23  1  0  0  0  0
  8 27  2  0  0  0  0
  9 27  1  0  0  0  0
  9 61  1  0  0  0  0
  9 62  1  0  0  0  0
 10 27  1  0  0  0  0
 10 63  1  0  0  0  0
 10 64  1  0  0  0  0
 11 13  1  0  0  0  0
 11 14  1  0  0  0  0
 11 17  1  0  0  0  0
 11 34  1  0  0  0  0
 12 15  1  0  0  0  0
 12 16  1  0  0  0  0
 12 18  1  0  0  0  0
 12 35  1  0  0  0  0
 13 15  1  0  0  0  0
 13 36  1  0  0  0  0
 13 37  1  0  0  0  0
 14 16  1  0  0  0  0
 14 38  1  0  0  0  0
 14 39  1  0  0  0  0
 15 40  1  0  0  0  0
 15 41  1  0  0  0  0
 16 42  1  0  0  0  0
 16 43  1  0  0  0  0
 17 44  1  0  0  0  0
 17 45  1  0  0  0  0
 19 20  1  0  0  0  0
 19 21  1  0  0  0  0
 19 47  1  0  0  0  0
 20 22  1  0  0  0  0
 20 50  1  0  0  0  0
 20 51  1  0  0  0  0
 22 23  1  0  0  0  0
 22 52  1  0  0  0  0
 22 53  1  0  0  0  0
 23 54  1  0  0  0  0
 23 55  1  0  0  0  0
 24 25  2  0  0  0  0
 24 26  1  0  0  0  0
 25 28  1  0  0  0  0
 25 57  1  0  0  0  0
 26 29  2  0  0  0  0
 26 58  1  0  0  0  0
 28 30  2  0  0  0  0
 28 59  1  0  0  0  0
 29 30  1  0  0  0  0
 29 60  1  0  0  0  0
 30 31  1  0  0  0  0
 32 33  1  0  0  0  0
 32 65  1  0  0  0  0
 32 66  1  0  0  0  0
 33 67  1  0  0  0  0
 33 68  1  0  0  0  0
 33 69  1  0  0  0  0
M  END
> <PUBCHEM_COMPOUND_CID>
130064

> <PUBCHEM_CONFORMER_RMSD>
1.2

> <PUBCHEM_CONFORMER_DIVERSEORDER>
4
43
39
46
61
41
36
49
13
38
54
12
35
51
30
1
11
63
34
31
33
40
55
50
57
28
60
22
25
29
52
44
42
59
16
24
14
7
56
26
18
47
10
62
48
37
6
27
21
17
19
2
8
15
32
23
9
58
45
5
20
53
64
3

> <PUBCHEM_MMFF94_PARTIAL_CHARGES>
37
1 -0.57
10 -0.85
12 0.06
17 0.27
18 0.57
19 0.36
2 -0.57
21 0.57
23 0.25
24 0.12
25 -0.15
26 -0.15
27 0.55
28 -0.15
29 -0.15
3 -0.43
30 0.09
31 0.63
32 0.28
4 -0.57
46 0.37
48 0.36
49 0.36
5 -0.73
56 0.37
57 0.15
58 0.15
59 0.15
6 -0.99
60 0.15
61 0.4
62 0.4
63 0.4
64 0.4
7 -0.55
8 -0.7
9 -0.85

> <PUBCHEM_EFFECTIVE_ROTOR_COUNT>
15.2

> <PUBCHEM_PHARMACOPHORE_FEATURES>
12
1 1 acceptor
1 10 donor
1 2 acceptor
1 4 acceptor
1 5 donor
1 6 cation
1 6 donor
1 7 donor
1 9 donor
4 8 9 10 27 cation
6 11 12 13 14 15 16 rings
6 24 25 26 28 29 30 rings

> <PUBCHEM_HEAVY_ATOM_COUNT>
33

> <PUBCHEM_ATOM_DEF_STEREO_COUNT>
0

> <PUBCHEM_ATOM_UDEF_STEREO_COUNT>
1

> <PUBCHEM_BOND_DEF_STEREO_COUNT>
0

> <PUBCHEM_BOND_UDEF_STEREO_COUNT>
0

> <PUBCHEM_ISOTOPIC_ATOM_COUNT>
0

> <PUBCHEM_COMPONENT_COUNT>
1

> <PUBCHEM_CACTVS_TAUTO_COUNT>
12

> <PUBCHEM_CONFORMER_ID>
0001FC1000000004

> <PUBCHEM_MMFF94_ENERGY>
74.7948

> <PUBCHEM_FEATURE_SELFOVERLAP>
60.954

> <PUBCHEM_SHAPE_FINGERPRINT>
10299344 5 17847062185832109762
11115154 58 18259704489063200081
11146346 40 18115321106482303548
11297750 10 18200582619667344920
11331351 85 18131063853295730297
11386260 185 18191567839758357749
11991303 11 17686338664402449516
12013929 27 18053927718783014239
12166972 35 18272647995890328185
12788726 201 18115019693976656432
13540713 4 17986090943914792672
13617811 41 18408324398216627190
13690498 29 18269838610890931518
14347332 77 18266456508834479658
14556957 393 17970088698575249252
15021287 119 18411145749380220833
15198563 99 18263362508229782764
15320294 125 17203605995636115607
15347591 1 18122624956636698866
15439362 3 17975974581223175321
15878777 1 8927755850632667320
15979999 66 18336543905972095204
15980000 95 18408606967719993292
16989713 51 18196943175980869732
20771845 65 18131633408618599296
21130935 74 17488170686121108043
21365058 113 18335420196703937997
21424621 283 8142084269386802398
22224240 67 9295290547225584355
22899556 56 15697170508582377867
23522609 53 17701851897697688752
23559900 14 18191581059382760595
24771750 20 17395022388703518804
255183 451 18411698811322160373
3103668 31 18263076618105994709
439807 62 18060701684871576658
4403749 210 9943507631823410213
4461854 278 17907871596205029265
4874694 18 11167944663610964741
5219985 9 18413670210306809810
57307002 103 18047479104127498003
5969126 39 18337955580787148752

> <PUBCHEM_SHAPE_MULTIPOLES>
625.76
24.96
7.51
1.49
18.45
24.91
-0.01
-41.14
4.32
-5.08
4.95
-0.16
0.27
1.15

> <PUBCHEM_SHAPE_SELFOVERLAP>
1276.584

> <PUBCHEM_SHAPE_VOLUME>
357

> <PUBCHEM_COORDINATE_TYPE>
2
5
10

$$$$
