REMARK  Name = 130064
REMARK  14 active torsions:
REMARK  status: ('A' for Active; 'I' for Inactive)
REMARK    1  A    between atoms: C_1  and  N_3
REMARK    2  A    between atoms: C_1  and  C_19
REMARK    3  A    between atoms: C_1  and  C_32
REMARK    4  A    between atoms: C_4  and  C_7
REMARK    5  A    between atoms: C_6  and  C_12
REMARK    6  A    between atoms: C_12  and  N_13
REMARK    7  A    between atoms: N_18  and  C_21
REMARK    8  A    between atoms: C_26  and  C_28
REMARK    9  A    between atoms: C_28  and  O_29
REMARK   10  A    between atoms: O_29  and  C_30
REMARK   11  A    between atoms: C_32  and  C_33
REMARK   12  A    between atoms: C_33  and  C_34
REMARK   13  A    between atoms: C_34  and  N_35
REMARK   14  A    between atoms: N_35  and  C_38
REMARK                            x       y       z     vdW  Elec       q    Type
REMARK                         _______ _______ _______ _____ _____    ______ ____
ROOT
ATOM      1  C   UNL     1       0.977   0.223   1.108  0.00  0.00    +0.149 C 
ENDROOT
BRANCH   1   3
ATOM      2  O   UNL     1       3.522  -0.350   2.382  0.00  0.00    -0.275 OA
ATOM      3  N   UNL     1       2.226  -0.114   0.463  0.00  0.00    -0.298 N 
ATOM      4  C   UNL     1       3.393  -0.371   1.161  0.00  0.00    +0.222 C 
ATOM      5  H   UNL     1       2.247  -0.162  -0.520  0.00  0.00    +0.150 HD
BRANCH   4   7
ATOM      6  C   UNL     1       7.043  -2.212  -0.238  0.00  0.00    -0.022 C 
ATOM      7  C   UNL     1       4.532  -0.719   0.252  0.00  0.00    +0.076 C 
ATOM      8  C   UNL     1       5.715  -2.650  -0.870  0.00  0.00    -0.002 C 
ATOM      9  C   UNL     1       7.049  -0.702   0.032  0.00  0.00    -0.002 C 
ATOM     10  C   UNL     1       4.519  -2.223  -0.021  0.00  0.00    +0.009 C 
ATOM     11  C   UNL     1       5.853  -0.277   0.881  0.00  0.00    +0.009 C 
BRANCH   6  12
ATOM     12  C   UNL     1       8.220  -2.605  -1.130  0.00  0.00    -0.086 C 
BRANCH  12  13
ATOM     13  N   UNL     1       8.205  -4.032  -1.408  0.00  0.00    +0.380 N 
ATOM     14  H   UNL     1       8.998  -4.271  -2.004  0.00  0.00    -0.089 HD
ATOM     15  H   UNL     1       7.337  -4.277  -1.884  0.00  0.00    -0.089 HD
ATOM     16  H   UNL     1       8.271  -4.550  -0.532  0.00  0.00    -0.089 HD
ENDBRANCH  12  13
ENDBRANCH   6  12
ENDBRANCH   4   7
ENDBRANCH   1   3
BRANCH   1  19
ATOM     17  O   UNL     1       0.011  -0.917  -0.786  0.00  0.00    -0.273 OA
ATOM     18  N   UNL     1      -1.391  -0.204   0.954  0.00  0.00    -0.283 N 
ATOM     19  C   UNL     1      -0.177  -0.363   0.293  0.00  0.00    +0.244 C 
ATOM     20  H   UNL     1      -1.355   0.247   1.829  0.00  0.00    +0.155 HD
BRANCH  18  21
ATOM     21  C   UNL     1      -2.673  -0.616   0.517  0.00  0.00    +0.050 C 
ATOM     22  C   UNL     1      -2.816  -1.265  -0.709  0.00  0.00    +0.015 C 
ATOM     23  C   UNL     1      -3.793  -0.371   1.312  0.00  0.00    +0.015 C 
ATOM     24  C   UNL     1      -4.080  -1.669  -1.140  0.00  0.00    +0.008 C 
ATOM     25  C   UNL     1      -5.056  -0.775   0.880  0.00  0.00    +0.008 C 
ATOM     26  C   UNL     1      -5.199  -1.425  -0.346  0.00  0.00    +0.076 C 
BRANCH  26  28
ATOM     27  O   UNL     1      -6.737  -2.428  -1.866  0.00  0.00    -0.245 OA
ATOM     28  C   UNL     1      -6.516  -1.847  -0.796  0.00  0.00    +0.341 C 
BRANCH  28  29
ATOM     29  O   UNL     1      -7.487  -1.523   0.113  0.00  0.00    -0.445 OA
BRANCH  29  30
ATOM     30  C   UNL     1      -8.831  -1.890  -0.217  0.00  0.00    +0.209 C 
ATOM     31  C   UNL     1      -9.750  -1.451   0.902  0.00  0.00    +0.051 C 
ENDBRANCH  29  30
ENDBRANCH  28  29
ENDBRANCH  26  28
ENDBRANCH  18  21
ENDBRANCH   1  19
BRANCH   1  32
ATOM     32  C   UNL     1       0.840   1.734   1.335  0.00  0.00    +0.031 C 
BRANCH  32  33
ATOM     33  C   UNL     1       0.749   2.554   0.043  0.00  0.00    +0.029 C 
BRANCH  33  34
ATOM     34  C   UNL     1       0.552   4.036   0.344  0.00  0.00    +0.129 C 
BRANCH  34  35
ATOM     35  N   UNL     1       0.471   4.770  -0.920  0.00  0.00    -0.240 NA
BRANCH  35  38
ATOM     36  N   UNL     1       0.195   6.812  -1.982  0.00  0.00    -0.370 N 
ATOM     37  N   UNL     1       0.149   6.816   0.297  0.00  0.00    -0.370 N 
ATOM     38  C   UNL     1       0.283   6.051  -0.840  0.00  0.00    +0.189 C 
ATOM     39  H   UNL     1       0.275   6.385  -2.866  0.00  0.00    +0.159 HD
ATOM     40  H   UNL     1       0.053   7.784  -1.916  0.00  0.00    +0.159 HD
ATOM     41  H   UNL     1       0.193   6.392   1.184  0.00  0.00    +0.159 HD
ATOM     42  H   UNL     1       0.009   7.788   0.222  0.00  0.00    +0.159 HD
ENDBRANCH  35  38
ENDBRANCH  34  35
ENDBRANCH  33  34
ENDBRANCH  32  33
ENDBRANCH   1  32
TORSDOF 14
