REMARK  Name = 130060
REMARK  5 active torsions:
REMARK  status: ('A' for Active; 'I' for Inactive)
REMARK    1  A    between atoms: N_2  and  C1*_18
REMARK    2  A    between atoms: C2*_19  and  O2*_22
REMARK    3  A    between atoms: C3*_20  and  O3*_24
REMARK    4  A    between atoms: C4*_21  and  C5*_26
REMARK    5  A    between atoms: C5*_26  and  O5*_27
REMARK                            x       y       z     vdW  Elec       q    Type
REMARK                         _______ _______ _______ _____ _____    ______ ____
ROOT
ATOM      1  O   UNL     1      -2.929   2.614  -0.589  0.00  0.00    -0.268 OA
ATOM      2  N   UNL     1       0.987   0.426   0.103  0.00  0.00    -0.207 NA
ATOM      3  N   UNL     1      -1.077  -0.890   0.329  0.00  0.00    -0.253 N 
ATOM      4  N   UNL     1      -3.054   0.399  -0.060  0.00  0.00    -0.213 N 
ATOM      5  N   UNL     1       0.070   2.408  -0.413  0.00  0.00    -0.249 NA
ATOM      6  N   UNL     1      -3.374  -1.756   0.449  0.00  0.00    -0.380 NA
ATOM      7  C   UNL     1      -0.361   0.240   0.089  0.00  0.00    +0.186 C 
ATOM      8  C   UNL     1      -0.896   1.467  -0.229  0.00  0.00    +0.143 C 
ATOM      9  C   UNL     1       1.197   1.751  -0.206  0.00  0.00    +0.204 C 
ATOM     10  C   UNL     1      -2.453  -0.830   0.261  0.00  0.00    +0.248 C 
ATOM     11  C   UNL     1      -2.331   1.584  -0.317  0.00  0.00    +0.272 C 
ATOM     12  C   UNL     1      -4.408   0.200  -0.066  0.00  0.00    +0.132 C 
ATOM     13  C   UNL     1      -0.445  -2.158   0.657  0.00  0.00    +0.117 C 
ATOM     14  C   UNL     1      -4.578  -1.127   0.249  0.00  0.00    +0.108 C 
ATOM     15  C   UNL     1      -5.404   1.249  -0.358  0.00  0.00    +0.029 C 
ATOM     16  C   UNL     1      -5.836  -1.879   0.383  0.00  0.00    +0.063 C 
ENDROOT
BRANCH   2  18
ATOM     17  O4* UNL     1       3.148   0.154   1.046  0.00  0.00    -0.336 OA
ATOM     18  C1* UNL     1       2.063  -0.527   0.381  0.00  0.00    +0.209 C 
ATOM     19  C2* UNL     1       2.633  -1.190  -0.874  0.00  0.00    +0.183 C 
ATOM     20  C3* UNL     1       3.944  -0.454  -1.078  0.00  0.00    +0.171 C 
ATOM     21  C4* UNL     1       4.367  -0.147   0.348  0.00  0.00    +0.175 C 
BRANCH  19  22
ATOM     22  O2* UNL     1       2.854  -2.575  -0.614  0.00  0.00    -0.378 OA
ATOM     23  H2* UNL     1       2.001  -3.021  -0.488  0.00  0.00    +0.211 HD
ENDBRANCH  19  22
BRANCH  20  24
ATOM     24  O3* UNL     1       4.913  -1.213  -1.769  0.00  0.00    -0.379 OA
ATOM     25  H3* UNL     1       4.605  -1.386  -2.672  0.00  0.00    +0.211 HD
ENDBRANCH  20  24
BRANCH  21  26
ATOM     26  C5* UNL     1       5.325   1.026   0.456  0.00  0.00    +0.169 C 
BRANCH  26  27
ATOM     27  O5* UNL     1       5.643   1.228   1.821  0.00  0.00    -0.379 OA
ATOM     28  H5* UNL     1       6.255   1.976   1.904  0.00  0.00    +0.211 HD
ENDBRANCH  26  27
ENDBRANCH  21  26
ENDBRANCH   2  18
TORSDOF 5
