REMARK  Name = 13009364
REMARK  8 active torsions:
REMARK  status: ('A' for Active; 'I' for Inactive)
REMARK    1  A    between atoms: N_3  and  C_13
REMARK    2  A    between atoms: C_7  and  C_22
REMARK    3  A    between atoms: C_11  and  O_15
REMARK    4  A    between atoms: C_12  and  O_17
REMARK    5  A    between atoms: C_14  and  C_19
REMARK    6  A    between atoms: C_19  and  O_20
REMARK    7  A    between atoms: C_23  and  C_24
REMARK    8  A    between atoms: C_24  and  N_25
REMARK                            x       y       z     vdW  Elec       q    Type
REMARK                         _______ _______ _______ _____ _____    ______ ____
ROOT
ATOM      1  O   UNL     1      -1.310  -3.085  -0.602  0.00  0.00    -0.252 OA
ATOM      2  O   UNL     1       3.228  -2.579  -0.059  0.00  0.00    -0.269 OA
ATOM      3  N   UNL     1      -0.459  -0.914  -0.477  0.00  0.00    -0.216 N 
ATOM      4  N   UNL     1       0.951  -2.818  -0.331  0.00  0.00    -0.235 N 
ATOM      5  C   UNL     1       0.677  -0.124  -0.334  0.00  0.00    +0.084 C 
ATOM      6  C   UNL     1      -0.349  -2.323  -0.480  0.00  0.00    +0.315 C 
ATOM      7  C   UNL     1       1.918  -0.604  -0.193  0.00  0.00    +0.110 C 
ATOM      8  C   UNL     1       2.115  -2.077  -0.185  0.00  0.00    +0.262 C 
ATOM      9  H   UNL     1       1.051  -3.797  -0.330  0.00  0.00    +0.159 HD
ENDROOT
BRANCH   3  13
ATOM     10  O   UNL     1      -1.591   0.950  -1.320  0.00  0.00    -0.333 OA
ATOM     11  C   UNL     1      -2.386   0.034   0.716  0.00  0.00    +0.191 C 
ATOM     12  C   UNL     1      -3.220   1.251   0.373  0.00  0.00    +0.171 C 
ATOM     13  C   UNL     1      -1.747  -0.296  -0.622  0.00  0.00    +0.230 C 
ATOM     14  C   UNL     1      -2.328   1.978  -0.623  0.00  0.00    +0.175 C 
BRANCH  11  15
ATOM     15  O   UNL     1      -3.169  -1.028   1.221  0.00  0.00    -0.347 OA
ATOM     16  C   UNL     1      -3.861  -0.657   2.409  0.00  0.00    +0.174 C 
ENDBRANCH  11  15
BRANCH  12  17
ATOM     17  O   UNL     1      -4.411   0.859  -0.307  0.00  0.00    -0.379 OA
ATOM     18  H   UNL     1      -4.997   0.392   0.309  0.00  0.00    +0.211 HD
ENDBRANCH  12  17
BRANCH  14  19
ATOM     19  C   UNL     1      -1.325   2.915   0.038  0.00  0.00    +0.169 C 
BRANCH  19  20
ATOM     20  O   UNL     1      -0.555   3.523  -0.974  0.00  0.00    -0.379 OA
ATOM     21  H   UNL     1       0.091   4.125  -0.572  0.00  0.00    +0.211 HD
ENDBRANCH  19  20
ENDBRANCH  14  19
ENDBRANCH   3  13
BRANCH   7  22
ATOM     22  C   UNL     1       3.029   0.272  -0.052  0.00  0.00    -0.061 C 
ATOM     23  C   UNL     1       3.967   1.011   0.067  0.00  0.00    -0.111 C 
BRANCH  23  24
ATOM     24  C   UNL     1       5.112   1.917   0.208  0.00  0.00    -0.007 C 
BRANCH  24  25
ATOM     25  N   UNL     1       5.713   1.794   1.530  0.00  0.00    +0.388 N 
ATOM     26  H   UNL     1       6.505   2.432   1.604  0.00  0.00    -0.088 HD
ATOM     27  H   UNL     1       6.033   0.836   1.671  0.00  0.00    -0.088 HD
ATOM     28  H   UNL     1       5.020   2.029   2.241  0.00  0.00    -0.088 HD
ENDBRANCH  24  25
ENDBRANCH  23  24
ENDBRANCH   7  22
TORSDOF 8
