REMARK  Name = 13009229
REMARK  5 active torsions:
REMARK  status: ('A' for Active; 'I' for Inactive)
REMARK    1  A    between atoms: N_1  and  C1*_11
REMARK    2  A    between atoms: C_7  and  N_22
REMARK    3  A    between atoms: C3*_12  and  O3*_15
REMARK    4  A    between atoms: C4*_14  and  C5*_17
REMARK    5  A    between atoms: C5*_17  and  O5*_18
REMARK                            x       y       z     vdW  Elec       q    Type
REMARK                         _______ _______ _______ _____ _____    ______ ____
ROOT
ATOM      1  N   UNL     1      -0.358   0.029   0.112  0.00  0.00    -0.186 N 
ATOM      2  N   UNL     1      -0.243  -1.299  -0.076  0.00  0.00    -0.174 NA
ATOM      3  C   UNL     1       0.845   0.687   0.165  0.00  0.00    +0.075 C 
ATOM      4  C   UNL     1       1.813  -0.296  -0.003  0.00  0.00    +0.058 C 
ATOM      5  C   UNL     1       1.076  -1.492  -0.145  0.00  0.00    +0.121 C 
ATOM      6  C   UNL     1       1.154   2.038   0.342  0.00  0.00    +0.017 C 
ATOM      7  C   UNL     1       3.170   0.066   0.003  0.00  0.00    +0.146 C 
ATOM      8  C   UNL     1       2.509   2.382   0.345  0.00  0.00    +0.003 C 
ATOM      9  C   UNL     1       3.502   1.415   0.179  0.00  0.00    +0.024 C 
ENDROOT
BRANCH   1  11
ATOM     10  O4* UNL     1      -2.574  -0.302   0.891  0.00  0.00    -0.334 OA
ATOM     11  C1* UNL     1      -1.685   0.620   0.238  0.00  0.00    +0.214 C 
ATOM     12  C3* UNL     1      -3.803   0.934  -0.735  0.00  0.00    +0.144 C 
ATOM     13  C2* UNL     1      -2.334   0.990  -1.088  0.00  0.00    +0.084 C 
ATOM     14  C4* UNL     1      -3.875  -0.209   0.272  0.00  0.00    +0.173 C 
BRANCH  12  15
ATOM     15  O3* UNL     1      -4.159   2.157  -0.094  0.00  0.00    -0.382 OA
ATOM     16  H3* UNL     1      -4.113   2.883  -0.736  0.00  0.00    +0.210 HD
ENDBRANCH  12  15
BRANCH  14  17
ATOM     17  C5* UNL     1      -4.182  -1.549  -0.382  0.00  0.00    +0.169 C 
BRANCH  17  18
ATOM     18  O5* UNL     1      -4.219  -2.535   0.625  0.00  0.00    -0.379 OA
ATOM     19  H5* UNL     1      -4.414  -3.397   0.227  0.00  0.00    +0.211 HD
ENDBRANCH  17  18
ENDBRANCH  14  17
ENDBRANCH   1  11
BRANCH   7  22
ATOM     20  O   UNL     1       5.377  -0.586  -0.160  0.00  0.00    -0.126 OA
ATOM     21  O   UNL     1       3.818  -2.123  -0.322  0.00  0.00    -0.126 OA
ATOM     22  N   UNL     1       4.167  -0.926  -0.168  0.00  0.00    +0.058 N 
ENDBRANCH   7  22
TORSDOF 5
