REMARK  Name = 13009556
REMARK  7 active torsions:
REMARK  status: ('A' for Active; 'I' for Inactive)
REMARK    1  A    between atoms: N_3  and  C1*_12
REMARK    2  A    between atoms: C_7  and  C_20
REMARK    3  A    between atoms: C3*_11  and  O3*_15
REMARK    4  A    between atoms: C4*_14  and  C5*_17
REMARK    5  A    between atoms: C5*_17  and  O5*_18
REMARK    6  A    between atoms: C_20  and  S_21
REMARK    7  A    between atoms: S_21  and  C_22
REMARK                            x       y       z     vdW  Elec       q    Type
REMARK                         _______ _______ _______ _____ _____    ______ ____
ROOT
ATOM      1  O   UNL     1       3.576   2.824   0.197  0.00  0.00    -0.252 OA
ATOM      2  O   UNL     1      -0.953   3.499  -0.226  0.00  0.00    -0.270 OA
ATOM      3  N   UNL     1       2.217   0.958  -0.151  0.00  0.00    -0.219 N 
ATOM      4  N   UNL     1       1.315   3.146  -0.015  0.00  0.00    -0.236 N 
ATOM      5  C   UNL     1       0.924   0.488  -0.343  0.00  0.00    +0.072 C 
ATOM      6  C   UNL     1       2.457   2.338   0.023  0.00  0.00    +0.315 C 
ATOM      7  C   UNL     1      -0.166   1.265  -0.379  0.00  0.00    +0.058 C 
ATOM      8  C   UNL     1       0.005   2.732  -0.203  0.00  0.00    +0.251 C 
ATOM      9  H   UNL     1       1.457   4.113   0.105  0.00  0.00    +0.159 HD
ENDROOT
BRANCH   3  12
ATOM     10  O4* UNL     1       2.987  -1.070  -1.029  0.00  0.00    -0.335 OA
ATOM     11  C3* UNL     1       3.997  -1.990   0.909  0.00  0.00    +0.144 C 
ATOM     12  C1* UNL     1       3.293   0.010  -0.136  0.00  0.00    +0.202 C 
ATOM     13  C2* UNL     1       3.528  -0.592   1.240  0.00  0.00    +0.083 C 
ATOM     14  C4* UNL     1       3.220  -2.323  -0.357  0.00  0.00    +0.173 C 
BRANCH  11  15
ATOM     15  O3* UNL     1       5.395  -1.975   0.631  0.00  0.00    -0.382 OA
ATOM     16  H3* UNL     1       5.883  -1.762   1.442  0.00  0.00    +0.210 HD
ENDBRANCH  11  15
BRANCH  14  17
ATOM     17  C5* UNL     1       1.866  -2.961  -0.072  0.00  0.00    +0.169 C 
BRANCH  17  18
ATOM     18  O5* UNL     1       1.215  -3.224  -1.304  0.00  0.00    -0.379 OA
ATOM     19  H5* UNL     1       0.351  -3.630  -1.133  0.00  0.00    +0.211 HD
ENDBRANCH  17  18
ENDBRANCH  14  17
ENDBRANCH   3  12
BRANCH   7  20
ATOM     20  C   UNL     1      -1.550   0.739  -0.586  0.00  0.00    +0.094 C 
BRANCH  20  21
ATOM     21  S   UNL     1      -2.299   0.344   1.008  0.00  0.00    -0.109 S 
BRANCH  21  22
ATOM     22  C   UNL     1      -3.918  -0.245   0.514  0.00  0.00    +0.026 C 
ATOM     23  C   UNL     1      -4.255  -0.284  -0.834  0.00  0.00    +0.006 C 
ATOM     24  C   UNL     1      -4.825  -0.659   1.484  0.00  0.00    +0.006 C 
ATOM     25  C   UNL     1      -5.515  -0.742  -1.218  0.00  0.00    +0.001 C 
ATOM     26  C   UNL     1      -6.085  -1.118   1.099  0.00  0.00    +0.001 C 
ATOM     27  C   UNL     1      -6.430  -1.159  -0.252  0.00  0.00    +0.000 C 
ENDBRANCH  21  22
ENDBRANCH  20  21
ENDBRANCH   7  20
TORSDOF 7
