REMARK  Name = 130034
REMARK  6 active torsions:
REMARK  status: ('A' for Active; 'I' for Inactive)
REMARK    1  A    between atoms: C_5  and  C_12
REMARK    2  A    between atoms: C_6  and  C_23
REMARK    3  A    between atoms: C_13  and  N_18
REMARK    4  A    between atoms: N_22  and  C_25
REMARK    5  A    between atoms: C_25  and  C_26
REMARK    6  A    between atoms: C_26  and  C_29
REMARK                            x       y       z     vdW  Elec       q    Type
REMARK                         _______ _______ _______ _____ _____    ______ ____
ROOT
ATOM      1  S   UNL     1      -1.312  -0.104  -0.551  0.00  0.00    -0.052 S 
ATOM      2  O   UNL     1       2.471  -2.458   0.675  0.00  0.00    -0.268 OA
ATOM      3  N   UNL     1       1.215  -0.665  -0.139  0.00  0.00    -0.250 N 
ATOM      4  N   UNL     1      -0.431  -2.335   0.413  0.00  0.00    -0.388 NA
ATOM      5  C   UNL     1       2.416  -1.321   0.213  0.00  0.00    +0.265 C 
ATOM      6  C   UNL     1      -2.460  -1.314  -0.148  0.00  0.00    +0.179 C 
ATOM      7  C   UNL     1      -1.808  -2.423   0.347  0.00  0.00    +0.108 C 
ATOM      8  C   UNL     1      -0.059  -1.156  -0.034  0.00  0.00    +0.213 C 
ATOM      9  C   UNL     1      -2.446  -3.675   0.804  0.00  0.00    +0.063 C 
ATOM     10  H   UNL     1       1.304   0.247  -0.500  0.00  0.00    +0.158 HD
ENDROOT
BRANCH   5  12
ATOM     11  N   UNL     1       4.873  -1.042  -0.264  0.00  0.00    -0.280 N 
ATOM     12  C   UNL     1       3.641  -0.521   0.032  0.00  0.00    +0.107 C 
ATOM     13  C   UNL     1       5.131   1.160  -0.124  0.00  0.00    +0.067 C 
ATOM     14  C   UNL     1       3.772   0.847   0.125  0.00  0.00    +0.035 C 
ATOM     15  C   UNL     1       5.789  -0.027  -0.362  0.00  0.00    +0.080 C 
ATOM     16  C   UNL     1       5.178  -2.443  -0.452  0.00  0.00    +0.117 C 
BRANCH  13  18
ATOM     17  O   UNL     1       3.929   3.887   0.355  0.00  0.00    -0.265 OA
ATOM     18  N   UNL     1       5.713   2.406  -0.135  0.00  0.00    -0.276 N 
ATOM     19  C   UNL     1       5.098   3.635   0.096  0.00  0.00    +0.304 C 
ATOM     20  H   UNL     1       6.678   2.433  -0.329  0.00  0.00    +0.155 HD
ENDBRANCH  13  18
ENDBRANCH   5  12
BRANCH   6  23
ATOM     21  O   UNL     1      -4.752  -1.910  -0.107  0.00  0.00    -0.274 OA
ATOM     22  N   UNL     1      -4.225   0.187  -0.884  0.00  0.00    -0.303 N 
ATOM     23  C   UNL     1      -3.893  -1.063  -0.356  0.00  0.00    +0.239 C 
ATOM     24  H   UNL     1      -3.503   0.832  -1.066  0.00  0.00    +0.149 HD
BRANCH  22  25
ATOM     25  C   UNL     1      -5.582   0.566  -1.171  0.00  0.00    +0.097 C 
BRANCH  25  26
ATOM     26  C   UNL     1      -6.260   1.235   0.018  0.00  0.00    +0.081 C 
BRANCH  26  29
ATOM     27  N   UNL     1      -4.584   2.414   1.398  0.00  0.00    -0.346 N 
ATOM     28  N   UNL     1      -5.876   3.612  -0.172  0.00  0.00    -0.289 NA
ATOM     29  C   UNL     1      -5.539   2.508   0.421  0.00  0.00    +0.095 C 
ATOM     30  H   UNL     1      -4.094   3.218   1.687  0.00  0.00    +0.143 HD
ATOM     31  H   UNL     1      -4.387   1.543   1.812  0.00  0.00    +0.143 HD
ATOM     32  H   UNL     1      -5.428   4.456   0.066  0.00  0.00    +0.188 HD
ENDBRANCH  26  29
ENDBRANCH  25  26
ENDBRANCH  22  25
ENDBRANCH   6  23
TORSDOF 6
