REMARK  Name = 130080
REMARK  9 active torsions:
REMARK  status: ('A' for Active; 'I' for Inactive)
REMARK    1  A    between atoms: C_1  and  C_19
REMARK    2  A    between atoms: C_4  and  C_23
REMARK    3  A    between atoms: C_19  and  O_20
REMARK    4  A    between atoms: C_23  and  O_28
REMARK    5  A    between atoms: C_24  and  O_30
REMARK    6  A    between atoms: C_25  and  O_32
REMARK    7  A    between atoms: C_26  and  O_34
REMARK    8  A    between atoms: C_27  and  C_36
REMARK    9  A    between atoms: C_36  and  O_37
REMARK                            x       y       z     vdW  Elec       q    Type
REMARK                         _______ _______ _______ _____ _____    ______ ____
ROOT
ATOM      1  C   UNL     1      -0.313   0.955   0.608  0.00  0.00    +0.033 C 
ATOM      2  C   UNL     1       0.901   0.512   0.070  0.00  0.00    -0.001 C 
ATOM      3  C   UNL     1      -0.583   2.327   0.651  0.00  0.00    +0.001 C 
ATOM      4  C   UNL     1       1.832   1.429  -0.418  0.00  0.00    +0.009 C 
ATOM      5  C   UNL     1       0.347   3.244   0.163  0.00  0.00    -0.000 C 
ATOM      6  C   UNL     1       1.555   2.795  -0.371  0.00  0.00    -0.002 C 
ENDROOT
BRANCH   1  19
ATOM      7  O   UNL     1      -1.609  -1.854   0.146  0.00  0.00    -0.218 OA
ATOM      8  O   UNL     1      -0.748  -1.373   1.242  0.00  0.00    -0.190 OA
ATOM      9  C   UNL     1      -2.426  -0.652   0.232  0.00  0.00    +0.180 C 
ATOM     10  C   UNL     1      -3.787  -0.949   0.886  0.00  0.00    +0.033 C 
ATOM     11  C   UNL     1      -2.598   0.011  -1.143  0.00  0.00    +0.033 C 
ATOM     12  C   UNL     1      -4.734   1.066  -0.306  0.00  0.00    +0.000 C 
ATOM     13  C   UNL     1      -4.799  -1.196  -1.415  0.00  0.00    +0.000 C 
ATOM     14  C   UNL     1      -4.536   0.385   1.062  0.00  0.00    +0.003 C 
ATOM     15  C   UNL     1      -4.597  -1.870  -0.046  0.00  0.00    +0.003 C 
ATOM     16  C   UNL     1      -3.356   1.336  -0.942  0.00  0.00    +0.003 C 
ATOM     17  C   UNL     1      -3.423  -0.922  -2.048  0.00  0.00    +0.003 C 
ATOM     18  C   UNL     1      -5.544   0.136  -1.223  0.00  0.00    +0.000 C 
ATOM     19  C   UNL     1      -1.341  -0.058   1.147  0.00  0.00    +0.264 C 
BRANCH  19  20
ATOM     20  O   UNL     1      -1.821   0.381   2.441  0.00  0.00    -0.325 OA
ATOM     21  C   UNL     1      -0.752   0.478   3.357  0.00  0.00    +0.177 C 
ENDBRANCH  19  20
ENDBRANCH   1  19
BRANCH   4  23
ATOM     22  O   UNL     1       2.955  -1.528  -0.902  0.00  0.00    -0.326 OA
ATOM     23  C   UNL     1       3.160   0.935  -1.007  0.00  0.00    +0.186 C 
ATOM     24  C   UNL     1       4.293   0.815   0.048  0.00  0.00    +0.173 C 
ATOM     25  C   UNL     1       3.110  -0.412  -1.780  0.00  0.00    +0.264 C 
ATOM     26  C   UNL     1       4.185  -0.450   0.907  0.00  0.00    +0.170 C 
ATOM     27  C   UNL     1       4.050  -1.685   0.007  0.00  0.00    +0.176 C 
BRANCH  23  28
ATOM     28  O   UNL     1       3.601   1.912  -1.972  0.00  0.00    -0.376 OA
ATOM     29  H   UNL     1       3.654   2.783  -1.549  0.00  0.00    +0.211 HD
ENDBRANCH  23  28
BRANCH  24  30
ATOM     30  O   UNL     1       4.376   1.971   0.874  0.00  0.00    -0.379 OA
ATOM     31  H   UNL     1       4.444   2.763   0.317  0.00  0.00    +0.211 HD
ENDBRANCH  24  30
BRANCH  25  32
ATOM     32  O   UNL     1       2.060  -0.374  -2.748  0.00  0.00    -0.358 OA
ATOM     33  H   UNL     1       2.032  -1.216  -3.228  0.00  0.00    +0.213 HD
ENDBRANCH  25  32
BRANCH  26  34
ATOM     34  O   UNL     1       3.062  -0.363   1.780  0.00  0.00    -0.379 OA
ATOM     35  H   UNL     1       3.152   0.419   2.346  0.00  0.00    +0.211 HD
ENDBRANCH  26  34
BRANCH  27  36
ATOM     36  C   UNL     1       3.801  -2.960   0.803  0.00  0.00    +0.169 C 
BRANCH  36  37
ATOM     37  O   UNL     1       3.679  -4.042  -0.103  0.00  0.00    -0.379 OA
ATOM     38  H   UNL     1       3.520  -4.861   0.391  0.00  0.00    +0.211 HD
ENDBRANCH  36  37
ENDBRANCH  27  36
ENDBRANCH   4  23
TORSDOF 9
