13009556
  -OEChem-03292013303D

 42 44  0     1  0  0  0  0  0999 V2000
   -2.2993    0.3436    1.0079 S   0  0  0  0  0  0  0  0  0  0  0  0
    2.9869   -1.0700   -1.0289 O   0  0  0  0  0  0  0  0  0  0  0  0
    5.3949   -1.9750    0.6310 O   0  0  0  0  0  0  0  0  0  0  0  0
    1.2153   -3.2238   -1.3045 O   0  0  0  0  0  0  0  0  0  0  0  0
    3.5758    2.8240    0.1974 O   0  0  0  0  0  0  0  0  0  0  0  0
   -0.9534    3.4990   -0.2261 O   0  0  0  0  0  0  0  0  0  0  0  0
    2.2172    0.9579   -0.1514 N   0  0  0  0  0  0  0  0  0  0  0  0
    1.3151    3.1462   -0.0149 N   0  0  0  0  0  0  0  0  0  0  0  0
    3.9965   -1.9902    0.9089 C   0  0  1  0  0  0  0  0  0  0  0  0
    3.2928    0.0101   -0.1357 C   0  0  1  0  0  0  0  0  0  0  0  0
    3.5279   -0.5920    1.2399 C   0  0  0  0  0  0  0  0  0  0  0  0
    3.2200   -2.3232   -0.3573 C   0  0  1  0  0  0  0  0  0  0  0  0
    1.8664   -2.9606   -0.0723 C   0  0  0  0  0  0  0  0  0  0  0  0
    0.9240    0.4885   -0.3430 C   0  0  0  0  0  0  0  0  0  0  0  0
    2.4565    2.3378    0.0231 C   0  0  0  0  0  0  0  0  0  0  0  0
   -0.1661    1.2649   -0.3788 C   0  0  0  0  0  0  0  0  0  0  0  0
    0.0052    2.7316   -0.2029 C   0  0  0  0  0  0  0  0  0  0  0  0
   -1.5500    0.7387   -0.5863 C   0  0  0  0  0  0  0  0  0  0  0  0
   -3.9177   -0.2452    0.5145 C   0  0  0  0  0  0  0  0  0  0  0  0
   -4.2545   -0.2839   -0.8339 C   0  0  0  0  0  0  0  0  0  0  0  0
   -4.8246   -0.6592    1.4837 C   0  0  0  0  0  0  0  0  0  0  0  0
   -5.5146   -0.7423   -1.2182 C   0  0  0  0  0  0  0  0  0  0  0  0
   -6.0846   -1.1178    1.0993 C   0  0  0  0  0  0  0  0  0  0  0  0
   -6.4296   -1.1593   -0.2517 C   0  0  0  0  0  0  0  0  0  0  0  0
    3.8291   -2.7068    1.7185 H   0  0  0  0  0  0  0  0  0  0  0  0
    4.2112    0.4847   -0.5015 H   0  0  0  0  0  0  0  0  0  0  0  0
    2.5945   -0.6419    1.8136 H   0  0  0  0  0  0  0  0  0  0  0  0
    4.2469   -0.0034    1.8182 H   0  0  0  0  0  0  0  0  0  0  0  0
    3.7959   -2.9518   -1.0455 H   0  0  0  0  0  0  0  0  0  0  0  0
    1.2186   -2.3350    0.5460 H   0  0  0  0  0  0  0  0  0  0  0  0
    2.0059   -3.9156    0.4457 H   0  0  0  0  0  0  0  0  0  0  0  0
    0.7910   -0.5722   -0.4801 H   0  0  0  0  0  0  0  0  0  0  0  0
    5.8503   -1.7018    1.4457 H   0  0  0  0  0  0  0  0  0  0  0  0
    1.4632    4.1440    0.1084 H   0  0  0  0  0  0  0  0  0  0  0  0
    0.3624   -3.6407   -1.0943 H   0  0  0  0  0  0  0  0  0  0  0  0
   -1.4922   -0.1679   -1.2003 H   0  0  0  0  0  0  0  0  0  0  0  0
   -2.1440    1.4817   -1.1289 H   0  0  0  0  0  0  0  0  0  0  0  0
   -3.6038    0.0177   -1.6435 H   0  0  0  0  0  0  0  0  0  0  0  0
   -4.5724   -0.6335    2.5406 H   0  0  0  0  0  0  0  0  0  0  0  0
   -5.7843   -0.7759   -2.2699 H   0  0  0  0  0  0  0  0  0  0  0  0
   -6.7974   -1.4426    1.8517 H   0  0  0  0  0  0  0  0  0  0  0  0
   -7.4106   -1.5165   -0.5509 H   0  0  0  0  0  0  0  0  0  0  0  0
  1 18  1  0  0  0  0
  1 19  1  0  0  0  0
  2 10  1  0  0  0  0
  2 12  1  0  0  0  0
  3  9  1  0  0  0  0
  3 33  1  0  0  0  0
  4 13  1  0  0  0  0
  4 35  1  0  0  0  0
  5 15  2  0  0  0  0
  6 17  2  0  0  0  0
  7 10  1  0  0  0  0
  7 14  1  0  0  0  0
  7 15  1  0  0  0  0
  8 15  1  0  0  0  0
  8 17  1  0  0  0  0
  8 34  1  0  0  0  0
  9 11  1  0  0  0  0
  9 12  1  0  0  0  0
  9 25  1  0  0  0  0
 10 11  1  0  0  0  0
 10 26  1  0  0  0  0
 11 27  1  0  0  0  0
 11 28  1  0  0  0  0
 12 13  1  0  0  0  0
 12 29  1  0  0  0  0
 13 30  1  0  0  0  0
 13 31  1  0  0  0  0
 14 16  2  0  0  0  0
 14 32  1  0  0  0  0
 16 17  1  0  0  0  0
 16 18  1  0  0  0  0
 18 36  1  0  0  0  0
 18 37  1  0  0  0  0
 19 20  2  0  0  0  0
 19 21  1  0  0  0  0
 20 22  1  0  0  0  0
 20 38  1  0  0  0  0
 21 23  2  0  0  0  0
 21 39  1  0  0  0  0
 22 24  2  0  0  0  0
 22 40  1  0  0  0  0
 23 24  1  0  0  0  0
 23 41  1  0  0  0  0
 24 42  1  0  0  0  0
M  END
> <PUBCHEM_COMPOUND_CID>
13009556

> <PUBCHEM_CONFORMER_RMSD>
0.8

> <PUBCHEM_CONFORMER_DIVERSEORDER>
2
14
70
53
58
38
27
71
48
42
15
29
51
62
64
69
5
22
23
28
21
73
46
59
66
67
36
57
1
40
39
74
8
63
68
16
75
13
43
11
10
32
72
24
52
60
20
37
25
49
18
33
47
4
17
30
3
26
45
61
55
65
19
34
56
31
50
12
35
7
41
9
44
6
54
76

> <PUBCHEM_MMFF94_PARTIAL_CHARGES>
32
1 -0.33
10 0.58
12 0.28
13 0.28
14 -0.04
15 0.69
16 -0.12
17 0.62
18 0.37
19 0.1
2 -0.56
20 -0.15
21 -0.15
22 -0.15
23 -0.15
24 -0.15
3 -0.68
32 0.15
33 0.4
34 0.37
35 0.4
38 0.15
39 0.15
4 -0.68
40 0.15
41 0.15
42 0.15
5 -0.57
6 -0.57
7 -0.47
8 -0.49
9 0.28

> <PUBCHEM_EFFECTIVE_ROTOR_COUNT>
6

> <PUBCHEM_PHARMACOPHORE_FEATURES>
11
1 2 acceptor
1 3 acceptor
1 3 donor
1 4 acceptor
1 4 donor
1 5 acceptor
1 6 acceptor
1 8 donor
5 2 9 10 11 12 rings
6 19 20 21 22 23 24 rings
6 7 8 14 15 16 17 rings

> <PUBCHEM_HEAVY_ATOM_COUNT>
24

> <PUBCHEM_ATOM_DEF_STEREO_COUNT>
3

> <PUBCHEM_ATOM_UDEF_STEREO_COUNT>
0

> <PUBCHEM_BOND_DEF_STEREO_COUNT>
0

> <PUBCHEM_BOND_UDEF_STEREO_COUNT>
0

> <PUBCHEM_ISOTOPIC_ATOM_COUNT>
0

> <PUBCHEM_COMPONENT_COUNT>
1

> <PUBCHEM_CACTVS_TAUTO_COUNT>
3

> <PUBCHEM_CONFORMER_ID>
00C6829400000002

> <PUBCHEM_MMFF94_ENERGY>
62.5233

> <PUBCHEM_FEATURE_SELFOVERLAP>
55.828

> <PUBCHEM_SHAPE_FINGERPRINT>
10622 236 17771885385265881855
114674 6 18261112997406377586
11595378 159 16343708707807569795
11796584 16 17240755203524801505
12107183 9 18197789804287792897
12363563 72 18261682475662381803
12553582 1 18412549781819238638
12596602 18 16845569829423298163
13083527 12 18413106134840036532
13402501 40 18187085057236291675
13464513 79 18342176635885866146
13533116 47 18342740762754798201
13782708 43 17604440716859525891
13955234 65 18267302217079066584
1454969 45 18411138035492213118
14790565 3 17687749754222100764
14848160 33 18334857203784843723
14863182 85 18263369247138821980
14866123 147 17975130947009728585
15250474 111 18058722650162497919
17349148 13 18131360730341188171
17818456 19 17558570019029013425
18222031 100 18272092681818936141
18681886 176 15912216493178790593
1979834 28 18130788936454629031
20028762 73 18202561782714129967
20403669 9 18261394416944255771
20511986 3 17632288030296290125
20645477 70 18334573577108509201
21033650 10 15864345788677746949
21197605 99 18049730908089165331
21279426 13 18041549270731818229
21285901 2 17822003242340768981
21315764 119 15502646041326430859
21315764 371 17060617828227017851
21421861 104 18200328666292336337
21478907 32 18337390444527153349
22224240 67 18127686248386496448
23559900 14 17603587464890332949
239999 70 17749668596725700424
3004659 81 17748826297841114722
314194 84 18340205297425611917
33824 294 18337955700566399504
3421961 26 18410011052404591273
345986 75 18060424607835525489
46194498 28 17386289925668682989
463206 1 18409449228329031623
465052 167 18409169908892932742
5104073 3 18341899589104931921
5309563 4 18410572842859130887
7970288 3 18336542703428932810
8863177 126 17969233390029528163

> <PUBCHEM_SHAPE_MULTIPOLES>
458.45
12.99
3.79
1.16
17.23
1.47
-0.12
-8.6
-1.98
-4.82
0.49
0.81
-0.5
0.09

> <PUBCHEM_SHAPE_SELFOVERLAP>
962.858

> <PUBCHEM_SHAPE_VOLUME>
259

> <PUBCHEM_COORDINATE_TYPE>
2
5
10

$$$$
