REMARK  Name = 130098
REMARK  5 active torsions:
REMARK  status: ('A' for Active; 'I' for Inactive)
REMARK    1  A    between atoms: C_4  and  S_17
REMARK    2  A    between atoms: S_17  and  N_20
REMARK    3  A    between atoms: N_20  and  C_22
REMARK    4  A    between atoms: C_22  and  C_24
REMARK    5  A    between atoms: C_24  and  O_25
REMARK                            x       y       z     vdW  Elec       q    Type
REMARK                         _______ _______ _______ _____ _____    ______ ____
ROOT
ATOM      1  F   UNL     1      -6.810  -1.109  -0.912  0.00  0.00    -0.204 F 
ATOM      2  O   UNL     1      -2.277   1.780   0.275  0.00  0.00    -0.453 OA
ATOM      3  O   UNL     1      -1.956  -2.291   0.002  0.00  0.00    -0.286 OA
ATOM      4  C   UNL     1       1.451   0.035   0.913  0.00  0.00    +0.123 C 
ATOM      5  C   UNL     1      -0.892  -0.228   0.400  0.00  0.00    +0.075 A 
ATOM      6  C   UNL     1       0.368  -0.793   0.618  0.00  0.00    +0.026 C 
ATOM      7  C   UNL     1      -1.072   1.153   0.476  0.00  0.00    +0.148 A 
ATOM      8  C   UNL     1       1.276   1.417   0.991  0.00  0.00    +0.023 C 
ATOM      9  C   UNL     1      -2.052  -1.075   0.086  0.00  0.00    +0.202 A 
ATOM     10  C   UNL     1      -3.334  -0.385  -0.125  0.00  0.00    +0.076 A 
ATOM     11  C   UNL     1       0.017   1.976   0.773  0.00  0.00    +0.039 C 
ATOM     12  C   UNL     1      -3.372   1.005  -0.018  0.00  0.00    +0.148 A 
ATOM     13  C   UNL     1      -4.492  -1.106  -0.427  0.00  0.00    +0.036 C 
ATOM     14  C   UNL     1      -4.578   1.680  -0.214  0.00  0.00    +0.040 C 
ATOM     15  C   UNL     1      -5.695  -0.426  -0.622  0.00  0.00    +0.140 C 
ATOM     16  C   UNL     1      -5.738   0.965  -0.516  0.00  0.00    +0.033 C 
ENDROOT
BRANCH   4  17
ATOM     17  S   UNL     1       3.029  -0.660   1.189  0.00  0.00    +0.064 S 
ATOM     18  O   UNL     1       3.789   0.257   2.032  0.00  0.00    -0.153 OA
ATOM     19  O   UNL     1       2.848  -2.034   1.644  0.00  0.00    -0.153 OA
BRANCH  17  20
ATOM     20  N   UNL     1       3.738  -0.683  -0.389  0.00  0.00    -0.143 NA
ATOM     21  C   UNL     1       3.045  -1.468  -1.442  0.00  0.00    +0.116 C 
BRANCH  20  22
ATOM     22  C   UNL     1       4.283   0.594  -0.915  0.00  0.00    +0.205 C 
BRANCH  22  24
ATOM     23  O   UNL     1       6.399  -0.601  -1.006  0.00  0.00    -0.249 OA
ATOM     24  C   UNL     1       5.748   0.419  -1.175  0.00  0.00    +0.332 C 
BRANCH  24  25
ATOM     25  O   UNL     1       6.278   1.581  -1.637  0.00  0.00    -0.479 OA
ATOM     26  H   UNL     1       5.732   2.334  -1.747  0.00  0.00    +0.295 HD
ENDBRANCH  24  25
ENDBRANCH  22  24
ENDBRANCH  20  22
ENDBRANCH  17  20
ENDBRANCH   4  17
TORSDOF 5
