REMARK  Name = 130170
REMARK  10 active torsions:
REMARK  status: ('A' for Active; 'I' for Inactive)
REMARK    1  A    between atoms: N_2  and  CA_5
REMARK    2  A    between atoms: C_3  and  C_14
REMARK    3  A    between atoms: CA_5  and  C_7
REMARK    4  A    between atoms: CA_5  and  CB_10
REMARK    5  A    between atoms: C_7  and  O_8
REMARK    6  A    between atoms: CB_10  and  CG_11
REMARK    7  A    between atoms: C_14  and  C_15
REMARK    8  A    between atoms: C_15  and  C_16
REMARK    9  A    between atoms: C_16  and  C_18
REMARK   10  A    between atoms: C_18  and  O_19
REMARK                            x       y       z     vdW  Elec       q    Type
REMARK                         _______ _______ _______ _____ _____    ______ ____
ROOT
ATOM      1  O   UNL     1       0.090  -0.850   1.336  0.00  0.00    -0.275 OA
ATOM      2  N   UNL     1      -1.157  -0.048  -0.450  0.00  0.00    -0.297 N 
ATOM      3  C   ACE A   0       0.024  -0.320   0.230  0.00  0.00    +0.223 C 
ATOM      4  H   UNL     1      -1.106   0.381  -1.335  0.00  0.00    +0.150 HD
ENDROOT
BRANCH   2   5
ATOM      5  CA  UNL     1      -2.452  -0.368   0.091  0.00  0.00    +0.171 C 
BRANCH   5   7
ATOM      6  OXT UNL     1      -3.877  -2.310   0.316  0.00  0.00    -0.248 OA
ATOM      7  C   UNL     1      -2.868  -1.808  -0.166  0.00  0.00    +0.332 C 
BRANCH   7   8
ATOM      8  O   UNL     1      -2.002  -2.515  -0.930  0.00  0.00    -0.479 OA
ATOM      9  H   UNL     1      -1.240  -2.099  -1.282  0.00  0.00    +0.295 HD
ENDBRANCH   7   8
ENDBRANCH   5   7
BRANCH   5  10
ATOM     10  CB  UNL     1      -3.525   0.649  -0.325  0.00  0.00    +0.031 C 
BRANCH  10  11
ATOM     11  CG  UNL     1      -3.224   2.147  -0.091  0.00  0.00    +0.002 C 
ATOM     12  CD1 UNL     1      -2.971   2.384   1.402  0.00  0.00    +0.000 C 
ATOM     13  CD2 UNL     1      -2.037   2.671  -0.897  0.00  0.00    +0.000 C 
ENDBRANCH  10  11
ENDBRANCH   5  10
ENDBRANCH   2   5
BRANCH   3  14
ATOM     14  C   UNL     1       1.244   0.144  -0.549  0.00  0.00    +0.086 C 
BRANCH  14  15
ATOM     15  C   UNL     1       2.568  -0.135   0.160  0.00  0.00    +0.021 C 
BRANCH  15  16
ATOM     16  C   UNL     1       3.775   0.334  -0.654  0.00  0.00    +0.110 C 
BRANCH  16  18
ATOM     17  O   UNL     1       5.190  -0.516   1.135  0.00  0.00    -0.250 OA
ATOM     18  C   UNL     1       5.079   0.047   0.055  0.00  0.00    +0.314 C 
BRANCH  18  19
ATOM     19  O   UNL     1       6.143   0.493  -0.662  0.00  0.00    -0.480 OA
ATOM     20  H   UNL     1       6.007   0.919  -1.485  0.00  0.00    +0.295 HD
ENDBRANCH  18  19
ENDBRANCH  16  18
ENDBRANCH  15  16
ENDBRANCH  14  15
ENDBRANCH   3  14
TORSDOF 10
