REMARK  Name = 130190
REMARK  3 active torsions:
REMARK  status: ('A' for Active; 'I' for Inactive)
REMARK    1  A    between atoms: S_1  and  C_9
REMARK    2  A    between atoms: S_1  and  S_16
REMARK    3  A    between atoms: S_16  and  C_24
REMARK                            x       y       z     vdW  Elec       q    Type
REMARK                         _______ _______ _______ _____ _____    ______ ____
ROOT
ATOM      1  S   UNL     1      -0.426   2.119  -1.411  0.00  0.00    -0.018 S 
ENDROOT
BRANCH   1   9
ATOM      2  N   UNL     1      -1.392  -1.005  -1.973  0.00  0.00    -0.269 NA
ATOM      3  N   UNL     1      -2.994  -2.174  -0.954  0.00  0.00    -0.296 N 
ATOM      4  N   UNL     1      -3.687  -0.422   0.583  0.00  0.00    -0.316 NA
ATOM      5  N   UNL     1      -2.429   1.654   0.346  0.00  0.00    -0.324 NA
ATOM      6  N   UNL     1      -4.138   1.436   1.931  0.00  0.00    -0.283 N 
ATOM      7  C   UNL     1      -1.925  -0.166  -1.037  0.00  0.00    +0.185 C 
ATOM      8  C   UNL     1      -2.917  -0.913  -0.418  0.00  0.00    +0.193 C 
ATOM      9  C   UNL     1      -1.676   1.137  -0.651  0.00  0.00    +0.180 C 
ATOM     10  C   UNL     1      -2.064  -2.196  -1.885  0.00  0.00    +0.164 C 
ATOM     11  C   UNL     1      -3.375   0.854   0.893  0.00  0.00    +0.197 C 
ATOM     12  H   UNL     1      -0.659  -0.794  -2.596  0.00  0.00    +0.126 HD
ATOM     13  H   UNL     1      -3.608  -2.900  -0.699  0.00  0.00    +0.150 HD
ATOM     14  H   UNL     1      -4.844   0.912   2.375  0.00  0.00    +0.156 HD
ATOM     15  H   UNL     1      -3.965   2.364   2.210  0.00  0.00    +0.156 HD
ENDBRANCH   1   9
BRANCH   1  16
ATOM     16  S   UNL     1       0.810   2.564   0.179  0.00  0.00    -0.018 S 
BRANCH  16  24
ATOM     17  N   UNL     1       0.731  -0.414   1.643  0.00  0.00    -0.269 NA
ATOM     18  N   UNL     1       2.223  -2.065   1.524  0.00  0.00    -0.296 N 
ATOM     19  N   UNL     1       3.782  -0.932   0.043  0.00  0.00    -0.316 NA
ATOM     20  N   UNL     1       3.078   1.314  -0.599  0.00  0.00    -0.324 NA
ATOM     21  N   UNL     1       5.087   0.394  -1.376  0.00  0.00    -0.283 N 
ATOM     22  C   UNL     1       1.724   0.043   0.825  0.00  0.00    +0.185 C 
ATOM     23  C   UNL     1       2.639  -1.000   0.767  0.00  0.00    +0.193 C 
ATOM     24  C   UNL     1       1.960   1.201   0.132  0.00  0.00    +0.180 C 
ATOM     25  C   UNL     1       1.074  -1.680   2.037  0.00  0.00    +0.164 C 
ATOM     26  C   UNL     1       3.915   0.249  -0.599  0.00  0.00    +0.197 C 
ATOM     27  H   UNL     1      -0.083   0.077   1.902  0.00  0.00    +0.126 HD
ATOM     28  H   UNL     1       2.683  -2.926   1.656  0.00  0.00    +0.150 HD
ATOM     29  H   UNL     1       5.741  -0.340  -1.423  0.00  0.00    +0.156 HD
ATOM     30  H   UNL     1       5.249   1.230  -1.871  0.00  0.00    +0.156 HD
ENDBRANCH  16  24
ENDBRANCH   1  16
TORSDOF 3
