REMARK  Name = 130135
REMARK  8 active torsions:
REMARK  status: ('A' for Active; 'I' for Inactive)
REMARK    1  A    between atoms: C_4  and  C_18
REMARK    2  A    between atoms: C_10  and  C_16
REMARK    3  A    between atoms: C_18  and  O_19
REMARK    4  A    between atoms: O_19  and  C_21
REMARK    5  A    between atoms: C_20  and  C_31
REMARK    6  A    between atoms: C_22  and  O_29
REMARK    7  A    between atoms: C_23  and  C_27
REMARK    8  A    between atoms: C_31  and  C_32
REMARK                            x       y       z     vdW  Elec       q    Type
REMARK                         _______ _______ _______ _____ _____    ______ ____
ROOT
ATOM      1  O   UNL     1      -5.072  -0.805   0.319  0.00  0.00    -0.268 OA
ATOM      2  N   UNL     1      -2.921  -1.647  -0.055  0.00  0.00    -0.217 N 
ATOM      3  N   UNL     1      -1.211  -0.185  -0.830  0.00  0.00    -0.228 NA
ATOM      4  C   UNL     1      -0.639  -2.522  -0.504  0.00  0.00    +0.053 C 
ATOM      5  C   UNL     1      -1.610  -1.369  -0.474  0.00  0.00    +0.141 C 
ATOM      6  C   UNL     1      -1.068  -3.737  -0.134  0.00  0.00    +0.003 C 
ATOM      7  C   UNL     1      -3.286  -2.938   0.312  0.00  0.00    +0.074 C 
ATOM      8  C   UNL     1      -3.896  -0.640  -0.004  0.00  0.00    +0.269 C 
ATOM      9  C   UNL     1      -2.422  -3.957   0.285  0.00  0.00    +0.016 C 
ATOM     10  C   UNL     1      -3.411   0.722  -0.400  0.00  0.00    +0.139 C 
ATOM     11  C   UNL     1      -2.128   0.824  -0.778  0.00  0.00    +0.115 C 
ENDROOT
BRANCH  10  16
ATOM     12  N   UNL     1      -5.597   1.807  -0.002  0.00  0.00    -0.109 NA
ATOM     13  N   UNL     1      -3.865   3.070  -0.733  0.00  0.00    -0.086 NA
ATOM     14  N   UNL     1      -5.899   3.102  -0.172  0.00  0.00    -0.140 N 
ATOM     15  N   UNL     1      -4.902   3.888  -0.604  0.00  0.00    -0.022 NA
ATOM     16  C   UNL     1      -4.316   1.840  -0.366  0.00  0.00    +0.079 C 
ATOM     17  H   UNL     1      -6.799   3.456   0.010  0.00  0.00    +0.197 HD
ENDBRANCH  10  16
BRANCH   4  18
ATOM     18  C   UNL     1       0.766  -2.255  -0.946  0.00  0.00    +0.235 C 
BRANCH  18  19
ATOM     19  O   UNL     1       1.564  -1.908   0.171  0.00  0.00    -0.471 OA
BRANCH  19  21
ATOM     20  C   UNL     1       3.074  -0.207   0.931  0.00  0.00    +0.045 C 
ATOM     21  C   UNL     1       2.631  -1.075  -0.059  0.00  0.00    +0.138 C 
ATOM     22  C   UNL     1       4.158   0.633   0.678  0.00  0.00    +0.135 C 
ATOM     23  C   UNL     1       4.792   0.598  -0.564  0.00  0.00    +0.068 C 
ATOM     24  C   UNL     1       3.256  -1.116  -1.300  0.00  0.00    +0.037 C 
ATOM     25  C   UNL     1       4.341  -0.276  -1.553  0.00  0.00    +0.009 C 
BRANCH  23  27
ATOM     26  O   UNL     1       6.365   2.263   0.000  0.00  0.00    -0.291 OA
ATOM     27  C   UNL     1       5.926   1.465  -0.851  0.00  0.00    +0.176 C 
ATOM     28  C   UNL     1       6.606   1.413  -2.214  0.00  0.00    +0.077 C 
ENDBRANCH  23  27
BRANCH  22  29
ATOM     29  O   UNL     1       4.598   1.488   1.647  0.00  0.00    -0.506 OA
ATOM     30  H   UNL     1       4.172   1.510   2.481  0.00  0.00    +0.292 HD
ENDBRANCH  22  29
BRANCH  20  31
ATOM     31  C   UNL     1       2.392  -0.171   2.262  0.00  0.00    +0.033 C 
BRANCH  31  32
ATOM     32  C   UNL     1       1.243   0.844   2.295  0.00  0.00    +0.005 C 
ATOM     33  C   UNL     1       0.534   0.851   3.640  0.00  0.00    +0.000 C 
ENDBRANCH  31  32
ENDBRANCH  20  31
ENDBRANCH  19  21
ENDBRANCH  18  19
ENDBRANCH   4  18
TORSDOF 8
