REMARK  Name = 13019100
REMARK  9 active torsions:
REMARK  status: ('A' for Active; 'I' for Inactive)
REMARK    1  A    between atoms: C_1  and  O_19
REMARK    2  A    between atoms: C_2  and  N_7
REMARK    3  A    between atoms: C_3  and  O_17
REMARK    4  A    between atoms: C_4  and  N_11
REMARK    5  A    between atoms: C_5  and  O_15
REMARK    6  A    between atoms: O_19  and  C_21
REMARK    7  A    between atoms: C_22  and  N_26
REMARK    8  A    between atoms: C_24  and  C_30
REMARK    9  A    between atoms: C_30  and  N_31
REMARK                            x       y       z     vdW  Elec       q    Type
REMARK                         _______ _______ _______ _____ _____    ______ ____
ROOT
ATOM      1  C   UNL     1       0.574   0.402   0.661  0.00  0.00    +0.123 C 
ATOM      2  C   UNL     1       2.684  -0.779  -0.159  0.00  0.00    -0.004 C 
ATOM      3  C   UNL     1       1.772  -0.481   1.049  0.00  0.00    +0.119 C 
ATOM      4  C   UNL     1       0.939   1.656  -0.163  0.00  0.00    -0.033 C 
ATOM      5  C   UNL     1       3.122   0.493  -0.905  0.00  0.00    +0.096 C 
ATOM      6  C   UNL     1       1.904   1.328  -1.320  0.00  0.00    +0.008 C 
ENDROOT
BRANCH   2   7
ATOM      7  N   UNL     1       3.854  -1.554   0.261  0.00  0.00    +0.387 N 
ATOM      8  C   UNL     1       4.638  -1.955  -0.894  0.00  0.00    -0.105 C 
ATOM      9  H   UNL     1       3.543  -2.387   0.761  0.00  0.00    -0.084 HD
ATOM     10  H   UNL     1       4.433  -0.975   0.869  0.00  0.00    -0.084 HD
ENDBRANCH   2   7
BRANCH   4  11
ATOM     11  N   UNL     1       1.494   2.715   0.682  0.00  0.00    +0.383 N 
ATOM     12  H   UNL     1       0.844   2.920   1.441  0.00  0.00    -0.089 HD
ATOM     13  H   UNL     1       1.638   3.556   0.122  0.00  0.00    -0.089 HD
ATOM     14  H   UNL     1       2.385   2.409   1.071  0.00  0.00    -0.089 HD
ENDBRANCH   4  11
BRANCH   5  15
ATOM     15  O   UNL     1       3.981   1.298  -0.102  0.00  0.00    -0.356 OA
ATOM     16  C   UNL     1       4.432   2.443  -0.810  0.00  0.00    +0.174 C 
ENDBRANCH   5  15
BRANCH   3  17
ATOM     17  O   UNL     1       2.485   0.136   2.118  0.00  0.00    -0.384 OA
ATOM     18  H   UNL     1       1.878   0.306   2.856  0.00  0.00    +0.210 HD
ENDBRANCH   3  17
BRANCH   1  19
ATOM     19  O   UNL     1      -0.367  -0.380  -0.080  0.00  0.00    -0.334 OA
BRANCH  19  21
ATOM     20  O   UNL     1      -2.410  -0.220   1.104  0.00  0.00    -0.337 OA
ATOM     21  C   UNL     1      -1.282  -1.045   0.789  0.00  0.00    +0.214 C 
ATOM     22  C   UNL     1      -1.759  -2.367   0.172  0.00  0.00    -0.008 C 
ATOM     23  C   UNL     1      -2.626  -2.107  -1.063  0.00  0.00    -0.015 C 
ATOM     24  C   UNL     1      -3.210   0.115  -0.036  0.00  0.00    +0.097 C 
ATOM     25  C   UNL     1      -3.758  -1.147  -0.705  0.00  0.00    +0.025 C 
BRANCH  22  26
ATOM     26  N   UNL     1      -0.633  -3.230  -0.173  0.00  0.00    +0.385 N 
ATOM     27  H   UNL     1      -0.064  -3.395   0.658  0.00  0.00    -0.089 HD
ATOM     28  H   UNL     1      -0.065  -2.778  -0.890  0.00  0.00    -0.089 HD
ATOM     29  H   UNL     1      -0.982  -4.120  -0.528  0.00  0.00    -0.089 HD
ENDBRANCH  22  26
BRANCH  24  30
ATOM     30  C   UNL     1      -4.343   1.013   0.443  0.00  0.00    -0.052 C 
BRANCH  30  31
ATOM     31  N   UNL     1      -5.201   1.408  -0.665  0.00  0.00    +0.384 N 
ATOM     32  C   UNL     1      -6.290   2.259  -0.204  0.00  0.00    -0.106 C 
ATOM     33  H   UNL     1      -5.592   0.572  -1.098  0.00  0.00    -0.085 HD
ATOM     34  H   UNL     1      -4.643   1.931  -1.339  0.00  0.00    -0.085 HD
ENDBRANCH  30  31
ENDBRANCH  24  30
ENDBRANCH  19  21
ENDBRANCH   1  19
TORSDOF 9
