REMARK  Name = 13018200
REMARK  8 active torsions:
REMARK  status: ('A' for Active; 'I' for Inactive)
REMARK    1  A    between atoms: C_4  and  C_13
REMARK    2  A    between atoms: C_7  and  C_10
REMARK    3  A    between atoms: C_8  and  S_17
REMARK    4  A    between atoms: C_10  and  O_11
REMARK    5  A    between atoms: C_13  and  O_15
REMARK    6  A    between atoms: S_17  and  C_18
REMARK    7  A    between atoms: C_18  and  C_19
REMARK    8  A    between atoms: C_19  and  N_20
REMARK                            x       y       z     vdW  Elec       q    Type
REMARK                         _______ _______ _______ _____ _____    ______ ____
ROOT
ATOM      1  O   UNL     1      -2.423   1.917  -0.395  0.00  0.00    -0.274 OA
ATOM      2  N   UNL     1      -0.841   0.395   0.472  0.00  0.00    -0.254 N 
ATOM      3  C   UNL     1      -1.112  -1.052   0.324  0.00  0.00    +0.096 C 
ATOM      4  C   UNL     1      -2.470  -0.638  -0.303  0.00  0.00    +0.123 C 
ATOM      5  C   UNL     1       0.081  -1.582  -0.480  0.00  0.00    +0.055 C 
ATOM      6  C   UNL     1      -2.007   0.821  -0.092  0.00  0.00    +0.233 C 
ATOM      7  C   UNL     1       0.413   0.684   0.011  0.00  0.00    +0.132 C 
ATOM      8  C   UNL     1       1.006  -0.392  -0.521  0.00  0.00    +0.025 C 
ENDROOT
BRANCH   7  10
ATOM      9  O   UNL     1       1.686   2.549  -0.730  0.00  0.00    -0.244 OA
ATOM     10  C   UNL     1       0.926   2.048   0.083  0.00  0.00    +0.352 C 
BRANCH  10  11
ATOM     11  O   UNL     1       0.434   2.665   1.180  0.00  0.00    -0.476 OA
ATOM     12  H   UNL     1      -0.147   2.206   1.755  0.00  0.00    +0.295 HD
ENDBRANCH  10  11
ENDBRANCH   7  10
BRANCH   4  13
ATOM     13  C   UNL     1      -3.729  -1.011   0.441  0.00  0.00    +0.121 C 
ATOM     14  C   UNL     1      -4.138  -2.450   0.148  0.00  0.00    +0.032 C 
BRANCH  13  15
ATOM     15  O   UNL     1      -4.788  -0.137   0.051  0.00  0.00    -0.384 OA
ATOM     16  H   UNL     1      -4.534   0.781   0.235  0.00  0.00    +0.210 HD
ENDBRANCH  13  15
ENDBRANCH   4  13
BRANCH   8  17
ATOM     17  S   UNL     1       2.564  -0.477  -1.235  0.00  0.00    -0.119 S 
BRANCH  17  18
ATOM     18  C   UNL     1       3.560  -0.888   0.217  0.00  0.00    +0.038 C 
BRANCH  18  19
ATOM     19  C   UNL     1       5.022  -1.060  -0.175  0.00  0.00    -0.074 C 
BRANCH  19  20
ATOM     20  N   UNL     1       5.816  -1.391   1.004  0.00  0.00    +0.381 N 
ATOM     21  H   UNL     1       6.793  -1.505   0.735  0.00  0.00    -0.089 HD
ATOM     22  H   UNL     1       5.472  -2.261   1.412  0.00  0.00    -0.089 HD
ATOM     23  H   UNL     1       5.737  -0.640   1.689  0.00  0.00    -0.089 HD
ENDBRANCH  19  20
ENDBRANCH  18  19
ENDBRANCH  17  18
ENDBRANCH   8  17
TORSDOF 8
