130170
  -OEChem-03292013323D

 36 35  0     1  0  0  0  0  0999 V2000
   -2.0020   -2.5152   -0.9301 O   0  0  0  0  0  0  0  0  0  0  0  0
    0.0898   -0.8497    1.3356 O   0  0  0  0  0  0  0  0  0  0  0  0
   -3.8775   -2.3100    0.3158 O   0  0  0  0  0  0  0  0  0  0  0  0
    6.1428    0.4933   -0.6620 O   0  0  0  0  0  0  0  0  0  0  0  0
    5.1902   -0.5162    1.1352 O   0  0  0  0  0  0  0  0  0  0  0  0
   -1.1566   -0.0475   -0.4503 N   0  0  0  0  0  0  0  0  0  0  0  0
   -3.5248    0.6490   -0.3250 C   0  0  0  0  0  0  0  0  0  0  0  0
   -3.2238    2.1470   -0.0915 C   0  0  0  0  0  0  0  0  0  0  0  0
   -2.4516   -0.3681    0.0914 C   0  0  1  0  0  0  0  0  0  0  0  0
   -2.9708    2.3841    1.4022 C   0  0  0  0  0  0  0  0  0  0  0  0
   -2.0369    2.6710   -0.8968 C   0  0  0  0  0  0  0  0  0  0  0  0
    1.2436    0.1441   -0.5488 C   0  0  0  0  0  0  0  0  0  0  0  0
    0.0240   -0.3203    0.2295 C   0  0  0  0  0  0  0  0  0  0  0  0
   -2.8678   -1.8077   -0.1658 C   0  0  0  0  0  0  0  0  0  0  0  0
    2.5676   -0.1349    0.1601 C   0  0  0  0  0  0  0  0  0  0  0  0
    3.7751    0.3341   -0.6544 C   0  0  0  0  0  0  0  0  0  0  0  0
    5.0786    0.0468    0.0551 C   0  0  0  0  0  0  0  0  0  0  0  0
   -4.4636    0.3983    0.1876 H   0  0  0  0  0  0  0  0  0  0  0  0
   -3.7349    0.5113   -1.3949 H   0  0  0  0  0  0  0  0  0  0  0  0
   -4.1163    2.7113   -0.3901 H   0  0  0  0  0  0  0  0  0  0  0  0
   -2.3479   -0.3212    1.1836 H   0  0  0  0  0  0  0  0  0  0  0  0
   -3.7979    1.9959    2.0059 H   0  0  0  0  0  0  0  0  0  0  0  0
   -2.0438    1.9151    1.7467 H   0  0  0  0  0  0  0  0  0  0  0  0
   -2.8891    3.4577    1.6055 H   0  0  0  0  0  0  0  0  0  0  0  0
   -1.0701    2.4263   -0.4508 H   0  0  0  0  0  0  0  0  0  0  0  0
   -2.0649    2.3140   -1.9310 H   0  0  0  0  0  0  0  0  0  0  0  0
   -2.0801    3.7663   -0.9345 H   0  0  0  0  0  0  0  0  0  0  0  0
   -1.1030    0.2650   -1.4154 H   0  0  0  0  0  0  0  0  0  0  0  0
    1.2343   -0.3598   -1.5229 H   0  0  0  0  0  0  0  0  0  0  0  0
    1.1425    1.2208   -0.7298 H   0  0  0  0  0  0  0  0  0  0  0  0
    2.5697    0.3591    1.1403 H   0  0  0  0  0  0  0  0  0  0  0  0
    2.6546   -1.2103    0.3621 H   0  0  0  0  0  0  0  0  0  0  0  0
    3.7086    1.4144   -0.8240 H   0  0  0  0  0  0  0  0  0  0  0  0
    3.7925   -0.1802   -1.6215 H   0  0  0  0  0  0  0  0  0  0  0  0
   -2.2938   -3.4439   -1.0512 H   0  0  0  0  0  0  0  0  0  0  0  0
    6.9926    0.3089   -0.2079 H   0  0  0  0  0  0  0  0  0  0  0  0
  1 14  1  0  0  0  0
  1 35  1  0  0  0  0
  2 13  2  0  0  0  0
  3 14  2  0  0  0  0
  4 17  1  0  0  0  0
  4 36  1  0  0  0  0
  5 17  2  0  0  0  0
  6  9  1  0  0  0  0
  6 13  1  0  0  0  0
  6 28  1  0  0  0  0
  7  8  1  0  0  0  0
  7  9  1  0  0  0  0
  7 18  1  0  0  0  0
  7 19  1  0  0  0  0
  8 10  1  0  0  0  0
  8 11  1  0  0  0  0
  8 20  1  0  0  0  0
  9 14  1  0  0  0  0
  9 21  1  0  0  0  0
 10 22  1  0  0  0  0
 10 23  1  0  0  0  0
 10 24  1  0  0  0  0
 11 25  1  0  0  0  0
 11 26  1  0  0  0  0
 11 27  1  0  0  0  0
 12 13  1  0  0  0  0
 12 15  1  0  0  0  0
 12 29  1  0  0  0  0
 12 30  1  0  0  0  0
 15 16  1  0  0  0  0
 15 31  1  0  0  0  0
 15 32  1  0  0  0  0
 16 17  1  0  0  0  0
 16 33  1  0  0  0  0
 16 34  1  0  0  0  0
M  END
> <PUBCHEM_COMPOUND_CID>
130170

> <PUBCHEM_CONFORMER_RMSD>
0.8

> <PUBCHEM_CONFORMER_DIVERSEORDER>
2
120
12
113
103
128
79
20
124
118
99
19
27
130
50
92
123
30
76
28
105
110
85
31
98
121
87
25
136
33
72
84
65
5
89
132
78
135
107
116
59
11
74
122
22
102
4
47
29
58
14
43
36
32
6
131
21
52
13
1
129
46
114
71
109
17
104
88
75
126
26
77
53
69
51
108
101
82
95
93
57
83
56
111
49
67
127
133
16
66
81
54
125
91
112
15
34
86
60
24
97
64
119
7
18
94
73
117
35
3
45
90
41
8
48
40
38
106
134
10
55
42
61
96
62
115
100
68
37
80
70
63
9
23
44
39

> <PUBCHEM_MMFF94_PARTIAL_CHARGES>
15
1 -0.65
12 0.06
13 0.57
14 0.66
16 0.06
17 0.66
2 -0.57
28 0.37
3 -0.57
35 0.5
36 0.5
4 -0.65
5 -0.57
6 -0.73
9 0.36

> <PUBCHEM_EFFECTIVE_ROTOR_COUNT>
9

> <PUBCHEM_PHARMACOPHORE_FEATURES>
9
1 1 acceptor
1 2 acceptor
1 3 acceptor
1 4 acceptor
1 5 acceptor
1 6 donor
3 1 3 14 anion
3 4 5 17 anion
3 8 10 11 hydrophobe

> <PUBCHEM_HEAVY_ATOM_COUNT>
17

> <PUBCHEM_ATOM_DEF_STEREO_COUNT>
1

> <PUBCHEM_ATOM_UDEF_STEREO_COUNT>
0

> <PUBCHEM_BOND_DEF_STEREO_COUNT>
0

> <PUBCHEM_BOND_UDEF_STEREO_COUNT>
0

> <PUBCHEM_ISOTOPIC_ATOM_COUNT>
0

> <PUBCHEM_COMPONENT_COUNT>
1

> <PUBCHEM_CACTVS_TAUTO_COUNT>
2

> <PUBCHEM_CONFORMER_ID>
0001FC7A00000002

> <PUBCHEM_MMFF94_ENERGY>
23.9098

> <PUBCHEM_FEATURE_SELFOVERLAP>
45.792

> <PUBCHEM_SHAPE_FINGERPRINT>
10680689 15 18341618143833879714
10912923 1 18040433304978439768
12107183 9 17756979018179800426
13167823 11 18334853927183966730
13583140 156 17846486037844406350
14251764 38 18131060572173195728
1741750 31 18271245997957604377
17844677 252 18343026627272714928
19489759 90 18201996612588695664
20300324 65 18335139820990545205
20645477 56 18342461408943506641
20645477 70 16415205508134477470
21426921 1 18411419527042105511
2297311 6 18342747354933673831
2306618 200 18202009832566579065
23380061 127 18410009952940215310
23402539 116 18113894983606851782
23557571 272 18201729452442772148
312423 11 18042137599082372364
4214541 1 18411419501425405972
441001 317 18273214175495885200
5104073 3 18409162200175177794
573450 72 18334285458012603178

> <PUBCHEM_SHAPE_MULTIPOLES>
315.52
10.96
2.57
1.04
20.11
0.07
0.23
1.25
0.26
-4.9
-0.16
-0.04
0.24
-0.64

> <PUBCHEM_SHAPE_SELFOVERLAP>
605.353

> <PUBCHEM_SHAPE_VOLUME>
191.7

> <PUBCHEM_COORDINATE_TYPE>
2
5
10

$$$$
