REMARK  Name = 130164
REMARK  9 active torsions:
REMARK  status: ('A' for Active; 'I' for Inactive)
REMARK    1  A    between atoms: C_1  and  C_2
REMARK    2  A    between atoms: C_1  and  O_12
REMARK    3  A    between atoms: C_1  and  C_14
REMARK    4  A    between atoms: C_3  and  O_8
REMARK    5  A    between atoms: C_7  and  O_10
REMARK    6  A    between atoms: C_14  and  C_15
REMARK    7  A    between atoms: C_15  and  C_16
REMARK    8  A    between atoms: C_19  and  O_22
REMARK    9  A    between atoms: C_21  and  O_24
REMARK                            x       y       z     vdW  Elec       q    Type
REMARK                         _______ _______ _______ _____ _____    ______ ____
ROOT
ATOM      1  C   UNL     1       1.491  -1.712  -0.668  0.00  0.00    +0.136 C 
ENDROOT
BRANCH   1   2
ATOM      2  C   UNL     1       2.439  -0.581  -0.344  0.00  0.00    +0.038 C 
ATOM      3  C   UNL     1       3.248  -0.652   0.779  0.00  0.00    +0.135 C 
ATOM      4  C   UNL     1       2.478   0.516  -1.191  0.00  0.00    +0.004 C 
ATOM      5  C   UNL     1       4.117   0.401   1.064  0.00  0.00    +0.073 C 
ATOM      6  C   UNL     1       3.348   1.569  -0.906  0.00  0.00    +0.037 C 
ATOM      7  C   UNL     1       4.167   1.512   0.221  0.00  0.00    +0.137 C 
BRANCH   3   8
ATOM      8  O   UNL     1       3.210  -1.728   1.613  0.00  0.00    -0.506 OA
ATOM      9  H   UNL     1       2.630  -2.441   1.432  0.00  0.00    +0.292 HD
ENDBRANCH   3   8
BRANCH   7  10
ATOM     10  O   UNL     1       5.015   2.540   0.499  0.00  0.00    -0.505 OA
ATOM     11  H   UNL     1       5.565   2.502   1.256  0.00  0.00    +0.292 HD
ENDBRANCH   7  10
ENDBRANCH   1   2
BRANCH   1  12
ATOM     12  O   UNL     1       1.920  -2.294  -1.902  0.00  0.00    -0.380 OA
ATOM     13  H   UNL     1       1.329  -3.026  -2.137  0.00  0.00    +0.211 HD
ENDBRANCH   1  12
BRANCH   1  14
ATOM     14  C   UNL     1       0.018  -1.289  -0.805  0.00  0.00    +0.039 C 
BRANCH  14  15
ATOM     15  C   UNL     1      -0.615  -0.722   0.481  0.00  0.00    +0.029 C 
BRANCH  15  16
ATOM     16  C   UNL     1      -2.066  -0.393   0.372  0.00  0.00    -0.019 C 
ATOM     17  C   UNL     1      -2.463   0.881  -0.035  0.00  0.00    +0.036 C 
ATOM     18  C   UNL     1      -3.025  -1.359   0.677  0.00  0.00    -0.001 C 
ATOM     19  C   UNL     1      -3.820   1.189  -0.136  0.00  0.00    +0.167 C 
ATOM     20  C   UNL     1      -4.381  -1.051   0.575  0.00  0.00    +0.039 C 
ATOM     21  C   UNL     1      -4.779   0.223   0.169  0.00  0.00    +0.167 C 
BRANCH  19  22
ATOM     22  O   UNL     1      -4.195   2.436  -0.535  0.00  0.00    -0.503 OA
ATOM     23  H   UNL     1      -3.545   3.079  -0.738  0.00  0.00    +0.292 HD
ENDBRANCH  19  22
BRANCH  21  24
ATOM     24  O   UNL     1      -6.107   0.512   0.072  0.00  0.00    -0.503 OA
ATOM     25  H   UNL     1      -6.382   1.365  -0.201  0.00  0.00    +0.292 HD
ENDBRANCH  21  24
ENDBRANCH  15  16
ENDBRANCH  14  15
ENDBRANCH   1  14
TORSDOF 9
