REMARK  Name = 13018150
REMARK  6 active torsions:
REMARK  status: ('A' for Active; 'I' for Inactive)
REMARK    1  A    between atoms: C_6  and  O_21
REMARK    2  A    between atoms: C_6  and  C_26
REMARK    3  A    between atoms: C_9  and  O_23
REMARK    4  A    between atoms: C_26  and  C_27
REMARK    5  A    between atoms: C_27  and  O_28
REMARK    6  A    between atoms: O_28  and  C_30
REMARK                            x       y       z     vdW  Elec       q    Type
REMARK                         _______ _______ _______ _____ _____    ______ ____
ROOT
ATOM      1  O   UNL     1      -7.079   0.229  -1.532  0.00  0.00    -0.287 OA
ATOM      2  C   UNL     1       0.989   0.111   0.272  0.00  0.00    +0.031 C 
ATOM      3  C   UNL     1       0.105  -1.059  -0.213  0.00  0.00    +0.003 C 
ATOM      4  C   UNL     1      -1.296  -1.050   0.408  0.00  0.00    +0.003 C 
ATOM      5  C   UNL     1      -2.034   0.288   0.042  0.00  0.00    +0.034 C 
ATOM      6  C   UNL     1       2.323  -0.260  -0.428  0.00  0.00    +0.143 C 
ATOM      7  C   UNL     1       0.304   1.403  -0.183  0.00  0.00    +0.032 C 
ATOM      8  C   UNL     1       0.987  -2.287   0.010  0.00  0.00    +0.003 C 
ATOM      9  C   UNL     1      -1.139   1.532   0.350  0.00  0.00    +0.111 C 
ATOM     10  C   UNL     1      -3.498   0.320   0.658  0.00  0.00    +0.036 C 
ATOM     11  C   UNL     1       2.419  -1.792  -0.271  0.00  0.00    +0.034 C 
ATOM     12  C   UNL     1      -2.109  -2.273  -0.045  0.00  0.00    +0.004 C 
ATOM     13  C   UNL     1       1.186   0.140   1.814  0.00  0.00    +0.003 C 
ATOM     14  C   UNL     1      -3.514  -2.265   0.543  0.00  0.00    +0.022 C 
ATOM     15  C   UNL     1      -4.209  -0.968   0.216  0.00  0.00    -0.038 C 
ATOM     16  C   UNL     1      -3.477   0.387   2.203  0.00  0.00    +0.009 C 
ATOM     17  C   UNL     1      -4.283   1.547   0.214  0.00  0.00    -0.020 C 
ATOM     18  C   UNL     1      -5.356  -0.989  -0.482  0.00  0.00    +0.034 C 
ATOM     19  C   UNL     1      -5.424   1.533  -0.482  0.00  0.00    +0.038 C 
ATOM     20  C   UNL     1      -6.037   0.257  -0.886  0.00  0.00    +0.195 C 
ENDROOT
BRANCH   6  21
ATOM     21  O   UNL     1       2.282   0.073  -1.813  0.00  0.00    -0.380 OA
ATOM     22  H   UNL     1       1.520  -0.361  -2.227  0.00  0.00    +0.211 HD
ENDBRANCH   6  21
BRANCH   9  23
ATOM     23  O   UNL     1      -1.674   2.715  -0.244  0.00  0.00    -0.384 OA
ATOM     24  H   UNL     1      -2.586   2.845   0.060  0.00  0.00    +0.210 HD
ENDBRANCH   9  23
BRANCH   6  26
ATOM     25  O   UNL     1       3.443   1.600   0.553  0.00  0.00    -0.290 OA
ATOM     26  C   UNL     1       3.528   0.462   0.094  0.00  0.00    +0.218 C 
BRANCH  26  27
ATOM     27  C   UNL     1       4.842  -0.287   0.021  0.00  0.00    +0.274 C 
BRANCH  27  28
ATOM     28  O   UNL     1       5.921   0.612  -0.120  0.00  0.00    -0.440 OA
BRANCH  28  30
ATOM     29  O   UNL     1       7.418  -1.147  -0.155  0.00  0.00    -0.250 OA
ATOM     30  C   UNL     1       7.171   0.050  -0.197  0.00  0.00    +0.318 C 
ATOM     31  C   UNL     1       8.212   1.118  -0.344  0.00  0.00    +0.121 C 
ENDBRANCH  28  30
ENDBRANCH  27  28
ENDBRANCH  26  27
ENDBRANCH   6  26
TORSDOF 6
