130199
  -OEChem-03292013323D

 56 59  0     1  0  0  0  0  0999 V2000
   -3.3859   -1.5495   -0.9943 O   0  0  0  0  0  0  0  0  0  0  0  0
   -1.2050   -1.6581    1.8610 O   0  0  0  0  0  0  0  0  0  0  0  0
   -1.8126   -3.8094    0.3155 O   0  0  0  0  0  0  0  0  0  0  0  0
   -6.0961   -2.2665   -1.0549 O   0  0  0  0  0  0  0  0  0  0  0  0
   -2.4460    0.4631   -0.1598 N   0  0  0  0  0  0  0  0  0  0  0  0
    1.9999    2.1178    0.0933 N   0  0  0  0  0  0  0  0  0  0  0  0
   -0.1080    1.1100   -0.0334 N   0  0  0  0  0  0  0  0  0  0  0  0
   -3.4010    2.4775   -0.1560 N   0  0  0  0  0  0  0  0  0  0  0  0
    0.1372    3.5371    0.0383 N   0  0  0  0  0  0  0  0  0  0  0  0
   -1.7399    5.0205   -0.0130 N   0  0  0  0  0  0  0  0  0  0  0  0
    4.9339   -0.2993    0.2966 C   0  0  0  0  0  0  0  0  0  0  0  0
    6.4352   -0.0619    0.5087 C   0  0  0  0  0  0  0  0  0  0  0  0
    4.6850   -1.1180   -0.9774 C   0  0  0  0  0  0  0  0  0  0  0  0
   -2.4400   -1.6535    1.1744 C   0  0  1  0  0  0  0  0  0  0  0  0
   -2.3275   -0.9929   -0.1912 C   0  0  1  0  0  0  0  0  0  0  0  0
   -2.9158   -3.0430    0.7989 C   0  0  1  0  0  0  0  0  0  0  0  0
    7.2180   -1.3730    0.5149 C   0  0  0  0  0  0  0  0  0  0  0  0
    5.4706   -2.4274   -0.9687 C   0  0  0  0  0  0  0  0  0  0  0  0
   -3.8639   -2.7594   -0.3620 C   0  0  1  0  0  0  0  0  0  0  0  0
    6.9611   -2.1879   -0.7488 C   0  0  0  0  0  0  0  0  0  0  0  0
    4.1805    1.0283    0.2406 C   0  0  0  0  0  0  0  0  0  0  0  0
    2.6756    0.8427    0.0960 C   0  0  0  0  0  0  0  0  0  0  0  0
   -5.3004   -2.5310    0.0871 C   0  0  0  0  0  0  0  0  0  0  0  0
   -1.4237    1.3661   -0.0892 C   0  0  0  0  0  0  0  0  0  0  0  0
   -3.6133    1.1787   -0.1984 C   0  0  0  0  0  0  0  0  0  0  0  0
   -2.0368    2.6089   -0.0875 C   0  0  0  0  0  0  0  0  0  0  0  0
    0.6225    2.2590    0.0295 C   0  0  0  0  0  0  0  0  0  0  0  0
   -1.2037    3.7211   -0.0203 C   0  0  0  0  0  0  0  0  0  0  0  0
    4.5578   -0.8748    1.1538 H   0  0  0  0  0  0  0  0  0  0  0  0
    6.8267    0.5873   -0.2849 H   0  0  0  0  0  0  0  0  0  0  0  0
    6.6011    0.4616    1.4578 H   0  0  0  0  0  0  0  0  0  0  0  0
    3.6270   -1.3784   -1.0808 H   0  0  0  0  0  0  0  0  0  0  0  0
    4.9636   -0.5325   -1.8627 H   0  0  0  0  0  0  0  0  0  0  0  0
   -3.1875   -1.1524    1.8002 H   0  0  0  0  0  0  0  0  0  0  0  0
   -1.3774   -1.2224   -0.6892 H   0  0  0  0  0  0  0  0  0  0  0  0
   -3.3731   -3.5962    1.6242 H   0  0  0  0  0  0  0  0  0  0  0  0
    8.2895   -1.1617    0.6057 H   0  0  0  0  0  0  0  0  0  0  0  0
    6.9332   -1.9635    1.3945 H   0  0  0  0  0  0  0  0  0  0  0  0
    5.0850   -3.0794   -0.1751 H   0  0  0  0  0  0  0  0  0  0  0  0
    5.3187   -2.9550   -1.9171 H   0  0  0  0  0  0  0  0  0  0  0  0
   -3.8303   -3.5465   -1.1239 H   0  0  0  0  0  0  0  0  0  0  0  0
    7.4831   -3.1489   -0.6806 H   0  0  0  0  0  0  0  0  0  0  0  0
    7.3771   -1.6586   -1.6149 H   0  0  0  0  0  0  0  0  0  0  0  0
    4.5547    1.6396   -0.5914 H   0  0  0  0  0  0  0  0  0  0  0  0
    4.3858    1.6004    1.1551 H   0  0  0  0  0  0  0  0  0  0  0  0
    2.3041    0.2245    0.9222 H   0  0  0  0  0  0  0  0  0  0  0  0
    2.4370    0.3349   -0.8432 H   0  0  0  0  0  0  0  0  0  0  0  0
   -5.7018   -3.4161    0.5894 H   0  0  0  0  0  0  0  0  0  0  0  0
   -5.3900   -1.6729    0.7605 H   0  0  0  0  0  0  0  0  0  0  0  0
   -0.5276   -2.0275    1.2699 H   0  0  0  0  0  0  0  0  0  0  0  0
   -1.2369   -3.9983    1.0761 H   0  0  0  0  0  0  0  0  0  0  0  0
   -4.5858    0.7084   -0.2519 H   0  0  0  0  0  0  0  0  0  0  0  0
    2.5446    2.9716    0.1350 H   0  0  0  0  0  0  0  0  0  0  0  0
   -5.7274   -1.4806   -1.4935 H   0  0  0  0  0  0  0  0  0  0  0  0
   -1.1137    5.8125    0.0360 H   0  0  0  0  0  0  0  0  0  0  0  0
   -2.7402    5.1605   -0.0569 H   0  0  0  0  0  0  0  0  0  0  0  0
  1 15  1  0  0  0  0
  1 19  1  0  0  0  0
  2 14  1  0  0  0  0
  2 50  1  0  0  0  0
  3 16  1  0  0  0  0
  3 51  1  0  0  0  0
  4 23  1  0  0  0  0
  4 54  1  0  0  0  0
  5 15  1  0  0  0  0
  5 24  1  0  0  0  0
  5 25  1  0  0  0  0
  6 22  1  0  0  0  0
  6 27  1  0  0  0  0
  6 53  1  0  0  0  0
  7 24  2  0  0  0  0
  7 27  1  0  0  0  0
  8 25  2  0  0  0  0
  8 26  1  0  0  0  0
  9 27  2  0  0  0  0
  9 28  1  0  0  0  0
 10 28  1  0  0  0  0
 10 55  1  0  0  0  0
 10 56  1  0  0  0  0
 11 12  1  0  0  0  0
 11 13  1  0  0  0  0
 11 21  1  0  0  0  0
 11 29  1  0  0  0  0
 12 17  1  0  0  0  0
 12 30  1  0  0  0  0
 12 31  1  0  0  0  0
 13 18  1  0  0  0  0
 13 32  1  0  0  0  0
 13 33  1  0  0  0  0
 14 15  1  0  0  0  0
 14 16  1  0  0  0  0
 14 34  1  0  0  0  0
 15 35  1  0  0  0  0
 16 19  1  0  0  0  0
 16 36  1  0  0  0  0
 17 20  1  0  0  0  0
 17 37  1  0  0  0  0
 17 38  1  0  0  0  0
 18 20  1  0  0  0  0
 18 39  1  0  0  0  0
 18 40  1  0  0  0  0
 19 23  1  0  0  0  0
 19 41  1  0  0  0  0
 20 42  1  0  0  0  0
 20 43  1  0  0  0  0
 21 22  1  0  0  0  0
 21 44  1  0  0  0  0
 21 45  1  0  0  0  0
 22 46  1  0  0  0  0
 22 47  1  0  0  0  0
 23 48  1  0  0  0  0
 23 49  1  0  0  0  0
 24 26  1  0  0  0  0
 25 52  1  0  0  0  0
 26 28  2  0  0  0  0
M  END
> <PUBCHEM_COMPOUND_CID>
130199

> <PUBCHEM_CONFORMER_RMSD>
1

> <PUBCHEM_CONFORMER_DIVERSEORDER>
1
46
142
99
146
95
73
112
111
81
52
14
26
113
105
131
21
39
10
106
115
139
35
132
24
124
118
17
160
134
2
76
62
150
152
33
136
45
88
50
19
149
135
141
51
156
63
23
129
121
20
57
83
107
130
3
108
86
69
47
58
92
12
127
64
68
138
48
59
116
65
122
29
49
90
38
85
53
9
28
104
4
114
32
13
128
40
72
55
161
11
100
94
80
109
153
84
18
34
117
91
60
79
74
145
87
120
93
27
143
103
101
41
89
44
119
75
66
61
31
123
5
30
54
15
110
147
67
82
140
126
42
56
144
78
70
148
96
158
71
98
6
97
43
157
77
154
133
37
8
155
25
151
7
102
22
125
16
159
36
137

> <PUBCHEM_MMFF94_PARTIAL_CHARGES>
28
1 -0.56
10 -0.9
14 0.28
15 0.54
16 0.28
19 0.28
2 -0.68
22 0.37
23 0.28
24 0.11
25 0.04
26 0.23
27 0.72
28 0.41
3 -0.68
4 -0.68
5 0.05
50 0.4
51 0.4
52 0.15
53 0.4
54 0.4
55 0.4
56 0.4
6 -0.87
7 -0.57
8 -0.57
9 -0.62

> <PUBCHEM_EFFECTIVE_ROTOR_COUNT>
8.2

> <PUBCHEM_PHARMACOPHORE_FEATURES>
16
1 1 acceptor
1 10 cation
1 10 donor
1 2 acceptor
1 2 donor
1 3 acceptor
1 3 donor
1 4 acceptor
1 4 donor
1 6 donor
3 5 8 25 cation
4 6 7 9 27 cation
5 1 14 15 16 19 rings
5 5 8 24 25 26 rings
6 11 12 13 17 18 20 rings
6 7 9 24 26 27 28 rings

> <PUBCHEM_HEAVY_ATOM_COUNT>
28

> <PUBCHEM_ATOM_DEF_STEREO_COUNT>
4

> <PUBCHEM_ATOM_UDEF_STEREO_COUNT>
0

> <PUBCHEM_BOND_DEF_STEREO_COUNT>
0

> <PUBCHEM_BOND_UDEF_STEREO_COUNT>
0

> <PUBCHEM_ISOTOPIC_ATOM_COUNT>
0

> <PUBCHEM_COMPONENT_COUNT>
1

> <PUBCHEM_CACTVS_TAUTO_COUNT>
9

> <PUBCHEM_CONFORMER_ID>
0001FC9700000001

> <PUBCHEM_MMFF94_ENERGY>
59.9343

> <PUBCHEM_FEATURE_SELFOVERLAP>
81.346

> <PUBCHEM_SHAPE_FINGERPRINT>
10411042 1 18338796835783425039
10483366 6 18337660963442751207
10693767 8 17911222138725564031
10940486 97 18188783734462108596
11186622 123 18262514780970816922
11828532 37 17971760118931620563
12107183 9 18197233636235035283
12760667 363 18411698828876452447
12788726 201 18260537918497181971
14461889 52 18271513231951578498
14659021 117 18408597068062137960
14790565 3 17618222806295983584
14844126 61 18409168792317097474
14866123 147 18411705374854848921
14931854 50 17968083235767202619
15042514 8 18411420609580202997
15250474 111 18116143365096412370
15352361 1 18338516447338559634
15361156 5 18335998501682244596
15927050 60 18123467177398749341
16120349 21 18341343223325305841
17492 89 18411419531812216380
17627616 140 17971466300012828866
17909252 39 18194126441786489424
19958102 18 18046340830456948316
20403669 9 18340209690897990318
21133410 127 9260069315791541086
21279426 13 18261660589395323367
21703447 108 18339066212059329224
23424784 1240 18130796612394624382
23428019 142 17458069261723923170
23536364 44 18261937614421840783
23559900 14 17976812409457612857
23569914 152 17982137280300942359
23572383 38 18129100027224030422
255183 313 18125179155569083161
3004659 81 17968087685827405816
3383291 50 18409731733976243171
3610482 184 17896908494538237372
395649 100 18334019359826225830
4073 2 18339924797939162592
44062 13 18339083696733527348
463206 1 18119249708066137154
508706 21 18411700963707683894
563151 74 15625678093701843797
56633871 153 18196942286543643315
613672 6 18193262212355661810
6138700 20 18409726283968777255
6431902 208 18412259550132334982
7970288 3 18267862976683595158
9709674 26 18411700980966433992

> <PUBCHEM_SHAPE_MULTIPOLES>
522.86
15.65
5.58
0.96
27.99
3.41
0.13
-15.25
-2.01
-6.77
-0.06
0.03
-0.64
0.93

> <PUBCHEM_SHAPE_SELFOVERLAP>
1109.943

> <PUBCHEM_SHAPE_VOLUME>
287

> <PUBCHEM_COORDINATE_TYPE>
2
5
10

$$$$
