REMARK  Name = 130154
REMARK  2 active torsions:
REMARK  status: ('A' for Active; 'I' for Inactive)
REMARK    1  A    between atoms: C_14  and  C_19
REMARK    2  A    between atoms: C_15  and  C_25
REMARK                            x       y       z     vdW  Elec       q    Type
REMARK                         _______ _______ _______ _____ _____    ______ ____
ROOT
ATOM      1  O   UNL     1       1.435  -1.811  -0.024  0.00  0.00    -0.270 OA
ATOM      2  O   UNL     1      -1.860  -1.558   0.021  0.00  0.00    -0.269 OA
ATOM      3  N   UNL     1       2.245   0.397  -0.030  0.00  0.00    -0.258 N 
ATOM      4  N   UNL     1       0.281   4.570   0.006  0.00  0.00    -0.212 N 
ATOM      5  N   UNL     1      -0.136   0.569   0.002  0.00  0.00    -0.316 NA
ATOM      6  N   UNL     1      -1.283   2.722   0.023  0.00  0.00    -0.315 NA
ATOM      7  N   UNL     1      -2.466   0.711   0.035  0.00  0.00    -0.205 N 
ATOM      8  N   UNL     1       1.608   4.795  -0.012  0.00  0.00    -0.182 NA
ATOM      9  C   UNL     1       1.151   2.555  -0.011  0.00  0.00    +0.180 C 
ATOM     10  C   UNL     1       1.080   1.166  -0.013  0.00  0.00    +0.190 C 
ATOM     11  C   UNL     1      -0.047   3.247   0.007  0.00  0.00    +0.203 C 
ATOM     12  C   UNL     1      -1.226   1.372   0.019  0.00  0.00    +0.208 C 
ATOM     13  C   UNL     1       2.132   3.564  -0.022  0.00  0.00    +0.108 C 
ATOM     14  C   UNL     1       2.355  -1.000  -0.034  0.00  0.00    +0.251 C 
ATOM     15  C   UNL     1      -2.699  -0.664   0.035  0.00  0.00    +0.259 C 
ATOM     16  H   UNL     1       3.093   0.897  -0.040  0.00  0.00    +0.157 HD
ATOM     17  H   UNL     1      -0.388   5.292   0.017  0.00  0.00    +0.177 HD
ATOM     18  H   UNL     1      -3.265   1.287   0.047  0.00  0.00    +0.169 HD
ENDROOT
BRANCH  14  19
ATOM     19  C   UNL     1       3.744  -1.529  -0.025  0.00  0.00    +0.054 C 
ATOM     20  C   UNL     1       3.987  -2.769  -0.576  0.00  0.00    +0.005 C 
ATOM     21  C   UNL     1       4.744  -0.762   0.535  0.00  0.00    +0.005 C 
ATOM     22  C   UNL     1       5.291  -3.265  -0.568  0.00  0.00    +0.000 C 
ATOM     23  C   UNL     1       6.047  -1.258   0.544  0.00  0.00    +0.000 C 
ATOM     24  C   UNL     1       6.321  -2.510  -0.007  0.00  0.00    +0.000 C 
ENDBRANCH  14  19
BRANCH  15  25
ATOM     25  C   UNL     1      -4.132  -1.060   0.025  0.00  0.00    +0.054 C 
ATOM     26  C   UNL     1      -4.491  -2.273   0.572  0.00  0.00    +0.005 C 
ATOM     27  C   UNL     1      -5.056  -0.200  -0.532  0.00  0.00    +0.005 C 
ATOM     28  C   UNL     1      -5.835  -2.644   0.563  0.00  0.00    +0.000 C 
ATOM     29  C   UNL     1      -6.400  -0.571  -0.541  0.00  0.00    +0.000 C 
ATOM     30  C   UNL     1      -6.790  -1.794   0.006  0.00  0.00    +0.000 C 
ENDBRANCH  15  25
TORSDOF 2
