REMARK  Name = 13019099
REMARK  9 active torsions:
REMARK  status: ('A' for Active; 'I' for Inactive)
REMARK    1  A    between atoms: C_1  and  O_19
REMARK    2  A    between atoms: C_2  and  N_7
REMARK    3  A    between atoms: C_3  and  O_17
REMARK    4  A    between atoms: C_4  and  N_11
REMARK    5  A    between atoms: C_5  and  O_15
REMARK    6  A    between atoms: O_19  and  C_21
REMARK    7  A    between atoms: C_22  and  N_26
REMARK    8  A    between atoms: C_24  and  C_30
REMARK    9  A    between atoms: C_30  and  N_31
REMARK                            x       y       z     vdW  Elec       q    Type
REMARK                         _______ _______ _______ _____ _____    ______ ____
ROOT
ATOM      1  C   UNL     1       0.573   0.389   0.884  0.00  0.00    +0.123 C 
ATOM      2  C   UNL     1       2.773  -0.491  -0.067  0.00  0.00    -0.004 C 
ATOM      3  C   UNL     1       1.811  -0.486   1.137  0.00  0.00    +0.119 C 
ATOM      4  C   UNL     1       0.906   1.809   0.382  0.00  0.00    -0.033 C 
ATOM      5  C   UNL     1       3.160   0.935  -0.491  0.00  0.00    +0.096 C 
ATOM      6  C   UNL     1       1.912   1.778  -0.777  0.00  0.00    +0.008 C 
ENDROOT
BRANCH   2   7
ATOM      7  N   UNL     1       3.973  -1.269   0.261  0.00  0.00    +0.387 N 
ATOM      8  C   UNL     1       3.611  -2.615   0.672  0.00  0.00    -0.105 C 
ATOM      9  H   UNL     1       4.473  -0.809   1.022  0.00  0.00    -0.084 HD
ATOM     10  H   UNL     1       4.566  -1.325  -0.567  0.00  0.00    -0.084 HD
ENDBRANCH   2   7
BRANCH   4  11
ATOM     11  N   UNL     1       1.423   2.653   1.463  0.00  0.00    +0.383 N 
ATOM     12  H   UNL     1       0.751   2.671   2.230  0.00  0.00    -0.089 HD
ATOM     13  H   UNL     1       1.567   3.601   1.115  0.00  0.00    -0.089 HD
ATOM     14  H   UNL     1       2.309   2.274   1.795  0.00  0.00    -0.089 HD
ENDBRANCH   4  11
BRANCH   5  15
ATOM     15  O   UNL     1       3.926   0.900  -1.695  0.00  0.00    -0.356 OA
ATOM     16  C   UNL     1       4.308   2.205  -2.098  0.00  0.00    +0.174 C 
ENDBRANCH   5  15
BRANCH   3  17
ATOM     17  O   UNL     1       2.473   0.004   2.302  0.00  0.00    -0.384 OA
ATOM     18  H   UNL     1       1.856   0.001   3.050  0.00  0.00    +0.210 HD
ENDBRANCH   3  17
BRANCH   1  19
ATOM     19  O   UNL     1      -0.287  -0.257  -0.056  0.00  0.00    -0.334 OA
BRANCH  19  21
ATOM     20  O   UNL     1      -2.383  -0.463   1.025  0.00  0.00    -0.337 OA
ATOM     21  C   UNL     1      -1.195  -1.141   0.599  0.00  0.00    +0.214 C 
ATOM     22  C   UNL     1      -1.565  -2.319  -0.315  0.00  0.00    -0.008 C 
ATOM     23  C   UNL     1      -2.395  -1.838  -1.508  0.00  0.00    -0.015 C 
ATOM     24  C   UNL     1      -3.154   0.072  -0.057  0.00  0.00    +0.097 C 
ATOM     25  C   UNL     1      -3.596  -1.038  -1.012  0.00  0.00    +0.025 C 
BRANCH  22  26
ATOM     26  N   UNL     1      -0.375  -3.027  -0.778  0.00  0.00    +0.385 N 
ATOM     27  H   UNL     1       0.168  -3.342   0.026  0.00  0.00    -0.089 HD
ATOM     28  H   UNL     1       0.193  -2.401  -1.349  0.00  0.00    -0.089 HD
ATOM     29  H   UNL     1      -0.655  -3.834  -1.335  0.00  0.00    -0.089 HD
ENDBRANCH  22  26
BRANCH  24  30
ATOM     30  C   UNL     1      -4.358   0.786   0.544  0.00  0.00    -0.052 C 
BRANCH  30  31
ATOM     31  N   UNL     1      -5.192   1.371  -0.496  0.00  0.00    +0.384 N 
ATOM     32  C   UNL     1      -6.349   2.044   0.081  0.00  0.00    -0.106 C 
ATOM     33  H   UNL     1      -5.514   0.631  -1.120  0.00  0.00    -0.085 HD
ATOM     34  H   UNL     1      -4.639   2.056  -1.010  0.00  0.00    -0.085 HD
ENDBRANCH  30  31
ENDBRANCH  24  30
ENDBRANCH  19  21
ENDBRANCH   1  19
TORSDOF 9
