REMARK  Name = 130198
REMARK  8 active torsions:
REMARK  status: ('A' for Active; 'I' for Inactive)
REMARK    1  A    between atoms: N_1  and  C1*_14
REMARK    2  A    between atoms: N_4  and  C_27
REMARK    3  A    between atoms: C2*_13  and  O2*_17
REMARK    4  A    between atoms: C3*_15  and  O3*_19
REMARK    5  A    between atoms: C4*_16  and  C5*_21
REMARK    6  A    between atoms: C5*_21  and  O5*_22
REMARK    7  A    between atoms: C_27  and  C_28
REMARK    8  A    between atoms: C_28  and  C_30
REMARK                            x       y       z     vdW  Elec       q    Type
REMARK                         _______ _______ _______ _____ _____    ______ ____
ROOT
ATOM      1  N   UNL     1       2.892   0.665   0.099  0.00  0.00    -0.236 N 
ATOM      2  N   UNL     1       3.161   2.825   0.579  0.00  0.00    -0.240 NA
ATOM      3  N   UNL     1       0.521   0.648  -0.431  0.00  0.00    -0.311 NA
ATOM      4  N   UNL     1      -1.747   1.034  -0.860  0.00  0.00    -0.258 N 
ATOM      5  N   UNL     1      -0.452   2.875  -0.213  0.00  0.00    -0.312 NA
ATOM      6  C   UNL     1       1.665   1.243  -0.061  0.00  0.00    +0.221 C 
ATOM      7  C   UNL     1       3.756   1.655   0.484  0.00  0.00    +0.224 C 
ATOM      8  C   UNL     1       1.853   2.583   0.241  0.00  0.00    +0.167 C 
ATOM      9  C   UNL     1       0.737   3.410   0.155  0.00  0.00    +0.212 C 
ATOM     10  C   UNL     1      -0.511   1.537  -0.486  0.00  0.00    +0.202 C 
ATOM     11  H   UNL     1      -1.815   0.073  -1.064  0.00  0.00    +0.160 HD
ATOM     12  N   UNL     1       0.837   4.782   0.443  0.00  0.00    -0.331 N 
ATOM     13  H   UNL     1       0.041   5.357   0.379  0.00  0.00    +0.145 HD
ATOM     14  H   UNL     1       1.703   5.167   0.710  0.00  0.00    +0.145 HD
ENDROOT
BRANCH   1  17
ATOM     15  O4* UNL     1       2.432  -1.233  -1.200  0.00  0.00    -0.333 OA
ATOM     16  C2* UNL     1       3.001  -1.736   1.037  0.00  0.00    +0.187 C 
ATOM     17  C1* UNL     1       3.228  -0.742  -0.100  0.00  0.00    +0.226 C 
ATOM     18  C3* UNL     1       2.846  -3.040   0.278  0.00  0.00    +0.171 C 
ATOM     19  C4* UNL     1       2.049  -2.602  -0.943  0.00  0.00    +0.175 C 
BRANCH  16  20
ATOM     20  O2* UNL     1       4.080  -1.783   1.948  0.00  0.00    -0.378 OA
ATOM     21  H2* UNL     1       4.147  -0.935   2.413  0.00  0.00    +0.211 HD
ENDBRANCH  16  20
BRANCH  18  22
ATOM     22  O3* UNL     1       4.117  -3.510  -0.170  0.00  0.00    -0.379 OA
ATOM     23  H3* UNL     1       4.644  -3.795   0.594  0.00  0.00    +0.211 HD
ENDBRANCH  18  22
BRANCH  19  24
ATOM     24  C5* UNL     1       0.542  -2.634  -0.721  0.00  0.00    +0.169 C 
BRANCH  24  25
ATOM     25  O5* UNL     1      -0.100  -2.200  -1.907  0.00  0.00    -0.379 OA
ATOM     26  H5* UNL     1      -1.061  -2.216  -1.779  0.00  0.00    +0.211 HD
ENDBRANCH  24  25
ENDBRANCH  19  24
ENDBRANCH   1  17
BRANCH   4  27
ATOM     27  C   UNL     1      -2.941   1.840  -0.969  0.00  0.00    +0.103 C 
BRANCH  27  28
ATOM     28  C   UNL     1      -4.150   0.983  -1.321  0.00  0.00    +0.044 C 
BRANCH  28  30
ATOM     29  C   UNL     1      -4.730   0.332   1.079  0.00  0.00    +0.022 C 
ATOM     30  C   UNL     1      -4.402  -0.111  -0.326  0.00  0.00    -0.047 C 
ATOM     31  C   UNL     1      -5.289  -0.789   1.959  0.00  0.00    +0.005 C 
ATOM     32  C   UNL     1      -4.510  -2.084   1.766  0.00  0.00    +0.005 C 
ATOM     33  C   UNL     1      -4.546  -2.534   0.306  0.00  0.00    +0.025 C 
ATOM     34  C   UNL     1      -4.338  -1.410  -0.665  0.00  0.00    -0.035 C 
ENDBRANCH  28  30
ENDBRANCH  27  28
ENDBRANCH   4  27
TORSDOF 8
