130135
  -OEChem-03292013323D

 51 54  0     0  0  0  0  0  0999 V2000
    1.5642   -1.9083    0.1711 O   0  0  0  0  0  0  0  0  0  0  0  0
    4.5980    1.4876    1.6467 O   0  0  0  0  0  0  0  0  0  0  0  0
   -5.0725   -0.8048    0.3192 O   0  0  0  0  0  0  0  0  0  0  0  0
    6.3647    2.2631    0.0003 O   0  0  0  0  0  0  0  0  0  0  0  0
   -2.9215   -1.6475   -0.0546 N   0  0  0  0  0  0  0  0  0  0  0  0
   -1.2109   -0.1854   -0.8303 N   0  0  0  0  0  0  0  0  0  0  0  0
   -5.5971    1.8074   -0.0016 N   0  0  0  0  0  0  0  0  0  0  0  0
   -3.8654    3.0698   -0.7331 N   0  0  0  0  0  0  0  0  0  0  0  0
   -5.8987    3.1024   -0.1715 N   0  0  0  0  0  0  0  0  0  0  0  0
   -4.9025    3.8880   -0.6036 N   0  0  0  0  0  0  0  0  0  0  0  0
    3.0735   -0.2070    0.9314 C   0  0  0  0  0  0  0  0  0  0  0  0
    2.3922   -0.1711    2.2620 C   0  0  0  0  0  0  0  0  0  0  0  0
    2.6307   -1.0749   -0.0594 C   0  0  0  0  0  0  0  0  0  0  0  0
    1.2429    0.8438    2.2951 C   0  0  0  0  0  0  0  0  0  0  0  0
   -0.6388   -2.5217   -0.5037 C   0  0  0  0  0  0  0  0  0  0  0  0
    4.1581    0.6327    0.6783 C   0  0  0  0  0  0  0  0  0  0  0  0
    0.7661   -2.2550   -0.9462 C   0  0  0  0  0  0  0  0  0  0  0  0
   -1.6101   -1.3695   -0.4741 C   0  0  0  0  0  0  0  0  0  0  0  0
    4.7917    0.5984   -0.5638 C   0  0  0  0  0  0  0  0  0  0  0  0
    3.2563   -1.1158   -1.2998 C   0  0  0  0  0  0  0  0  0  0  0  0
    4.3408   -0.2759   -1.5528 C   0  0  0  0  0  0  0  0  0  0  0  0
   -1.0678   -3.7367   -0.1336 C   0  0  0  0  0  0  0  0  0  0  0  0
    0.5338    0.8510    3.6400 C   0  0  0  0  0  0  0  0  0  0  0  0
   -3.2859   -2.9379    0.3119 C   0  0  0  0  0  0  0  0  0  0  0  0
   -3.8962   -0.6398   -0.0042 C   0  0  0  0  0  0  0  0  0  0  0  0
   -2.4221   -3.9566    0.2852 C   0  0  0  0  0  0  0  0  0  0  0  0
   -3.4110    0.7218   -0.3999 C   0  0  0  0  0  0  0  0  0  0  0  0
    5.9263    1.4654   -0.8508 C   0  0  0  0  0  0  0  0  0  0  0  0
   -2.1281    0.8239   -0.7785 C   0  0  0  0  0  0  0  0  0  0  0  0
   -4.3162    1.8398   -0.3660 C   0  0  0  0  0  0  0  0  0  0  0  0
    6.6058    1.4128   -2.2136 C   0  0  0  0  0  0  0  0  0  0  0  0
    2.0130   -1.1687    2.5188 H   0  0  0  0  0  0  0  0  0  0  0  0
    3.1151    0.0598    3.0549 H   0  0  0  0  0  0  0  0  0  0  0  0
    1.6237    1.8505    2.0848 H   0  0  0  0  0  0  0  0  0  0  0  0
    0.5134    0.6120    1.5102 H   0  0  0  0  0  0  0  0  0  0  0  0
    0.7533   -1.4783   -1.7216 H   0  0  0  0  0  0  0  0  0  0  0  0
    1.1844   -3.1615   -1.4032 H   0  0  0  0  0  0  0  0  0  0  0  0
    2.9607   -1.8029   -2.0865 H   0  0  0  0  0  0  0  0  0  0  0  0
    4.8063   -0.3433   -2.5310 H   0  0  0  0  0  0  0  0  0  0  0  0
   -0.4021   -4.5936   -0.1376 H   0  0  0  0  0  0  0  0  0  0  0  0
    0.1051   -0.1315    3.8617 H   0  0  0  0  0  0  0  0  0  0  0  0
    1.2254    1.1151    4.4462 H   0  0  0  0  0  0  0  0  0  0  0  0
   -0.2797    1.5832    3.6358 H   0  0  0  0  0  0  0  0  0  0  0  0
   -4.3107   -3.0997    0.6273 H   0  0  0  0  0  0  0  0  0  0  0  0
   -2.7221   -4.9569    0.5746 H   0  0  0  0  0  0  0  0  0  0  0  0
   -1.7196    1.7844   -1.0800 H   0  0  0  0  0  0  0  0  0  0  0  0
    5.4676    1.8520    1.4260 H   0  0  0  0  0  0  0  0  0  0  0  0
    5.9000    1.6895   -3.0009 H   0  0  0  0  0  0  0  0  0  0  0  0
    7.0288    0.4202   -2.3889 H   0  0  0  0  0  0  0  0  0  0  0  0
    7.4278    2.1359   -2.2302 H   0  0  0  0  0  0  0  0  0  0  0  0
   -6.8265    3.4668    0.0165 H   0  0  0  0  0  0  0  0  0  0  0  0
  1 13  1  0  0  0  0
  1 17  1  0  0  0  0
  2 16  1  0  0  0  0
  2 47  1  0  0  0  0
  3 25  2  0  0  0  0
  4 28  2  0  0  0  0
  5 18  1  0  0  0  0
  5 24  1  0  0  0  0
  5 25  1  0  0  0  0
  6 18  2  0  0  0  0
  6 29  1  0  0  0  0
  7  9  1  0  0  0  0
  7 30  2  0  0  0  0
  8 10  2  0  0  0  0
  8 30  1  0  0  0  0
  9 10  1  0  0  0  0
  9 51  1  0  0  0  0
 11 12  1  0  0  0  0
 11 13  2  0  0  0  0
 11 16  1  0  0  0  0
 12 14  1  0  0  0  0
 12 32  1  0  0  0  0
 12 33  1  0  0  0  0
 13 20  1  0  0  0  0
 14 23  1  0  0  0  0
 14 34  1  0  0  0  0
 14 35  1  0  0  0  0
 15 17  1  0  0  0  0
 15 18  1  0  0  0  0
 15 22  2  0  0  0  0
 16 19  2  0  0  0  0
 17 36  1  0  0  0  0
 17 37  1  0  0  0  0
 19 21  1  0  0  0  0
 19 28  1  0  0  0  0
 20 21  2  0  0  0  0
 20 38  1  0  0  0  0
 21 39  1  0  0  0  0
 22 26  1  0  0  0  0
 22 40  1  0  0  0  0
 23 41  1  0  0  0  0
 23 42  1  0  0  0  0
 23 43  1  0  0  0  0
 24 26  2  0  0  0  0
 24 44  1  0  0  0  0
 25 27  1  0  0  0  0
 26 45  1  0  0  0  0
 27 29  2  0  0  0  0
 27 30  1  0  0  0  0
 28 31  1  0  0  0  0
 29 46  1  0  0  0  0
 31 48  1  0  0  0  0
 31 49  1  0  0  0  0
 31 50  1  0  0  0  0
M  END
> <PUBCHEM_COMPOUND_CID>
130135

> <PUBCHEM_CONFORMER_RMSD>
1

> <PUBCHEM_CONFORMER_DIVERSEORDER>
1
6
54
44
5
71
66
21
61
59
68
57
14
65
64
37
29
45
18
32
75
24
47
15
25
27
69
62
23
56
35
58
42
72
52
48
30
49
38
11
36
70
40
16
20
13
4
39
51
46
7
12
74
9
55
33
17
10
50
22
53
63
19
67
8
3
31
60
34
26
73
28
43
41
2

> <PUBCHEM_MMFF94_PARTIAL_CHARGES>
37
1 -0.36
10 -0.42
11 -0.14
12 0.14
13 0.08
15 -0.12
16 0.08
17 0.42
18 0.5
19 0.09
2 -0.53
20 -0.15
21 -0.15
22 -0.15
24 -0.04
25 0.62
26 -0.15
27 0.06
28 0.42
29 0.02
3 -0.57
30 0.47
31 0.06
38 0.15
39 0.15
4 -0.57
40 0.15
44 0.15
45 0.15
46 0.15
47 0.45
5 -0.23
51 0.27
6 -0.62
7 -0.71
8 -0.23
9 0.57

> <PUBCHEM_EFFECTIVE_ROTOR_COUNT>
7

> <PUBCHEM_PHARMACOPHORE_FEATURES>
10
1 1 acceptor
1 2 donor
1 23 hydrophobe
1 3 acceptor
1 4 acceptor
3 7 8 30 cation
5 7 8 9 10 30 rings
6 11 13 16 19 20 21 rings
6 5 15 18 22 24 26 rings
6 5 6 18 25 27 29 rings

> <PUBCHEM_HEAVY_ATOM_COUNT>
31

> <PUBCHEM_ATOM_DEF_STEREO_COUNT>
0

> <PUBCHEM_ATOM_UDEF_STEREO_COUNT>
0

> <PUBCHEM_BOND_DEF_STEREO_COUNT>
0

> <PUBCHEM_BOND_UDEF_STEREO_COUNT>
0

> <PUBCHEM_ISOTOPIC_ATOM_COUNT>
0

> <PUBCHEM_COMPONENT_COUNT>
1

> <PUBCHEM_CACTVS_TAUTO_COUNT>
18

> <PUBCHEM_CONFORMER_ID>
0001FC5700000001

> <PUBCHEM_MMFF94_ENERGY>
86.9948

> <PUBCHEM_FEATURE_SELFOVERLAP>
50.779

> <PUBCHEM_SHAPE_FINGERPRINT>
10411042 1 17760937633819253143
11059845 2 18120343563685864506
11578080 2 18198913505466337417
11720765 8 17701820969743814598
1200032 147 18189066304217161632
12107183 9 18116983400385650266
12166972 35 12823003236153236425
12390115 104 18342465824486196655
12596602 18 17095518530694896395
12769317 202 17984690131087015667
12788726 201 18043244841672977955
12895836 83 18408605855043167593
12895837 130 18042138703131970052
13165054 146 18269296659133555572
13726171 33 18410860979420373776
13944108 23 17694786216148647205
13965767 371 17822848663450028046
14114206 34 17274832289641586033
14251757 5 18412829109296736729
14341114 328 17458339771384875266
14347329 18 18411695478469373144
14537116 161 17058918954377503681
14790565 3 18122066408075157941
14848178 96 18124590891098764021
14849402 71 17905046945920366283
14931854 50 17560240215113210545
15198563 99 18055905740069241495
15238133 3 18270386218910039554
15419008 47 17985836067032664443
16067689 391 16484755094743242222
18608769 82 18341897454500962195
20511986 3 17313370249657227485
21033648 29 18201991144736632001
21033650 10 18189349016645535338
21302155 148 18334297560797965621
21792961 116 17988097685610723006
23536364 44 17560256764391906600
23559900 14 17980757135013737263
23569914 152 17126224377518018900
23569914 2 17628596956703586200
27425 322 17603588487076738377
376196 1 18194401087849751319
3918712 181 18337101273206600933
392239 28 15502380066506428428
4058900 60 18195535796301319313
508706 21 18200303463260907879
7808743 9 18408602578019803758
9849439 229 18335978650100608093

> <PUBCHEM_SHAPE_MULTIPOLES>
584.6
14.49
4.24
2.02
7.6
0.74
-2.04
-13.76
5.38
-7.42
0.76
2.78
-0.9
0.97

> <PUBCHEM_SHAPE_SELFOVERLAP>
1279.474

> <PUBCHEM_SHAPE_VOLUME>
315.7

> <PUBCHEM_COORDINATE_TYPE>
2
5
10

$$$$
