REMARK  Name = 130183
REMARK  7 active torsions:
REMARK  status: ('A' for Active; 'I' for Inactive)
REMARK    1  A    between atoms: C_2  and  O_7
REMARK    2  A    between atoms: C_2  and  C_15
REMARK    3  A    between atoms: C_3  and  O_9
REMARK    4  A    between atoms: C_4  and  O_11
REMARK    5  A    between atoms: C_5  and  O_13
REMARK    6  A    between atoms: C_15  and  N_16
REMARK    7  A    between atoms: N_16  and  C_18
REMARK                            x       y       z     vdW  Elec       q    Type
REMARK                         _______ _______ _______ _____ _____    ______ ____
ROOT
ATOM      1  O   UNL     1      -1.665  -1.271   0.204  0.00  0.00    -0.328 OA
ATOM      2  C   UNL     1      -1.456   0.011  -0.406  0.00  0.00    +0.230 C 
ATOM      3  C   UNL     1      -2.549   0.994   0.058  0.00  0.00    +0.193 C 
ATOM      4  C   UNL     1      -3.942   0.430  -0.237  0.00  0.00    +0.171 C 
ATOM      5  C   UNL     1      -4.083  -0.975   0.346  0.00  0.00    +0.169 C 
ATOM      6  C   UNL     1      -2.930  -1.863  -0.108  0.00  0.00    +0.176 C 
ENDROOT
BRANCH   2   7
ATOM      7  O   UNL     1      -1.482  -0.082  -1.834  0.00  0.00    -0.361 OA
ATOM      8  H   UNL     1      -2.356  -0.391  -2.122  0.00  0.00    +0.213 HD
ENDBRANCH   2   7
BRANCH   3   9
ATOM      9  O   UNL     1      -2.380   2.243  -0.608  0.00  0.00    -0.378 OA
ATOM     10  H   UNL     1      -1.496   2.594  -0.418  0.00  0.00    +0.211 HD
ENDBRANCH   3   9
BRANCH   4  11
ATOM     11  O   UNL     1      -4.948   1.267   0.329  0.00  0.00    -0.379 OA
ATOM     12  H   UNL     1      -4.866   2.162  -0.035  0.00  0.00    +0.211 HD
ENDBRANCH   4  11
BRANCH   5  13
ATOM     13  O   UNL     1      -4.061  -0.899   1.773  0.00  0.00    -0.379 OA
ATOM     14  H   UNL     1      -4.791  -0.336   2.078  0.00  0.00    +0.211 HD
ENDBRANCH   5  13
BRANCH   2  15
ATOM     15  C   UNL     1      -0.070   0.498   0.021  0.00  0.00    +0.147 C 
BRANCH  15  16
ATOM     16  N   UNL     1       0.946  -0.414  -0.405  0.00  0.00    -0.329 N 
ATOM     17  H   UNL     1       0.665  -1.223  -0.891  0.00  0.00    +0.147 HD
BRANCH  16  18
ATOM     18  C   UNL     1       2.308  -0.231  -0.176  0.00  0.00    +0.045 C 
ATOM     19  C   UNL     1       2.771   0.902   0.511  0.00  0.00    +0.014 C 
ATOM     20  C   UNL     1       3.242  -1.176  -0.628  0.00  0.00    +0.014 C 
ATOM     21  C   UNL     1       4.134   1.085   0.741  0.00  0.00    -0.003 C 
ATOM     22  C   UNL     1       4.605  -0.993  -0.398  0.00  0.00    -0.003 C 
ATOM     23  C   UNL     1       5.052   0.138   0.286  0.00  0.00    -0.022 C 
ATOM     24  C   UNL     1       6.510   0.335   0.531  0.00  0.00    +0.031 C 
ENDBRANCH  16  18
ENDBRANCH  15  16
ENDBRANCH   2  15
TORSDOF 7
