REMARK  Name = 130199
REMARK  8 active torsions:
REMARK  status: ('A' for Active; 'I' for Inactive)
REMARK    1  A    between atoms: N_1  and  C1*_14
REMARK    2  A    between atoms: N_2  and  C_27
REMARK    3  A    between atoms: C2*_13  and  O2*_17
REMARK    4  A    between atoms: C3*_15  and  O3*_19
REMARK    5  A    between atoms: C4*_16  and  C5*_21
REMARK    6  A    between atoms: C5*_21  and  O5*_22
REMARK    7  A    between atoms: C_27  and  C_28
REMARK    8  A    between atoms: C_28  and  C_29
REMARK                            x       y       z     vdW  Elec       q    Type
REMARK                         _______ _______ _______ _____ _____    ______ ____
ROOT
ATOM      1  N   UNL     1      -2.446   0.463  -0.160  0.00  0.00    -0.236 N 
ATOM      2  N   UNL     1       2.000   2.118   0.093  0.00  0.00    -0.259 N 
ATOM      3  N   UNL     1      -0.108   1.110  -0.033  0.00  0.00    -0.311 NA
ATOM      4  N   UNL     1      -3.401   2.478  -0.156  0.00  0.00    -0.240 NA
ATOM      5  N   UNL     1       0.137   3.537   0.038  0.00  0.00    -0.312 NA
ATOM      6  C   UNL     1      -1.424   1.366  -0.089  0.00  0.00    +0.221 C 
ATOM      7  C   UNL     1      -3.613   1.179  -0.198  0.00  0.00    +0.224 C 
ATOM      8  C   UNL     1      -2.037   2.609  -0.087  0.00  0.00    +0.167 C 
ATOM      9  C   UNL     1       0.623   2.259   0.029  0.00  0.00    +0.202 C 
ATOM     10  C   UNL     1      -1.204   3.721  -0.020  0.00  0.00    +0.212 C 
ATOM     11  H   UNL     1       2.549   2.934   0.139  0.00  0.00    +0.160 HD
ATOM     12  N   UNL     1      -1.740   5.021  -0.013  0.00  0.00    -0.331 N 
ATOM     13  H   UNL     1      -1.141   5.800   0.035  0.00  0.00    +0.145 HD
ATOM     14  H   UNL     1      -2.715   5.151  -0.056  0.00  0.00    +0.145 HD
ENDROOT
BRANCH   1  17
ATOM     15  O4* UNL     1      -3.386  -1.550  -0.994  0.00  0.00    -0.333 OA
ATOM     16  C2* UNL     1      -2.440  -1.653   1.174  0.00  0.00    +0.187 C 
ATOM     17  C1* UNL     1      -2.328  -0.993  -0.191  0.00  0.00    +0.226 C 
ATOM     18  C3* UNL     1      -2.916  -3.043   0.799  0.00  0.00    +0.171 C 
ATOM     19  C4* UNL     1      -3.864  -2.759  -0.362  0.00  0.00    +0.175 C 
BRANCH  16  20
ATOM     20  O2* UNL     1      -1.205  -1.658   1.861  0.00  0.00    -0.378 OA
ATOM     21  H2* UNL     1      -0.951  -0.747   2.075  0.00  0.00    +0.211 HD
ENDBRANCH  16  20
BRANCH  18  22
ATOM     22  O3* UNL     1      -1.813  -3.809   0.316  0.00  0.00    -0.379 OA
ATOM     23  H3* UNL     1      -1.203  -3.995   1.047  0.00  0.00    +0.211 HD
ENDBRANCH  18  22
BRANCH  19  24
ATOM     24  C5* UNL     1      -5.300  -2.531   0.087  0.00  0.00    +0.169 C 
BRANCH  24  25
ATOM     25  O5* UNL     1      -6.096  -2.267  -1.055  0.00  0.00    -0.379 OA
ATOM     26  H5* UNL     1      -7.015  -2.119  -0.782  0.00  0.00    +0.211 HD
ENDBRANCH  24  25
ENDBRANCH  19  24
ENDBRANCH   1  17
BRANCH   2  27
ATOM     27  C   UNL     1       2.676   0.843   0.096  0.00  0.00    +0.099 C 
BRANCH  27  28
ATOM     28  C   UNL     1       4.181   1.028   0.241  0.00  0.00    +0.022 C 
BRANCH  28  29
ATOM     29  C   UNL     1       4.934  -0.299   0.297  0.00  0.00    +0.002 C 
ATOM     30  C   UNL     1       6.435  -0.062   0.509  0.00  0.00    +0.000 C 
ATOM     31  C   UNL     1       4.685  -1.118  -0.977  0.00  0.00    +0.000 C 
ATOM     32  C   UNL     1       7.218  -1.373   0.515  0.00  0.00    +0.000 C 
ATOM     33  C   UNL     1       5.471  -2.427  -0.969  0.00  0.00    +0.000 C 
ATOM     34  C   UNL     1       6.961  -2.188  -0.749  0.00  0.00    +0.000 C 
ENDBRANCH  28  29
ENDBRANCH  27  28
ENDBRANCH   2  27
TORSDOF 8
