REMARK  Name = 130299
REMARK  11 active torsions:
REMARK  status: ('A' for Active; 'I' for Inactive)
REMARK    1  A    between atoms: N_2  and  C_5
REMARK    2  A    between atoms: C_3  and  CA_20
REMARK    3  A    between atoms: C_5  and  C_7
REMARK    4  A    between atoms: C_5  and  C_10
REMARK    5  A    between atoms: C_7  and  O_8
REMARK    6  A    between atoms: C_10  and  C_11
REMARK    7  A    between atoms: C_14  and  N_17
REMARK    8  A    between atoms: CA_20  and  N_21
REMARK    9  A    between atoms: CA_20  and  CB_25
REMARK   10  A    between atoms: CB_25  and  CG_26
REMARK   11  A    between atoms: CZ_31  and  OH_32
REMARK                            x       y       z     vdW  Elec       q    Type
REMARK                         _______ _______ _______ _____ _____    ______ ____
ROOT
ATOM      1  O   TYR A   1      -0.207  -0.655   1.678  0.00  0.00    -0.277 OA
ATOM      2  N   UNK A   2      -0.354   0.422  -0.371  0.00  0.00    -0.298 N 
ATOM      3  C   TYR A   1      -0.414  -0.683   0.466  0.00  0.00    +0.203 C 
ATOM      4  H   UNK A   2      -0.535   0.303  -1.331  0.00  0.00    +0.150 HD
ENDROOT
BRANCH   2   5
ATOM      5  C   UNK A   2      -0.036   1.741   0.122  0.00  0.00    +0.176 C 
BRANCH   5   7
ATOM      6  O   UNK A   2      -1.203   3.846   0.357  0.00  0.00    -0.248 OA
ATOM      7  C   UNK A   2      -1.209   2.692  -0.059  0.00  0.00    +0.332 C 
BRANCH   7   8
ATOM      8  O   UNK A   2      -2.267   2.171  -0.726  0.00  0.00    -0.479 OA
ATOM      9  H   UNK A   2      -2.238   1.285  -1.030  0.00  0.00    +0.295 HD
ENDBRANCH   7   8
ENDBRANCH   5   7
BRANCH   5  10
ATOM     10  C   UNK A   2       1.209   2.305  -0.575  0.00  0.00    +0.057 C 
BRANCH  10  11
ATOM     11  C   UNK A   2       2.428   1.431  -0.403  0.00  0.00    -0.020 C 
ATOM     12  C   UNK A   2       3.266   1.640   0.680  0.00  0.00    -0.003 C 
ATOM     13  C   UNK A   2       2.686   0.435  -1.332  0.00  0.00    -0.003 C 
ATOM     14  C   UNK A   2       4.665  -0.174  -0.088  0.00  0.00    +0.048 C 
ATOM     15  C   UNK A   2       4.392   0.832   0.839  0.00  0.00    +0.014 C 
ATOM     16  C   UNK A   2       3.812  -0.372  -1.173  0.00  0.00    +0.014 C 
BRANCH  14  17
ATOM     17  N   UNK A   2       5.803  -0.991   0.073  0.00  0.00    -0.304 N 
ATOM     18  C   UNK A   2       5.793  -2.363  -0.395  0.00  0.00    +0.112 C 
ATOM     19  C   UNK A   2       6.993  -0.474   0.720  0.00  0.00    +0.112 C 
ENDBRANCH  14  17
ENDBRANCH  10  11
ENDBRANCH   5  10
ENDBRANCH   2   5
BRANCH   3  20
ATOM     20  CA  TYR A   1      -0.795  -1.960  -0.277  0.00  0.00    +0.017 C 
BRANCH  20  21
ATOM     21  N   TYR A   1       0.328  -2.886  -0.127  0.00  0.00    +0.388 N 
ATOM     22  H1  TYR A   1       0.116  -3.759  -0.610  0.00  0.00    -0.089 HD
ATOM     23  H2  TYR A   1       0.483  -3.076   0.864  0.00  0.00    -0.089 HD
ATOM     24  H3  TYR A   1       1.168  -2.470  -0.529  0.00  0.00    -0.089 HD
ENDBRANCH  20  21
BRANCH  20  25
ATOM     25  CB  TYR A   1      -2.066  -2.579   0.322  0.00  0.00    +0.013 C 
BRANCH  25  26
ATOM     26  CG  TYR A   1      -3.273  -1.679   0.192  0.00  0.00    -0.024 C 
ATOM     27  CD1 TYR A   1      -4.073  -1.778  -0.935  0.00  0.00    -0.001 C 
ATOM     28  CD2 TYR A   1      -3.557  -0.774   1.201  0.00  0.00    -0.001 C 
ATOM     29  CE1 TYR A   1      -5.188  -0.948  -1.055  0.00  0.00    +0.036 C 
ATOM     30  CE2 TYR A   1      -4.671   0.055   1.081  0.00  0.00    +0.036 C 
ATOM     31  CZ  TYR A   1      -5.487  -0.032  -0.048  0.00  0.00    +0.134 C 
BRANCH  31  32
ATOM     32  OH  TYR A   1      -6.574   0.779  -0.165  0.00  0.00    -0.506 OA
ATOM     33  HH  TYR A   1      -7.122   0.721  -0.922  0.00  0.00    +0.292 HD
ENDBRANCH  31  32
ENDBRANCH  25  26
ENDBRANCH  20  25
ENDBRANCH   3  20
TORSDOF 11
