REMARK  Name = 130210
REMARK  6 active torsions:
REMARK  status: ('A' for Active; 'I' for Inactive)
REMARK    1  A    between atoms: C_1  and  C_7
REMARK    2  A    between atoms: C_2  and  O_11
REMARK    3  A    between atoms: C_3  and  C_13
REMARK    4  A    between atoms: C_13  and  C_16
REMARK    5  A    between atoms: C_13  and  O_23
REMARK    6  A    between atoms: C_17  and  N_22
REMARK                            x       y       z     vdW  Elec       q    Type
REMARK                         _______ _______ _______ _____ _____    ______ ____
ROOT
ATOM      1  C   UNL     1      -2.887  -0.071  -0.176  0.00  0.00    +0.011 C 
ATOM      2  C   UNL     1      -1.685   0.000   0.484  0.00  0.00    +0.128 C 
ATOM      3  C   UNL     1      -0.894   1.135   0.302  0.00  0.00    +0.045 C 
ATOM      4  C   UNL     1      -3.349   0.921  -1.006  0.00  0.00    -0.001 C 
ATOM      5  C   UNL     1      -1.331   2.163  -0.534  0.00  0.00    +0.001 C 
ATOM      6  C   UNL     1      -2.559   2.056  -1.188  0.00  0.00    -0.000 C 
ENDROOT
BRANCH   1   7
ATOM      7  C   UNL     1      -3.773  -1.313   0.012  0.00  0.00    +0.022 C 
ATOM      8  C   UNL     1      -5.064  -1.161  -0.823  0.00  0.00    +0.004 C 
ATOM      9  C   UNL     1      -4.148  -1.463   1.503  0.00  0.00    +0.004 C 
ATOM     10  C   UNL     1      -3.100  -2.634  -0.424  0.00  0.00    +0.004 C 
ENDBRANCH   1   7
BRANCH   2  11
ATOM     11  O   UNL     1      -1.258  -1.005   1.301  0.00  0.00    -0.506 OA
ATOM     12  H   UNL     1      -1.789  -1.767   1.423  0.00  0.00    +0.292 HD
ENDBRANCH   2  11
BRANCH   3  13
ATOM     13  C   UNL     1       0.422   1.268   0.994  0.00  0.00    +0.190 C 
BRANCH  13  16
ATOM     14  N   UNL     1       2.578   0.092   0.577  0.00  0.00    -0.252 N 
ATOM     15  N   UNL     1       1.391   0.652  -1.214  0.00  0.00    -0.227 NA
ATOM     16  C   UNL     1       1.464   0.668   0.079  0.00  0.00    +0.145 C 
ATOM     17  C   UNL     1       3.299  -0.341  -0.499  0.00  0.00    +0.218 C 
ATOM     18  C   UNL     1       2.946  -0.042   1.969  0.00  0.00    +0.120 C 
ATOM     19  C   UNL     1       2.546   0.015  -1.593  0.00  0.00    +0.140 C 
BRANCH  17  22
ATOM     20  O   UNL     1       5.132  -1.363  -1.447  0.00  0.00    -0.125 OA
ATOM     21  O   UNL     1       5.029  -1.213   0.745  0.00  0.00    -0.125 OA
ATOM     22  N   UNL     1       4.531  -0.996  -0.397  0.00  0.00    +0.074 N 
ENDBRANCH  17  22
ENDBRANCH  13  16
BRANCH  13  23
ATOM     23  O   UNL     1       0.710   2.632   1.336  0.00  0.00    -0.373 OA
ATOM     24  H   UNL     1       0.016   2.972   1.922  0.00  0.00    +0.211 HD
ENDBRANCH  13  23
ENDBRANCH   3  13
TORSDOF 6
