REMARK  Name = 130208
REMARK  5 active torsions:
REMARK  status: ('A' for Active; 'I' for Inactive)
REMARK    1  A    between atoms: C_3  and  C_9
REMARK    2  A    between atoms: C_5  and  C_18
REMARK    3  A    between atoms: C_8  and  C_15
REMARK    4  A    between atoms: C_15  and  O_16
REMARK    5  A    between atoms: C_19  and  O_24
REMARK                            x       y       z     vdW  Elec       q    Type
REMARK                         _______ _______ _______ _____ _____    ______ ____
ROOT
ATOM      1  S   UNL     1       1.373  -2.148  -0.766  0.00  0.00    -0.093 S 
ATOM      2  N   UNL     1       1.034  -0.057   0.739  0.00  0.00    -0.266 NA
ATOM      3  C   UNL     1      -0.261  -0.771   0.698  0.00  0.00    +0.106 C 
ATOM      4  C   UNL     1      -0.334  -1.610  -0.571  0.00  0.00    +0.087 C 
ATOM      5  C   UNL     1       1.930  -0.714   0.074  0.00  0.00    +0.104 C 
ENDROOT
BRANCH   3   9
ATOM      6  S   UNL     1      -1.210   1.419  -0.632  0.00  0.00    -0.162 S 
ATOM      7  N   UNL     1      -2.709  -0.385   0.646  0.00  0.00    +0.404 N 
ATOM      8  C   UNL     1      -3.646   0.563   0.006  0.00  0.00    +0.061 C 
ATOM      9  C   UNL     1      -1.388   0.255   0.760  0.00  0.00    +0.017 C 
ATOM     10  C   UNL     1      -2.903   1.158  -1.201  0.00  0.00    +0.047 C 
ATOM     11  C   UNL     1      -4.207   1.661   0.925  0.00  0.00    -0.009 C 
ATOM     12  C   UNL     1      -3.164  -0.933   1.922  0.00  0.00    -0.098 C 
ATOM     13  H   UNL     1      -2.654  -1.203   0.040  0.00  0.00    -0.077 HD
BRANCH   8  15
ATOM     14  O   UNL     1      -4.955  -1.444  -0.362  0.00  0.00    -0.252 OA
ATOM     15  C   UNL     1      -4.793  -0.247  -0.542  0.00  0.00    +0.296 C 
BRANCH  15  16
ATOM     16  O   UNL     1      -5.628   0.536  -1.268  0.00  0.00    -0.482 OA
ATOM     17  H   UNL     1      -5.446   1.450  -1.367  0.00  0.00    +0.295 HD
ENDBRANCH  15  16
ENDBRANCH   8  15
ENDBRANCH   3   9
BRANCH   5  18
ATOM     18  C   UNL     1       3.343  -0.278  -0.015  0.00  0.00    +0.057 C 
ATOM     19  C   UNL     1       3.691   1.077   0.044  0.00  0.00    +0.136 C 
ATOM     20  C   UNL     1       4.353  -1.237  -0.163  0.00  0.00    +0.005 C 
ATOM     21  C   UNL     1       5.028   1.467  -0.042  0.00  0.00    +0.037 C 
ATOM     22  C   UNL     1       5.689  -0.848  -0.249  0.00  0.00    +0.000 C 
ATOM     23  C   UNL     1       6.027   0.504  -0.188  0.00  0.00    +0.003 C 
BRANCH  19  24
ATOM     24  O   UNL     1       2.730   2.033   0.187  0.00  0.00    -0.505 OA
ATOM     25  H   UNL     1       1.828   1.785   0.246  0.00  0.00    +0.292 HD
ENDBRANCH  19  24
ENDBRANCH   5  18
TORSDOF 5
