130288
  -OEChem-03292013323D

 57 59  0     1  0  0  0  0  0999 V2000
   -1.2758   -3.2739    1.7997 S   0  0  0  0  0  0  0  0  0  0  0  0
   -0.7347   -0.6975   -3.4570 O   0  0  0  0  0  0  0  0  0  0  0  0
   -3.9677    2.3704    1.4714 O   0  0  0  0  0  0  0  0  0  0  0  0
   -3.2446    1.2700   -0.4729 O   0  0  0  0  0  0  0  0  0  0  0  0
    4.5639    0.4057   -1.3204 O   0  0  0  0  0  0  0  0  0  0  0  0
    0.1996   -1.4786   -1.4182 N   0  0  0  0  0  0  0  0  0  0  0  0
   -2.0473   -1.7292   -1.7682 N   0  0  0  0  0  0  0  0  0  0  0  0
    3.7343    1.6716    0.4378 N   0  0  0  0  0  0  0  0  0  0  0  0
   -0.4117   -1.8298   -0.1740 C   0  0  1  0  0  0  0  0  0  0  0  0
   -1.6737   -2.5286   -0.6447 C   0  0  1  0  0  0  0  0  0  0  0  0
    0.2190   -2.7896    0.8077 C   0  0  1  0  0  0  0  0  0  0  0  0
   -2.5281   -2.6623    0.5864 C   0  0  0  0  0  0  0  0  0  0  0  0
    1.2828   -2.1475    1.6837 C   0  0  0  0  0  0  0  0  0  0  0  0
    2.4459   -1.6100    0.8496 C   0  0  0  0  0  0  0  0  0  0  0  0
   -0.8458   -1.2298   -2.3620 C   0  0  0  0  0  0  0  0  0  0  0  0
    3.5269   -0.9898    1.7401 C   0  0  0  0  0  0  0  0  0  0  0  0
    4.7159   -0.4688    0.9345 C   0  0  0  0  0  0  0  0  0  0  0  0
    4.3369    0.5547   -0.1226 C   0  0  0  0  0  0  0  0  0  0  0  0
   -0.5734    2.4822   -0.2262 C   0  0  0  0  0  0  0  0  0  0  0  0
    0.8617    2.5642    0.3000 C   0  0  0  0  0  0  0  0  0  0  0  0
   -1.6242    2.4234    0.8846 C   0  0  0  0  0  0  0  0  0  0  0  0
    1.8686    2.6513   -0.8520 C   0  0  0  0  0  0  0  0  0  0  0  0
   -3.0507    2.4134    0.3697 C   0  0  0  0  0  0  0  0  0  0  0  0
    3.3064    2.7944   -0.3621 C   0  0  0  0  0  0  0  0  0  0  0  0
   -4.5697    1.0786    1.3915 C   0  0  0  0  0  0  0  0  0  0  0  0
   -4.5145    0.7556   -0.0765 C   0  0  0  0  0  0  0  0  0  0  0  0
   -0.6445   -0.8693    0.3140 H   0  0  0  0  0  0  0  0  0  0  0  0
   -1.4556   -3.5254   -1.0604 H   0  0  0  0  0  0  0  0  0  0  0  0
    0.6144   -3.6823    0.3097 H   0  0  0  0  0  0  0  0  0  0  0  0
   -3.3437   -3.3789    0.4625 H   0  0  0  0  0  0  0  0  0  0  0  0
   -2.9318   -1.7076    0.9322 H   0  0  0  0  0  0  0  0  0  0  0  0
    1.6611   -2.8862    2.4016 H   0  0  0  0  0  0  0  0  0  0  0  0
    0.8557   -1.3238    2.2708 H   0  0  0  0  0  0  0  0  0  0  0  0
    1.1548   -1.1704   -1.5645 H   0  0  0  0  0  0  0  0  0  0  0  0
   -2.9438   -1.7571   -2.2436 H   0  0  0  0  0  0  0  0  0  0  0  0
    2.0857   -0.8240    0.1844 H   0  0  0  0  0  0  0  0  0  0  0  0
    2.8757   -2.4101    0.2360 H   0  0  0  0  0  0  0  0  0  0  0  0
    3.8914   -1.7434    2.4488 H   0  0  0  0  0  0  0  0  0  0  0  0
    3.0879   -0.1849    2.3411 H   0  0  0  0  0  0  0  0  0  0  0  0
    5.4499   -0.0117    1.6083 H   0  0  0  0  0  0  0  0  0  0  0  0
    5.2164   -1.3041    0.4304 H   0  0  0  0  0  0  0  0  0  0  0  0
   -0.6681    1.5989   -0.8688 H   0  0  0  0  0  0  0  0  0  0  0  0
   -0.7738    3.3562   -0.8585 H   0  0  0  0  0  0  0  0  0  0  0  0
    1.0673    1.6818    0.9173 H   0  0  0  0  0  0  0  0  0  0  0  0
    0.9649    3.4443    0.9459 H   0  0  0  0  0  0  0  0  0  0  0  0
   -1.4936    3.2710    1.5686 H   0  0  0  0  0  0  0  0  0  0  0  0
   -1.4485    1.5214    1.4856 H   0  0  0  0  0  0  0  0  0  0  0  0
    1.7800    1.7547   -1.4781 H   0  0  0  0  0  0  0  0  0  0  0  0
    1.6261    3.5126   -1.4858 H   0  0  0  0  0  0  0  0  0  0  0  0
   -3.2608    3.3177   -0.2122 H   0  0  0  0  0  0  0  0  0  0  0  0
    3.9787    2.9008   -1.2205 H   0  0  0  0  0  0  0  0  0  0  0  0
    3.4108    3.6917    0.2572 H   0  0  0  0  0  0  0  0  0  0  0  0
    3.6104    1.7316    1.4437 H   0  0  0  0  0  0  0  0  0  0  0  0
   -5.5853    1.0990    1.7941 H   0  0  0  0  0  0  0  0  0  0  0  0
   -3.9601    0.3851    1.9805 H   0  0  0  0  0  0  0  0  0  0  0  0
   -4.5891   -0.3123   -0.2931 H   0  0  0  0  0  0  0  0  0  0  0  0
   -5.2884    1.2926   -0.6360 H   0  0  0  0  0  0  0  0  0  0  0  0
  1 11  1  0  0  0  0
  1 12  1  0  0  0  0
  2 15  2  0  0  0  0
  3 23  1  0  0  0  0
  3 25  1  0  0  0  0
  4 23  1  0  0  0  0
  4 26  1  0  0  0  0
  5 18  2  0  0  0  0
  6  9  1  0  0  0  0
  6 15  1  0  0  0  0
  6 34  1  0  0  0  0
  7 10  1  0  0  0  0
  7 15  1  0  0  0  0
  7 35  1  0  0  0  0
  8 18  1  0  0  0  0
  8 24  1  0  0  0  0
  8 53  1  0  0  0  0
  9 10  1  0  0  0  0
  9 11  1  0  0  0  0
  9 27  1  0  0  0  0
 10 12  1  0  0  0  0
 10 28  1  0  0  0  0
 11 13  1  0  0  0  0
 11 29  1  0  0  0  0
 12 30  1  0  0  0  0
 12 31  1  0  0  0  0
 13 14  1  0  0  0  0
 13 32  1  0  0  0  0
 13 33  1  0  0  0  0
 14 16  1  0  0  0  0
 14 36  1  0  0  0  0
 14 37  1  0  0  0  0
 16 17  1  0  0  0  0
 16 38  1  0  0  0  0
 16 39  1  0  0  0  0
 17 18  1  0  0  0  0
 17 40  1  0  0  0  0
 17 41  1  0  0  0  0
 19 20  1  0  0  0  0
 19 21  1  0  0  0  0
 19 42  1  0  0  0  0
 19 43  1  0  0  0  0
 20 22  1  0  0  0  0
 20 44  1  0  0  0  0
 20 45  1  0  0  0  0
 21 23  1  0  0  0  0
 21 46  1  0  0  0  0
 21 47  1  0  0  0  0
 22 24  1  0  0  0  0
 22 48  1  0  0  0  0
 22 49  1  0  0  0  0
 23 50  1  0  0  0  0
 24 51  1  0  0  0  0
 24 52  1  0  0  0  0
 25 26  1  0  0  0  0
 25 54  1  0  0  0  0
 25 55  1  0  0  0  0
 26 56  1  0  0  0  0
 26 57  1  0  0  0  0
M  END
> <PUBCHEM_COMPOUND_CID>
130288

> <PUBCHEM_CONFORMER_RMSD>
1.4

> <PUBCHEM_CONFORMER_DIVERSEORDER>
1
127
18
26
6
106
54
135
3
137
76
112
75
117
47
30
65
97
83
80
121
130
60
5
10
82
17
56
43
48
87
36
19
118
49
123
41
79
45
116
122
125
35
8
132
14
28
88
67
84
7
27
13
62
126
93
29
31
9
25
108
42
134
131
101
12
59
74
94
114
32
61
77
72
4
69
91
133
66
34
70
68
52
98
109
51
110
95
100
111
89
2
23
86
64
96
44
21
128
55
129
38
115
85
136
103
40
11
71
22
81
119
15
58
102
39
33
20
92
120
16
63
24
99
37
50
46
107
124
73
90
78
104
53
105
57
113

> <PUBCHEM_MMFF94_PARTIAL_CHARGES>
22
1 -0.46
10 0.3
11 0.23
12 0.23
15 0.69
17 0.06
18 0.57
2 -0.57
23 0.56
24 0.3
25 0.28
26 0.28
3 -0.56
34 0.37
35 0.37
4 -0.56
5 -0.57
53 0.37
6 -0.73
7 -0.73
8 -0.73
9 0.3

> <PUBCHEM_EFFECTIVE_ROTOR_COUNT>
14

> <PUBCHEM_PHARMACOPHORE_FEATURES>
12
1 2 acceptor
1 3 acceptor
1 4 acceptor
1 5 acceptor
1 6 donor
1 7 donor
1 8 donor
4 13 14 16 17 hydrophobe
4 19 20 21 22 hydrophobe
5 1 9 10 11 12 rings
5 3 4 23 25 26 rings
5 6 7 9 10 15 rings

> <PUBCHEM_HEAVY_ATOM_COUNT>
26

> <PUBCHEM_ATOM_DEF_STEREO_COUNT>
3

> <PUBCHEM_ATOM_UDEF_STEREO_COUNT>
0

> <PUBCHEM_BOND_DEF_STEREO_COUNT>
0

> <PUBCHEM_BOND_UDEF_STEREO_COUNT>
0

> <PUBCHEM_ISOTOPIC_ATOM_COUNT>
0

> <PUBCHEM_COMPONENT_COUNT>
1

> <PUBCHEM_CACTVS_TAUTO_COUNT>
6

> <PUBCHEM_CONFORMER_ID>
0001FCF000000001

> <PUBCHEM_MMFF94_ENERGY>
52.2145

> <PUBCHEM_FEATURE_SELFOVERLAP>
61.212

> <PUBCHEM_SHAPE_FINGERPRINT>
10816530 23 17131259285922220512
1100329 8 18408884049044646608
11578080 2 17171527572023420309
12156800 1 17320474250045217510
12788726 201 17688892138007293980
14117953 113 17688580568147027189
14251751 93 18341055223734174617
15297060 5 17703508783540852059
229495 10 16733531711871229626
23227448 37 18409168818008052739
338550 245 18188778361062030976
392239 28 18334864892235279235
445580 8 18128528276149513017
469060 322 16298944397916376922
6287921 2 17485372175244668941
6438718 38 18130498704307964694
9896288 288 17548402715127634016

> <PUBCHEM_SHAPE_MULTIPOLES>
500.5
8.4
4.72
2.13
3.22
0.04
1.62
-4.46
-2.4
-1.53
-1.37
-0.73
1.07
-1.85

> <PUBCHEM_SHAPE_SELFOVERLAP>
997.888

> <PUBCHEM_SHAPE_VOLUME>
297.7

> <PUBCHEM_COORDINATE_TYPE>
2
5
10

$$$$
