130299
  -OEChem-03292013323D

 52 53  0     1  0  0  0  0  0999 V2000
   -0.2073   -0.6547    1.6780 O   0  0  0  0  0  0  0  0  0  0  0  0
   -2.2670    2.1710   -0.7257 O   0  0  0  0  0  0  0  0  0  0  0  0
   -1.2032    3.8461    0.3571 O   0  0  0  0  0  0  0  0  0  0  0  0
   -6.5740    0.7792   -0.1646 O   0  0  0  0  0  0  0  0  0  0  0  0
   -0.3544    0.4219   -0.3707 N   0  0  0  0  0  0  0  0  0  0  0  0
    0.3280   -2.8865   -0.1267 N   0  0  0  0  0  0  0  0  0  0  0  0
    5.8034   -0.9913    0.0727 N   0  0  0  0  0  0  0  0  0  0  0  0
   -0.0357    1.7407    0.1216 C   0  0  1  0  0  0  0  0  0  0  0  0
    1.2091    2.3052   -0.5752 C   0  0  0  0  0  0  0  0  0  0  0  0
   -0.7948   -1.9603   -0.2768 C   0  0  1  0  0  0  0  0  0  0  0  0
   -2.0664   -2.5789    0.3221 C   0  0  0  0  0  0  0  0  0  0  0  0
    2.4278    1.4308   -0.4034 C   0  0  0  0  0  0  0  0  0  0  0  0
   -0.4138   -0.6832    0.4657 C   0  0  0  0  0  0  0  0  0  0  0  0
   -3.2732   -1.6795    0.1915 C   0  0  0  0  0  0  0  0  0  0  0  0
    3.2659    1.6399    0.6800 C   0  0  0  0  0  0  0  0  0  0  0  0
    2.6859    0.4354   -1.3324 C   0  0  0  0  0  0  0  0  0  0  0  0
   -1.2091    2.6924   -0.0594 C   0  0  0  0  0  0  0  0  0  0  0  0
    4.6651   -0.1739   -0.0881 C   0  0  0  0  0  0  0  0  0  0  0  0
    4.3921    0.8322    0.8387 C   0  0  0  0  0  0  0  0  0  0  0  0
    3.8120   -0.3723   -1.1735 C   0  0  0  0  0  0  0  0  0  0  0  0
   -4.0732   -1.7781   -0.9350 C   0  0  0  0  0  0  0  0  0  0  0  0
   -3.5567   -0.7745    1.2012 C   0  0  0  0  0  0  0  0  0  0  0  0
   -5.1880   -0.9482   -1.0554 C   0  0  0  0  0  0  0  0  0  0  0  0
   -4.6715    0.0553    1.0807 C   0  0  0  0  0  0  0  0  0  0  0  0
   -5.4871   -0.0316   -0.0475 C   0  0  0  0  0  0  0  0  0  0  0  0
    5.7935   -2.3632   -0.3948 C   0  0  0  0  0  0  0  0  0  0  0  0
    6.9926   -0.4741    0.7198 C   0  0  0  0  0  0  0  0  0  0  0  0
    0.1409    1.6794    1.2023 H   0  0  0  0  0  0  0  0  0  0  0  0
    1.0111    2.4410   -1.6478 H   0  0  0  0  0  0  0  0  0  0  0  0
    1.4290    3.3133   -0.1985 H   0  0  0  0  0  0  0  0  0  0  0  0
   -0.9466   -1.7592   -1.3434 H   0  0  0  0  0  0  0  0  0  0  0  0
   -1.9176   -2.8208    1.3840 H   0  0  0  0  0  0  0  0  0  0  0  0
   -2.2821   -3.5392   -0.1663 H   0  0  0  0  0  0  0  0  0  0  0  0
   -0.5847    0.3242   -1.3552 H   0  0  0  0  0  0  0  0  0  0  0  0
    3.0582    2.4177    1.4093 H   0  0  0  0  0  0  0  0  0  0  0  0
    2.0311    0.2751   -2.1841 H   0  0  0  0  0  0  0  0  0  0  0  0
    0.1116   -3.7647   -0.5968 H   0  0  0  0  0  0  0  0  0  0  0  0
    1.1485   -2.5073   -0.5986 H   0  0  0  0  0  0  0  0  0  0  0  0
    5.0288    1.0046    1.7018 H   0  0  0  0  0  0  0  0  0  0  0  0
    4.0021   -1.1390   -1.9192 H   0  0  0  0  0  0  0  0  0  0  0  0
   -3.8465   -2.4872   -1.7259 H   0  0  0  0  0  0  0  0  0  0  0  0
   -2.9369   -0.7026    2.0897 H   0  0  0  0  0  0  0  0  0  0  0  0
   -5.8148   -1.0250   -1.9397 H   0  0  0  0  0  0  0  0  0  0  0  0
   -4.9001    0.7666    1.8698 H   0  0  0  0  0  0  0  0  0  0  0  0
    4.8452   -2.8600   -0.1603 H   0  0  0  0  0  0  0  0  0  0  0  0
    6.5840   -2.9504    0.0860 H   0  0  0  0  0  0  0  0  0  0  0  0
    5.9632   -2.4059   -1.4758 H   0  0  0  0  0  0  0  0  0  0  0  0
    7.8716   -1.0802    0.4729 H   0  0  0  0  0  0  0  0  0  0  0  0
    7.2145    0.5485    0.3942 H   0  0  0  0  0  0  0  0  0  0  0  0
    6.8787   -0.4874    1.8088 H   0  0  0  0  0  0  0  0  0  0  0  0
   -2.9982    2.8182   -0.8186 H   0  0  0  0  0  0  0  0  0  0  0  0
   -7.0227    0.5849   -1.0055 H   0  0  0  0  0  0  0  0  0  0  0  0
  1 13  2  0  0  0  0
  2 17  1  0  0  0  0
  2 51  1  0  0  0  0
  3 17  2  0  0  0  0
  4 25  1  0  0  0  0
  4 52  1  0  0  0  0
  5  8  1  0  0  0  0
  5 13  1  0  0  0  0
  5 34  1  0  0  0  0
  6 10  1  0  0  0  0
  6 37  1  0  0  0  0
  6 38  1  0  0  0  0
  7 18  1  0  0  0  0
  7 26  1  0  0  0  0
  7 27  1  0  0  0  0
  8  9  1  0  0  0  0
  8 17  1  0  0  0  0
  8 28  1  0  0  0  0
  9 12  1  0  0  0  0
  9 29  1  0  0  0  0
  9 30  1  0  0  0  0
 10 11  1  0  0  0  0
 10 13  1  0  0  0  0
 10 31  1  0  0  0  0
 11 14  1  0  0  0  0
 11 32  1  0  0  0  0
 11 33  1  0  0  0  0
 12 15  2  0  0  0  0
 12 16  1  0  0  0  0
 14 21  2  0  0  0  0
 14 22  1  0  0  0  0
 15 19  1  0  0  0  0
 15 35  1  0  0  0  0
 16 20  2  0  0  0  0
 16 36  1  0  0  0  0
 18 19  2  0  0  0  0
 18 20  1  0  0  0  0
 19 39  1  0  0  0  0
 20 40  1  0  0  0  0
 21 23  1  0  0  0  0
 21 41  1  0  0  0  0
 22 24  2  0  0  0  0
 22 42  1  0  0  0  0
 23 25  2  0  0  0  0
 23 43  1  0  0  0  0
 24 25  1  0  0  0  0
 24 44  1  0  0  0  0
 26 45  1  0  0  0  0
 26 46  1  0  0  0  0
 26 47  1  0  0  0  0
 27 48  1  0  0  0  0
 27 49  1  0  0  0  0
 27 50  1  0  0  0  0
M  END
> <PUBCHEM_COMPOUND_CID>
130299

> <PUBCHEM_CONFORMER_RMSD>
1

> <PUBCHEM_CONFORMER_DIVERSEORDER>
1
4
60
61
10
14
13
66
65
36
35
22
23
51
38
20
64
21
48
39
56
26
33
31
59
34
47
19
68
29
11
28
9
50
52
67
54
41
40
63
17
42
58
16
3
46
49
37
27
30
18
44
25
24
2
32
69
62
8
43
15
55
12
6
7
5
53
45
57

> <PUBCHEM_MMFF94_PARTIAL_CHARGES>
40
1 -0.57
10 0.33
11 0.14
12 -0.14
13 0.57
14 -0.14
15 -0.15
16 -0.15
17 0.66
18 0.1
19 -0.15
2 -0.65
20 -0.15
21 -0.15
22 -0.15
23 -0.15
24 -0.15
25 0.08
26 0.37
27 0.37
3 -0.57
34 0.37
35 0.15
36 0.15
37 0.36
38 0.36
39 0.15
4 -0.53
40 0.15
41 0.15
42 0.15
43 0.15
44 0.15
5 -0.73
51 0.5
52 0.45
6 -0.99
7 -0.84
8 0.36
9 0.14

> <PUBCHEM_EFFECTIVE_ROTOR_COUNT>
9

> <PUBCHEM_PHARMACOPHORE_FEATURES>
11
1 1 acceptor
1 2 acceptor
1 3 acceptor
1 4 donor
1 5 donor
1 6 cation
1 6 donor
1 7 cation
3 2 3 17 anion
6 12 15 16 18 19 20 rings
6 14 21 22 23 24 25 rings

> <PUBCHEM_HEAVY_ATOM_COUNT>
27

> <PUBCHEM_ATOM_DEF_STEREO_COUNT>
2

> <PUBCHEM_ATOM_UDEF_STEREO_COUNT>
0

> <PUBCHEM_BOND_DEF_STEREO_COUNT>
0

> <PUBCHEM_BOND_UDEF_STEREO_COUNT>
0

> <PUBCHEM_ISOTOPIC_ATOM_COUNT>
0

> <PUBCHEM_COMPONENT_COUNT>
1

> <PUBCHEM_CACTVS_TAUTO_COUNT>
4

> <PUBCHEM_CONFORMER_ID>
0001FCFB00000001

> <PUBCHEM_MMFF94_ENERGY>
76.4568

> <PUBCHEM_FEATURE_SELFOVERLAP>
55.881

> <PUBCHEM_SHAPE_FINGERPRINT>
10906281 52 17825673528366711248
11646440 116 18270413775667955241
12422481 6 17917434198405494334
12760667 363 18410572885761175284
12788726 201 18339096946507695316
13402501 40 18413108355179652206
13583140 156 14836406934345749487
14955137 171 18263658414749567427
15183329 4 18410014342608093782
15420108 30 17765727818785012009
15927050 60 17763748693633426020
16752209 62 18186798088827370416
17349148 13 17845388789216054515
17492 89 17835238222697343223
17857418 61 18412265034467656234
20511986 3 17632003251999241974
20832881 197 18261113001843678400
21236236 1 18411139087089644905
21279426 13 18335134289441894447
23402539 116 18343581867295376119
23559900 14 18265334083118270788
24893992 56 18259985999285411339
3004659 81 18113336449185661854
335352 9 18408886252431071023
350125 39 18409731742618606532
59755656 215 18335983069136827863
6138700 20 18409166601794436587
7226269 152 18334012808745162725

> <PUBCHEM_SHAPE_MULTIPOLES>
517.23
14.52
3.27
1.12
5.87
1.25
0.05
-5.4
0.37
-0.41
-0.17
-0.09
-0.08
0.08

> <PUBCHEM_SHAPE_SELFOVERLAP>
1083.989

> <PUBCHEM_SHAPE_VOLUME>
292

> <PUBCHEM_COORDINATE_TYPE>
2
5
10

$$$$
