130267
  -OEChem-03292013323D

 49 51  0     1  0  0  0  0  0999 V2000
   -1.1332    1.0032    1.9204 S   0  0  0  0  0  0  0  0  0  0  0  0
   -2.2787    1.8038    2.3384 O   0  0  0  0  0  0  0  0  0  0  0  0
   -0.1303    0.6206    2.9071 O   0  0  0  0  0  0  0  0  0  0  0  0
   -3.6543    0.4577    0.1951 O   0  0  0  0  0  0  0  0  0  0  0  0
    1.4527    0.1883    0.5605 N   0  0  0  0  0  0  0  0  0  0  0  0
    1.4982    2.0058   -0.9557 N   0  0  0  0  0  0  0  0  0  0  0  0
   -0.2550    3.6590   -0.9309 N   0  0  0  0  0  0  0  0  0  0  0  0
   -1.7082   -0.4151    1.1471 N   0  0  0  0  0  0  0  0  0  0  0  0
    1.5262    3.8144   -2.4503 N   0  0  0  0  0  0  0  0  0  0  0  0
   -3.1268   -1.7696   -0.1292 N   0  0  0  0  0  0  0  0  0  0  0  0
    3.2727   -1.4007    1.0478 C   0  0  2  0  0  0  0  0  0  0  0  0
    2.9411   -2.6192   -0.7864 C   0  0  1  0  0  0  0  0  0  0  0  0
    2.5237   -2.6850    0.6808 C   0  0  0  0  0  0  0  0  0  0  0  0
    2.6843   -0.3745    0.0554 C   0  0  1  0  0  0  0  0  0  0  0  0
    2.4241   -1.2281   -1.2004 C   0  0  0  0  0  0  0  0  0  0  0  0
    4.7041   -1.7444    0.5985 C   0  0  0  0  0  0  0  0  0  0  0  0
    4.4750   -2.5715   -0.6756 C   0  0  0  0  0  0  0  0  0  0  0  0
    0.8784    1.3472    0.0655 C   0  0  0  0  0  0  0  0  0  0  0  0
   -0.3145    1.8163    0.6167 C   0  0  0  0  0  0  0  0  0  0  0  0
   -0.8339    2.9760    0.0785 C   0  0  0  0  0  0  0  0  0  0  0  0
    0.8917    3.1257   -1.3935 C   0  0  0  0  0  0  0  0  0  0  0  0
   -2.9114   -0.5023    0.3772 C   0  0  0  0  0  0  0  0  0  0  0  0
   -4.2713   -2.1066   -0.9426 C   0  0  0  0  0  0  0  0  0  0  0  0
   -3.9768   -1.8452   -2.4145 C   0  0  0  0  0  0  0  0  0  0  0  0
   -4.6778   -3.5560   -0.7100 C   0  0  0  0  0  0  0  0  0  0  0  0
    3.2021   -1.1071    2.0978 H   0  0  0  0  0  0  0  0  0  0  0  0
    2.5731   -3.4286   -1.4198 H   0  0  0  0  0  0  0  0  0  0  0  0
    2.9083   -3.5700    1.1991 H   0  0  0  0  0  0  0  0  0  0  0  0
    1.4405   -2.6223    0.8252 H   0  0  0  0  0  0  0  0  0  0  0  0
    3.4141    0.4206   -0.1398 H   0  0  0  0  0  0  0  0  0  0  0  0
    1.3582   -1.2786   -1.4528 H   0  0  0  0  0  0  0  0  0  0  0  0
    2.9595   -0.8375   -2.0722 H   0  0  0  0  0  0  0  0  0  0  0  0
    5.3144   -0.8558    0.4096 H   0  0  0  0  0  0  0  0  0  0  0  0
    5.2131   -2.3525    1.3549 H   0  0  0  0  0  0  0  0  0  0  0  0
    4.8888   -3.5783   -0.5499 H   0  0  0  0  0  0  0  0  0  0  0  0
    4.9455   -2.1155   -1.5523 H   0  0  0  0  0  0  0  0  0  0  0  0
    0.8535   -0.4347    1.0894 H   0  0  0  0  0  0  0  0  0  0  0  0
   -1.7573    3.4182    0.4369 H   0  0  0  0  0  0  0  0  0  0  0  0
   -1.1691   -1.2781    1.2919 H   0  0  0  0  0  0  0  0  0  0  0  0
    1.1090    4.6602   -2.8137 H   0  0  0  0  0  0  0  0  0  0  0  0
    2.3893    3.4525   -2.8317 H   0  0  0  0  0  0  0  0  0  0  0  0
   -5.1059   -1.4623   -0.6406 H   0  0  0  0  0  0  0  0  0  0  0  0
   -2.4227   -2.4819    0.0393 H   0  0  0  0  0  0  0  0  0  0  0  0
   -3.1336   -2.4515   -2.7638 H   0  0  0  0  0  0  0  0  0  0  0  0
   -4.8472   -2.0801   -3.0358 H   0  0  0  0  0  0  0  0  0  0  0  0
   -3.7168   -0.7942   -2.5816 H   0  0  0  0  0  0  0  0  0  0  0  0
   -5.5670   -3.8123   -1.2952 H   0  0  0  0  0  0  0  0  0  0  0  0
   -3.8738   -4.2454   -0.9911 H   0  0  0  0  0  0  0  0  0  0  0  0
   -4.9062   -3.7301    0.3473 H   0  0  0  0  0  0  0  0  0  0  0  0
  1  2  2  0  0  0  0
  1  3  2  0  0  0  0
  1  8  1  0  0  0  0
  1 19  1  0  0  0  0
  4 22  2  0  0  0  0
  5 14  1  0  0  0  0
  5 18  1  0  0  0  0
  5 37  1  0  0  0  0
  6 18  2  0  0  0  0
  6 21  1  0  0  0  0
  7 20  1  0  0  0  0
  7 21  2  0  0  0  0
  8 22  1  0  0  0  0
  8 39  1  0  0  0  0
  9 21  1  0  0  0  0
  9 40  1  0  0  0  0
  9 41  1  0  0  0  0
 10 22  1  0  0  0  0
 10 23  1  0  0  0  0
 10 43  1  0  0  0  0
 11 13  1  0  0  0  0
 11 14  1  0  0  0  0
 11 16  1  0  0  0  0
 11 26  1  0  0  0  0
 12 13  1  0  0  0  0
 12 15  1  0  0  0  0
 12 17  1  0  0  0  0
 12 27  1  0  0  0  0
 13 28  1  0  0  0  0
 13 29  1  0  0  0  0
 14 15  1  0  0  0  0
 14 30  1  0  0  0  0
 15 31  1  0  0  0  0
 15 32  1  0  0  0  0
 16 17  1  0  0  0  0
 16 33  1  0  0  0  0
 16 34  1  0  0  0  0
 17 35  1  0  0  0  0
 17 36  1  0  0  0  0
 18 19  1  0  0  0  0
 19 20  2  0  0  0  0
 20 38  1  0  0  0  0
 23 24  1  0  0  0  0
 23 25  1  0  0  0  0
 23 42  1  0  0  0  0
 24 44  1  0  0  0  0
 24 45  1  0  0  0  0
 24 46  1  0  0  0  0
 25 47  1  0  0  0  0
 25 48  1  0  0  0  0
 25 49  1  0  0  0  0
M  END
> <PUBCHEM_COMPOUND_CID>
130267

> <PUBCHEM_CONFORMER_RMSD>
1

> <PUBCHEM_CONFORMER_DIVERSEORDER>
6
537
156
257
225
349
453
625
340
242
367
396
216
77
196
293
620
21
372
364
409
388
188
236
386
596
385
280
351
416
305
425
314
477
401
18
72
571
593
358
562
27
584
269
271
354
170
158
555
34
205
246
496
611
365
5
126
334
528
423
4
420
194
590
502
574
566
640
382
392
70
436
615
290
234
19
148
344
186
54
441
219
379
161
606
306
209
494
445
30
115
111
28
180
92
58
632
262
533
224
229
75
20
240
122
414
39
317
201
132
169
495
207
538
545
40
463
239
173
7
133
127
48
134
112
91
217
223
630
42
12
642
68
23
84
9
141
82
51
147
193
10
189
15
203
53
29
56
1
33
117
135
13
31
55
181
22
108
50
245
424
433
44
49
104
38
212
59
3
2
303
144
85
128

> <PUBCHEM_MMFF94_PARTIAL_CHARGES>
23
1 1.45
10 -0.73
14 0.37
18 0.41
19 -0.01
2 -0.65
20 0.16
21 0.72
22 0.87
23 0.3
3 -0.65
37 0.4
38 0.15
39 0.42
4 -0.57
40 0.4
41 0.4
43 0.37
5 -0.87
6 -0.62
7 -0.62
8 -0.79
9 -0.9

> <PUBCHEM_EFFECTIVE_ROTOR_COUNT>
8

> <PUBCHEM_PHARMACOPHORE_FEATURES>
11
1 10 donor
1 2 acceptor
1 3 acceptor
1 4 acceptor
1 5 donor
1 8 donor
1 9 donor
3 23 24 25 hydrophobe
4 6 7 9 21 cation
6 6 7 18 19 20 21 rings
7 11 12 13 14 15 16 17 rings

> <PUBCHEM_HEAVY_ATOM_COUNT>
25

> <PUBCHEM_ATOM_DEF_STEREO_COUNT>
0

> <PUBCHEM_ATOM_UDEF_STEREO_COUNT>
3

> <PUBCHEM_BOND_DEF_STEREO_COUNT>
0

> <PUBCHEM_BOND_UDEF_STEREO_COUNT>
0

> <PUBCHEM_ISOTOPIC_ATOM_COUNT>
0

> <PUBCHEM_COMPONENT_COUNT>
1

> <PUBCHEM_CACTVS_TAUTO_COUNT>
18

> <PUBCHEM_CONFORMER_ID>
0001FCDB00000006

> <PUBCHEM_MMFF94_ENERGY>
56.0882

> <PUBCHEM_FEATURE_SELFOVERLAP>
55.883

> <PUBCHEM_SHAPE_FINGERPRINT>
10042902 136 18130799940434947158
11069576 57 18127964419989680623
11477941 20 17756463412068050302
11552529 35 17845088459544125618
11578080 2 18129645435761440632
12403259 327 16772679784454307601
12553582 1 17971501544803843538
13004483 165 18118116970364864459
13009979 54 18201450185189943435
13083527 12 18337940277718615560
133893 2 18117018747385818380
13911987 19 17610362793122697868
13931106 250 17976533918902690244
14674994 50 17843943893793570909
14863182 85 17840012280234829506
15003188 105 16264016371293882455
17980427 26 15293474149993961640
19141452 34 18126854793713668801
20505436 4 17334556782400744145
20602899 9 17478600218462445185
20626108 58 18340475755379036235
20775530 9 18343575270294856743
21304303 282 16155661312799774356
21344244 181 17547554995282274917
21421566 26 18049466758946346404
21452121 199 18338788009151034121
23419403 2 17628033937528910936
238 59 17829896782060318315
26353 1 18186516583717310741
340366 18 18409449159820123069
404807 78 16385353054186929323
4280585 95 18262222361989875618
46194498 28 17824246323476253975
463206 1 17842268452769145311
57527293 21 18265615378170221914

> <PUBCHEM_SHAPE_MULTIPOLES>
470.84
8.34
5.06
2.14
2.1
2.19
-0.27
-12.05
1.81
0.9
2.87
0.85
1.3
-2.39

> <PUBCHEM_SHAPE_SELFOVERLAP>
978.699

> <PUBCHEM_SHAPE_VOLUME>
270.1

> <PUBCHEM_COORDINATE_TYPE>
2
5
10

$$$$
