REMARK  Name = 130214
REMARK  7 active torsions:
REMARK  status: ('A' for Active; 'I' for Inactive)
REMARK    1  A    between atoms: N_1  and  C1*_11
REMARK    2  A    between atoms: C2*_12  and  O2*_15
REMARK    3  A    between atoms: C3*_13  and  O3*_17
REMARK    4  A    between atoms: C4*_14  and  C5*_19
REMARK    5  A    between atoms: C5*_19  and  O5*_20
REMARK    6  A    between atoms: N_22  and  C_24
REMARK    7  A    between atoms: C_25  and  O_29
REMARK                            x       y       z     vdW  Elec       q    Type
REMARK                         _______ _______ _______ _____ _____    ______ ____
ROOT
ATOM      1  N   UNL     1       1.404   0.176  -0.212  0.00  0.00    -0.247 N 
ATOM      2  N   UNL     1      -0.260   1.520   0.417  0.00  0.00    -0.242 NA
ATOM      3  N   UNL     1       0.126  -1.620  -1.233  0.00  0.00    -0.228 NA
ATOM      4  N   UNL     1      -2.271  -1.176  -1.123  0.00  0.00    -0.228 NA
ATOM      5  C   UNL     1       0.250  -0.443  -0.601  0.00  0.00    +0.152 C 
ATOM      6  C   UNL     1      -2.087   0.015  -0.480  0.00  0.00    +0.146 C 
ATOM      7  C   UNL     1      -0.769   0.407  -0.203  0.00  0.00    +0.140 C 
ATOM      8  C   UNL     1       1.046   1.351   0.395  0.00  0.00    +0.223 C 
ATOM      9  C   UNL     1      -1.176  -1.903  -1.452  0.00  0.00    +0.253 C 
ATOM     10  N   UNL     1      -3.166   0.804  -0.119  0.00  0.00    -0.316 N 
ATOM     11  H   UNL     1      -2.987   1.655   0.342  0.00  0.00    +0.148 HD
ENDROOT
BRANCH   1  13
ATOM     12  O4* UNL     1       3.650   0.808  -0.607  0.00  0.00    -0.333 OA
ATOM     13  C1* UNL     1       2.768  -0.313  -0.401  0.00  0.00    +0.225 C 
ATOM     14  C2* UNL     1       3.308  -1.097   0.790  0.00  0.00    +0.187 C 
ATOM     15  C3* UNL     1       4.788  -0.785   0.721  0.00  0.00    +0.171 C 
ATOM     16  C4* UNL     1       4.771   0.671   0.284  0.00  0.00    +0.175 C 
BRANCH  14  17
ATOM     17  O2* UNL     1       3.055  -2.486   0.664  0.00  0.00    -0.378 OA
ATOM     18  H2* UNL     1       2.100  -2.646   0.714  0.00  0.00    +0.211 HD
ENDBRANCH  14  17
BRANCH  15  19
ATOM     19  O3* UNL     1       5.402  -0.952   1.984  0.00  0.00    -0.379 OA
ATOM     20  H3* UNL     1       5.393  -1.891   2.227  0.00  0.00    +0.211 HD
ENDBRANCH  15  19
BRANCH  16  21
ATOM     21  C5* UNL     1       6.040   1.100  -0.431  0.00  0.00    +0.169 C 
BRANCH  21  22
ATOM     22  O5* UNL     1       5.918   2.463  -0.803  0.00  0.00    -0.379 OA
ATOM     23  H5* UNL     1       6.725   2.747  -1.261  0.00  0.00    +0.211 HD
ENDBRANCH  21  22
ENDBRANCH  16  21
ENDBRANCH   1  13
BRANCH  10  24
ATOM     24  C   UNL     1      -4.543   0.446  -0.383  0.00  0.00    +0.097 C 
ATOM     25  C   UNL     1      -5.048  -0.507   0.711  0.00  0.00    +0.128 C 
ATOM     26  C   UNL     1      -5.438   1.689  -0.304  0.00  0.00    +0.022 C 
ATOM     27  C   UNL     1      -6.380   0.075   1.168  0.00  0.00    +0.031 C 
ATOM     28  C   UNL     1      -6.172   1.571   1.026  0.00  0.00    +0.004 C 
BRANCH  25  29
ATOM     29  O   UNL     1      -5.216  -1.816   0.192  0.00  0.00    -0.383 OA
ATOM     30  H   UNL     1      -4.356  -2.164  -0.092  0.00  0.00    +0.210 HD
ENDBRANCH  25  29
ENDBRANCH  10  24
TORSDOF 7
