REMARK  Name = 130222
REMARK  5 active torsions:
REMARK  status: ('A' for Active; 'I' for Inactive)
REMARK    1  A    between atoms: CA_6  and  C_21
REMARK    2  A    between atoms: CA_8  and  N_12
REMARK    3  A    between atoms: C_13  and  O_15
REMARK    4  A    between atoms: O_15  and  C_16
REMARK    5  A    between atoms: C_21  and  O_22
REMARK                            x       y       z     vdW  Elec       q    Type
REMARK                         _______ _______ _______ _____ _____    ______ ____
ROOT
ATOM      1  SG  UNL     1       4.128   1.825   0.462  0.00  0.00    -0.119 S 
ATOM      2  O   UNL     1       0.747  -1.442  -1.084  0.00  0.00    -0.273 OA
ATOM      3  N   UNL     1       2.210   0.152  -0.242  0.00  0.00    -0.262 N 
ATOM      4  C   UNL     1       2.361   1.400   0.494  0.00  0.00    +0.124 C 
ATOM      5  C   UNL     1       1.500   2.486  -0.140  0.00  0.00    +0.033 C 
ATOM      6  CA  UNL     1       3.451  -0.506  -0.619  0.00  0.00    +0.186 C 
ATOM      7  C   UNL     1       0.067   2.000  -0.405  0.00  0.00    +0.032 C 
ATOM      8  CA  UNL     1      -0.171   0.537  -0.018  0.00  0.00    +0.151 C 
ATOM      9  C   UNL     1       0.950  -0.364  -0.528  0.00  0.00    +0.245 C 
ATOM     10  CB  UNL     1       4.542   0.545  -0.754  0.00  0.00    +0.090 C 
ENDROOT
BRANCH   8  12
ATOM     11  O   UNL     1      -2.773   0.606   1.272  0.00  0.00    -0.226 OA
ATOM     12  N   UNL     1      -1.425   0.059  -0.536  0.00  0.00    -0.264 N 
ATOM     13  C   UNL     1      -2.622   0.132   0.150  0.00  0.00    +0.402 C 
ATOM     14  H   UNL     1      -1.430  -0.346  -1.434  0.00  0.00    +0.153 HD
BRANCH  13  15
ATOM     15  O   UNL     1      -3.626  -0.404  -0.607  0.00  0.00    -0.442 OA
BRANCH  15  16
ATOM     16  C   UNL     1      -4.929  -0.393  -0.013  0.00  0.00    +0.138 C 
ATOM     17  C   UNL     1      -5.321   1.056   0.273  0.00  0.00    +0.044 C 
ATOM     18  C   UNL     1      -5.895  -1.023  -1.014  0.00  0.00    +0.044 C 
ATOM     19  C   UNL     1      -4.883  -1.211   1.277  0.00  0.00    +0.044 C 
ENDBRANCH  15  16
ENDBRANCH  13  15
ENDBRANCH   8  12
BRANCH   6  21
ATOM     20  OXT UNL     1       3.491  -1.377   1.638  0.00  0.00    -0.248 OA
ATOM     21  C   UNL     1       3.773  -1.504   0.456  0.00  0.00    +0.333 C 
BRANCH  21  22
ATOM     22  O   UNL     1       4.425  -2.573  -0.063  0.00  0.00    -0.479 OA
ATOM     23  H   UNL     1       4.611  -2.608  -0.980  0.00  0.00    +0.295 HD
ENDBRANCH  21  22
ENDBRANCH   6  21
TORSDOF 5
