REMARK  Name = 130244
REMARK  9 active torsions:
REMARK  status: ('A' for Active; 'I' for Inactive)
REMARK    1  A    between atoms: C_1  and  C_19
REMARK    2  A    between atoms: C_4  and  C_7
REMARK    3  A    between atoms: C_8  and  C_17
REMARK    4  A    between atoms: C_19  and  N_20
REMARK    5  A    between atoms: C_22  and  C_33
REMARK    6  A    between atoms: C_23  and  C_30
REMARK    7  A    between atoms: C_24  and  C_28
REMARK    8  A    between atoms: C_30  and  O_31
REMARK    9  A    between atoms: C_33  and  C_34
REMARK                            x       y       z     vdW  Elec       q    Type
REMARK                         _______ _______ _______ _____ _____    ______ ____
ROOT
ATOM      1  C   UNL     1       0.054   1.606   0.864  0.00  0.00    -0.002 C 
ATOM      2  C   UNL     1      -0.565   0.773   1.795  0.00  0.00    -0.003 C 
ATOM      3  C   UNL     1      -0.674   2.110  -0.214  0.00  0.00    -0.003 C 
ATOM      4  C   UNL     1      -2.640   0.947   0.570  0.00  0.00    +0.001 C 
ATOM      5  C   UNL     1      -1.913   0.443   1.648  0.00  0.00    -0.000 C 
ATOM      6  C   UNL     1      -2.021   1.780  -0.361  0.00  0.00    -0.000 C 
ENDROOT
BRANCH   4   7
ATOM      7  C   UNL     1      -4.038   0.605   0.419  0.00  0.00    +0.009 C 
ATOM      8  C   UNL     1      -4.448  -0.517  -0.305  0.00  0.00    +0.065 C 
ATOM      9  C   UNL     1      -4.994   1.429   1.018  0.00  0.00    +0.001 C 
ATOM     10  C   UNL     1      -5.805  -0.814  -0.429  0.00  0.00    +0.010 C 
ATOM     11  C   UNL     1      -6.352   1.132   0.894  0.00  0.00    +0.000 C 
ATOM     12  C   UNL     1      -6.757   0.011   0.171  0.00  0.00    +0.001 C 
BRANCH   8  17
ATOM     13  N   UNL     1      -2.962  -2.453  -0.335  0.00  0.00    -0.110 NA
ATOM     14  N   UNL     1      -3.071  -1.195  -2.215  0.00  0.00    -0.087 NA
ATOM     15  N   UNL     1      -2.179  -2.890  -1.331  0.00  0.00    -0.140 N 
ATOM     16  N   UNL     1      -2.212  -2.176  -2.464  0.00  0.00    -0.022 NA
ATOM     17  C   UNL     1      -3.497  -1.393  -0.939  0.00  0.00    +0.073 C 
ATOM     18  H   UNL     1      -1.612  -3.690  -1.235  0.00  0.00    +0.197 HD
ENDBRANCH   8  17
ENDBRANCH   4   7
BRANCH   1  19
ATOM     19  C   UNL     1       1.495   1.958   1.020  0.00  0.00    +0.120 C 
BRANCH  19  20
ATOM     20  N   UNL     1       2.370   1.001   0.336  0.00  0.00    -0.269 N 
ATOM     21  N   UNL     1       3.565   0.081  -1.267  0.00  0.00    -0.390 NA
ATOM     22  C   UNL     1       2.791   1.095  -0.948  0.00  0.00    +0.160 C 
ATOM     23  C   UNL     1       2.888  -0.122   0.886  0.00  0.00    +0.231 C 
ATOM     24  C   UNL     1       3.629  -0.682  -0.128  0.00  0.00    +0.210 C 
BRANCH  24  28
ATOM     25  F   UNL     1       4.383  -2.562   1.093  0.00  0.00    -0.164 F 
ATOM     26  F   UNL     1       4.007  -2.840  -1.030  0.00  0.00    -0.164 F 
ATOM     27  F   UNL     1       5.739  -1.689  -0.374  0.00  0.00    -0.164 F 
ATOM     28  C   UNL     1       4.422  -1.922  -0.111  0.00  0.00    +0.444 C 
ENDBRANCH  24  28
BRANCH  23  30
ATOM     29  O   UNL     1       1.784  -1.339   2.631  0.00  0.00    -0.248 OA
ATOM     30  C   UNL     1       2.684  -0.584   2.222  0.00  0.00    +0.339 C 
BRANCH  30  31
ATOM     31  O   UNL     1       3.620  -0.103   3.104  0.00  0.00    -0.479 OA
ATOM     32  H   UNL     1       4.301   0.466   2.801  0.00  0.00    +0.295 HD
ENDBRANCH  30  31
ENDBRANCH  23  30
BRANCH  22  33
ATOM     33  C   UNL     1       2.407   2.208  -1.841  0.00  0.00    +0.075 C 
BRANCH  33  34
ATOM     34  C   UNL     1       3.603   2.766  -2.639  0.00  0.00    +0.009 C 
ATOM     35  C   UNL     1       4.687   3.337  -1.739  0.00  0.00    +0.000 C 
ENDBRANCH  33  34
ENDBRANCH  22  33
ENDBRANCH  19  20
ENDBRANCH   1  19
TORSDOF 9
