130244
  -OEChem-03292013323D

 52 55  0     0  0  0  0  0  0999 V2000
    4.3832   -2.5615    1.0932 F   0  0  0  0  0  0  0  0  0  0  0  0
    4.0073   -2.8398   -1.0299 F   0  0  0  0  0  0  0  0  0  0  0  0
    5.7388   -1.6891   -0.3745 F   0  0  0  0  0  0  0  0  0  0  0  0
    3.6205   -0.1033    3.1036 O   0  0  0  0  0  0  0  0  0  0  0  0
    1.7835   -1.3388    2.6310 O   0  0  0  0  0  0  0  0  0  0  0  0
    2.3698    1.0007    0.3356 N   0  0  0  0  0  0  0  0  0  0  0  0
    3.5647    0.0812   -1.2674 N   0  0  0  0  0  0  0  0  0  0  0  0
   -2.9623   -2.4527   -0.3350 N   0  0  0  0  0  0  0  0  0  0  0  0
   -3.0711   -1.1953   -2.2152 N   0  0  0  0  0  0  0  0  0  0  0  0
   -2.1789   -2.8903   -1.3308 N   0  0  0  0  0  0  0  0  0  0  0  0
   -2.2118   -2.1759   -2.4643 N   0  0  0  0  0  0  0  0  0  0  0  0
    2.7910    1.0948   -0.9483 C   0  0  0  0  0  0  0  0  0  0  0  0
    1.4950    1.9583    1.0202 C   0  0  0  0  0  0  0  0  0  0  0  0
    2.4074    2.2079   -1.8405 C   0  0  0  0  0  0  0  0  0  0  0  0
    2.8879   -0.1225    0.8861 C   0  0  0  0  0  0  0  0  0  0  0  0
    0.0543    1.6060    0.8635 C   0  0  0  0  0  0  0  0  0  0  0  0
    3.6292   -0.6817   -0.1281 C   0  0  0  0  0  0  0  0  0  0  0  0
    3.6026    2.7660   -2.6385 C   0  0  0  0  0  0  0  0  0  0  0  0
   -0.5652    0.7727    1.7949 C   0  0  0  0  0  0  0  0  0  0  0  0
   -0.6736    2.1096   -0.2144 C   0  0  0  0  0  0  0  0  0  0  0  0
   -2.6405    0.9466    0.5704 C   0  0  0  0  0  0  0  0  0  0  0  0
    4.4223   -1.9217   -0.1107 C   0  0  0  0  0  0  0  0  0  0  0  0
   -1.9126    0.4429    1.6483 C   0  0  0  0  0  0  0  0  0  0  0  0
   -2.0210    1.7799   -0.3611 C   0  0  0  0  0  0  0  0  0  0  0  0
    4.6870    3.3375   -1.7389 C   0  0  0  0  0  0  0  0  0  0  0  0
    2.6840   -0.5836    2.2223 C   0  0  0  0  0  0  0  0  0  0  0  0
   -4.0383    0.6052    0.4188 C   0  0  0  0  0  0  0  0  0  0  0  0
   -4.4480   -0.5173   -0.3051 C   0  0  0  0  0  0  0  0  0  0  0  0
   -4.9943    1.4289    1.0181 C   0  0  0  0  0  0  0  0  0  0  0  0
   -5.8053   -0.8141   -0.4289 C   0  0  0  0  0  0  0  0  0  0  0  0
   -6.3517    1.1321    0.8941 C   0  0  0  0  0  0  0  0  0  0  0  0
   -3.4966   -1.3931   -0.9392 C   0  0  0  0  0  0  0  0  0  0  0  0
   -6.7572    0.0106    0.1707 C   0  0  0  0  0  0  0  0  0  0  0  0
    1.7780    1.9581    2.0806 H   0  0  0  0  0  0  0  0  0  0  0  0
    1.7195    2.9723    0.6778 H   0  0  0  0  0  0  0  0  0  0  0  0
    1.6578    1.8406   -2.5519 H   0  0  0  0  0  0  0  0  0  0  0  0
    1.9579    3.0555   -1.3224 H   0  0  0  0  0  0  0  0  0  0  0  0
    4.0344    1.9818   -3.2720 H   0  0  0  0  0  0  0  0  0  0  0  0
    3.2404    3.5542   -3.3091 H   0  0  0  0  0  0  0  0  0  0  0  0
   -0.0270    0.3989    2.6590 H   0  0  0  0  0  0  0  0  0  0  0  0
   -0.2217    2.7749   -0.9418 H   0  0  0  0  0  0  0  0  0  0  0  0
   -2.3819   -0.2021    2.3875 H   0  0  0  0  0  0  0  0  0  0  0  0
   -2.5751    2.1841   -1.2052 H   0  0  0  0  0  0  0  0  0  0  0  0
    4.2817    4.1102   -1.0776 H   0  0  0  0  0  0  0  0  0  0  0  0
    5.1531    2.5642   -1.1207 H   0  0  0  0  0  0  0  0  0  0  0  0
    5.4752    3.7936   -2.3465 H   0  0  0  0  0  0  0  0  0  0  0  0
   -4.6986    2.3080    1.5864 H   0  0  0  0  0  0  0  0  0  0  0  0
   -6.1400   -1.6840   -0.9895 H   0  0  0  0  0  0  0  0  0  0  0  0
   -7.0929    1.7741    1.3609 H   0  0  0  0  0  0  0  0  0  0  0  0
   -7.8141   -0.2203    0.0742 H   0  0  0  0  0  0  0  0  0  0  0  0
    3.4609   -0.4315    4.0143 H   0  0  0  0  0  0  0  0  0  0  0  0
   -1.5947   -3.7136   -1.2321 H   0  0  0  0  0  0  0  0  0  0  0  0
  1 22  1  0  0  0  0
  2 22  1  0  0  0  0
  3 22  1  0  0  0  0
  4 26  1  0  0  0  0
  4 51  1  0  0  0  0
  5 26  2  0  0  0  0
  6 12  1  0  0  0  0
  6 13  1  0  0  0  0
  6 15  1  0  0  0  0
  7 12  2  0  0  0  0
  7 17  1  0  0  0  0
  8 10  1  0  0  0  0
  8 32  2  0  0  0  0
  9 11  2  0  0  0  0
  9 32  1  0  0  0  0
 10 11  1  0  0  0  0
 10 52  1  0  0  0  0
 12 14  1  0  0  0  0
 13 16  1  0  0  0  0
 13 34  1  0  0  0  0
 13 35  1  0  0  0  0
 14 18  1  0  0  0  0
 14 36  1  0  0  0  0
 14 37  1  0  0  0  0
 15 17  2  0  0  0  0
 15 26  1  0  0  0  0
 16 19  2  0  0  0  0
 16 20  1  0  0  0  0
 17 22  1  0  0  0  0
 18 25  1  0  0  0  0
 18 38  1  0  0  0  0
 18 39  1  0  0  0  0
 19 23  1  0  0  0  0
 19 40  1  0  0  0  0
 20 24  2  0  0  0  0
 20 41  1  0  0  0  0
 21 23  2  0  0  0  0
 21 24  1  0  0  0  0
 21 27  1  0  0  0  0
 23 42  1  0  0  0  0
 24 43  1  0  0  0  0
 25 44  1  0  0  0  0
 25 45  1  0  0  0  0
 25 46  1  0  0  0  0
 27 28  1  0  0  0  0
 27 29  2  0  0  0  0
 28 30  2  0  0  0  0
 28 32  1  0  0  0  0
 29 31  1  0  0  0  0
 29 47  1  0  0  0  0
 30 33  1  0  0  0  0
 30 48  1  0  0  0  0
 31 33  2  0  0  0  0
 31 49  1  0  0  0  0
 33 50  1  0  0  0  0
M  END
> <PUBCHEM_COMPOUND_CID>
130244

> <PUBCHEM_CONFORMER_RMSD>
1

> <PUBCHEM_CONFORMER_DIVERSEORDER>
1
19
25
26
16
11
8
20
3
27
17
28
13
22
23
10
15
24
18
4
7
12
6
2
21
9
5
14

> <PUBCHEM_MMFF94_PARTIAL_CHARGES>
39
1 -0.34
10 0.57
11 -0.42
12 0.01
13 0.4
14 0.18
15 -0.24
16 -0.14
17 0.05
19 -0.15
2 -0.34
20 -0.15
22 1.2
23 -0.15
24 -0.15
26 0.81
28 0.05
29 -0.15
3 -0.34
30 -0.15
31 -0.15
32 0.46
33 -0.15
4 -0.65
40 0.15
41 0.15
42 0.15
43 0.15
47 0.15
48 0.15
49 0.15
5 -0.57
50 0.15
51 0.5
52 0.27
6 0.05
7 -0.57
8 -0.71
9 -0.23

> <PUBCHEM_EFFECTIVE_ROTOR_COUNT>
8

> <PUBCHEM_PHARMACOPHORE_FEATURES>
10
1 25 hydrophobe
1 4 acceptor
1 5 acceptor
3 4 5 26 anion
3 6 7 12 cation
3 8 9 32 cation
5 6 7 12 15 17 rings
5 8 9 10 11 32 rings
6 16 19 20 21 23 24 rings
6 27 28 29 30 31 33 rings

> <PUBCHEM_HEAVY_ATOM_COUNT>
33

> <PUBCHEM_ATOM_DEF_STEREO_COUNT>
0

> <PUBCHEM_ATOM_UDEF_STEREO_COUNT>
0

> <PUBCHEM_BOND_DEF_STEREO_COUNT>
0

> <PUBCHEM_BOND_UDEF_STEREO_COUNT>
0

> <PUBCHEM_ISOTOPIC_ATOM_COUNT>
0

> <PUBCHEM_COMPONENT_COUNT>
1

> <PUBCHEM_CACTVS_TAUTO_COUNT>
6

> <PUBCHEM_CONFORMER_ID>
0001FCC400000001

> <PUBCHEM_MMFF94_ENERGY>
73.5548

> <PUBCHEM_FEATURE_SELFOVERLAP>
50.806

> <PUBCHEM_SHAPE_FINGERPRINT>
11135609 12 18412821365918718006
12107698 1 18115030701429352124
12422481 6 18272934878447063727
12788726 201 17774741800093735001
13402501 40 17703228408229028895
13636023 51 17131253745224148048
13726171 33 17771653370467756761
14068700 675 18265335011031491800
15001296 14 18335708264270734366
1813 80 18187355515700892289
19309040 13 17535790512844233421
19319366 153 18114461244790186971
20511986 3 18337389452052182845
21703447 108 16696651064445762025
21781051 124 18129666439380320159
23522609 53 18125475018897550105
23559900 14 16701751556710658025
3004659 81 18411704261856789272
3298306 158 17988926622761827597
338550 245 18341896251466631135
46194498 28 18040721354917188724
463206 1 18412262835070211922
5081480 168 17385444306188750268
574716 61 18114179791219701829
6823239 73 16987727951046834812
70251023 43 18187653440476238672

> <PUBCHEM_SHAPE_MULTIPOLES>
615.68
13.87
3.25
2.44
9.87
0.07
0.25
1.38
-1.74
-4.21
-1.79
-1.66
0.35
-3.74

> <PUBCHEM_SHAPE_SELFOVERLAP>
1355.191

> <PUBCHEM_SHAPE_VOLUME>
336.6

> <PUBCHEM_COORDINATE_TYPE>
2
5
10

$$$$
