REMARK  Name = 130242
REMARK  9 active torsions:
REMARK  status: ('A' for Active; 'I' for Inactive)
REMARK    1  A    between atoms: C_1  and  C_4
REMARK    2  A    between atoms: C_1  and  C_11
REMARK    3  A    between atoms: C_1  and  C_18
REMARK    4  A    between atoms: N_3  and  C_6
REMARK    5  A    between atoms: C_6  and  C_8
REMARK    6  A    between atoms: C_8  and  O_9
REMARK    7  A    between atoms: C_11  and  C_12
REMARK    8  A    between atoms: C_18  and  S_19
REMARK    9  A    between atoms: S_19  and  C_21
REMARK                            x       y       z     vdW  Elec       q    Type
REMARK                         _______ _______ _______ _____ _____    ______ ____
ROOT
ATOM      1  C   UNL     1      -0.714   0.434  -0.463  0.00  0.00    +0.092 C 
ENDROOT
BRANCH   1   4
ATOM      2  O   UNL     1      -0.224  -1.009   1.429  0.00  0.00    -0.275 OA
ATOM      3  N   UNL     1      -0.050  -1.893  -0.708  0.00  0.00    -0.295 N 
ATOM      4  C   UNL     1      -0.306  -0.883   0.209  0.00  0.00    +0.224 C 
ATOM      5  H   UNL     1      -0.143  -1.693  -1.667  0.00  0.00    +0.150 HD
BRANCH   3   6
ATOM      6  C   UNL     1       0.347  -3.225  -0.315  0.00  0.00    +0.200 C 
BRANCH   6   8
ATOM      7  O   UNL     1       2.383  -4.437   0.107  0.00  0.00    -0.248 OA
ATOM      8  C   UNL     1       1.841  -3.384  -0.205  0.00  0.00    +0.334 C 
BRANCH   8   9
ATOM      9  O   UNL     1       2.528  -2.251  -0.481  0.00  0.00    -0.479 OA
ATOM     10  H   UNL     1       2.067  -1.469  -0.715  0.00  0.00    +0.295 HD
ENDBRANCH   8   9
ENDBRANCH   6   8
ENDBRANCH   3   6
ENDBRANCH   1   4
BRANCH   1  11
ATOM     11  C   UNL     1      -0.196   1.639   0.353  0.00  0.00    +0.036 C 
BRANCH  11  12
ATOM     12  C   UNL     1       1.286   1.888   0.208  0.00  0.00    -0.022 C 
ATOM     13  C   UNL     1       2.167   1.271   1.081  0.00  0.00    -0.004 C 
ATOM     14  C   UNL     1       1.739   2.728  -0.797  0.00  0.00    -0.004 C 
ATOM     15  C   UNL     1       3.537   1.500   0.947  0.00  0.00    -0.000 C 
ATOM     16  C   UNL     1       3.108   2.958  -0.931  0.00  0.00    -0.000 C 
ATOM     17  C   UNL     1       4.007   2.344  -0.059  0.00  0.00    -0.000 C 
ENDBRANCH  11  12
ENDBRANCH   1  11
BRANCH   1  18
ATOM     18  C   UNL     1      -2.228   0.460  -0.756  0.00  0.00    +0.074 C 
BRANCH  18  19
ATOM     19  S   UNL     1      -3.293   0.329   0.716  0.00  0.00    -0.077 S 
BRANCH  19  21
ATOM     20  O   UNL     1      -5.044   0.635  -1.242  0.00  0.00    -0.285 OA
ATOM     21  C   UNL     1      -4.876   0.484  -0.038  0.00  0.00    +0.199 C 
ATOM     22  C   UNL     1      -6.010   0.413   0.945  0.00  0.00    +0.085 C 
ENDBRANCH  19  21
ENDBRANCH  18  19
ENDBRANCH   1  18
TORSDOF 9
