REMARK  Name = 130206
REMARK  10 active torsions:
REMARK  status: ('A' for Active; 'I' for Inactive)
REMARK    1  A    between atoms: N_3  and  C_19
REMARK    2  A    between atoms: C_4  and  S_8
REMARK    3  A    between atoms: S_8  and  C_9
REMARK    4  A    between atoms: C_9  and  C_10
REMARK    5  A    between atoms: C_10  and  N_11
REMARK    6  A    between atoms: C_10  and  C_16
REMARK    7  A    between atoms: C_16  and  O_17
REMARK    8  A    between atoms: C_19  and  O_20
REMARK    9  A    between atoms: O_20  and  C_21
REMARK   10  A    between atoms: C_21  and  N_24
REMARK                            x       y       z     vdW  Elec       q    Type
REMARK                         _______ _______ _______ _____ _____    ______ ____
ROOT
ATOM      1  O   UNK     1       0.431   2.100   2.256  0.00  0.00    -0.273 OA
ATOM      2  O   UNK     1       0.229   2.155  -2.361  0.00  0.00    -0.274 OA
ATOM      3  N   UNK     1      -0.029   2.138  -0.035  0.00  0.00    -0.202 N 
ATOM      4  C   UNK     1       2.190   1.835   0.613  0.00  0.00    +0.133 C 
ATOM      5  C   UNK     1       2.138   2.101  -0.888  0.00  0.00    +0.106 C 
ATOM      6  C   UNK     1       0.775   2.051   1.083  0.00  0.00    +0.243 C 
ATOM      7  C   UNK     1       0.672   2.119  -1.221  0.00  0.00    +0.235 C 
ENDROOT
BRANCH   4   8
ATOM      8  S   UNK     1       2.666   0.122   0.993  0.00  0.00    -0.133 S 
BRANCH   8   9
ATOM      9  C   UNK     1       4.348   0.167   0.335  0.00  0.00    +0.047 C 
BRANCH   9  10
ATOM     10  C   UNK     1       5.039  -1.194   0.438  0.00  0.00    +0.047 C 
BRANCH  10  11
ATOM     11  N   UNK     1       6.387  -1.116  -0.128  0.00  0.00    +0.389 N 
ATOM     12  H   UNK     1       6.919  -0.394   0.358  0.00  0.00    -0.088 HD
ATOM     13  H   UNK     1       6.327  -0.884  -1.120  0.00  0.00    -0.088 HD
ATOM     14  H   UNK     1       6.855  -2.016  -0.017  0.00  0.00    -0.088 HD
ENDBRANCH  10  11
BRANCH  10  16
ATOM     15  O   UNK     1       4.030  -2.212  -1.510  0.00  0.00    -0.253 OA
ATOM     16  C   UNK     1       4.289  -2.278  -0.314  0.00  0.00    +0.294 C 
BRANCH  16  17
ATOM     17  O   UNK     1       3.899  -3.316   0.467  0.00  0.00    -0.482 OA
ATOM     18  H   UNK     1       4.119  -3.327   1.377  0.00  0.00    +0.295 HD
ENDBRANCH  16  17
ENDBRANCH  10  16
ENDBRANCH   9  10
ENDBRANCH   8   9
ENDBRANCH   4   8
BRANCH   3  19
ATOM     19  C   UNK     1      -1.472   2.253   0.043  0.00  0.00    +0.250 C 
BRANCH  19  20
ATOM     20  O   UNK     1      -2.034   0.950   0.019  0.00  0.00    -0.313 OA
BRANCH  20  21
ATOM     21  C   UNK     1      -3.450   0.992   0.127  0.00  0.00    +0.251 C 
BRANCH  21  24
ATOM     22  O   UNK     1      -4.294  -0.594  -2.250  0.00  0.00    -0.269 OA
ATOM     23  O   UNK     1      -3.947  -0.961   2.326  0.00  0.00    -0.269 OA
ATOM     24  N   UNK     1      -3.954  -0.347   0.059  0.00  0.00    -0.196 N 
ATOM     25  C   UNK     1      -4.319  -0.998  -1.100  0.00  0.00    +0.257 C 
ATOM     26  C   UNK     1      -4.148  -1.176   1.142  0.00  0.00    +0.257 C 
ATOM     27  C   UNK     1      -4.774  -2.341  -0.709  0.00  0.00    +0.063 C 
ATOM     28  C   UNK     1      -4.673  -2.446   0.617  0.00  0.00    +0.063 C 
ENDBRANCH  21  24
ENDBRANCH  20  21
ENDBRANCH  19  20
ENDBRANCH   3  19
TORSDOF 10
