REMARK  Name = 130288
REMARK  11 active torsions:
REMARK  status: ('A' for Active; 'I' for Inactive)
REMARK    1  A    between atoms: C_1  and  C_4
REMARK    2  A    between atoms: C_1  and  C_16
REMARK    3  A    between atoms: N_3  and  C_6
REMARK    4  A    between atoms: C_6  and  C_7
REMARK    5  A    between atoms: C_7  and  C_8
REMARK    6  A    between atoms: C_8  and  C_9
REMARK    7  A    between atoms: C_9  and  C_10
REMARK    8  A    between atoms: C_10  and  C_13
REMARK    9  A    between atoms: C_16  and  C_17
REMARK   10  A    between atoms: C_17  and  C_18
REMARK   11  A    between atoms: C_18  and  C_25
REMARK                            x       y       z     vdW  Elec       q    Type
REMARK                         _______ _______ _______ _____ _____    ______ ____
ROOT
ATOM      1  C   UNL     1       4.716  -0.469   0.934  0.00  0.00    +0.085 C 
ENDROOT
BRANCH   1   4
ATOM      2  O   UNL     1       4.564   0.406  -1.320  0.00  0.00    -0.275 OA
ATOM      3  N   UNL     1       3.734   1.672   0.438  0.00  0.00    -0.304 N 
ATOM      4  C   UNL     1       4.337   0.555  -0.123  0.00  0.00    +0.222 C 
ATOM      5  H   UNL     1       3.594   1.699   1.412  0.00  0.00    +0.149 HD
BRANCH   3   6
ATOM      6  C   UNL     1       3.306   2.794  -0.362  0.00  0.00    +0.089 C 
BRANCH   6   7
ATOM      7  C   UNL     1       1.869   2.651  -0.852  0.00  0.00    +0.021 C 
BRANCH   7   8
ATOM      8  C   UNL     1       0.862   2.564   0.300  0.00  0.00    +0.002 C 
BRANCH   8   9
ATOM      9  C   UNL     1      -0.573   2.482  -0.226  0.00  0.00    +0.005 C 
BRANCH   9  10
ATOM     10  C   UNL     1      -1.624   2.423   0.885  0.00  0.00    +0.061 C 
BRANCH  10  13
ATOM     11  O   UNL     1      -3.968   2.370   1.471  0.00  0.00    -0.328 OA
ATOM     12  O   UNL     1      -3.245   1.270  -0.473  0.00  0.00    -0.328 OA
ATOM     13  C   UNL     1      -3.051   2.413   0.370  0.00  0.00    +0.235 C 
ATOM     14  C   UNL     1      -4.570   1.079   1.391  0.00  0.00    +0.177 C 
ATOM     15  C   UNL     1      -4.514   0.756  -0.076  0.00  0.00    +0.177 C 
ENDBRANCH  10  13
ENDBRANCH   9  10
ENDBRANCH   8   9
ENDBRANCH   7   8
ENDBRANCH   6   7
ENDBRANCH   3   6
ENDBRANCH   1   4
BRANCH   1  16
ATOM     16  C   UNL     1       3.527  -0.990   1.740  0.00  0.00    +0.010 C 
BRANCH  16  17
ATOM     17  C   UNL     1       2.446  -1.610   0.850  0.00  0.00    +0.001 C 
BRANCH  17  18
ATOM     18  C   UNL     1       1.283  -2.147   1.684  0.00  0.00    +0.013 C 
BRANCH  18  25
ATOM     19  S   UNL     1      -1.276  -3.274   1.800  0.00  0.00    -0.138 S 
ATOM     20  O   UNL     1      -0.735  -0.698  -3.457  0.00  0.00    -0.253 OA
ATOM     21  N   UNL     1       0.200  -1.479  -1.418  0.00  0.00    -0.288 N 
ATOM     22  N   UNL     1      -2.047  -1.729  -1.768  0.00  0.00    -0.288 N 
ATOM     23  C   UNL     1      -0.412  -1.830  -0.174  0.00  0.00    +0.102 C 
ATOM     24  C   UNL     1      -1.674  -2.529  -0.645  0.00  0.00    +0.103 C 
ATOM     25  C   UNL     1       0.219  -2.790   0.808  0.00  0.00    +0.067 C 
ATOM     26  C   UNL     1      -2.528  -2.662   0.586  0.00  0.00    +0.079 C 
ATOM     27  C   UNL     1      -0.846  -1.230  -2.362  0.00  0.00    +0.301 C 
ATOM     28  H   UNL     1       1.167  -1.419  -1.594  0.00  0.00    +0.151 HD
ATOM     29  H   UNL     1      -2.965  -1.554  -2.078  0.00  0.00    +0.151 HD
ENDBRANCH  18  25
ENDBRANCH  17  18
ENDBRANCH  16  17
ENDBRANCH   1  16
TORSDOF 11
