REMARK  Name = 130245
REMARK  3 active torsions:
REMARK  status: ('A' for Active; 'I' for Inactive)
REMARK    1  A    between atoms: N_1  and  C_13
REMARK    2  A    between atoms: C_15  and  C_18
REMARK    3  A    between atoms: C_18  and  O_19
REMARK                            x       y       z     vdW  Elec       q    Type
REMARK                         _______ _______ _______ _____ _____    ______ ____
ROOT
ATOM      1  N   UNL     1       0.192   1.437   0.014  0.00  0.00    -0.262 N 
ATOM      2  N   UNL     1       2.346   1.984   0.191  0.00  0.00    -0.240 NA
ATOM      3  N   UNL     1       0.388  -0.980  -0.140  0.00  0.00    -0.311 NA
ATOM      4  N   UNL     1       2.721  -1.689  -0.038  0.00  0.00    -0.312 NA
ATOM      5  N   UNL     1       0.980  -3.241  -0.256  0.00  0.00    -0.283 N 
ATOM      6  C   UNL     1       0.886   0.260  -0.022  0.00  0.00    +0.220 C 
ATOM      7  C   UNL     1       1.113   2.443   0.142  0.00  0.00    +0.222 C 
ATOM      8  C   UNL     1       2.219   0.621   0.089  0.00  0.00    +0.167 C 
ATOM      9  C   UNL     1       3.153  -0.410   0.079  0.00  0.00    +0.212 C 
ATOM     10  C   UNL     1       1.385  -1.891  -0.139  0.00  0.00    +0.199 C 
ATOM     11  H   UNL     1       0.024  -3.463  -0.333  0.00  0.00    +0.156 HD
ATOM     12  H   UNL     1       1.654  -3.958  -0.261  0.00  0.00    +0.156 HD
ATOM     13  N   UNL     1       4.527  -0.135   0.187  0.00  0.00    -0.331 N 
ATOM     14  H   UNL     1       5.179  -0.873   0.179  0.00  0.00    +0.145 HD
ATOM     15  H   UNL     1       4.838   0.795   0.272  0.00  0.00    +0.145 HD
ENDROOT
BRANCH   1  16
ATOM     16  C   UNL     1      -1.260   1.602  -0.069  0.00  0.00    +0.077 C 
ATOM     17  C   UNL     1      -2.030   0.854   1.034  0.00  0.00    +0.022 C 
ATOM     18  C   UNL     1      -3.310   0.322   0.367  0.00  0.00    +0.031 C 
ATOM     19  C   UNL     1      -1.858   1.061  -1.331  0.00  0.00    +0.020 C 
ATOM     20  C   UNL     1      -2.970   0.360  -1.091  0.00  0.00    +0.004 C 
BRANCH  18  21
ATOM     21  C   UNL     1      -3.675  -1.074   0.853  0.00  0.00    +0.137 C 
BRANCH  21  22
ATOM     22  O   UNL     1      -4.809  -1.524   0.132  0.00  0.00    -0.382 OA
ATOM     23  H   UNL     1      -5.051  -2.413   0.433  0.00  0.00    +0.210 HD
ENDBRANCH  21  22
ENDBRANCH  18  21
ENDBRANCH   1  16
TORSDOF 3
