REMARK  Name = 130267
REMARK  4 active torsions:
REMARK  status: ('A' for Active; 'I' for Inactive)
REMARK    1  A    between atoms: N_1  and  C_15
REMARK    2  A    between atoms: C_6  and  S_19
REMARK    3  A    between atoms: S_19  and  N_23
REMARK    4  A    between atoms: N_24  and  C_28
REMARK                            x       y       z     vdW  Elec       q    Type
REMARK                         _______ _______ _______ _____ _____    ______ ____
ROOT
ATOM      1  N   UNL     1       1.453   0.188   0.560  0.00  0.00    -0.308 N 
ATOM      2  N   UNL     1       1.498   2.006  -0.956  0.00  0.00    -0.321 NA
ATOM      3  N   UNL     1      -0.255   3.659  -0.931  0.00  0.00    -0.169 NA
ATOM      4  N   UNL     1       1.526   3.814  -2.450  0.00  0.00    -0.293 N 
ATOM      5  C   UNL     1       0.878   1.347   0.066  0.00  0.00    +0.213 C 
ATOM      6  C   UNL     1      -0.315   1.816   0.617  0.00  0.00    +0.189 C 
ATOM      7  C   UNL     1      -0.834   2.976   0.079  0.00  0.00    +0.136 C 
ATOM      8  C   UNL     1       0.892   3.126  -1.393  0.00  0.00    +0.143 C 
ATOM      9  H   UNL     1       0.996  -0.278   1.298  0.00  0.00    +0.149 HD
ATOM     10  H   UNL     1       2.368   3.470  -2.828  0.00  0.00    +0.155 HD
ATOM     11  H   UNL     1       1.127   4.639  -2.810  0.00  0.00    +0.155 HD
ENDROOT
BRANCH   1  15
ATOM     12  C   UNL     1       3.273  -1.401   1.048  0.00  0.00    +0.018 C 
ATOM     13  C   UNL     1       2.941  -2.619  -0.786  0.00  0.00    +0.002 C 
ATOM     14  C   UNL     1       2.524  -2.685   0.681  0.00  0.00    +0.002 C 
ATOM     15  C   UNL     1       2.684  -0.374   0.055  0.00  0.00    +0.071 C 
ATOM     16  C   UNL     1       2.424  -1.228  -1.200  0.00  0.00    +0.020 C 
ATOM     17  C   UNL     1       4.704  -1.744   0.599  0.00  0.00    +0.002 C 
ATOM     18  C   UNL     1       4.475  -2.571  -0.676  0.00  0.00    +0.000 C 
ENDBRANCH   1  15
BRANCH   6  19
ATOM     19  S   UNL     1      -1.133   1.003   1.920  0.00  0.00    +0.082 S 
ATOM     20  O   UNL     1      -2.279   1.804   2.338  0.00  0.00    -0.150 OA
ATOM     21  O   UNL     1      -0.130   0.621   2.907  0.00  0.00    -0.150 OA
BRANCH  19  23
ATOM     22  O   UNL     1      -3.654   0.458   0.195  0.00  0.00    -0.251 OA
ATOM     23  N   UNL     1      -1.708  -0.415   1.147  0.00  0.00    -0.169 N 
ATOM     24  N   UNL     1      -3.127  -1.770  -0.129  0.00  0.00    -0.289 N 
ATOM     25  C   UNL     1      -2.911  -0.502   0.377  0.00  0.00    +0.319 C 
ATOM     26  H   UNL     1      -1.169  -1.233   1.240  0.00  0.00    +0.178 HD
ATOM     27  H   UNL     1      -2.470  -2.475   0.074  0.00  0.00    +0.151 HD
BRANCH  24  28
ATOM     28  C   UNL     1      -4.271  -2.107  -0.943  0.00  0.00    +0.073 C 
ATOM     29  C   UNL     1      -3.977  -1.845  -2.414  0.00  0.00    +0.021 C 
ATOM     30  C   UNL     1      -4.678  -3.556  -0.710  0.00  0.00    +0.021 C 
ENDBRANCH  24  28
ENDBRANCH  19  23
ENDBRANCH   6  19
TORSDOF 4
