REMARK  Name = 13039058
REMARK  9 active torsions:
REMARK  status: ('A' for Active; 'I' for Inactive)
REMARK    1  A    between atoms: C_7  and  C_26
REMARK    2  A    between atoms: C_19  and  O_22
REMARK    3  A    between atoms: C_20  and  O_24
REMARK    4  A    between atoms: C_26  and  C_28
REMARK    5  A    between atoms: C_28  and  O_29
REMARK    6  A    between atoms: C_28  and  C_31
REMARK    7  A    between atoms: C_31  and  O_32
REMARK    8  A    between atoms: C_31  and  C_34
REMARK    9  A    between atoms: C_34  and  C_36
REMARK                            x       y       z     vdW  Elec       q    Type
REMARK                         _______ _______ _______ _____ _____    ______ ____
ROOT
ATOM      1  O   UNL     1       3.277  -2.798   0.203  0.00  0.00    -0.449 OA
ATOM      2  O   UNL     1       5.351  -2.697  -0.617  0.00  0.00    -0.250 OA
ATOM      3  C   UNL     1      -0.662  -0.007  -0.966  0.00  0.00    +0.000 C 
ATOM      4  C   UNL     1       0.017  -1.009  -0.012  0.00  0.00    +0.004 C 
ATOM      5  C   UNL     1       1.538  -1.139  -0.234  0.00  0.00    +0.044 C 
ATOM      6  C   UNL     1       2.208   0.271  -0.048  0.00  0.00    +0.004 C 
ATOM      7  C   UNL     1      -2.136  -0.189  -0.528  0.00  0.00    +0.002 C 
ATOM      8  C   UNL     1       3.786   0.340  -0.297  0.00  0.00    +0.013 C 
ATOM      9  C   UNL     1      -0.083   1.373  -0.659  0.00  0.00    +0.000 C 
ATOM     10  C   UNL     1      -0.859  -2.259  -0.142  0.00  0.00    +0.000 C 
ATOM     11  C   UNL     1       1.441   1.388  -0.830  0.00  0.00    +0.000 C 
ATOM     12  C   UNL     1      -2.281  -1.716  -0.371  0.00  0.00    +0.000 C 
ATOM     13  C   UNL     1       4.552  -0.730   0.559  0.00  0.00    +0.102 C 
ATOM     14  C   UNL     1      -0.479  -0.340  -2.467  0.00  0.00    +0.000 C 
ATOM     15  C   UNL     1       2.111  -2.167   0.750  0.00  0.00    +0.208 C 
ATOM     16  C   UNL     1       4.255   1.775   0.127  0.00  0.00    +0.032 C 
ATOM     17  C   UNL     1       4.118   0.153  -1.798  0.00  0.00    +0.001 C 
ATOM     18  C   UNL     1       6.071  -0.446   0.725  0.00  0.00    +0.043 C 
ATOM     19  C   UNL     1       5.765   1.965   0.242  0.00  0.00    +0.137 C 
ATOM     20  C   UNL     1       6.374   0.962   1.208  0.00  0.00    +0.138 C 
ATOM     21  C   UNL     1       4.438  -2.145  -0.006  0.00  0.00    +0.317 C 
ENDROOT
BRANCH  19  22
ATOM     22  O   UNL     1       6.021   3.291   0.698  0.00  0.00    -0.382 OA
ATOM     23  H   UNL     1       5.631   3.927   0.079  0.00  0.00    +0.210 HD
ENDBRANCH  19  22
BRANCH  20  24
ATOM     24  O   UNL     1       5.833   1.126   2.518  0.00  0.00    -0.382 OA
ATOM     25  H   UNL     1       6.235   0.478   3.117  0.00  0.00    +0.210 HD
ENDBRANCH  20  24
BRANCH   7  26
ATOM     26  C   UNL     1      -3.196   0.416  -1.438  0.00  0.00    +0.029 C 
ATOM     27  C   UNL     1      -2.916   1.915  -1.626  0.00  0.00    +0.003 C 
BRANCH  26  28
ATOM     28  C   UNL     1      -4.648   0.199  -0.935  0.00  0.00    +0.137 C 
BRANCH  28  29
ATOM     29  O   UNL     1      -5.570   0.684  -1.921  0.00  0.00    -0.382 OA
ATOM     30  H   UNL     1      -5.366   0.282  -2.780  0.00  0.00    +0.210 HD
ENDBRANCH  28  29
BRANCH  28  31
ATOM     31  C   UNL     1      -5.003   0.861   0.417  0.00  0.00    +0.137 C 
BRANCH  31  32
ATOM     32  O   UNL     1      -4.664   2.248   0.319  0.00  0.00    -0.382 OA
ATOM     33  H   UNL     1      -3.743   2.336   0.028  0.00  0.00    +0.210 HD
ENDBRANCH  31  32
BRANCH  31  34
ATOM     34  C   UNL     1      -6.477   0.693   0.883  0.00  0.00    +0.029 C 
ATOM     35  C   UNL     1      -6.764   1.429   2.199  0.00  0.00    +0.003 C 
BRANCH  34  36
ATOM     36  C   UNL     1      -6.916  -0.807   0.919  0.00  0.00    +0.002 C 
ATOM     37  C   UNL     1      -8.403  -0.936   1.278  0.00  0.00    +0.000 C 
ATOM     38  C   UNL     1      -6.102  -1.707   1.852  0.00  0.00    +0.000 C 
ENDBRANCH  34  36
ENDBRANCH  31  34
ENDBRANCH  28  31
ENDBRANCH  26  28
ENDBRANCH   7  26
TORSDOF 9
