REMARK  Name = 130301
REMARK  11 active torsions:
REMARK  status: ('A' for Active; 'I' for Inactive)
REMARK    1  A    between atoms: N_2  and  C_5
REMARK    2  A    between atoms: C_3  and  CA_20
REMARK    3  A    between atoms: C_5  and  C_7
REMARK    4  A    between atoms: C_5  and  C_10
REMARK    5  A    between atoms: C_7  and  O_8
REMARK    6  A    between atoms: C_10  and  C_11
REMARK    7  A    between atoms: C_16  and  N_17
REMARK    8  A    between atoms: CA_20  and  N_21
REMARK    9  A    between atoms: CA_20  and  CB_25
REMARK   10  A    between atoms: CB_25  and  CG_26
REMARK   11  A    between atoms: CZ_31  and  OH_32
REMARK                            x       y       z     vdW  Elec       q    Type
REMARK                         _______ _______ _______ _____ _____    ______ ____
ROOT
ATOM      1  O   TYR A   1       0.219  -0.801   1.689  0.00  0.00    -0.277 OA
ATOM      2  N   UNK A   2       0.187   0.296  -0.354  0.00  0.00    -0.298 N 
ATOM      3  C   TYR A   1       0.024  -0.805   0.475  0.00  0.00    +0.203 C 
ATOM      4  H   UNK A   2       0.007   0.198  -1.317  0.00  0.00    +0.150 HD
ENDROOT
BRANCH   2   5
ATOM      5  C   UNK A   2       0.611   1.580   0.150  0.00  0.00    +0.176 C 
BRANCH   5   7
ATOM      6  O   UNK A   2      -0.374   3.776   0.387  0.00  0.00    -0.248 OA
ATOM      7  C   UNK A   2      -0.474   2.629  -0.037  0.00  0.00    +0.332 C 
BRANCH   7   8
ATOM      8  O   UNK A   2      -1.566   2.204  -0.718  0.00  0.00    -0.479 OA
ATOM      9  H   UNK A   2      -1.609   1.321  -1.028  0.00  0.00    +0.295 HD
ENDBRANCH   7   8
ENDBRANCH   5   7
BRANCH   5  10
ATOM     10  C   UNK A   2       1.907   2.040  -0.530  0.00  0.00    +0.057 C 
BRANCH  10  11
ATOM     11  C   UNK A   2       3.045   1.063  -0.351  0.00  0.00    -0.020 C 
ATOM     12  C   UNK A   2       3.886   1.194   0.742  0.00  0.00    -0.003 C 
ATOM     13  C   UNK A   2       3.227   0.055  -1.284  0.00  0.00    -0.003 C 
ATOM     14  C   UNK A   2       4.938   0.292   0.907  0.00  0.00    +0.014 C 
ATOM     15  C   UNK A   2       4.279  -0.847  -1.119  0.00  0.00    +0.014 C 
ATOM     16  C   UNK A   2       5.134  -0.728  -0.023  0.00  0.00    +0.042 C 
BRANCH  16  17
ATOM     17  N   UNK A   2       6.196  -1.641   0.144  0.00  0.00    -0.357 N 
ATOM     18  H   UNK A   2       6.800  -1.557   0.917  0.00  0.00    +0.142 HD
ATOM     19  H   UNK A   2       6.334  -2.361  -0.513  0.00  0.00    +0.142 HD
ENDBRANCH  16  17
ENDBRANCH  10  11
ENDBRANCH   5  10
ENDBRANCH   2   5
BRANCH   3  20
ATOM     20  CA  TYR A   1      -0.457  -2.041  -0.280  0.00  0.00    +0.017 C 
BRANCH  20  21
ATOM     21  N   TYR A   1       0.581  -3.060  -0.124  0.00  0.00    +0.388 N 
ATOM     22  H1  TYR A   1       0.301  -3.909  -0.616  0.00  0.00    -0.089 HD
ATOM     23  H2  TYR A   1       0.709  -3.267   0.866  0.00  0.00    -0.089 HD
ATOM     24  H3  TYR A   1       1.458  -2.715  -0.515  0.00  0.00    -0.089 HD
ENDBRANCH  20  21
BRANCH  20  25
ATOM     25  CB  TYR A   1      -1.783  -2.551   0.301  0.00  0.00    +0.013 C 
BRANCH  25  26
ATOM     26  CG  TYR A   1      -2.907  -1.552   0.164  0.00  0.00    -0.024 C 
ATOM     27  CD1 TYR A   1      -3.123  -0.631   1.177  0.00  0.00    -0.001 C 
ATOM     28  CD2 TYR A   1      -3.700  -1.575  -0.971  0.00  0.00    -0.001 C 
ATOM     29  CE1 TYR A   1      -4.162   0.291   1.050  0.00  0.00    +0.036 C 
ATOM     30  CE2 TYR A   1      -4.738  -0.652  -1.098  0.00  0.00    +0.036 C 
ATOM     31  CZ  TYR A   1      -4.969   0.281  -0.087  0.00  0.00    +0.134 C 
BRANCH  31  32
ATOM     32  OH  TYR A   1      -5.982   1.182  -0.210  0.00  0.00    -0.506 OA
ATOM     33  HH  TYR A   1      -6.136   1.809   0.469  0.00  0.00    +0.292 HD
ENDBRANCH  31  32
ENDBRANCH  25  26
ENDBRANCH  20  25
ENDBRANCH   3  20
TORSDOF 11
