REMARK  Name = 130308
REMARK  5 active torsions:
REMARK  status: ('A' for Active; 'I' for Inactive)
REMARK    1  A    between atoms: C_4  and  O_10
REMARK    2  A    between atoms: C_5  and  O_12
REMARK    3  A    between atoms: C_5  and  C_16
REMARK    4  A    between atoms: C_7  and  O_14
REMARK    5  A    between atoms: C_16  and  C_18
REMARK                            x       y       z     vdW  Elec       q    Type
REMARK                         _______ _______ _______ _____ _____    ______ ____
ROOT
ATOM      1  O   UNL     1       3.197  -1.207  -0.911  0.00  0.00    -0.327 OA
ATOM      2  O   UNL     1       2.354   1.589  -0.281  0.00  0.00    -0.443 OA
ATOM      3  O   UNL     1       0.424   1.542  -1.519  0.00  0.00    -0.247 OA
ATOM      4  C   UNL     1       2.482  -0.698   0.229  0.00  0.00    +0.258 C 
ATOM      5  C   UNL     1       1.038  -0.355  -0.113  0.00  0.00    +0.232 C 
ATOM      6  C   UNL     1       3.085   0.660   0.536  0.00  0.00    +0.251 C 
ATOM      7  C   UNL     1       4.503   0.536   0.030  0.00  0.00    +0.185 C 
ATOM      8  C   UNL     1       4.351  -0.388  -1.161  0.00  0.00    +0.178 C 
ATOM      9  C   UNL     1       1.199   1.012  -0.739  0.00  0.00    +0.347 C 
ENDROOT
BRANCH   4  10
ATOM     10  O   UNL     1       2.623  -1.565   1.339  0.00  0.00    -0.359 OA
ATOM     11  H   UNL     1       2.233  -2.428   1.127  0.00  0.00    +0.213 HD
ENDBRANCH   4  10
BRANCH   5  12
ATOM     12  O   UNL     1       0.496  -1.281  -1.029  0.00  0.00    -0.373 OA
ATOM     13  H   UNL     1       0.405  -2.145  -0.599  0.00  0.00    +0.211 HD
ENDBRANCH   5  12
BRANCH   7  14
ATOM     14  O   UNL     1       5.316  -0.101   1.006  0.00  0.00    -0.378 OA
ATOM     15  H   UNL     1       5.419   0.484   1.773  0.00  0.00    +0.211 HD
ENDBRANCH   7  14
BRANCH   5  16
ATOM     16  C   UNL     1       0.110  -0.237   1.097  0.00  0.00    +0.071 C 
BRANCH  16  18
ATOM     17  N   UNL     1      -2.920   1.642   0.305  0.00  0.00    -0.284 N 
ATOM     18  C   UNL     1      -1.246   0.274   0.723  0.00  0.00    -0.003 C 
ATOM     19  C   UNL     1      -2.353  -0.516   0.346  0.00  0.00    +0.011 C 
ATOM     20  C   UNL     1      -1.608   1.590   0.693  0.00  0.00    +0.061 C 
ATOM     21  C   UNL     1      -3.401   0.370   0.086  0.00  0.00    +0.051 C 
ATOM     22  C   UNL     1      -2.581  -1.898   0.196  0.00  0.00    +0.001 C 
ATOM     23  C   UNL     1      -4.671  -0.059  -0.317  0.00  0.00    +0.015 C 
ATOM     24  C   UNL     1      -3.678   2.865   0.151  0.00  0.00    +0.117 C 
ATOM     25  C   UNL     1      -3.846  -2.342  -0.207  0.00  0.00    +0.000 C 
ATOM     26  C   UNL     1      -4.873  -1.434  -0.459  0.00  0.00    +0.001 C 
ENDBRANCH  16  18
ENDBRANCH   5  16
TORSDOF 5
