130308
  -OEChem-03292013323D

 40 43  0     1  0  0  0  0  0999 V2000
    3.1971   -1.2066   -0.9109 O   0  0  0  0  0  0  0  0  0  0  0  0
    2.3543    1.5885   -0.2805 O   0  0  0  0  0  0  0  0  0  0  0  0
    2.6229   -1.5655    1.3393 O   0  0  0  0  0  0  0  0  0  0  0  0
    0.4964   -1.2806   -1.0293 O   0  0  0  0  0  0  0  0  0  0  0  0
    5.3162   -0.1012    1.0065 O   0  0  0  0  0  0  0  0  0  0  0  0
    0.4236    1.5415   -1.5193 O   0  0  0  0  0  0  0  0  0  0  0  0
   -2.9202    1.6416    0.3051 N   0  0  0  0  0  0  0  0  0  0  0  0
    2.4824   -0.6980    0.2286 C   0  0  2  0  0  0  0  0  0  0  0  0
    1.0377   -0.3546   -0.1130 C   0  0  2  0  0  0  0  0  0  0  0  0
    3.0852    0.6596    0.5361 C   0  0  1  0  0  0  0  0  0  0  0  0
    4.5026    0.5365    0.0298 C   0  0  2  0  0  0  0  0  0  0  0  0
    0.1095   -0.2371    1.0965 C   0  0  0  0  0  0  0  0  0  0  0  0
    4.3505   -0.3876   -1.1613 C   0  0  0  0  0  0  0  0  0  0  0  0
    1.1990    1.0119   -0.7385 C   0  0  0  0  0  0  0  0  0  0  0  0
   -1.2455    0.2744    0.7228 C   0  0  0  0  0  0  0  0  0  0  0  0
   -2.3533   -0.5157    0.3459 C   0  0  0  0  0  0  0  0  0  0  0  0
   -1.6082    1.5900    0.6927 C   0  0  0  0  0  0  0  0  0  0  0  0
   -3.4011    0.3704    0.0864 C   0  0  0  0  0  0  0  0  0  0  0  0
   -2.5813   -1.8981    0.1960 C   0  0  0  0  0  0  0  0  0  0  0  0
   -4.6706   -0.0586   -0.3172 C   0  0  0  0  0  0  0  0  0  0  0  0
   -3.6776    2.8652    0.1506 C   0  0  0  0  0  0  0  0  0  0  0  0
   -3.8461   -2.3417   -0.2071 C   0  0  0  0  0  0  0  0  0  0  0  0
   -4.8732   -1.4343   -0.4591 C   0  0  0  0  0  0  0  0  0  0  0  0
    3.0202    0.9566    1.5881 H   0  0  0  0  0  0  0  0  0  0  0  0
    4.9608    1.4914   -0.2441 H   0  0  0  0  0  0  0  0  0  0  0  0
    0.5391    0.4286    1.8568 H   0  0  0  0  0  0  0  0  0  0  0  0
   -0.0109   -1.2174    1.5748 H   0  0  0  0  0  0  0  0  0  0  0  0
    4.1486    0.1779   -2.0770 H   0  0  0  0  0  0  0  0  0  0  0  0
    5.2141   -1.0380   -1.3270 H   0  0  0  0  0  0  0  0  0  0  0  0
    1.9811   -2.2874    1.2310 H   0  0  0  0  0  0  0  0  0  0  0  0
    1.1367   -1.4033   -1.7508 H   0  0  0  0  0  0  0  0  0  0  0  0
    6.2046   -0.2043    0.6246 H   0  0  0  0  0  0  0  0  0  0  0  0
   -1.0530    2.4917    0.9159 H   0  0  0  0  0  0  0  0  0  0  0  0
   -1.7929   -2.6201    0.3887 H   0  0  0  0  0  0  0  0  0  0  0  0
   -5.4745    0.6425   -0.5150 H   0  0  0  0  0  0  0  0  0  0  0  0
   -4.5284    2.8329    0.8360 H   0  0  0  0  0  0  0  0  0  0  0  0
   -3.0429    3.7227    0.3884 H   0  0  0  0  0  0  0  0  0  0  0  0
   -4.0165    2.9322   -0.8864 H   0  0  0  0  0  0  0  0  0  0  0  0
   -4.0277   -3.4068   -0.3243 H   0  0  0  0  0  0  0  0  0  0  0  0
   -5.8479   -1.8009   -0.7711 H   0  0  0  0  0  0  0  0  0  0  0  0
  1  8  1  0  0  0  0
  1 13  1  0  0  0  0
  2 10  1  0  0  0  0
  2 14  1  0  0  0  0
  3  8  1  0  0  0  0
  3 30  1  0  0  0  0
  4  9  1  0  0  0  0
  4 31  1  0  0  0  0
  5 11  1  0  0  0  0
  5 32  1  0  0  0  0
  6 14  2  0  0  0  0
  7 17  1  0  0  0  0
  7 18  1  0  0  0  0
  7 21  1  0  0  0  0
  8  9  1  0  0  0  0
  8 10  1  0  0  0  0
  9 12  1  0  0  0  0
  9 14  1  0  0  0  0
 10 11  1  0  0  0  0
 10 24  1  0  0  0  0
 11 13  1  0  0  0  0
 11 25  1  0  0  0  0
 12 15  1  0  0  0  0
 12 26  1  0  0  0  0
 12 27  1  0  0  0  0
 13 28  1  0  0  0  0
 13 29  1  0  0  0  0
 15 16  1  0  0  0  0
 15 17  2  0  0  0  0
 16 18  1  0  0  0  0
 16 19  2  0  0  0  0
 17 33  1  0  0  0  0
 18 20  2  0  0  0  0
 19 22  1  0  0  0  0
 19 34  1  0  0  0  0
 20 23  1  0  0  0  0
 20 35  1  0  0  0  0
 21 36  1  0  0  0  0
 21 37  1  0  0  0  0
 21 38  1  0  0  0  0
 22 23  2  0  0  0  0
 22 39  1  0  0  0  0
 23 40  1  0  0  0  0
M  END
> <PUBCHEM_COMPOUND_CID>
130308

> <PUBCHEM_CONFORMER_RMSD>
0.6

> <PUBCHEM_CONFORMER_DIVERSEORDER>
2
16
12
13
5
18
9
14
7
19
10
17
11
1
3
6
8
4
15

> <PUBCHEM_MMFF94_PARTIAL_CHARGES>
30
1 -0.56
10 0.28
11 0.28
12 0.18
13 0.28
14 0.66
15 -0.18
17 -0.3
18 -0.15
19 -0.15
2 -0.43
20 -0.15
21 0.26
22 -0.15
23 -0.15
3 -0.68
30 0.4
31 0.4
32 0.4
33 0.15
34 0.15
35 0.15
39 0.15
4 -0.68
40 0.15
5 -0.68
6 -0.57
7 0.05
8 0.56
9 0.34

> <PUBCHEM_EFFECTIVE_ROTOR_COUNT>
3

> <PUBCHEM_PHARMACOPHORE_FEATURES>
13
1 1 acceptor
1 3 acceptor
1 3 donor
1 4 acceptor
1 4 donor
1 5 acceptor
1 5 donor
1 6 acceptor
1 7 cation
5 1 8 10 11 13 rings
5 2 8 9 10 14 rings
5 7 15 16 17 18 rings
6 16 18 19 20 22 23 rings

> <PUBCHEM_HEAVY_ATOM_COUNT>
23

> <PUBCHEM_ATOM_DEF_STEREO_COUNT>
4

> <PUBCHEM_ATOM_UDEF_STEREO_COUNT>
0

> <PUBCHEM_BOND_DEF_STEREO_COUNT>
0

> <PUBCHEM_BOND_UDEF_STEREO_COUNT>
0

> <PUBCHEM_ISOTOPIC_ATOM_COUNT>
0

> <PUBCHEM_COMPONENT_COUNT>
1

> <PUBCHEM_CACTVS_TAUTO_COUNT>
1

> <PUBCHEM_CONFORMER_ID>
0001FD0400000002

> <PUBCHEM_MMFF94_ENERGY>
52.8375

> <PUBCHEM_FEATURE_SELFOVERLAP>
66.8

> <PUBCHEM_SHAPE_FINGERPRINT>
10366900 7 17846208969314231027
10616163 171 18413673517484803735
10646746 165 18342176648411818560
11370993 70 18272650121324327727
11552529 35 13829268641520828533
11578080 2 17825352320104259053
11806522 49 18410013277392517422
12107183 9 17831572076887752330
12236239 1 18113052744604109251
12403259 415 17775001297490404064
12403260 363 18336262431079364464
12507560 40 18060418010775755412
12788726 201 18411415099453180219
128620 24 17989207066007351155
13167823 11 18408884027200518835
13224815 77 18272934937943655203
13583140 156 17489576857822292584
13760787 5 16732990812522472708
14787075 74 18057882639935908888
15196674 1 18341333305581076718
15788980 27 18261114079643034331
15961568 22 18190457354199769196
16752209 62 18412818076179614595
17349148 13 17967250935539712329
17492 89 18410294696656960059
18681886 176 18271241724844842592
192875 21 18114183094134195261
19489759 90 18410290311315054522
19862831 5 17749388200133674187
200 152 18335980964855891331
20511986 3 18041540495269210880
21033648 29 17203314594588615314
21065201 7 18413108329684233026
21267235 1 18337681896517382587
22393880 68 18270125604267699606
23402539 116 18409724084665531135
23557571 272 18131637768305666705
23559900 14 17986956250195136654
296302 2 16153434964824693036
3004659 81 18262231231355772127
3286 77 18338232768891080748
34797466 226 17774735259085253356
4214541 1 18412546487753363073
463206 1 18051128400421716903
474 4 17604717814436230340
5104073 3 18201722808197067474
633830 44 17313967233116085640
67856867 119 18264206001109767380
7495541 125 17060335279481453562
9709674 26 18342747299231279599
9981440 41 17106227996903287513

> <PUBCHEM_SHAPE_MULTIPOLES>
433.13
10.18
2.22
1.07
2.31
0.57
-0.05
-1.61
-0.46
-2.72
-0.08
0.72
-0.05
-0.36

> <PUBCHEM_SHAPE_SELFOVERLAP>
971.257

> <PUBCHEM_SHAPE_VOLUME>
231.7

> <PUBCHEM_COORDINATE_TYPE>
2
5
10

$$$$
