REMARK  Name = 130346
REMARK  5 active torsions:
REMARK  status: ('A' for Active; 'I' for Inactive)
REMARK    1  A    between atoms: N_1  and  C_13
REMARK    2  A    between atoms: C_14  and  C_22
REMARK    3  A    between atoms: C_16  and  O_18
REMARK    4  A    between atoms: C_17  and  O_20
REMARK    5  A    between atoms: C_22  and  O_23
REMARK                            x       y       z     vdW  Elec       q    Type
REMARK                         _______ _______ _______ _____ _____    ______ ____
ROOT
ATOM      1  N   UNL     1      -0.399  -1.319   0.207  0.00  0.00    -0.260 N 
ATOM      2  N   UNL     1      -2.497  -2.038   0.424  0.00  0.00    -0.240 NA
ATOM      3  N   UNL     1      -0.804   1.051  -0.140  0.00  0.00    -0.311 NA
ATOM      4  N   UNL     1      -3.191   1.557  -0.098  0.00  0.00    -0.312 NA
ATOM      5  N   UNL     1      -1.591   3.234  -0.437  0.00  0.00    -0.283 N 
ATOM      6  C   UNL     1      -1.192  -0.215   0.076  0.00  0.00    +0.220 C 
ATOM      7  C   UNL     1      -1.227  -2.389   0.414  0.00  0.00    +0.222 C 
ATOM      8  C   UNL     1      -2.489  -0.682   0.214  0.00  0.00    +0.167 C 
ATOM      9  C   UNL     1      -3.510   0.258   0.120  0.00  0.00    +0.212 C 
ATOM     10  C   UNL     1      -1.877   1.868  -0.213  0.00  0.00    +0.199 C 
ATOM     11  H   UNL     1      -0.658   3.533  -0.530  0.00  0.00    +0.156 HD
ATOM     12  H   UNL     1      -2.326   3.887  -0.499  0.00  0.00    +0.156 HD
ATOM     13  N   UNL     1      -4.855  -0.127   0.249  0.00  0.00    -0.331 N 
ATOM     14  H   UNL     1      -5.569   0.547   0.181  0.00  0.00    +0.145 HD
ATOM     15  H   UNL     1      -5.084  -1.072   0.407  0.00  0.00    +0.145 HD
ENDROOT
BRANCH   1  16
ATOM     16  C   UNL     1       1.060  -1.361   0.139  0.00  0.00    +0.106 C 
ATOM     17  C   UNL     1       3.103  -0.183   0.603  0.00  0.00    +0.060 C 
ATOM     18  C   UNL     1       1.752  -0.528   1.230  0.00  0.00    +0.027 C 
ATOM     19  C   UNL     1       1.649  -0.872  -1.208  0.00  0.00    +0.155 C 
ATOM     20  C   UNL     1       2.729   0.155  -0.846  0.00  0.00    +0.141 C 
BRANCH  19  21
ATOM     21  O   UNL     1       2.265  -1.971  -1.874  0.00  0.00    -0.380 OA
ATOM     22  H   UNL     1       1.590  -2.627  -2.108  0.00  0.00    +0.211 HD
ENDBRANCH  19  21
BRANCH  20  23
ATOM     23  O   UNL     1       2.176   1.466  -0.920  0.00  0.00    -0.382 OA
ATOM     24  H   UNL     1       2.858   2.117  -0.691  0.00  0.00    +0.210 HD
ENDBRANCH  20  23
BRANCH  17  25
ATOM     25  C   UNL     1       3.828   0.925   1.350  0.00  0.00    +0.140 C 
BRANCH  25  26
ATOM     26  O   UNL     1       5.069   1.171   0.709  0.00  0.00    -0.382 OA
ATOM     27  H   UNL     1       5.541   1.877   1.177  0.00  0.00    +0.210 HD
ENDBRANCH  25  26
ENDBRANCH  17  25
ENDBRANCH   1  16
TORSDOF 5
