130379
  -OEChem-03292013323D

 69 70  0     1  0  0  0  0  0999 V2000
   -2.7981   -3.1019   -1.0922 S   0  0  0  0  0  0  0  0  0  0  0  0
   -3.1072   -3.1515    1.9041 O   0  0  0  0  0  0  0  0  0  0  0  0
   -2.1027   -2.6834   -2.3000 O   0  0  0  0  0  0  0  0  0  0  0  0
   -2.3100   -4.2428   -0.3320 O   0  0  0  0  0  0  0  0  0  0  0  0
    4.6141    1.0503    1.1917 O   0  0  0  0  0  0  0  0  0  0  0  0
    3.4167   -1.1771    0.0276 O   0  0  0  0  0  0  0  0  0  0  0  0
    2.1856    2.3021    0.4059 N   0  0  0  0  0  0  0  0  0  0  0  0
   -2.5986    2.1293   -2.9427 N   0  0  0  0  0  0  0  0  0  0  0  0
   -4.4470   -3.3513   -1.4611 N   0  0  0  0  0  0  0  0  0  0  0  0
   -2.8667    2.0971   -0.3039 C   0  0  1  0  0  0  0  0  0  0  0  0
   -4.2024    2.8715    0.0666 C   0  0  0  0  0  0  0  0  0  0  0  0
   -1.6258    2.8578    0.2875 C   0  0  0  0  0  0  0  0  0  0  0  0
   -2.9308    0.6698    0.2896 C   0  0  0  0  0  0  0  0  0  0  0  0
   -0.2590    2.1958    0.0143 C   0  0  0  0  0  0  0  0  0  0  0  0
   -4.1838    4.3521   -0.3587 C   0  0  0  0  0  0  0  0  0  0  0  0
   -5.4835    2.2234   -0.4869 C   0  0  0  0  0  0  0  0  0  0  0  0
    0.9020    2.9324    0.6891 C   0  0  0  0  0  0  0  0  0  0  0  0
   -2.7142    2.1058   -1.7877 C   0  0  0  0  0  0  0  0  0  0  0  0
   -2.8470   -0.4397   -0.5515 C   0  0  0  0  0  0  0  0  0  0  0  0
   -3.0726    0.4926    1.6658 C   0  0  0  0  0  0  0  0  0  0  0  0
   -2.9050   -1.7266   -0.0164 C   0  0  0  0  0  0  0  0  0  0  0  0
   -3.1309   -0.7943    2.2009 C   0  0  0  0  0  0  0  0  0  0  0  0
   -3.0469   -1.9039    1.3599 C   0  0  0  0  0  0  0  0  0  0  0  0
    3.2730    3.0258    1.0495 C   0  0  0  0  0  0  0  0  0  0  0  0
    4.6129    2.3897    0.7154 C   0  0  0  0  0  0  0  0  0  0  0  0
   -3.2529   -3.2342    3.3203 C   0  0  0  0  0  0  0  0  0  0  0  0
    5.3605    0.1439    0.4848 C   0  0  0  0  0  0  0  0  0  0  0  0
    4.7575   -0.9714   -0.0967 C   0  0  0  0  0  0  0  0  0  0  0  0
    6.7343    0.3441    0.3491 C   0  0  0  0  0  0  0  0  0  0  0  0
    5.5281   -1.8867   -0.8136 C   0  0  0  0  0  0  0  0  0  0  0  0
    7.5050   -0.5711   -0.3680 C   0  0  0  0  0  0  0  0  0  0  0  0
    6.9019   -1.6866   -0.9492 C   0  0  0  0  0  0  0  0  0  0  0  0
    2.7649   -1.8657   -1.0380 C   0  0  0  0  0  0  0  0  0  0  0  0
    1.3287   -1.3951   -1.1236 C   0  0  0  0  0  0  0  0  0  0  0  0
   -4.3089    2.8810    1.1596 H   0  0  0  0  0  0  0  0  0  0  0  0
   -1.5682    3.8682   -0.1364 H   0  0  0  0  0  0  0  0  0  0  0  0
   -1.7465    2.9861    1.3707 H   0  0  0  0  0  0  0  0  0  0  0  0
   -0.2675    1.1608    0.3751 H   0  0  0  0  0  0  0  0  0  0  0  0
   -0.0761    2.1557   -1.0663 H   0  0  0  0  0  0  0  0  0  0  0  0
   -5.1412    4.8294   -0.1197 H   0  0  0  0  0  0  0  0  0  0  0  0
   -3.4170    4.9181    0.1775 H   0  0  0  0  0  0  0  0  0  0  0  0
   -4.0199    4.4712   -1.4339 H   0  0  0  0  0  0  0  0  0  0  0  0
   -5.5926    1.1892   -0.1475 H   0  0  0  0  0  0  0  0  0  0  0  0
   -6.3694    2.7686   -0.1424 H   0  0  0  0  0  0  0  0  0  0  0  0
   -5.4988    2.2276   -1.5815 H   0  0  0  0  0  0  0  0  0  0  0  0
    0.7262    2.9556    1.7718 H   0  0  0  0  0  0  0  0  0  0  0  0
    0.9121    3.9696    0.3324 H   0  0  0  0  0  0  0  0  0  0  0  0
   -2.7455   -0.3316   -1.6252 H   0  0  0  0  0  0  0  0  0  0  0  0
   -3.1338    1.3390    2.3434 H   0  0  0  0  0  0  0  0  0  0  0  0
   -3.2405   -0.8526    3.2781 H   0  0  0  0  0  0  0  0  0  0  0  0
    2.1759    1.3337    0.7249 H   0  0  0  0  0  0  0  0  0  0  0  0
    3.1302    3.0094    2.1369 H   0  0  0  0  0  0  0  0  0  0  0  0
    3.2876    4.0710    0.7202 H   0  0  0  0  0  0  0  0  0  0  0  0
    4.7836    2.4281   -0.3689 H   0  0  0  0  0  0  0  0  0  0  0  0
    5.4177    2.9424    1.2129 H   0  0  0  0  0  0  0  0  0  0  0  0
   -4.9049   -4.1804   -1.0632 H   0  0  0  0  0  0  0  0  0  0  0  0
   -4.7646   -3.1160   -2.4094 H   0  0  0  0  0  0  0  0  0  0  0  0
   -2.3895   -2.8065    3.8413 H   0  0  0  0  0  0  0  0  0  0  0  0
   -4.2014   -2.8007    3.6554 H   0  0  0  0  0  0  0  0  0  0  0  0
   -3.2828   -4.2980    3.5783 H   0  0  0  0  0  0  0  0  0  0  0  0
    7.2190    1.2038    0.8035 H   0  0  0  0  0  0  0  0  0  0  0  0
    5.1058   -2.7834   -1.2573 H   0  0  0  0  0  0  0  0  0  0  0  0
    8.5751   -0.4171   -0.4709 H   0  0  0  0  0  0  0  0  0  0  0  0
    7.5037   -2.4027   -1.5012 H   0  0  0  0  0  0  0  0  0  0  0  0
    2.7890   -2.9427   -0.8384 H   0  0  0  0  0  0  0  0  0  0  0  0
    3.2354   -1.6596   -2.0076 H   0  0  0  0  0  0  0  0  0  0  0  0
    0.8091   -1.5596   -0.1738 H   0  0  0  0  0  0  0  0  0  0  0  0
    1.2872   -0.3203   -1.3270 H   0  0  0  0  0  0  0  0  0  0  0  0
    0.7909   -1.9230   -1.9159 H   0  0  0  0  0  0  0  0  0  0  0  0
  1  3  2  0  0  0  0
  1  4  2  0  0  0  0
  1  9  1  0  0  0  0
  1 21  1  0  0  0  0
  2 23  1  0  0  0  0
  2 26  1  0  0  0  0
  5 25  1  0  0  0  0
  5 27  1  0  0  0  0
  6 28  1  0  0  0  0
  6 33  1  0  0  0  0
  7 17  1  0  0  0  0
  7 24  1  0  0  0  0
  7 51  1  0  0  0  0
  8 18  3  0  0  0  0
  9 56  1  0  0  0  0
  9 57  1  0  0  0  0
 10 11  1  0  0  0  0
 10 12  1  0  0  0  0
 10 13  1  0  0  0  0
 10 18  1  0  0  0  0
 11 15  1  0  0  0  0
 11 16  1  0  0  0  0
 11 35  1  0  0  0  0
 12 14  1  0  0  0  0
 12 36  1  0  0  0  0
 12 37  1  0  0  0  0
 13 19  2  0  0  0  0
 13 20  1  0  0  0  0
 14 17  1  0  0  0  0
 14 38  1  0  0  0  0
 14 39  1  0  0  0  0
 15 40  1  0  0  0  0
 15 41  1  0  0  0  0
 15 42  1  0  0  0  0
 16 43  1  0  0  0  0
 16 44  1  0  0  0  0
 16 45  1  0  0  0  0
 17 46  1  0  0  0  0
 17 47  1  0  0  0  0
 19 21  1  0  0  0  0
 19 48  1  0  0  0  0
 20 22  2  0  0  0  0
 20 49  1  0  0  0  0
 21 23  2  0  0  0  0
 22 23  1  0  0  0  0
 22 50  1  0  0  0  0
 24 25  1  0  0  0  0
 24 52  1  0  0  0  0
 24 53  1  0  0  0  0
 25 54  1  0  0  0  0
 25 55  1  0  0  0  0
 26 58  1  0  0  0  0
 26 59  1  0  0  0  0
 26 60  1  0  0  0  0
 27 28  1  0  0  0  0
 27 29  2  0  0  0  0
 28 30  2  0  0  0  0
 29 31  1  0  0  0  0
 29 61  1  0  0  0  0
 30 32  1  0  0  0  0
 30 62  1  0  0  0  0
 31 32  2  0  0  0  0
 31 63  1  0  0  0  0
 32 64  1  0  0  0  0
 33 34  1  0  0  0  0
 33 65  1  0  0  0  0
 33 66  1  0  0  0  0
 34 67  1  0  0  0  0
 34 68  1  0  0  0  0
 34 69  1  0  0  0  0
M  END
> <PUBCHEM_COMPOUND_CID>
130379

> <PUBCHEM_CONFORMER_RMSD>
1.2

> <PUBCHEM_CONFORMER_DIVERSEORDER>
2
127
74
160
128
4
83
201
22
200
156
82
205
132
101
163
175
130
147
89
105
174
210
67
154
138
7
166
119
63
172
107
120
68
72
87
26
86
58
150
77
194
59
122
27
170
125
146
80
117
123
129
168
176
57
131
145
187
91
47
206
33
21
141
157
69
118
149
188
159
50
193
182
93
203
31
158
124
40
84
162
167
92
209
179
66
35
126
108
32
139
109
42
52
151
185
143
18
134
48
1
97
96
3
102
23
36
90
164
199
111
116
14
169
195
155
137
24
85
186
5
112
100
153
211
148
121
191
11
46
136
20
152
135
190
177
17
198
212
178
99
60
207
142
140
44
114
106
181
95
165
56
53
196
54
98
184
208
133
29
103
73
183
15
75
12
34
25
76
9
41
204
16
19
192
70
180
144
62
81
37
113
202
49
10
39
197
171
79
45
51
115
110
6
88
161
104
189
61
43
13
8
65
28
94
173
30
38
78
64
71
55

> <PUBCHEM_MMFF94_PARTIAL_CHARGES>
38
1 1.45
10 0.34
13 -0.14
17 0.27
18 0.36
19 -0.15
2 -0.36
20 -0.15
21 -0.01
22 -0.15
23 0.08
24 0.27
25 0.28
26 0.28
27 0.08
28 0.08
29 -0.15
3 -0.65
30 -0.15
31 -0.15
32 -0.15
33 0.28
4 -0.65
48 0.15
49 0.15
5 -0.36
50 0.15
51 0.36
56 0.42
57 0.42
6 -0.36
61 0.15
62 0.15
63 0.15
64 0.15
7 -0.9
8 -0.56
9 -0.98

> <PUBCHEM_EFFECTIVE_ROTOR_COUNT>
14

> <PUBCHEM_PHARMACOPHORE_FEATURES>
13
1 2 acceptor
1 3 acceptor
1 4 acceptor
1 5 acceptor
1 6 acceptor
1 7 cation
1 7 donor
1 8 acceptor
1 9 donor
3 11 15 16 hydrophobe
4 10 11 12 14 hydrophobe
6 13 19 20 21 22 23 rings
6 27 28 29 30 31 32 rings

> <PUBCHEM_HEAVY_ATOM_COUNT>
34

> <PUBCHEM_ATOM_DEF_STEREO_COUNT>
0

> <PUBCHEM_ATOM_UDEF_STEREO_COUNT>
1

> <PUBCHEM_BOND_DEF_STEREO_COUNT>
0

> <PUBCHEM_BOND_UDEF_STEREO_COUNT>
0

> <PUBCHEM_ISOTOPIC_ATOM_COUNT>
0

> <PUBCHEM_COMPONENT_COUNT>
1

> <PUBCHEM_CACTVS_TAUTO_COUNT>
1

> <PUBCHEM_CONFORMER_ID>
0001FD4B00000002

> <PUBCHEM_MMFF94_ENERGY>
86.1067

> <PUBCHEM_FEATURE_SELFOVERLAP>
66.026

> <PUBCHEM_SHAPE_FINGERPRINT>
10675989 125 17040633886622897836
10864689 126 18125163732630789620
10928967 22 18055369173645523276
11135609 99 18118399537614391138
11136131 41 18265881636415413120
12422481 6 18129114466202472602
13402501 40 18341331076889124244
14856354 85 15936990543146958417
14950920 106 17131561651403185488
15264996 74 17345167017878543724
15361156 5 18335989765196648444
16993438 75 18410575054704049810
19301676 85 18268147556810520638
21133665 82 18192993716907217408
23559900 14 18341043052283070568
3383291 50 18342734088296420683
3459 110 18343021133560962358
4015057 19 18129925837059701417
4073 2 18407760327208533992
437795 96 18342460318264484558
44062 13 18409167718612638320
4408954 64 16592571195092693609
44802255 64 17241043181087448405
508706 21 18187642531095308994
613672 6 17756691302262577249

> <PUBCHEM_SHAPE_MULTIPOLES>
659.26
15.96
5.69
2.1
32.31
0.65
-0.48
0.84
0.73
-7.64
0.01
-2.87
1.57
3.39

> <PUBCHEM_SHAPE_SELFOVERLAP>
1342.443

> <PUBCHEM_SHAPE_VOLUME>
385.1

> <PUBCHEM_COORDINATE_TYPE>
2
5
10

$$$$
