REMARK  Name = 130379
REMARK  16 active torsions:
REMARK  status: ('A' for Active; 'I' for Inactive)
REMARK    1  A    between atoms: C_1  and  C_2
REMARK    2  A    between atoms: C_1  and  C_16
REMARK    3  A    between atoms: C_1  and  C_20
REMARK    4  A    between atoms: C_1  and  C_21
REMARK    5  A    between atoms: C_5  and  S_8
REMARK    6  A    between atoms: C_7  and  O_14
REMARK    7  A    between atoms: S_8  and  N_11
REMARK    8  A    between atoms: C_21  and  C_22
REMARK    9  A    between atoms: C_22  and  C_23
REMARK   10  A    between atoms: C_23  and  N_24
REMARK   11  A    between atoms: N_24  and  C_27
REMARK   12  A    between atoms: C_27  and  C_28
REMARK   13  A    between atoms: C_28  and  O_29
REMARK   14  A    between atoms: O_29  and  C_30
REMARK   15  A    between atoms: C_31  and  O_36
REMARK   16  A    between atoms: O_36  and  C_37
REMARK                            x       y       z     vdW  Elec       q    Type
REMARK                         _______ _______ _______ _____ _____    ______ ____
ROOT
ATOM      1  C   UNL     1      -2.867   2.097  -0.304  0.00  0.00    +0.098 C 
ENDROOT
BRANCH   1   2
ATOM      2  C   UNL     1      -2.931   0.670   0.290  0.00  0.00    -0.008 C 
ATOM      3  C   UNL     1      -2.847  -0.440  -0.551  0.00  0.00    +0.020 C 
ATOM      4  C   UNL     1      -3.073   0.493   1.666  0.00  0.00    -0.000 C 
ATOM      5  C   UNL     1      -2.905  -1.727  -0.016  0.00  0.00    +0.155 C 
ATOM      6  C   UNL     1      -3.131  -0.794   2.201  0.00  0.00    +0.038 C 
ATOM      7  C   UNL     1      -3.047  -1.904   1.360  0.00  0.00    +0.157 C 
BRANCH   5   8
ATOM      8  S   UNL     1      -2.798  -3.102  -1.092  0.00  0.00    +0.060 S 
ATOM      9  O   UNL     1      -2.103  -2.683  -2.300  0.00  0.00    -0.153 OA
ATOM     10  O   UNL     1      -2.310  -4.243  -0.332  0.00  0.00    -0.153 OA
BRANCH   8  11
ATOM     11  N   UNL     1      -4.447  -3.351  -1.461  0.00  0.00    -0.203 NA
ATOM     12  H   UNL     1      -4.537  -4.144  -2.097  0.00  0.00    +0.144 HD
ATOM     13  H   UNL     1      -4.826  -2.515  -1.905  0.00  0.00    +0.144 HD
ENDBRANCH   8  11
ENDBRANCH   5   8
BRANCH   7  14
ATOM     14  O   UNL     1      -3.107  -3.151   1.904  0.00  0.00    -0.470 OA
ATOM     15  C   UNL     1      -3.253  -3.234   3.320  0.00  0.00    +0.253 C 
ENDBRANCH   7  14
ENDBRANCH   1   2
BRANCH   1  16
ATOM     16  C   UNL     1      -4.202   2.872   0.067  0.00  0.00    +0.017 C 
ATOM     17  C   UNL     1      -4.184   4.352  -0.359  0.00  0.00    +0.001 C 
ATOM     18  C   UNL     1      -5.484   2.223  -0.487  0.00  0.00    +0.001 C 
ENDBRANCH   1  16
BRANCH   1  20
ATOM     19  N   UNL     1      -2.599   2.129  -2.943  0.00  0.00    -0.196 NA
ATOM     20  C   UNL     1      -2.714   2.106  -1.788  0.00  0.00    +0.075 C 
ENDBRANCH   1  20
BRANCH   1  21
ATOM     21  C   UNL     1      -1.626   2.858   0.287  0.00  0.00    +0.016 C 
BRANCH  21  22
ATOM     22  C   UNL     1      -0.259   2.196   0.014  0.00  0.00    -0.022 C 
BRANCH  22  23
ATOM     23  C   UNL     1       0.902   2.932   0.689  0.00  0.00    -0.082 C 
BRANCH  23  24
ATOM     24  N   UNL     1       2.186   2.302   0.406  0.00  0.00    +0.386 N 
ATOM     25  H   UNL     1       2.339   2.296  -0.602  0.00  0.00    -0.084 HD
ATOM     26  H   UNL     1       2.168   1.349   0.769  0.00  0.00    -0.084 HD
BRANCH  24  27
ATOM     27  C   UNL     1       3.273   3.026   1.050  0.00  0.00    -0.034 C 
BRANCH  27  28
ATOM     28  C   UNL     1       4.613   2.390   0.715  0.00  0.00    +0.182 C 
BRANCH  28  29
ATOM     29  O   UNL     1       4.614   1.050   1.192  0.00  0.00    -0.475 OA
BRANCH  29  30
ATOM     30  C   UNL     1       5.361   0.144   0.485  0.00  0.00    +0.172 C 
ATOM     31  C   UNL     1       4.758  -0.971  -0.097  0.00  0.00    +0.172 C 
ATOM     32  C   UNL     1       6.734   0.344   0.349  0.00  0.00    +0.040 C 
ATOM     33  C   UNL     1       5.528  -1.887  -0.814  0.00  0.00    +0.040 C 
ATOM     34  C   UNL     1       7.505  -0.571  -0.368  0.00  0.00    +0.003 C 
ATOM     35  C   UNL     1       6.902  -1.687  -0.949  0.00  0.00    +0.003 C 
BRANCH  31  36
ATOM     36  O   UNL     1       3.417  -1.177   0.028  0.00  0.00    -0.472 OA
BRANCH  36  37
ATOM     37  C   UNL     1       2.765  -1.866  -1.038  0.00  0.00    +0.206 C 
ATOM     38  C   UNL     1       1.329  -1.395  -1.124  0.00  0.00    +0.051 C 
ENDBRANCH  36  37
ENDBRANCH  31  36
ENDBRANCH  29  30
ENDBRANCH  28  29
ENDBRANCH  27  28
ENDBRANCH  24  27
ENDBRANCH  23  24
ENDBRANCH  22  23
ENDBRANCH  21  22
ENDBRANCH   1  21
TORSDOF 16
