130301
  -OEChem-03292013323D

 46 47  0     1  0  0  0  0  0999 V2000
    0.2191   -0.8009    1.6891 O   0  0  0  0  0  0  0  0  0  0  0  0
   -1.5656    2.2040   -0.7175 O   0  0  0  0  0  0  0  0  0  0  0  0
   -0.3745    3.7759    0.3872 O   0  0  0  0  0  0  0  0  0  0  0  0
   -5.9816    1.1820   -0.2100 O   0  0  0  0  0  0  0  0  0  0  0  0
    0.1867    0.2958   -0.3541 N   0  0  0  0  0  0  0  0  0  0  0  0
    0.5814   -3.0602   -0.1245 N   0  0  0  0  0  0  0  0  0  0  0  0
    6.1962   -1.6407    0.1438 N   0  0  0  0  0  0  0  0  0  0  0  0
    0.6114    1.5799    0.1501 C   0  0  1  0  0  0  0  0  0  0  0  0
   -0.4566   -2.0405   -0.2801 C   0  0  1  0  0  0  0  0  0  0  0  0
    1.9074    2.0399   -0.5301 C   0  0  0  0  0  0  0  0  0  0  0  0
   -1.7828   -2.5515    0.3015 C   0  0  0  0  0  0  0  0  0  0  0  0
    0.0241   -0.8048    0.4746 C   0  0  0  0  0  0  0  0  0  0  0  0
    3.0450    1.0635   -0.3514 C   0  0  0  0  0  0  0  0  0  0  0  0
   -2.9068   -1.5515    0.1644 C   0  0  0  0  0  0  0  0  0  0  0  0
   -0.4745    2.6293   -0.0369 C   0  0  0  0  0  0  0  0  0  0  0  0
    3.8863    1.1942    0.7420 C   0  0  0  0  0  0  0  0  0  0  0  0
    3.2272    0.0549   -1.2841 C   0  0  0  0  0  0  0  0  0  0  0  0
   -3.1229   -0.6313    1.1768 C   0  0  0  0  0  0  0  0  0  0  0  0
   -3.7000   -1.5751   -0.9710 C   0  0  0  0  0  0  0  0  0  0  0  0
    4.9375    0.2923    0.9070 C   0  0  0  0  0  0  0  0  0  0  0  0
    4.2785   -0.8469   -1.1189 C   0  0  0  0  0  0  0  0  0  0  0  0
    5.1336   -0.7282   -0.0234 C   0  0  0  0  0  0  0  0  0  0  0  0
   -4.1615    0.2914    1.0502 C   0  0  0  0  0  0  0  0  0  0  0  0
   -4.7384   -0.6525   -1.0976 C   0  0  0  0  0  0  0  0  0  0  0  0
   -4.9692    0.2808   -0.0870 C   0  0  0  0  0  0  0  0  0  0  0  0
    0.7703    1.4976    1.2321 H   0  0  0  0  0  0  0  0  0  0  0  0
   -0.5789   -1.8212   -1.3471 H   0  0  0  0  0  0  0  0  0  0  0  0
    1.7334    2.1982   -1.6038 H   0  0  0  0  0  0  0  0  0  0  0  0
    2.2085    3.0233   -0.1446 H   0  0  0  0  0  0  0  0  0  0  0  0
   -1.6668   -2.8113    1.3632 H   0  0  0  0  0  0  0  0  0  0  0  0
   -2.0743   -3.4871   -0.1955 H   0  0  0  0  0  0  0  0  0  0  0  0
   -0.0405    0.2238   -1.3414 H   0  0  0  0  0  0  0  0  0  0  0  0
    1.4361   -2.7500   -0.5859 H   0  0  0  0  0  0  0  0  0  0  0  0
    0.2956   -3.9142   -0.6021 H   0  0  0  0  0  0  0  0  0  0  0  0
    3.7397    1.9842    1.4728 H   0  0  0  0  0  0  0  0  0  0  0  0
    2.5691   -0.0459   -2.1423 H   0  0  0  0  0  0  0  0  0  0  0  0
   -2.5090   -0.6176    2.0721 H   0  0  0  0  0  0  0  0  0  0  0  0
   -3.5262   -2.2967   -1.7641 H   0  0  0  0  0  0  0  0  0  0  0  0
    5.5966    0.3948    1.7653 H   0  0  0  0  0  0  0  0  0  0  0  0
    4.4205   -1.6381   -1.8507 H   0  0  0  0  0  0  0  0  0  0  0  0
   -4.3370    1.0151    1.8414 H   0  0  0  0  0  0  0  0  0  0  0  0
   -5.3599   -0.6705   -1.9889 H   0  0  0  0  0  0  0  0  0  0  0  0
   -2.2378    2.9119   -0.8138 H   0  0  0  0  0  0  0  0  0  0  0  0
    6.8172   -1.5546    0.9373 H   0  0  0  0  0  0  0  0  0  0  0  0
    6.3393   -2.3802   -0.5311 H   0  0  0  0  0  0  0  0  0  0  0  0
   -6.4360    1.0316   -1.0567 H   0  0  0  0  0  0  0  0  0  0  0  0
  1 12  2  0  0  0  0
  2 15  1  0  0  0  0
  2 43  1  0  0  0  0
  3 15  2  0  0  0  0
  4 25  1  0  0  0  0
  4 46  1  0  0  0  0
  5  8  1  0  0  0  0
  5 12  1  0  0  0  0
  5 32  1  0  0  0  0
  6  9  1  0  0  0  0
  6 33  1  0  0  0  0
  6 34  1  0  0  0  0
  7 22  1  0  0  0  0
  7 44  1  0  0  0  0
  7 45  1  0  0  0  0
  8 10  1  0  0  0  0
  8 15  1  0  0  0  0
  8 26  1  0  0  0  0
  9 11  1  0  0  0  0
  9 12  1  0  0  0  0
  9 27  1  0  0  0  0
 10 13  1  0  0  0  0
 10 28  1  0  0  0  0
 10 29  1  0  0  0  0
 11 14  1  0  0  0  0
 11 30  1  0  0  0  0
 11 31  1  0  0  0  0
 13 16  2  0  0  0  0
 13 17  1  0  0  0  0
 14 18  2  0  0  0  0
 14 19  1  0  0  0  0
 16 20  1  0  0  0  0
 16 35  1  0  0  0  0
 17 21  2  0  0  0  0
 17 36  1  0  0  0  0
 18 23  1  0  0  0  0
 18 37  1  0  0  0  0
 19 24  2  0  0  0  0
 19 38  1  0  0  0  0
 20 22  2  0  0  0  0
 20 39  1  0  0  0  0
 21 22  1  0  0  0  0
 21 40  1  0  0  0  0
 23 25  2  0  0  0  0
 23 41  1  0  0  0  0
 24 25  1  0  0  0  0
 24 42  1  0  0  0  0
M  END
> <PUBCHEM_COMPOUND_CID>
130301

> <PUBCHEM_CONFORMER_RMSD>
0.8

> <PUBCHEM_CONFORMER_DIVERSEORDER>
1
115
13
151
188
136
123
170
9
134
227
60
82
124
76
64
131
84
211
210
152
47
87
118
41
126
162
114
173
25
185
85
184
74
91
61
95
63
107
50
98
150
99
221
83
226
172
216
174
51
163
196
55
12
146
156
24
81
195
94
197
208
202
182
78
4
224
113
77
132
72
102
125
33
165
30
110
171
141
42
93
2
108
66
167
88
39
161
119
101
135
212
144
14
16
155
129
169
89
71
194
219
120
214
133
75
58
35
183
205
220
199
157
15
143
225
52
73
26
149
100
65
23
68
56
105
180
121
201
21
215
217
53
190
204
10
142
62
112
11
70
37
189
80
209
145
106
128
22
90
200
178
7
43
3
191
109
34
67
19
223
154
27
176
218
92
54
96
187
111
6
17
168
103
192
206
138
86
116
193
158
18
139
29
207
186
48
36
179
198
130
137
57
203
44
164
31
153
38
45
177
160
40
127
32
104
122
117
79
28
49
213
20
181
46
97
222
148
159
166
140
147
5
8
59
69
175

> <PUBCHEM_MMFF94_PARTIAL_CHARGES>
40
1 -0.57
10 0.14
11 0.14
12 0.57
13 -0.14
14 -0.14
15 0.66
16 -0.15
17 -0.15
18 -0.15
19 -0.15
2 -0.65
20 -0.15
21 -0.15
22 0.1
23 -0.15
24 -0.15
25 0.08
3 -0.57
32 0.37
33 0.36
34 0.36
35 0.15
36 0.15
37 0.15
38 0.15
39 0.15
4 -0.53
40 0.15
41 0.15
42 0.15
43 0.5
44 0.4
45 0.4
46 0.45
5 -0.73
6 -0.99
7 -0.9
8 0.36
9 0.33

> <PUBCHEM_EFFECTIVE_ROTOR_COUNT>
8

> <PUBCHEM_PHARMACOPHORE_FEATURES>
12
1 1 acceptor
1 2 acceptor
1 3 acceptor
1 4 donor
1 5 donor
1 6 cation
1 6 donor
1 7 cation
1 7 donor
3 2 3 15 anion
6 13 16 17 20 21 22 rings
6 14 18 19 23 24 25 rings

> <PUBCHEM_HEAVY_ATOM_COUNT>
25

> <PUBCHEM_ATOM_DEF_STEREO_COUNT>
2

> <PUBCHEM_ATOM_UDEF_STEREO_COUNT>
0

> <PUBCHEM_BOND_DEF_STEREO_COUNT>
0

> <PUBCHEM_BOND_UDEF_STEREO_COUNT>
0

> <PUBCHEM_ISOTOPIC_ATOM_COUNT>
0

> <PUBCHEM_COMPONENT_COUNT>
1

> <PUBCHEM_CACTVS_TAUTO_COUNT>
4

> <PUBCHEM_CONFORMER_ID>
0001FCFD00000001

> <PUBCHEM_MMFF94_ENERGY>
65.6219

> <PUBCHEM_FEATURE_SELFOVERLAP>
60.957

> <PUBCHEM_SHAPE_FINGERPRINT>
10906281 52 18044663237890901272
11646440 116 18343033198504074161
116883 192 18411990165277448964
12553582 1 18266761227809621044
12760667 363 18410572860397702758
12788726 201 18339095830064020708
13402501 40 18411981347187084485
13583140 156 14908178655302452910
14955137 171 18336842990904718841
15099037 51 18408323315019874303
15183329 4 18410011039535513679
15420108 30 17481164309574703081
1601671 61 18334853922250384147
16752209 62 18187079542635089272
17093844 170 18412265034504475646
17349148 13 17845669155938254514
17492 89 17908141323728155967
20511986 3 17560505283741949590
20775438 99 16475676770846774295
21279426 13 18408881811150043855
23402539 116 18343580750340141551
23559900 14 18340493373909669916
23566358 2 18192992612794654783
3004659 81 18186804703736090596
335352 9 18409167709943134367
3680242 22 18335141955663151099
437815 12 17846790589938666384
460360 51 18117287071072136689
59755656 215 18337392626037873414
633830 44 17604710104668967495
7226269 152 18334012800308306364

> <PUBCHEM_SHAPE_MULTIPOLES>
476.07
12.04
3.13
1.13
2.25
1.15
0.07
-2.2
-0.57
-0.32
-0.06
-0.05
-0.13
0.05

> <PUBCHEM_SHAPE_SELFOVERLAP>
1005.448

> <PUBCHEM_SHAPE_VOLUME>
265.6

> <PUBCHEM_COORDINATE_TYPE>
2
5
10

$$$$
