REMARK  Name = 130324
REMARK  9 active torsions:
REMARK  status: ('A' for Active; 'I' for Inactive)
REMARK    1  A    between atoms: N_3  and  C1*_11
REMARK    2  A    between atoms: N_4  and  C_20
REMARK    3  A    between atoms: C3*_13  and  O3*_15
REMARK    4  A    between atoms: C4*_14  and  C5*_17
REMARK    5  A    between atoms: C5*_17  and  O5*_18
REMARK    6  A    between atoms: C_20  and  C_21
REMARK    7  A    between atoms: C_21  and  O_22
REMARK    8  A    between atoms: C_21  and  C_24
REMARK    9  A    between atoms: C_24  and  O_25
REMARK                            x       y       z     vdW  Elec       q    Type
REMARK                         _______ _______ _______ _____ _____    ______ ____
ROOT
ATOM      1  O   UNL     1      -0.769   1.792  -1.102  0.00  0.00    -0.252 OA
ATOM      2  O   UNL     1      -2.526  -2.434  -0.193  0.00  0.00    -0.270 OA
ATOM      3  N   UNL     1       0.642   0.080  -0.422  0.00  0.00    -0.219 N 
ATOM      4  N   UNL     1      -1.691  -0.299  -0.652  0.00  0.00    -0.208 N 
ATOM      5  C   UNL     1      -0.611   0.618  -0.752  0.00  0.00    +0.319 C 
ATOM      6  C   UNL     1       0.799  -1.232  -0.039  0.00  0.00    +0.071 C 
ATOM      7  C   UNL     1      -0.208  -2.104   0.055  0.00  0.00    +0.047 C 
ATOM      8  C   UNL     1      -1.585  -1.644  -0.270  0.00  0.00    +0.253 C 
ATOM      9  C   UNL     1      -0.023  -3.529   0.472  0.00  0.00    +0.037 C 
ENDROOT
BRANCH   3  11
ATOM     10  O4* UNL     1       2.936   0.145  -0.878  0.00  0.00    -0.335 OA
ATOM     11  C1* UNL     1       1.797   0.926  -0.488  0.00  0.00    +0.202 C 
ATOM     12  C2* UNL     1       2.129   1.574   0.846  0.00  0.00    +0.083 C 
ATOM     13  C3* UNL     1       3.637   1.667   0.799  0.00  0.00    +0.144 C 
ATOM     14  C4* UNL     1       4.034   0.427   0.011  0.00  0.00    +0.173 C 
BRANCH  13  15
ATOM     15  O3* UNL     1       4.024   2.840   0.085  0.00  0.00    -0.382 OA
ATOM     16  H3* UNL     1       3.768   3.626   0.592  0.00  0.00    +0.210 HD
ENDBRANCH  13  15
BRANCH  14  17
ATOM     17  C5* UNL     1       4.245  -0.795   0.896  0.00  0.00    +0.169 C 
BRANCH  17  18
ATOM     18  O5* UNL     1       4.599  -1.898   0.077  0.00  0.00    -0.379 OA
ATOM     19  H5* UNL     1       4.735  -2.682   0.632  0.00  0.00    +0.211 HD
ENDBRANCH  17  18
ENDBRANCH  14  17
ENDBRANCH   3  11
BRANCH   4  20
ATOM     20  C   UNL     1      -3.014   0.221  -0.984  0.00  0.00    +0.134 C 
BRANCH  20  21
ATOM     21  C   UNL     1      -3.730   0.795   0.240  0.00  0.00    +0.160 C 
BRANCH  21  22
ATOM     22  O   UNL     1      -3.819  -0.234   1.229  0.00  0.00    -0.380 OA
ATOM     23  H   UNL     1      -2.930  -0.564   1.433  0.00  0.00    +0.211 HD
ENDBRANCH  21  22
BRANCH  21  24
ATOM     24  C   UNL     1      -5.138   1.302  -0.067  0.00  0.00    +0.168 C 
BRANCH  24  25
ATOM     25  O   UNL     1      -5.726   1.783   1.137  0.00  0.00    -0.379 OA
ATOM     26  H   UNL     1      -6.622   2.107   0.953  0.00  0.00    +0.211 HD
ENDBRANCH  24  25
ENDBRANCH  21  24
ENDBRANCH  20  21
ENDBRANCH   4  20
TORSDOF 9
