13039062
  -OEChem-03292013303D

 82 85  0     1  0  0  0  0  0999 V2000
   -3.5655    2.8148    0.4423 O   0  0  0  0  0  0  0  0  0  0  0  0
   -5.6819   -3.5336    0.1218 O   0  0  0  0  0  0  0  0  0  0  0  0
    3.5469   -2.2982    0.7376 O   0  0  0  0  0  0  0  0  0  0  0  0
   -5.9406   -1.5005    2.0498 O   0  0  0  0  0  0  0  0  0  0  0  0
   -5.4526    2.5896   -0.7351 O   0  0  0  0  0  0  0  0  0  0  0  0
    6.2052   -2.2136    0.7325 O   0  0  0  0  0  0  0  0  0  0  0  0
    0.7468    0.6954   -0.8236 C   0  0  1  0  0  0  0  0  0  0  0  0
   -0.1154    1.4873    0.2057 C   0  0  1  0  0  0  0  0  0  0  0  0
   -1.6416    1.3831   -0.0312 C   0  0  1  0  0  0  0  0  0  0  0  0
   -2.1434   -0.0903   -0.0424 C   0  0  1  0  0  0  0  0  0  0  0  0
    1.7967   -0.0667    0.0499 C   0  0  2  0  0  0  0  0  0  0  0  0
   -3.6666   -0.3113   -0.4551 C   0  0  2  0  0  0  0  0  0  0  0  0
   -0.1127   -0.2820   -1.6466 C   0  0  0  0  0  0  0  0  0  0  0  0
    0.3713    1.0392    1.5918 C   0  0  0  0  0  0  0  0  0  0  0  0
   -1.1583   -1.0176   -0.8119 C   0  0  0  0  0  0  0  0  0  0  0  0
    1.8370    0.7124    1.3629 C   0  0  0  0  0  0  0  0  0  0  0  0
    3.1839   -0.2605   -0.5497 C   0  0  1  0  0  0  0  0  0  0  0  0
   -4.6260    0.6036    0.3857 C   0  0  2  0  0  0  0  0  0  0  0  0
    1.4034    1.6902   -1.8031 C   0  0  0  0  0  0  0  0  0  0  0  0
   -2.3811    2.2334    1.0102 C   0  0  0  0  0  0  0  0  0  0  0  0
   -4.0107   -1.8132   -0.1542 C   0  0  0  0  0  0  0  0  0  0  0  0
   -3.8673   -0.0487   -1.9677 C   0  0  0  0  0  0  0  0  0  0  0  0
   -6.1167    0.1667    0.3389 C   0  0  0  0  0  0  0  0  0  0  0  0
   -5.4942   -2.1672   -0.2394 C   0  0  2  0  0  0  0  0  0  0  0  0
    4.1465   -1.0479    0.3703 C   0  0  2  0  0  0  0  0  0  0  0  0
   -6.3245   -1.2970    0.6910 C   0  0  1  0  0  0  0  0  0  0  0  0
   -4.5897    2.0722   -0.0292 C   0  0  0  0  0  0  0  0  0  0  0  0
    3.0498   -0.9520   -1.9120 C   0  0  0  0  0  0  0  0  0  0  0  0
    5.5484   -1.3570   -0.2071 C   0  0  1  0  0  0  0  0  0  0  0  0
    6.4339   -0.1208   -0.5327 C   0  0  1  0  0  0  0  0  0  0  0  0
    6.4803    0.8986    0.6514 C   0  0  0  0  0  0  0  0  0  0  0  0
    7.8301   -0.5151   -1.0334 C   0  0  0  0  0  0  0  0  0  0  0  0
    7.2729    2.1559    0.2641 C   0  0  0  0  0  0  0  0  0  0  0  0
    7.0355    0.3506    1.9688 C   0  0  0  0  0  0  0  0  0  0  0  0
    0.1487    2.5529    0.1256 H   0  0  0  0  0  0  0  0  0  0  0  0
   -1.8358    1.8161   -1.0213 H   0  0  0  0  0  0  0  0  0  0  0  0
   -2.0939   -0.4294    1.0034 H   0  0  0  0  0  0  0  0  0  0  0  0
    1.3921   -1.0592    0.2874 H   0  0  0  0  0  0  0  0  0  0  0  0
   -0.6397    0.2645   -2.4407 H   0  0  0  0  0  0  0  0  0  0  0  0
    0.4872   -1.0347   -2.1614 H   0  0  0  0  0  0  0  0  0  0  0  0
    0.2468    1.8232    2.3453 H   0  0  0  0  0  0  0  0  0  0  0  0
   -0.1567    0.1477    1.9449 H   0  0  0  0  0  0  0  0  0  0  0  0
   -0.6576   -1.6654   -0.0822 H   0  0  0  0  0  0  0  0  0  0  0  0
   -1.6758   -1.7074   -1.4824 H   0  0  0  0  0  0  0  0  0  0  0  0
    2.2397    0.1263    2.1942 H   0  0  0  0  0  0  0  0  0  0  0  0
    2.4276    1.6312    1.2669 H   0  0  0  0  0  0  0  0  0  0  0  0
    3.6425    0.7194   -0.7246 H   0  0  0  0  0  0  0  0  0  0  0  0
   -4.3478    0.5422    1.4448 H   0  0  0  0  0  0  0  0  0  0  0  0
    0.6421    2.3939   -2.1672 H   0  0  0  0  0  0  0  0  0  0  0  0
    2.1631    2.3026   -1.3049 H   0  0  0  0  0  0  0  0  0  0  0  0
    1.8352    1.2725   -2.7091 H   0  0  0  0  0  0  0  0  0  0  0  0
   -2.6149    1.6964    1.9352 H   0  0  0  0  0  0  0  0  0  0  0  0
   -1.7669    3.0919    1.3042 H   0  0  0  0  0  0  0  0  0  0  0  0
   -3.6450   -2.0813    0.8468 H   0  0  0  0  0  0  0  0  0  0  0  0
   -3.4779   -2.4882   -0.8337 H   0  0  0  0  0  0  0  0  0  0  0  0
   -3.5180    0.9463   -2.2594 H   0  0  0  0  0  0  0  0  0  0  0  0
   -3.3265   -0.7730   -2.5845 H   0  0  0  0  0  0  0  0  0  0  0  0
   -4.9207   -0.1181   -2.2563 H   0  0  0  0  0  0  0  0  0  0  0  0
   -6.5441    0.3543   -0.6541 H   0  0  0  0  0  0  0  0  0  0  0  0
   -6.6820    0.7903    1.0447 H   0  0  0  0  0  0  0  0  0  0  0  0
   -5.8420   -2.0570   -1.2727 H   0  0  0  0  0  0  0  0  0  0  0  0
    4.2590   -0.5135    1.3178 H   0  0  0  0  0  0  0  0  0  0  0  0
   -7.3865   -1.5568    0.6174 H   0  0  0  0  0  0  0  0  0  0  0  0
    4.0270   -1.0157   -2.4023 H   0  0  0  0  0  0  0  0  0  0  0  0
    2.6887   -1.9799   -1.7888 H   0  0  0  0  0  0  0  0  0  0  0  0
    2.4206   -0.4847   -2.6570 H   0  0  0  0  0  0  0  0  0  0  0  0
    5.4416   -1.9721   -1.1074 H   0  0  0  0  0  0  0  0  0  0  0  0
   -6.6305   -3.7312    0.0403 H   0  0  0  0  0  0  0  0  0  0  0  0
    5.9459    0.3969   -1.3702 H   0  0  0  0  0  0  0  0  0  0  0  0
    4.1582   -2.7478    1.3457 H   0  0  0  0  0  0  0  0  0  0  0  0
   -6.0367   -2.4495    2.2390 H   0  0  0  0  0  0  0  0  0  0  0  0
    5.4595    1.2485    0.8454 H   0  0  0  0  0  0  0  0  0  0  0  0
    6.9900   -2.5875    0.2981 H   0  0  0  0  0  0  0  0  0  0  0  0
    8.3581    0.3428   -1.4606 H   0  0  0  0  0  0  0  0  0  0  0  0
    8.4523   -0.9352   -0.2382 H   0  0  0  0  0  0  0  0  0  0  0  0
    7.7505   -1.2664   -1.8268 H   0  0  0  0  0  0  0  0  0  0  0  0
    7.1401    2.9389    1.0192 H   0  0  0  0  0  0  0  0  0  0  0  0
    8.3464    1.9557    0.1873 H   0  0  0  0  0  0  0  0  0  0  0  0
    6.9250    2.5598   -0.6925 H   0  0  0  0  0  0  0  0  0  0  0  0
    7.1074    1.1500    2.7153 H   0  0  0  0  0  0  0  0  0  0  0  0
    8.0370   -0.0719    1.8455 H   0  0  0  0  0  0  0  0  0  0  0  0
    6.3862   -0.4153    2.3996 H   0  0  0  0  0  0  0  0  0  0  0  0
  1 20  1  0  0  0  0
  1 27  1  0  0  0  0
  2 24  1  0  0  0  0
  2 68  1  0  0  0  0
  3 25  1  0  0  0  0
  3 70  1  0  0  0  0
  4 26  1  0  0  0  0
  4 71  1  0  0  0  0
  5 27  2  0  0  0  0
  6 29  1  0  0  0  0
  6 73  1  0  0  0  0
  7  8  1  0  0  0  0
  7 11  1  0  0  0  0
  7 13  1  0  0  0  0
  7 19  1  0  0  0  0
  8  9  1  0  0  0  0
  8 14  1  0  0  0  0
  8 35  1  0  0  0  0
  9 10  1  0  0  0  0
  9 20  1  0  0  0  0
  9 36  1  0  0  0  0
 10 12  1  0  0  0  0
 10 15  1  0  0  0  0
 10 37  1  0  0  0  0
 11 16  1  0  0  0  0
 11 17  1  0  0  0  0
 11 38  1  0  0  0  0
 12 18  1  0  0  0  0
 12 21  1  0  0  0  0
 12 22  1  0  0  0  0
 13 15  1  0  0  0  0
 13 39  1  0  0  0  0
 13 40  1  0  0  0  0
 14 16  1  0  0  0  0
 14 41  1  0  0  0  0
 14 42  1  0  0  0  0
 15 43  1  0  0  0  0
 15 44  1  0  0  0  0
 16 45  1  0  0  0  0
 16 46  1  0  0  0  0
 17 25  1  0  0  0  0
 17 28  1  0  0  0  0
 17 47  1  0  0  0  0
 18 23  1  0  0  0  0
 18 27  1  0  0  0  0
 18 48  1  0  0  0  0
 19 49  1  0  0  0  0
 19 50  1  0  0  0  0
 19 51  1  0  0  0  0
 20 52  1  0  0  0  0
 20 53  1  0  0  0  0
 21 24  1  0  0  0  0
 21 54  1  0  0  0  0
 21 55  1  0  0  0  0
 22 56  1  0  0  0  0
 22 57  1  0  0  0  0
 22 58  1  0  0  0  0
 23 26  1  0  0  0  0
 23 59  1  0  0  0  0
 23 60  1  0  0  0  0
 24 26  1  0  0  0  0
 24 61  1  0  0  0  0
 25 29  1  0  0  0  0
 25 62  1  0  0  0  0
 26 63  1  0  0  0  0
 28 64  1  0  0  0  0
 28 65  1  0  0  0  0
 28 66  1  0  0  0  0
 29 30  1  0  0  0  0
 29 67  1  0  0  0  0
 30 31  1  0  0  0  0
 30 32  1  0  0  0  0
 30 69  1  0  0  0  0
 31 33  1  0  0  0  0
 31 34  1  0  0  0  0
 31 72  1  0  0  0  0
 32 74  1  0  0  0  0
 32 75  1  0  0  0  0
 32 76  1  0  0  0  0
 33 77  1  0  0  0  0
 33 78  1  0  0  0  0
 33 79  1  0  0  0  0
 34 80  1  0  0  0  0
 34 81  1  0  0  0  0
 34 82  1  0  0  0  0
M  END
> <PUBCHEM_COMPOUND_CID>
13039062

> <PUBCHEM_CONFORMER_RMSD>
1

> <PUBCHEM_CONFORMER_DIVERSEORDER>
1
7
5
2
4
6
3

> <PUBCHEM_MMFF94_PARTIAL_CHARGES>
17
1 -0.43
18 0.06
2 -0.68
20 0.28
24 0.28
25 0.28
26 0.28
27 0.66
29 0.28
3 -0.68
4 -0.68
5 -0.57
6 -0.68
68 0.4
70 0.4
71 0.4
73 0.4

> <PUBCHEM_EFFECTIVE_ROTOR_COUNT>
7.2

> <PUBCHEM_PHARMACOPHORE_FEATURES>
16
1 2 acceptor
1 2 donor
1 28 hydrophobe
1 3 acceptor
1 3 donor
1 32 hydrophobe
1 4 acceptor
1 4 donor
1 5 acceptor
1 6 acceptor
1 6 donor
3 31 33 34 hydrophobe
5 7 8 11 14 16 rings
6 12 18 21 23 24 26 rings
6 7 8 9 10 13 15 rings
7 1 9 10 12 18 20 27 rings

> <PUBCHEM_HEAVY_ATOM_COUNT>
34

> <PUBCHEM_ATOM_DEF_STEREO_COUNT>
12

> <PUBCHEM_ATOM_UDEF_STEREO_COUNT>
1

> <PUBCHEM_BOND_DEF_STEREO_COUNT>
0

> <PUBCHEM_BOND_UDEF_STEREO_COUNT>
0

> <PUBCHEM_ISOTOPIC_ATOM_COUNT>
0

> <PUBCHEM_COMPONENT_COUNT>
1

> <PUBCHEM_CACTVS_TAUTO_COUNT>
1

> <PUBCHEM_CONFORMER_ID>
00C6F5D600000001

> <PUBCHEM_MMFF94_ENERGY>
140.2968

> <PUBCHEM_FEATURE_SELFOVERLAP>
81.434

> <PUBCHEM_SHAPE_FINGERPRINT>
10 15 17988924474423598206
10290309 65 17774449269760669055
10319926 262 18272077293193870481
10763959 59 9439400238018042858
10939801 23 18341613780421602038
11007060 377 18335704961424923283
11315181 36 18113903758420242309
117089 54 18045510961250974347
11756154 5 17969510479939607995
11796584 16 18339643326302981463
12236239 1 18188212009472918452
12516196 113 18333731321316261852
12596602 18 18410009910328100754
12633257 1 16415476090900038251
13782708 43 18343297080872837618
13811026 1 18201721756214838247
14251764 18 17775564269076676727
14394314 77 18336551521297082105
14461889 52 18412539925723888834
14856354 85 18410862092254584183
15021287 119 17240773873747767181
15183329 4 8286201678192404296
15361156 5 17988917869239235149
18608769 82 18271807960100670191
19611394 137 18201725080445425448
20511986 3 18261664875060508558
21130935 74 18261109643554215242
21223535 225 15285626660981104103
21781051 124 17632303342166177838
21792961 116 17417817189303366814
23559900 14 18272640255885072113
23569943 247 17025424493021267362
24771293 8 17894631487731024660
2747138 104 18271812366889863138
2838139 119 8935001460276207035
335352 9 18412540991181784957
3383291 50 18041285469044982099
3418910 222 18340217374874830672
34797466 226 17704079508392673244
350125 39 18131350829909106856
394071 54 15338539632076932138
397830 11 18272645779624010016
4073 2 18412263908827411842
4325135 7 18413388740194804256
437795 51 17775280621405742536
4625314 4 18339364063587862692
4760202 70 18125999614206500884
5104073 3 18201435823246567362
5109719 28 18270400628805269552
5265222 85 18130505322958095526
57724786 102 14332829557127197074
7226269 152 18059856108873852649
9831232 110 18198629827040464134

> <PUBCHEM_SHAPE_MULTIPOLES>
664.49
20.66
2.7
1.58
18.94
0.13
0.11
4.64
-4.18
-2.92
-0.35
0.52
0
0.87

> <PUBCHEM_SHAPE_SELFOVERLAP>
1379.963

> <PUBCHEM_SHAPE_VOLUME>
376.3

> <PUBCHEM_COORDINATE_TYPE>
2
5
10

$$$$
