REMARK  Name = 13039062
REMARK  9 active torsions:
REMARK  status: ('A' for Active; 'I' for Inactive)
REMARK    1  A    between atoms: C_7  and  C_26
REMARK    2  A    between atoms: C_19  and  O_22
REMARK    3  A    between atoms: C_20  and  O_24
REMARK    4  A    between atoms: C_26  and  C_28
REMARK    5  A    between atoms: C_28  and  O_29
REMARK    6  A    between atoms: C_28  and  C_31
REMARK    7  A    between atoms: C_31  and  O_32
REMARK    8  A    between atoms: C_31  and  C_34
REMARK    9  A    between atoms: C_34  and  C_36
REMARK                            x       y       z     vdW  Elec       q    Type
REMARK                         _______ _______ _______ _____ _____    ______ ____
ROOT
ATOM      1  O   UNL     1      -3.566   2.815   0.442  0.00  0.00    -0.449 OA
ATOM      2  O   UNL     1      -5.453   2.590  -0.735  0.00  0.00    -0.250 OA
ATOM      3  C   UNL     1       0.747   0.695  -0.824  0.00  0.00    +0.000 C 
ATOM      4  C   UNL     1      -0.115   1.487   0.206  0.00  0.00    +0.004 C 
ATOM      5  C   UNL     1      -1.642   1.383  -0.031  0.00  0.00    +0.044 C 
ATOM      6  C   UNL     1      -2.143  -0.090  -0.042  0.00  0.00    +0.004 C 
ATOM      7  C   UNL     1       1.797  -0.067   0.050  0.00  0.00    +0.002 C 
ATOM      8  C   UNL     1      -3.667  -0.311  -0.455  0.00  0.00    +0.013 C 
ATOM      9  C   UNL     1      -0.113  -0.282  -1.647  0.00  0.00    +0.000 C 
ATOM     10  C   UNL     1       0.371   1.039   1.592  0.00  0.00    +0.000 C 
ATOM     11  C   UNL     1      -1.158  -1.018  -0.812  0.00  0.00    +0.000 C 
ATOM     12  C   UNL     1       1.837   0.712   1.363  0.00  0.00    +0.000 C 
ATOM     13  C   UNL     1      -4.626   0.604   0.386  0.00  0.00    +0.102 C 
ATOM     14  C   UNL     1       1.403   1.690  -1.803  0.00  0.00    +0.000 C 
ATOM     15  C   UNL     1      -2.381   2.233   1.010  0.00  0.00    +0.208 C 
ATOM     16  C   UNL     1      -4.011  -1.813  -0.154  0.00  0.00    +0.032 C 
ATOM     17  C   UNL     1      -3.867  -0.049  -1.968  0.00  0.00    +0.001 C 
ATOM     18  C   UNL     1      -6.117   0.167   0.339  0.00  0.00    +0.043 C 
ATOM     19  C   UNL     1      -5.494  -2.167  -0.239  0.00  0.00    +0.137 C 
ATOM     20  C   UNL     1      -6.324  -1.297   0.691  0.00  0.00    +0.138 C 
ATOM     21  C   UNL     1      -4.590   2.072  -0.029  0.00  0.00    +0.317 C 
ENDROOT
BRANCH  19  22
ATOM     22  O   UNL     1      -5.682  -3.534   0.122  0.00  0.00    -0.382 OA
ATOM     23  H   UNL     1      -5.156  -4.099  -0.466  0.00  0.00    +0.210 HD
ENDBRANCH  19  22
BRANCH  20  24
ATOM     24  O   UNL     1      -5.941  -1.500   2.050  0.00  0.00    -0.382 OA
ATOM     25  H   UNL     1      -6.481  -0.938   2.626  0.00  0.00    +0.210 HD
ENDBRANCH  20  24
BRANCH   7  26
ATOM     26  C   UNL     1       3.184  -0.261  -0.550  0.00  0.00    +0.029 C 
ATOM     27  C   UNL     1       3.050  -0.952  -1.912  0.00  0.00    +0.003 C 
BRANCH  26  28
ATOM     28  C   UNL     1       4.146  -1.048   0.370  0.00  0.00    +0.137 C 
BRANCH  28  29
ATOM     29  O   UNL     1       3.547  -2.298   0.738  0.00  0.00    -0.382 OA
ATOM     30  H   UNL     1       2.663  -2.138   1.104  0.00  0.00    +0.210 HD
ENDBRANCH  28  29
BRANCH  28  31
ATOM     31  C   UNL     1       5.548  -1.357  -0.207  0.00  0.00    +0.137 C 
BRANCH  31  32
ATOM     32  O   UNL     1       6.205  -2.214   0.733  0.00  0.00    -0.382 OA
ATOM     33  H   UNL     1       5.639  -2.978   0.924  0.00  0.00    +0.210 HD
ENDBRANCH  31  32
BRANCH  31  34
ATOM     34  C   UNL     1       6.434  -0.121  -0.533  0.00  0.00    +0.029 C 
ATOM     35  C   UNL     1       7.830  -0.515  -1.033  0.00  0.00    +0.003 C 
BRANCH  34  36
ATOM     36  C   UNL     1       6.480   0.899   0.651  0.00  0.00    +0.002 C 
ATOM     37  C   UNL     1       7.273   2.156   0.264  0.00  0.00    +0.000 C 
ATOM     38  C   UNL     1       7.035   0.351   1.969  0.00  0.00    +0.000 C 
ENDBRANCH  34  36
ENDBRANCH  31  34
ENDBRANCH  28  31
ENDBRANCH  26  28
ENDBRANCH   7  26
TORSDOF 9
