130313
  -OEChem-03292013323D

 26 27  0     1  0  0  0  0  0999 V2000
   -1.7330   -0.6838   -0.0123 S   0  0  0  0  0  0  0  0  0  0  0  0
   -2.5229   -1.5672    0.8230 O   0  0  0  0  0  0  0  0  0  0  0  0
   -2.2201   -0.2741   -1.3164 O   0  0  0  0  0  0  0  0  0  0  0  0
    0.4418    2.9575   -0.8655 O   0  0  0  0  0  0  0  0  0  0  0  0
    3.0889   -0.4788   -0.7794 O   0  0  0  0  0  0  0  0  0  0  0  0
    2.4931    0.0797    1.3488 O   0  0  0  0  0  0  0  0  0  0  0  0
    0.0963    0.9522    0.3270 N   0  0  0  0  0  0  0  0  0  0  0  0
   -0.0296   -1.3806   -0.2051 C   0  0  0  0  0  0  0  0  0  0  0  0
   -1.2284    0.7455    0.9324 C   0  0  1  0  0  0  0  0  0  0  0  0
    0.8102   -0.0995   -0.3719 C   0  0  2  0  0  0  0  0  0  0  0  0
   -1.5800    2.1665    0.4765 C   0  0  0  0  0  0  0  0  0  0  0  0
   -0.1697    2.2029   -0.1437 C   0  0  0  0  0  0  0  0  0  0  0  0
    0.0336   -2.2732   -1.4453 C   0  0  0  0  0  0  0  0  0  0  0  0
    0.3237   -2.1991    1.0464 C   0  0  0  0  0  0  0  0  0  0  0  0
    2.1962   -0.1481    0.1855 C   0  0  0  0  0  0  0  0  0  0  0  0
   -1.1761    0.5751    2.0113 H   0  0  0  0  0  0  0  0  0  0  0  0
    0.8602    0.2120   -1.4235 H   0  0  0  0  0  0  0  0  0  0  0  0
   -1.7215    2.8900    1.2840 H   0  0  0  0  0  0  0  0  0  0  0  0
   -2.3915    2.2557   -0.2493 H   0  0  0  0  0  0  0  0  0  0  0  0
    1.0392   -2.6858   -1.5803 H   0  0  0  0  0  0  0  0  0  0  0  0
   -0.6693   -3.1096   -1.3633 H   0  0  0  0  0  0  0  0  0  0  0  0
   -0.2238   -1.7218   -2.3560 H   0  0  0  0  0  0  0  0  0  0  0  0
   -0.3573   -3.0493    1.1662 H   0  0  0  0  0  0  0  0  0  0  0  0
    1.3382   -2.6073    0.9831 H   0  0  0  0  0  0  0  0  0  0  0  0
    0.2540   -1.5985    1.9595 H   0  0  0  0  0  0  0  0  0  0  0  0
    4.0058   -0.5160   -0.4328 H   0  0  0  0  0  0  0  0  0  0  0  0
  1  2  2  0  0  0  0
  1  3  2  0  0  0  0
  1  8  1  0  0  0  0
  1  9  1  0  0  0  0
  4 12  2  0  0  0  0
  5 15  1  0  0  0  0
  5 26  1  0  0  0  0
  6 15  2  0  0  0  0
  7  9  1  0  0  0  0
  7 10  1  0  0  0  0
  7 12  1  0  0  0  0
  8 10  1  0  0  0  0
  8 13  1  0  0  0  0
  8 14  1  0  0  0  0
  9 11  1  0  0  0  0
  9 16  1  0  0  0  0
 10 15  1  0  0  0  0
 10 17  1  0  0  0  0
 11 12  1  0  0  0  0
 11 18  1  0  0  0  0
 11 19  1  0  0  0  0
 13 20  1  0  0  0  0
 13 21  1  0  0  0  0
 13 22  1  0  0  0  0
 14 23  1  0  0  0  0
 14 24  1  0  0  0  0
 14 25  1  0  0  0  0
M  END
> <PUBCHEM_COMPOUND_CID>
130313

> <PUBCHEM_CONFORMER_RMSD>
0.6

> <PUBCHEM_CONFORMER_DIVERSEORDER>
1
2

> <PUBCHEM_MMFF94_PARTIAL_CHARGES>
14
1 1.1
10 0.36
11 0.05
12 0.58
15 0.66
2 -0.65
26 0.5
3 -0.65
4 -0.57
5 -0.65
6 -0.57
7 -0.59
8 0.11
9 0.32

> <PUBCHEM_EFFECTIVE_ROTOR_COUNT>
1.6

> <PUBCHEM_PHARMACOPHORE_FEATURES>
9
1 2 acceptor
1 3 acceptor
1 4 acceptor
1 5 acceptor
1 6 acceptor
3 5 6 15 anion
3 8 13 14 hydrophobe
4 7 9 11 12 rings
7 1 7 8 9 10 11 12 rings

> <PUBCHEM_HEAVY_ATOM_COUNT>
15

> <PUBCHEM_ATOM_DEF_STEREO_COUNT>
2

> <PUBCHEM_ATOM_UDEF_STEREO_COUNT>
0

> <PUBCHEM_BOND_DEF_STEREO_COUNT>
0

> <PUBCHEM_BOND_UDEF_STEREO_COUNT>
0

> <PUBCHEM_ISOTOPIC_ATOM_COUNT>
0

> <PUBCHEM_COMPONENT_COUNT>
1

> <PUBCHEM_CACTVS_TAUTO_COUNT>
1

> <PUBCHEM_CONFORMER_ID>
0001FD0900000001

> <PUBCHEM_MMFF94_ENERGY>
34.7533

> <PUBCHEM_FEATURE_SELFOVERLAP>
49.428

> <PUBCHEM_SHAPE_FINGERPRINT>
10353120 184 18338807796139206751
12423570 1 10948995463073617919
12524768 44 18127686243721503594
13024252 1 17458061564641055994
13380535 76 17981040808501305231
13380536 237 17691376652080834104
14181834 199 17906990117694157300
144361 1 17914893132591720391
14614273 12 18196642999962444356
15219459 52 17983013650337035959
15775835 57 18125441904313432384
16945 1 18335415781429850923
20588541 1 18054240825174824528
20871998 184 18342748381377999460
21501502 16 17981324491070295454
22802520 49 17983882011235933734
2334 1 18411703226717469088
23419403 2 15184233202817776843
23559900 14 17699292063188678166
241688 4 18340219483164546642
2748010 2 18341894073770317476
5084963 1 18272377429871982058
5255222 1 17910677566398287040
528862 383 17831585644852814169
54276843 12 18269564981959530259
54338 74 18335131016413252448
81228 2 18339071601562627952

> <PUBCHEM_SHAPE_MULTIPOLES>
278.21
3.05
2.86
1.22
0.67
0.16
0.06
-1.03
-0.1
-0.5
0.3
0.23
0.31
0.27

> <PUBCHEM_SHAPE_SELFOVERLAP>
574.897

> <PUBCHEM_SHAPE_VOLUME>
161.9

> <PUBCHEM_COORDINATE_TYPE>
2
5
10

$$$$
