13039058
  -OEChem-03292013303D

 82 85  0     1  0  0  0  0  0999 V2000
    3.2773   -2.7983    0.2028 O   0  0  0  0  0  0  0  0  0  0  0  0
    6.0215    3.2913    0.6981 O   0  0  0  0  0  0  0  0  0  0  0  0
   -5.5697    0.6840   -1.9213 O   0  0  0  0  0  0  0  0  0  0  0  0
    5.8333    1.1261    2.5176 O   0  0  0  0  0  0  0  0  0  0  0  0
    5.3506   -2.6972   -0.6170 O   0  0  0  0  0  0  0  0  0  0  0  0
   -4.6639    2.2482    0.3190 O   0  0  0  0  0  0  0  0  0  0  0  0
   -0.6624   -0.0067   -0.9657 C   0  0  1  0  0  0  0  0  0  0  0  0
    0.0171   -1.0091   -0.0124 C   0  0  2  0  0  0  0  0  0  0  0  0
    1.5378   -1.1386   -0.2339 C   0  0  1  0  0  0  0  0  0  0  0  0
    2.2075    0.2714   -0.0480 C   0  0  1  0  0  0  0  0  0  0  0  0
   -2.1360   -0.1886   -0.5283 C   0  0  2  0  0  0  0  0  0  0  0  0
    3.7861    0.3402   -0.2972 C   0  0  2  0  0  0  0  0  0  0  0  0
   -0.0826    1.3734   -0.6595 C   0  0  0  0  0  0  0  0  0  0  0  0
   -0.8589   -2.2585   -0.1420 C   0  0  0  0  0  0  0  0  0  0  0  0
    1.4413    1.3884   -0.8302 C   0  0  0  0  0  0  0  0  0  0  0  0
   -2.2807   -1.7165   -0.3711 C   0  0  0  0  0  0  0  0  0  0  0  0
   -3.1964    0.4158   -1.4377 C   0  0  1  0  0  0  0  0  0  0  0  0
    4.5520   -0.7304    0.5586 C   0  0  2  0  0  0  0  0  0  0  0  0
   -0.4789   -0.3397   -2.4672 C   0  0  0  0  0  0  0  0  0  0  0  0
    2.1110   -2.1667    0.7501 C   0  0  0  0  0  0  0  0  0  0  0  0
    4.2554    1.7754    0.1270 C   0  0  0  0  0  0  0  0  0  0  0  0
    4.1182    0.1531   -1.7985 C   0  0  0  0  0  0  0  0  0  0  0  0
    6.0714   -0.4460    0.7249 C   0  0  0  0  0  0  0  0  0  0  0  0
    5.7648    1.9651    0.2424 C   0  0  2  0  0  0  0  0  0  0  0  0
   -4.6476    0.1992   -0.9353 C   0  0  1  0  0  0  0  0  0  0  0  0
    6.3741    0.9616    1.2085 C   0  0  1  0  0  0  0  0  0  0  0  0
    4.4382   -2.1451   -0.0056 C   0  0  0  0  0  0  0  0  0  0  0  0
   -2.9159    1.9153   -1.6257 C   0  0  0  0  0  0  0  0  0  0  0  0
   -5.0025    0.8611    0.4175 C   0  0  2  0  0  0  0  0  0  0  0  0
   -6.4768    0.6930    0.8826 C   0  0  1  0  0  0  0  0  0  0  0  0
   -6.9157   -0.8068    0.9188 C   0  0  0  0  0  0  0  0  0  0  0  0
   -6.7642    1.4288    2.1986 C   0  0  0  0  0  0  0  0  0  0  0  0
   -8.4035   -0.9361    1.2779 C   0  0  0  0  0  0  0  0  0  0  0  0
   -6.1018   -1.7072    1.8520 C   0  0  0  0  0  0  0  0  0  0  0  0
   -0.1164   -0.6522    1.0229 H   0  0  0  0  0  0  0  0  0  0  0  0
    1.7282   -1.4937   -1.2520 H   0  0  0  0  0  0  0  0  0  0  0  0
    2.0640    0.5211    1.0155 H   0  0  0  0  0  0  0  0  0  0  0  0
   -2.2419    0.2519    0.4736 H   0  0  0  0  0  0  0  0  0  0  0  0
   -0.3255    1.6739    0.3677 H   0  0  0  0  0  0  0  0  0  0  0  0
   -0.4603    2.1573   -1.3152 H   0  0  0  0  0  0  0  0  0  0  0  0
   -0.8259   -2.8809    0.7579 H   0  0  0  0  0  0  0  0  0  0  0  0
   -0.5459   -2.8803   -0.9882 H   0  0  0  0  0  0  0  0  0  0  0  0
    1.6736    1.3272   -1.8976 H   0  0  0  0  0  0  0  0  0  0  0  0
    1.7792    2.3756   -0.4984 H   0  0  0  0  0  0  0  0  0  0  0  0
   -2.7153   -2.1876   -1.2599 H   0  0  0  0  0  0  0  0  0  0  0  0
   -2.9274   -1.9583    0.4784 H   0  0  0  0  0  0  0  0  0  0  0  0
   -3.1443   -0.0433   -2.4337 H   0  0  0  0  0  0  0  0  0  0  0  0
    4.1538   -0.7318    1.5801 H   0  0  0  0  0  0  0  0  0  0  0  0
    0.5732   -0.4309   -2.7507 H   0  0  0  0  0  0  0  0  0  0  0  0
   -0.9575   -1.2841   -2.7454 H   0  0  0  0  0  0  0  0  0  0  0  0
   -0.9000    0.4369   -3.1118 H   0  0  0  0  0  0  0  0  0  0  0  0
    2.3136   -1.7553    1.7443 H   0  0  0  0  0  0  0  0  0  0  0  0
    1.4114   -2.9914    0.9087 H   0  0  0  0  0  0  0  0  0  0  0  0
    3.7941    2.0458    1.0870 H   0  0  0  0  0  0  0  0  0  0  0  0
    3.8890    2.5246   -0.5860 H   0  0  0  0  0  0  0  0  0  0  0  0
    5.1972    0.0799   -1.9685 H   0  0  0  0  0  0  0  0  0  0  0  0
    3.6625   -0.7529   -2.2088 H   0  0  0  0  0  0  0  0  0  0  0  0
    3.7674    0.9963   -2.4019 H   0  0  0  0  0  0  0  0  0  0  0  0
    6.4807   -1.1690    1.4435 H   0  0  0  0  0  0  0  0  0  0  0  0
    6.6026   -0.6118   -0.2209 H   0  0  0  0  0  0  0  0  0  0  0  0
    6.2371    1.8646   -0.7415 H   0  0  0  0  0  0  0  0  0  0  0  0
   -4.8213   -0.8787   -0.8629 H   0  0  0  0  0  0  0  0  0  0  0  0
    7.4561    1.1146    1.2879 H   0  0  0  0  0  0  0  0  0  0  0  0
   -3.7942    2.4478   -2.0077 H   0  0  0  0  0  0  0  0  0  0  0  0
   -2.5796    2.4173   -0.7146 H   0  0  0  0  0  0  0  0  0  0  0  0
   -2.1682    2.0720   -2.4075 H   0  0  0  0  0  0  0  0  0  0  0  0
   -4.3498    0.4528    1.1957 H   0  0  0  0  0  0  0  0  0  0  0  0
    5.6443    3.9052    0.0450 H   0  0  0  0  0  0  0  0  0  0  0  0
   -7.1067    1.1949    0.1340 H   0  0  0  0  0  0  0  0  0  0  0  0
   -5.3836    0.2142   -2.7520 H   0  0  0  0  0  0  0  0  0  0  0  0
    5.9937    2.0477    2.7836 H   0  0  0  0  0  0  0  0  0  0  0  0
   -6.8207   -1.2119   -0.0956 H   0  0  0  0  0  0  0  0  0  0  0  0
   -5.3152    2.6671   -0.2694 H   0  0  0  0  0  0  0  0  0  0  0  0
   -6.4789    2.4838    2.1256 H   0  0  0  0  0  0  0  0  0  0  0  0
   -6.2020    0.9923    3.0297 H   0  0  0  0  0  0  0  0  0  0  0  0
   -7.8278    1.4107    2.4527 H   0  0  0  0  0  0  0  0  0  0  0  0
   -9.0167   -0.2735    0.6583 H   0  0  0  0  0  0  0  0  0  0  0  0
   -8.5946   -0.7052    2.3306 H   0  0  0  0  0  0  0  0  0  0  0  0
   -8.7483   -1.9616    1.1033 H   0  0  0  0  0  0  0  0  0  0  0  0
   -5.0445   -1.7179    1.5771 H   0  0  0  0  0  0  0  0  0  0  0  0
   -6.1789   -1.3811    2.8940 H   0  0  0  0  0  0  0  0  0  0  0  0
   -6.4607   -2.7410    1.7998 H   0  0  0  0  0  0  0  0  0  0  0  0
  1 20  1  0  0  0  0
  1 27  1  0  0  0  0
  2 24  1  0  0  0  0
  2 68  1  0  0  0  0
  3 25  1  0  0  0  0
  3 70  1  0  0  0  0
  4 26  1  0  0  0  0
  4 71  1  0  0  0  0
  5 27  2  0  0  0  0
  6 29  1  0  0  0  0
  6 73  1  0  0  0  0
  7  8  1  0  0  0  0
  7 11  1  0  0  0  0
  7 13  1  0  0  0  0
  7 19  1  0  0  0  0
  8  9  1  0  0  0  0
  8 14  1  0  0  0  0
  8 35  1  0  0  0  0
  9 10  1  0  0  0  0
  9 20  1  0  0  0  0
  9 36  1  0  0  0  0
 10 12  1  0  0  0  0
 10 15  1  0  0  0  0
 10 37  1  0  0  0  0
 11 16  1  0  0  0  0
 11 17  1  0  0  0  0
 11 38  1  0  0  0  0
 12 18  1  0  0  0  0
 12 21  1  0  0  0  0
 12 22  1  0  0  0  0
 13 15  1  0  0  0  0
 13 39  1  0  0  0  0
 13 40  1  0  0  0  0
 14 16  1  0  0  0  0
 14 41  1  0  0  0  0
 14 42  1  0  0  0  0
 15 43  1  0  0  0  0
 15 44  1  0  0  0  0
 16 45  1  0  0  0  0
 16 46  1  0  0  0  0
 17 25  1  0  0  0  0
 17 28  1  0  0  0  0
 17 47  1  0  0  0  0
 18 23  1  0  0  0  0
 18 27  1  0  0  0  0
 18 48  1  0  0  0  0
 19 49  1  0  0  0  0
 19 50  1  0  0  0  0
 19 51  1  0  0  0  0
 20 52  1  0  0  0  0
 20 53  1  0  0  0  0
 21 24  1  0  0  0  0
 21 54  1  0  0  0  0
 21 55  1  0  0  0  0
 22 56  1  0  0  0  0
 22 57  1  0  0  0  0
 22 58  1  0  0  0  0
 23 26  1  0  0  0  0
 23 59  1  0  0  0  0
 23 60  1  0  0  0  0
 24 26  1  0  0  0  0
 24 61  1  0  0  0  0
 25 29  1  0  0  0  0
 25 62  1  0  0  0  0
 26 63  1  0  0  0  0
 28 64  1  0  0  0  0
 28 65  1  0  0  0  0
 28 66  1  0  0  0  0
 29 30  1  0  0  0  0
 29 67  1  0  0  0  0
 30 31  1  0  0  0  0
 30 32  1  0  0  0  0
 30 69  1  0  0  0  0
 31 33  1  0  0  0  0
 31 34  1  0  0  0  0
 31 72  1  0  0  0  0
 32 74  1  0  0  0  0
 32 75  1  0  0  0  0
 32 76  1  0  0  0  0
 33 77  1  0  0  0  0
 33 78  1  0  0  0  0
 33 79  1  0  0  0  0
 34 80  1  0  0  0  0
 34 81  1  0  0  0  0
 34 82  1  0  0  0  0
M  END
> <PUBCHEM_COMPOUND_CID>
13039058

> <PUBCHEM_CONFORMER_RMSD>
1

> <PUBCHEM_CONFORMER_DIVERSEORDER>
1
5
3
4
7
2
6

> <PUBCHEM_MMFF94_PARTIAL_CHARGES>
17
1 -0.43
18 0.06
2 -0.68
20 0.28
24 0.28
25 0.28
26 0.28
27 0.66
29 0.28
3 -0.68
4 -0.68
5 -0.57
6 -0.68
68 0.4
70 0.4
71 0.4
73 0.4

> <PUBCHEM_EFFECTIVE_ROTOR_COUNT>
7.2

> <PUBCHEM_PHARMACOPHORE_FEATURES>
16
1 2 acceptor
1 2 donor
1 28 hydrophobe
1 3 acceptor
1 3 donor
1 32 hydrophobe
1 4 acceptor
1 4 donor
1 5 acceptor
1 6 acceptor
1 6 donor
3 31 33 34 hydrophobe
5 7 8 11 14 16 rings
6 12 18 21 23 24 26 rings
6 7 8 9 10 13 15 rings
7 1 9 10 12 18 20 27 rings

> <PUBCHEM_HEAVY_ATOM_COUNT>
34

> <PUBCHEM_ATOM_DEF_STEREO_COUNT>
13

> <PUBCHEM_ATOM_UDEF_STEREO_COUNT>
0

> <PUBCHEM_BOND_DEF_STEREO_COUNT>
0

> <PUBCHEM_BOND_UDEF_STEREO_COUNT>
0

> <PUBCHEM_ISOTOPIC_ATOM_COUNT>
0

> <PUBCHEM_COMPONENT_COUNT>
1

> <PUBCHEM_CACTVS_TAUTO_COUNT>
1

> <PUBCHEM_CONFORMER_ID>
00C6F5D200000001

> <PUBCHEM_MMFF94_ENERGY>
136.7448

> <PUBCHEM_FEATURE_SELFOVERLAP>
81.284

> <PUBCHEM_SHAPE_FINGERPRINT>
10 15 18113615728732860392
10391435 84 18040435542925907539
10554248 39 16486686944509409181
10693767 8 8790617983126855528
10906281 52 17988368156089878436
11135609 201 18059287759687253747
11456790 92 18201146686306566656
11475781 23 12823287975283953826
11578080 2 17773865588015381666
11646440 116 18411980269256268896
12236239 1 17774714294737653079
12422481 6 17604415341669988148
12596602 18 18341336617591641323
12788726 201 17203329970751246952
13383665 225 17824562974483233710
13533116 47 18201716211696869366
13782708 43 16298385760220773689
13811026 1 17821443552773563445
14068700 675 14923950072388749373
14251764 18 18131631218659673957
14394314 77 18272376339304769817
14790565 3 18340483344432942660
14849402 71 18201157767001170377
14856354 85 16845282878858702997
15064981 113 12468900062795657699
15081414 286 18409445878133085404
15183329 4 18343577443146901381
15510800 12 16878527725653434059
1577012 14 17060335228110819821
15840311 113 18270683061111105421
1813 80 16443066079987904038
18608769 82 18113905961533171854
21033648 29 17604418605702857965
21130935 74 18410299086419212643
21267235 1 18262242118939852454
21424621 283 17418381285532891185
21623969 137 18186238424470877603
21781051 124 17821739316864381370
21792934 111 18114458973216996821
22149856 69 18261406507509250793
23081809 10 17275094025238409687
23522609 53 17704080602913183465
23559900 14 18339632366511812646
23576562 1 11527362911202097249
2747138 104 18041007224046168057
3383291 50 17023480737147261603
3663271 9 18343025480452948987
3680242 22 18261375734258102490
3882209 13 11380789119752082964
392239 28 18337123328084705185
394071 54 18411415107789971732
397830 11 18333732429401973799
4093350 32 17418096503737538926
4340502 62 18334857221075482710
504579 68 8718831998166264201
5104073 3 18261388884904825601
57816373 69 13407068189831870288

> <PUBCHEM_SHAPE_MULTIPOLES>
664.49
20.74
2.69
1.84
17.22
0.35
0.02
-3.12
12.34
-2.64
0.37
1.2
-0.49
1.68

> <PUBCHEM_SHAPE_SELFOVERLAP>
1380.378

> <PUBCHEM_SHAPE_VOLUME>
377

> <PUBCHEM_COORDINATE_TYPE>
2
5
10

$$$$
