REMARK  Name = 130321
REMARK  8 active torsions:
REMARK  status: ('A' for Active; 'I' for Inactive)
REMARK    1  A    between atoms: CA_1  and  N_4
REMARK    2  A    between atoms: CA_1  and  C_15
REMARK    3  A    between atoms: N_5  and  N_9
REMARK    4  A    between atoms: N_5  and  C_10
REMARK    5  A    between atoms: C_10  and  C_12
REMARK    6  A    between atoms: N_14  and  CA_17
REMARK    7  A    between atoms: CA_17  and  C_20
REMARK    8  A    between atoms: C_20  and  O_21
REMARK                            x       y       z     vdW  Elec       q    Type
REMARK                         _______ _______ _______ _____ _____    ______ ____
ROOT
ATOM      1  CA  UNL     1       0.475   0.261   1.009  0.00  0.00    +0.150 C 
ATOM      2  CB  UNL     1       0.712   0.318   2.510  0.00  0.00    +0.031 C 
ENDROOT
BRANCH   1   4
ATOM      3  O   UNL     1      -1.948   1.668   0.720  0.00  0.00    -0.251 OA
ATOM      4  N   UNL     1      -0.802  -0.326   0.702  0.00  0.00    -0.281 N 
ATOM      5  N   UNL     1      -3.131  -0.274   0.271  0.00  0.00    -0.163 N 
ATOM      6  C   ACE A   0      -1.962   0.441   0.575  0.00  0.00    +0.321 C 
ATOM      7  H   UNL     1      -0.860  -1.301   0.577  0.00  0.00    +0.151 HD
BRANCH   5   9
ATOM      8  O   UNL     1      -4.178  -2.259  -0.163  0.00  0.00    -0.078 OA
ATOM      9  N   UNL     1      -3.082  -1.755   0.102  0.00  0.00    +0.054 NA
ENDBRANCH   5   9
BRANCH   5  10
ATOM     10  C   UNL     1      -4.413   0.401   0.108  0.00  0.00    +0.134 C 
BRANCH  10  12
ATOM     11 CL   UNL     1      -6.238   1.657  -1.486  0.00  0.00    -0.112 Cl
ATOM     12  C   UNL     1      -4.668   0.832  -1.327  0.00  0.00    +0.118 C 
ENDBRANCH  10  12
ENDBRANCH   5  10
ENDBRANCH   1   4
BRANCH   1  15
ATOM     13  O   UNL     1       1.466  -1.785   0.168  0.00  0.00    -0.273 OA
ATOM     14  N   UNL     1       2.638   0.204  -0.067  0.00  0.00    -0.295 N 
ATOM     15  C   UNL     1       1.552  -0.568   0.320  0.00  0.00    +0.241 C 
ATOM     16  H   UNL     1       2.610   1.175   0.099  0.00  0.00    +0.150 HD
BRANCH  14  17
ATOM     17  CA  UNL     1       3.807  -0.357  -0.703  0.00  0.00    +0.171 C 
ATOM     18  CB  UNL     1       3.639  -0.370  -2.215  0.00  0.00    +0.033 C 
BRANCH  17  20
ATOM     19  OXT UNL     1       6.190   0.048  -0.684  0.00  0.00    -0.248 OA
ATOM     20  C   UNL     1       5.071   0.392  -0.317  0.00  0.00    +0.332 C 
BRANCH  20  21
ATOM     21  O   UNL     1       4.871   1.470   0.479  0.00  0.00    -0.479 OA
ATOM     22  H   UNL     1       4.002   1.704   0.740  0.00  0.00    +0.295 HD
ENDBRANCH  20  21
ENDBRANCH  17  20
ENDBRANCH  14  17
ENDBRANCH   1  15
TORSDOF 8
