REMARK  Name = 130395
REMARK  8 active torsions:
REMARK  status: ('A' for Active; 'I' for Inactive)
REMARK    1  A    between atoms: C_1  and  C_16
REMARK    2  A    between atoms: C_4  and  N_7
REMARK    3  A    between atoms: N_7  and  C_10
REMARK    4  A    between atoms: C_16  and  O_17
REMARK    5  A    between atoms: O_17  and  C_19
REMARK    6  A    between atoms: C_18  and  C_24
REMARK    7  A    between atoms: C_24  and  C_26
REMARK    8  A    between atoms: C_26  and  O_27
REMARK                            x       y       z     vdW  Elec       q    Type
REMARK                         _______ _______ _______ _____ _____    ______ ____
ROOT
ATOM      1  C   UNL     1       1.712   0.482  -0.277  0.00  0.00    +0.076 C 
ATOM      2  C   UNL     1       2.487   1.493   0.291  0.00  0.00    +0.008 C 
ATOM      3  C   UNL     1       2.327  -0.588  -0.927  0.00  0.00    +0.008 C 
ATOM      4  C   UNL     1       4.494   0.363  -0.441  0.00  0.00    +0.084 C 
ATOM      5  C   UNL     1       3.879   1.433   0.209  0.00  0.00    +0.019 C 
ATOM      6  C   UNL     1       3.718  -0.647  -1.009  0.00  0.00    +0.019 C 
ENDROOT
BRANCH   1   8
ATOM      7  O   UNL     1      -0.393   1.597  -0.146  0.00  0.00    -0.244 OA
ATOM      8  C   UNL     1       0.261   0.545  -0.192  0.00  0.00    +0.346 C 
BRANCH   8   9
ATOM      9  O   UNL     1      -0.294  -0.733  -0.161  0.00  0.00    -0.421 OA
BRANCH   9  11
ATOM     10  C   UNL     1      -4.437  -0.781   0.080  0.00  0.00    -0.011 C 
ATOM     11  C   UNL     1      -1.688  -0.749  -0.079  0.00  0.00    +0.149 C 
ATOM     12  C   UNL     1      -3.811  -0.772  -1.166  0.00  0.00    -0.001 C 
ATOM     13  C   UNL     1      -3.671  -0.774   1.246  0.00  0.00    -0.001 C 
ATOM     14  C   UNL     1      -2.418  -0.756  -1.247  0.00  0.00    +0.037 C 
ATOM     15  C   UNL     1      -2.278  -0.758   1.165  0.00  0.00    +0.037 C 
BRANCH  10  16
ATOM     16  C   UNL     1      -5.926  -0.799   0.166  0.00  0.00    +0.136 C 
BRANCH  16  18
ATOM     17  O   UNL     1      -5.921   1.635   0.210  0.00  0.00    -0.250 OA
ATOM     18  C   UNL     1      -6.546   0.584   0.204  0.00  0.00    +0.318 C 
BRANCH  18  19
ATOM     19  O   UNL     1      -7.903   0.530   0.232  0.00  0.00    -0.480 OA
ATOM     20  H   UNL     1      -8.339  -0.300   0.226  0.00  0.00    +0.295 HD
ENDBRANCH  18  19
ENDBRANCH  16  18
ENDBRANCH  10  16
ENDBRANCH   9  11
ENDBRANCH   8   9
ENDBRANCH   1   8
BRANCH   4  21
ATOM     21  N   UNL     1       5.889   0.304  -0.523  0.00  0.00    -0.214 NA
BRANCH  21  24
ATOM     22  N   UNL     1       7.927  -0.385   0.387  0.00  0.00    -0.370 N 
ATOM     23  N   UNL     1       6.037  -0.920   1.549  0.00  0.00    -0.370 N 
ATOM     24  C   UNL     1       6.555  -0.304   0.430  0.00  0.00    +0.193 C 
ATOM     25  H   UNL     1       8.420   0.017  -0.364  0.00  0.00    +0.159 HD
ATOM     26  H   UNL     1       8.416  -0.844   1.107  0.00  0.00    +0.159 HD
ATOM     27  H   UNL     1       5.064  -0.932   1.698  0.00  0.00    +0.159 HD
ATOM     28  H   UNL     1       6.640  -1.347   2.199  0.00  0.00    +0.159 HD
ENDBRANCH  21  24
ENDBRANCH   4  21
TORSDOF 8
