130324
  -OEChem-03292013323D

 42 43  0     1  0  0  0  0  0999 V2000
    2.9357    0.1451   -0.8785 O   0  0  0  0  0  0  0  0  0  0  0  0
    4.0235    2.8396    0.0851 O   0  0  0  0  0  0  0  0  0  0  0  0
    4.5989   -1.8979    0.0774 O   0  0  0  0  0  0  0  0  0  0  0  0
   -0.7689    1.7916   -1.1017 O   0  0  0  0  0  0  0  0  0  0  0  0
   -3.8189   -0.2340    1.2291 O   0  0  0  0  0  0  0  0  0  0  0  0
   -2.5257   -2.4338   -0.1926 O   0  0  0  0  0  0  0  0  0  0  0  0
   -5.7265    1.7829    1.1375 O   0  0  0  0  0  0  0  0  0  0  0  0
    0.6416    0.0797   -0.4225 N   0  0  0  0  0  0  0  0  0  0  0  0
   -1.6911   -0.2989   -0.6520 N   0  0  0  0  0  0  0  0  0  0  0  0
    1.7973    0.9256   -0.4878 C   0  0  1  0  0  0  0  0  0  0  0  0
    2.1290    1.5744    0.8461 C   0  0  0  0  0  0  0  0  0  0  0  0
    3.6366    1.6673    0.7986 C   0  0  1  0  0  0  0  0  0  0  0  0
    4.0337    0.4266    0.0109 C   0  0  1  0  0  0  0  0  0  0  0  0
    4.2445   -0.7951    0.8957 C   0  0  0  0  0  0  0  0  0  0  0  0
   -0.6113    0.6178   -0.7516 C   0  0  0  0  0  0  0  0  0  0  0  0
    0.7995   -1.2319   -0.0394 C   0  0  0  0  0  0  0  0  0  0  0  0
   -0.2081   -2.1037    0.0548 C   0  0  0  0  0  0  0  0  0  0  0  0
   -3.0136    0.2209   -0.9843 C   0  0  0  0  0  0  0  0  0  0  0  0
   -1.5853   -1.6443   -0.2698 C   0  0  0  0  0  0  0  0  0  0  0  0
   -3.7303    0.7954    0.2398 C   0  0  1  0  0  0  0  0  0  0  0  0
   -0.0227   -3.5285    0.4724 C   0  0  0  0  0  0  0  0  0  0  0  0
   -5.1381    1.3015   -0.0670 C   0  0  0  0  0  0  0  0  0  0  0  0
    1.6620    1.6957   -1.2567 H   0  0  0  0  0  0  0  0  0  0  0  0
    1.8239    0.9353    1.6835 H   0  0  0  0  0  0  0  0  0  0  0  0
    1.6279    2.5410    0.9585 H   0  0  0  0  0  0  0  0  0  0  0  0
    4.0893    1.7218    1.7932 H   0  0  0  0  0  0  0  0  0  0  0  0
    4.9164    0.5924   -0.6166 H   0  0  0  0  0  0  0  0  0  0  0  0
    3.3669   -1.0624    1.4885 H   0  0  0  0  0  0  0  0  0  0  0  0
    5.0712   -0.6195    1.5915 H   0  0  0  0  0  0  0  0  0  0  0  0
    1.7932   -1.5755    0.1952 H   0  0  0  0  0  0  0  0  0  0  0  0
    4.9946    2.8403    0.0328 H   0  0  0  0  0  0  0  0  0  0  0  0
   -2.9306    0.9884   -1.7622 H   0  0  0  0  0  0  0  0  0  0  0  0
   -3.6097   -0.5992   -1.4028 H   0  0  0  0  0  0  0  0  0  0  0  0
   -3.1457    1.6085    0.6869 H   0  0  0  0  0  0  0  0  0  0  0  0
    3.8939   -2.0178   -0.5811 H   0  0  0  0  0  0  0  0  0  0  0  0
    1.0258   -3.7600    0.6879 H   0  0  0  0  0  0  0  0  0  0  0  0
   -0.3557   -4.2059   -0.3207 H   0  0  0  0  0  0  0  0  0  0  0  0
   -0.6017   -3.7401    1.3773 H   0  0  0  0  0  0  0  0  0  0  0  0
   -5.7699    0.4898   -0.4422 H   0  0  0  0  0  0  0  0  0  0  0  0
   -5.1135    2.1139   -0.7995 H   0  0  0  0  0  0  0  0  0  0  0  0
   -2.9207   -0.3928    1.5655 H   0  0  0  0  0  0  0  0  0  0  0  0
   -6.6189    2.0966    0.9122 H   0  0  0  0  0  0  0  0  0  0  0  0
  1 10  1  0  0  0  0
  1 13  1  0  0  0  0
  2 12  1  0  0  0  0
  2 31  1  0  0  0  0
  3 14  1  0  0  0  0
  3 35  1  0  0  0  0
  4 15  2  0  0  0  0
  5 20  1  0  0  0  0
  5 41  1  0  0  0  0
  6 19  2  0  0  0  0
  7 22  1  0  0  0  0
  7 42  1  0  0  0  0
  8 10  1  0  0  0  0
  8 15  1  0  0  0  0
  8 16  1  0  0  0  0
  9 15  1  0  0  0  0
  9 18  1  0  0  0  0
  9 19  1  0  0  0  0
 10 11  1  0  0  0  0
 10 23  1  0  0  0  0
 11 12  1  0  0  0  0
 11 24  1  0  0  0  0
 11 25  1  0  0  0  0
 12 13  1  0  0  0  0
 12 26  1  0  0  0  0
 13 14  1  0  0  0  0
 13 27  1  0  0  0  0
 14 28  1  0  0  0  0
 14 29  1  0  0  0  0
 16 17  2  0  0  0  0
 16 30  1  0  0  0  0
 17 19  1  0  0  0  0
 17 21  1  0  0  0  0
 18 20  1  0  0  0  0
 18 32  1  0  0  0  0
 18 33  1  0  0  0  0
 20 22  1  0  0  0  0
 20 34  1  0  0  0  0
 21 36  1  0  0  0  0
 21 37  1  0  0  0  0
 21 38  1  0  0  0  0
 22 39  1  0  0  0  0
 22 40  1  0  0  0  0
M  END
> <PUBCHEM_COMPOUND_CID>
130324

> <PUBCHEM_CONFORMER_RMSD>
0.8

> <PUBCHEM_CONFORMER_DIVERSEORDER>
4
66
81
70
71
48
58
74
77
76
67
80
24
39
79
33
62
75
44
30
46
61
41
60
10
42
69
64
63
38
49
55
36
43
28
59
17
73
52
34
78
5
68
26
20
11
31
32
57
45
65
54
51
40
18
27
19
12
53
16
37
50
14
1
21
9
47
8
35
7
56
29
25
72
3
22
15
23
6
13
2

> <PUBCHEM_MMFF94_PARTIAL_CHARGES>
26
1 -0.56
10 0.58
12 0.28
13 0.28
14 0.28
15 0.69
16 -0.04
17 -0.12
18 0.3
19 0.62
2 -0.68
20 0.28
21 0.14
22 0.28
3 -0.68
30 0.15
31 0.4
35 0.4
4 -0.57
41 0.4
42 0.4
5 -0.68
6 -0.57
7 -0.68
8 -0.47
9 -0.42

> <PUBCHEM_EFFECTIVE_ROTOR_COUNT>
6

> <PUBCHEM_PHARMACOPHORE_FEATURES>
13
1 1 acceptor
1 2 acceptor
1 2 donor
1 3 acceptor
1 3 donor
1 4 acceptor
1 5 acceptor
1 5 donor
1 6 acceptor
1 7 acceptor
1 7 donor
5 1 10 11 12 13 rings
6 8 9 15 16 17 19 rings

> <PUBCHEM_HEAVY_ATOM_COUNT>
22

> <PUBCHEM_ATOM_DEF_STEREO_COUNT>
3

> <PUBCHEM_ATOM_UDEF_STEREO_COUNT>
1

> <PUBCHEM_BOND_DEF_STEREO_COUNT>
0

> <PUBCHEM_BOND_UDEF_STEREO_COUNT>
0

> <PUBCHEM_ISOTOPIC_ATOM_COUNT>
0

> <PUBCHEM_COMPONENT_COUNT>
1

> <PUBCHEM_CACTVS_TAUTO_COUNT>
1

> <PUBCHEM_CONFORMER_ID>
0001FD1400000004

> <PUBCHEM_MMFF94_ENERGY>
48.4271

> <PUBCHEM_FEATURE_SELFOVERLAP>
65.992

> <PUBCHEM_SHAPE_FINGERPRINT>
10411042 1 17402330369983814847
10493431 412 18410294752675436581
10616163 171 17975690907755439350
11089746 13 18059565842220549157
11405975 8 18412821417363230634
12390115 104 18268726063335902573
12592029 89 18262236599410920611
12633257 1 18411125940526665098
13140716 1 18407758140257900683
13583140 156 15626213663181042670
13675066 3 17894909650322052820
14178342 30 17903347444888880962
14790565 3 18409736140212327125
15196674 1 18410289246015575823
15209294 21 18341896311865048985
15295992 7 18271804657033014505
17804303 29 18408882941285878046
18186145 218 18412539929517572420
19591789 44 18336542703433375934
19784866 170 18187932742283588245
19784866 9 18340769230683866849
20261772 1 18259987097604854025
204376 136 18410011057168874981
20510252 161 18196933494470658099
20739085 24 18188219714391624764
20832881 197 18270405967095793566
21452121 103 18193275192089376997
21501502 16 18267856362871179022
21524375 3 18343863303686095823
21731228 192 18335983150947006123
22182313 1 17752479868017229551
23184049 59 18334575737223825548
23503953 91 18341038688431734568
23558518 356 18191868040033089463
23559900 14 18341890819018505012
2748010 2 18334297586663091823
314194 84 8358247164433188333
335352 9 18411416177252789430
350125 39 18335702676840119884
4340502 62 18340495491497059539
465052 167 17240495679899119449
474 4 18343018865870931945
495365 180 17632569479302425018
5104073 3 18263071258123024296
58807428 26 18261664922131484962
633830 44 18272366481668081068
81228 2 17756131641958828167
9709674 26 18265608965562918206
9981440 41 16480178106282055112

> <PUBCHEM_SHAPE_MULTIPOLES>
401.7
9.92
3.04
0.99
4.17
1.81
0.07
-5.4
2.77
-0.63
0.45
0.35
-0.24
-0.28

> <PUBCHEM_SHAPE_SELFOVERLAP>
832.865

> <PUBCHEM_SHAPE_VOLUME>
229.2

> <PUBCHEM_COORDINATE_TYPE>
2
5
10

$$$$
