REMARK  Name = 130332
REMARK  9 active torsions:
REMARK  status: ('A' for Active; 'I' for Inactive)
REMARK    1  A    between atoms: N_3  and  C_10
REMARK    2  A    between atoms: C_5  and  C_21
REMARK    3  A    between atoms: C_10  and  O_11
REMARK    4  A    between atoms: O_11  and  C_12
REMARK    5  A    between atoms: C_12  and  C_13
REMARK    6  A    between atoms: C_12  and  C_18
REMARK    7  A    between atoms: C_13  and  N_14
REMARK    8  A    between atoms: C_18  and  O_19
REMARK    9  A    between atoms: C_21  and  C_22
REMARK                            x       y       z     vdW  Elec       q    Type
REMARK                         _______ _______ _______ _____ _____    ______ ____
ROOT
ATOM      1  O   UNL     1      -1.706  -3.176   0.987  0.00  0.00    -0.252 OA
ATOM      2  O   UNL     1       2.803  -2.643   0.256  0.00  0.00    -0.270 OA
ATOM      3  N   UNL     1      -0.999  -1.420  -0.377  0.00  0.00    -0.216 N 
ATOM      4  N   UNL     1       0.540  -2.898   0.614  0.00  0.00    -0.236 N 
ATOM      5  C   UNL     1       1.340  -1.095  -0.791  0.00  0.00    +0.051 C 
ATOM      6  C   UNL     1       0.058  -0.748  -0.957  0.00  0.00    +0.072 C 
ATOM      7  C   UNL     1      -0.801  -2.538   0.444  0.00  0.00    +0.315 C 
ATOM      8  C   UNL     1       1.648  -2.272   0.064  0.00  0.00    +0.250 C 
ATOM      9  H   UNL     1       0.716  -3.680   1.186  0.00  0.00    +0.159 HD
ENDROOT
BRANCH   3  10
ATOM     10  C   UNL     1      -2.346  -0.928  -0.646  0.00  0.00    +0.248 C 
BRANCH  10  11
ATOM     11  O   UNL     1      -2.686   0.029   0.346  0.00  0.00    -0.336 OA
BRANCH  11  12
ATOM     12  C   UNL     1      -4.005   0.525   0.161  0.00  0.00    +0.125 C 
BRANCH  12  13
ATOM     13  C   UNL     1      -4.291   1.545   1.266  0.00  0.00    -0.053 C 
BRANCH  13  14
ATOM     14  N   UNL     1      -5.650   2.064   1.193  0.00  0.00    +0.382 N 
ATOM     15  H   UNL     1      -5.797   2.738   1.945  0.00  0.00    -0.089 HD
ATOM     16  H   UNL     1      -6.313   1.296   1.290  0.00  0.00    -0.089 HD
ATOM     17  H   UNL     1      -5.790   2.523   0.293  0.00  0.00    -0.089 HD
ENDBRANCH  13  14
ENDBRANCH  12  13
BRANCH  12  18
ATOM     18  C   UNL     1      -4.114   1.111  -1.245  0.00  0.00    +0.164 C 
BRANCH  18  19
ATOM     19  O   UNL     1      -3.196   2.193  -1.365  0.00  0.00    -0.380 OA
ATOM     20  H   UNL     1      -3.257   2.572  -2.255  0.00  0.00    +0.211 HD
ENDBRANCH  18  19
ENDBRANCH  12  18
ENDBRANCH  11  12
ENDBRANCH  10  11
ENDBRANCH   3  10
BRANCH   5  21
ATOM     21  C   UNL     1       2.482  -0.365  -1.421  0.00  0.00    +0.059 C 
BRANCH  21  22
ATOM     22  C   UNL     1       3.006   0.747  -0.553  0.00  0.00    -0.018 C 
ATOM     23  C   UNL     1       4.019   0.484   0.358  0.00  0.00    -0.004 C 
ATOM     24  C   UNL     1       2.468   2.021  -0.675  0.00  0.00    -0.004 C 
ATOM     25  C   UNL     1       4.505   1.515   1.163  0.00  0.00    -0.000 C 
ATOM     26  C   UNL     1       2.953   3.052   0.130  0.00  0.00    -0.000 C 
ATOM     27  C   UNL     1       3.972   2.799   1.048  0.00  0.00    -0.000 C 
ENDBRANCH  21  22
ENDBRANCH   5  21
TORSDOF 9
