130458
  -OEChem-03292013323D

 50 51  0     1  0  0  0  0  0999 V2000
    5.5990   -1.3200   -0.4072 S   0  0  0  0  0  0  0  0  0  0  0  0
   -4.0783   -3.1409    0.7972 O   0  0  0  0  0  0  0  0  0  0  0  0
   -1.8861   -2.5426    0.9758 O   0  0  0  0  0  0  0  0  0  0  0  0
   -0.9376    2.9577   -1.2240 O   0  0  0  0  0  0  0  0  0  0  0  0
   -3.2475    1.6565   -1.0527 O   0  0  0  0  0  0  0  0  0  0  0  0
    6.2085   -0.8900   -1.6576 O   0  0  0  0  0  0  0  0  0  0  0  0
    6.4253   -1.4823    0.7812 O   0  0  0  0  0  0  0  0  0  0  0  0
   -2.2816   -0.2220   -0.0909 N   0  0  0  0  0  0  0  0  0  0  0  0
   -1.2682    2.5758    1.6191 N   0  0  0  0  0  0  0  0  0  0  0  0
   -3.4890   -1.0002    0.0250 C   0  0  0  0  0  0  0  0  0  0  0  0
   -4.1440   -1.2274   -1.3459 C   0  0  0  0  0  0  0  0  0  0  0  0
   -4.5458   -0.3077    0.8991 C   0  0  0  0  0  0  0  0  0  0  0  0
   -5.6264   -0.9468   -1.1287 C   0  0  0  0  0  0  0  0  0  0  0  0
   -5.6266    0.1456   -0.0750 C   0  0  0  0  0  0  0  0  0  0  0  0
   -3.0354   -2.2881    0.6477 C   0  0  0  0  0  0  0  0  0  0  0  0
   -2.2627    1.0565   -0.6267 C   0  0  0  0  0  0  0  0  0  0  0  0
   -0.8681    1.6777   -0.6132 C   0  0  2  0  0  0  0  0  0  0  0  0
   -0.3088    1.8011    0.8200 C   0  0  1  0  0  0  0  0  0  0  0  0
    1.0849    2.4687    0.8550 C   0  0  0  0  0  0  0  0  0  0  0  0
    2.2157    1.5179    0.5387 C   0  0  0  0  0  0  0  0  0  0  0  0
    2.8243    0.8215    1.5697 C   0  0  0  0  0  0  0  0  0  0  0  0
    2.6226    1.3624   -0.7763 C   0  0  0  0  0  0  0  0  0  0  0  0
    4.2908   -0.2230   -0.0414 C   0  0  0  0  0  0  0  0  0  0  0  0
    3.8693   -0.0551    1.2776 C   0  0  0  0  0  0  0  0  0  0  0  0
    3.6676    0.4858   -1.0683 C   0  0  0  0  0  0  0  0  0  0  0  0
    4.7979   -2.8811   -0.6981 C   0  0  0  0  0  0  0  0  0  0  0  0
   -3.7588   -0.5558   -2.1211 H   0  0  0  0  0  0  0  0  0  0  0  0
   -3.9997   -2.2448   -1.7279 H   0  0  0  0  0  0  0  0  0  0  0  0
   -4.9906   -0.9919    1.6318 H   0  0  0  0  0  0  0  0  0  0  0  0
   -4.1526    0.5425    1.4678 H   0  0  0  0  0  0  0  0  0  0  0  0
   -6.1281   -0.6363   -2.0497 H   0  0  0  0  0  0  0  0  0  0  0  0
   -6.1330   -1.8425   -0.7505 H   0  0  0  0  0  0  0  0  0  0  0  0
   -6.6002    0.2232    0.4199 H   0  0  0  0  0  0  0  0  0  0  0  0
   -5.4163    1.1225   -0.5140 H   0  0  0  0  0  0  0  0  0  0  0  0
   -1.3992   -0.6429    0.1866 H   0  0  0  0  0  0  0  0  0  0  0  0
   -0.2157    1.0443   -1.2243 H   0  0  0  0  0  0  0  0  0  0  0  0
   -0.2412    0.8099    1.2829 H   0  0  0  0  0  0  0  0  0  0  0  0
    1.1312    3.3407    0.1900 H   0  0  0  0  0  0  0  0  0  0  0  0
    1.2720    2.8770    1.8588 H   0  0  0  0  0  0  0  0  0  0  0  0
   -3.8018   -3.9905    1.2023 H   0  0  0  0  0  0  0  0  0  0  0  0
   -0.9171    2.6761    2.5709 H   0  0  0  0  0  0  0  0  0  0  0  0
   -1.3386    3.5213    1.2439 H   0  0  0  0  0  0  0  0  0  0  0  0
   -1.1797    2.8241   -2.1564 H   0  0  0  0  0  0  0  0  0  0  0  0
    2.5005    0.9423    2.5995 H   0  0  0  0  0  0  0  0  0  0  0  0
    2.1464    1.9123   -1.5828 H   0  0  0  0  0  0  0  0  0  0  0  0
    4.3360   -0.6024    2.0918 H   0  0  0  0  0  0  0  0  0  0  0  0
    3.9751    0.3664   -2.1033 H   0  0  0  0  0  0  0  0  0  0  0  0
    4.2655   -3.1814    0.2063 H   0  0  0  0  0  0  0  0  0  0  0  0
    5.5678   -3.6173   -0.9391 H   0  0  0  0  0  0  0  0  0  0  0  0
    4.1086   -2.7754   -1.5379 H   0  0  0  0  0  0  0  0  0  0  0  0
  1  6  2  0  0  0  0
  1  7  2  0  0  0  0
  1 23  1  0  0  0  0
  1 26  1  0  0  0  0
  2 15  1  0  0  0  0
  2 40  1  0  0  0  0
  3 15  2  0  0  0  0
  4 17  1  0  0  0  0
  4 43  1  0  0  0  0
  5 16  2  0  0  0  0
  8 10  1  0  0  0  0
  8 16  1  0  0  0  0
  8 35  1  0  0  0  0
  9 18  1  0  0  0  0
  9 41  1  0  0  0  0
  9 42  1  0  0  0  0
 10 11  1  0  0  0  0
 10 12  1  0  0  0  0
 10 15  1  0  0  0  0
 11 13  1  0  0  0  0
 11 27  1  0  0  0  0
 11 28  1  0  0  0  0
 12 14  1  0  0  0  0
 12 29  1  0  0  0  0
 12 30  1  0  0  0  0
 13 14  1  0  0  0  0
 13 31  1  0  0  0  0
 13 32  1  0  0  0  0
 14 33  1  0  0  0  0
 14 34  1  0  0  0  0
 16 17  1  0  0  0  0
 17 18  1  0  0  0  0
 17 36  1  0  0  0  0
 18 19  1  0  0  0  0
 18 37  1  0  0  0  0
 19 20  1  0  0  0  0
 19 38  1  0  0  0  0
 19 39  1  0  0  0  0
 20 21  2  0  0  0  0
 20 22  1  0  0  0  0
 21 24  1  0  0  0  0
 21 44  1  0  0  0  0
 22 25  2  0  0  0  0
 22 45  1  0  0  0  0
 23 24  2  0  0  0  0
 23 25  1  0  0  0  0
 24 46  1  0  0  0  0
 25 47  1  0  0  0  0
 26 48  1  0  0  0  0
 26 49  1  0  0  0  0
 26 50  1  0  0  0  0
M  END
> <PUBCHEM_COMPOUND_CID>
130458

> <PUBCHEM_CONFORMER_RMSD>
1

> <PUBCHEM_CONFORMER_DIVERSEORDER>
1
124
71
70
23
112
55
81
113
30
129
65
116
10
39
117
121
45
133
144
29
141
130
4
58
63
109
15
26
16
97
86
69
99
74
123
11
72
17
98
93
25
78
40
51
79
50
7
38
5
19
76
87
96
137
84
101
13
60
53
128
14
44
62
115
49
54
145
36
88
110
66
28
37
73
131
125
85
34
126
104
68
56
108
77
94
89
2
127
135
18
67
32
33
43
91
92
82
119
20
21
120
3
95
64
147
114
142
12
149
111
22
42
47
8
132
103
148
139
59
35
52
118
80
24
57
90
122
106
75
27
138
105
102
46
31
9
134
6
61
136
146
107
83
143
100
48
140
41

> <PUBCHEM_MMFF94_PARTIAL_CHARGES>
31
1 1.2
10 0.36
15 0.66
16 0.57
17 0.34
18 0.27
19 0.14
2 -0.65
20 -0.14
21 -0.15
22 -0.15
23 -0.01
24 -0.15
25 -0.15
26 0.11
3 -0.57
35 0.37
4 -0.68
40 0.5
41 0.36
42 0.36
43 0.4
44 0.15
45 0.15
46 0.15
47 0.15
5 -0.57
6 -0.65
7 -0.65
8 -0.73
9 -0.99

> <PUBCHEM_EFFECTIVE_ROTOR_COUNT>
9

> <PUBCHEM_PHARMACOPHORE_FEATURES>
13
1 2 acceptor
1 3 acceptor
1 4 acceptor
1 4 donor
1 5 acceptor
1 6 acceptor
1 7 acceptor
1 8 donor
1 9 cation
1 9 donor
3 2 3 15 anion
5 10 11 12 13 14 rings
6 20 21 22 23 24 25 rings

> <PUBCHEM_HEAVY_ATOM_COUNT>
26

> <PUBCHEM_ATOM_DEF_STEREO_COUNT>
2

> <PUBCHEM_ATOM_UDEF_STEREO_COUNT>
0

> <PUBCHEM_BOND_DEF_STEREO_COUNT>
0

> <PUBCHEM_BOND_UDEF_STEREO_COUNT>
0

> <PUBCHEM_ISOTOPIC_ATOM_COUNT>
0

> <PUBCHEM_COMPONENT_COUNT>
1

> <PUBCHEM_CACTVS_TAUTO_COUNT>
2

> <PUBCHEM_CONFORMER_ID>
0001FD9A00000001

> <PUBCHEM_MMFF94_ENERGY>
53.029

> <PUBCHEM_FEATURE_SELFOVERLAP>
66.057

> <PUBCHEM_SHAPE_FINGERPRINT>
10928967 22 18261108637951781963
11796584 16 18114733923452290099
12107183 9 17988655047447864601
12596602 18 15051726516884900758
12633257 1 15482662499032358440
12760667 363 18342739606896963789
13103583 49 17203338809461372377
13402501 40 18413389817456590534
13533116 47 17984416606395248969
13583140 156 15983127339885943145
13914758 101 17203890743868300985
14251740 79 18335703806147084315
14251751 18 18334857234160805762
14251764 30 18115600364785987571
14420673 8 18408327696435402435
14866123 147 18198630943293480809
14910302 57 18261663848347430308
14931854 50 18261109617584035774
15052358 14 18260535715774583517
15183329 4 18259706692423575578
15188451 53 16200138950650756661
15352361 1 18412826884872545962
15510800 12 18338228396556474691
15537594 2 17603580842050633195
15927050 60 17836078975752041301
193927 3 18411701010482468536
20403669 9 18343585131460199006
20775530 9 18265895757382035102
21279426 13 18410000049442008589
21307412 95 18335978744785515951
21315763 87 17489577987726050870
21403212 168 18271536287146457145
23379529 103 18408609188380797042
23559900 14 18262514921881622740
3004659 81 18186799201519026168
3027735 51 18340205176913495851
329604 57 18410579475000753558
3472631 163 10809351035526759656
437815 12 18273495680189064345
44062 13 18336263535176129395
463206 1 18342452690239556374
474144 1 17315052403838213562
508706 21 18334854974570437871
57307002 29 17531528797195646287
59755656 215 18410008793320638142
59755656 520 18125160433775088249
7808743 9 8502361227243163940
7970288 3 18273210906751550934
9862886 166 18408603648242029418

> <PUBCHEM_SHAPE_MULTIPOLES>
493.74
14.82
3.29
1.45
7.19
0.46
-0.01
11.17
2.6
-0.3
-0.4
0.27
-0.18
1.15

> <PUBCHEM_SHAPE_SELFOVERLAP>
1020.264

> <PUBCHEM_SHAPE_VOLUME>
283.4

> <PUBCHEM_COORDINATE_TYPE>
2
5
10

$$$$
