130474
  -OEChem-03292013323D

 29 31  0     1  0  0  0  0  0999 V2000
    1.2402    1.1823   -0.6794 S   0  0  0  0  0  0  0  0  0  0  0  0
    1.8425   -1.4458    0.6180 S   0  0  0  0  0  0  0  0  0  0  0  0
    1.4756    0.5050   -1.9466 O   0  0  0  0  0  0  0  0  0  0  0  0
    1.5476    2.6001   -0.5498 O   0  0  0  0  0  0  0  0  0  0  0  0
    4.2187    1.5636    0.2201 O   0  0  0  0  0  0  0  0  0  0  0  0
    3.9039   -3.0433    0.2842 O   0  0  0  0  0  0  0  0  0  0  0  0
    4.2674   -0.7483    0.2278 N   0  0  0  0  0  0  0  0  0  0  0  0
    2.1721    0.3334    0.5754 C   0  0  1  0  0  0  0  0  0  0  0  0
   -0.4271    0.9217   -0.2319 C   0  0  0  0  0  0  0  0  0  0  0  0
   -1.1147   -0.1896   -0.7206 C   0  0  0  0  0  0  0  0  0  0  0  0
   -2.4565   -0.4128   -0.3711 C   0  0  0  0  0  0  0  0  0  0  0  0
    3.6505    0.4821    0.3267 C   0  0  0  0  0  0  0  0  0  0  0  0
   -1.0700    1.8235    0.6109 C   0  0  0  0  0  0  0  0  0  0  0  0
   -3.1102    0.5043    0.4861 C   0  0  0  0  0  0  0  0  0  0  0  0
   -2.4028    1.6175    0.9684 C   0  0  0  0  0  0  0  0  0  0  0  0
    3.5149   -1.8870    0.3489 C   0  0  0  0  0  0  0  0  0  0  0  0
   -3.1638   -1.5259   -0.8535 C   0  0  0  0  0  0  0  0  0  0  0  0
   -4.4521    0.2812    0.8355 C   0  0  0  0  0  0  0  0  0  0  0  0
   -4.4966   -1.7319   -0.4959 C   0  0  0  0  0  0  0  0  0  0  0  0
   -5.1396   -0.8301    0.3470 C   0  0  0  0  0  0  0  0  0  0  0  0
    1.9345    0.7801    1.5454 H   0  0  0  0  0  0  0  0  0  0  0  0
   -0.6174   -0.8942   -1.3841 H   0  0  0  0  0  0  0  0  0  0  0  0
   -0.5514    2.6917    1.0078 H   0  0  0  0  0  0  0  0  0  0  0  0
   -2.8849    2.3346    1.6297 H   0  0  0  0  0  0  0  0  0  0  0  0
    5.2669   -0.8080    0.0619 H   0  0  0  0  0  0  0  0  0  0  0  0
   -2.6817   -2.2441   -1.5134 H   0  0  0  0  0  0  0  0  0  0  0  0
   -4.9745    0.9731    1.4929 H   0  0  0  0  0  0  0  0  0  0  0  0
   -5.0323   -2.5969   -0.8759 H   0  0  0  0  0  0  0  0  0  0  0  0
   -6.1771   -0.9912    0.6249 H   0  0  0  0  0  0  0  0  0  0  0  0
  1  3  2  0  0  0  0
  1  4  2  0  0  0  0
  1  8  1  0  0  0  0
  1  9  1  0  0  0  0
  2  8  1  0  0  0  0
  2 16  1  0  0  0  0
  5 12  2  0  0  0  0
  6 16  2  0  0  0  0
  7 12  1  0  0  0  0
  7 16  1  0  0  0  0
  7 25  1  0  0  0  0
  8 12  1  0  0  0  0
  8 21  1  0  0  0  0
  9 10  2  0  0  0  0
  9 13  1  0  0  0  0
 10 11  1  0  0  0  0
 10 22  1  0  0  0  0
 11 14  1  0  0  0  0
 11 17  2  0  0  0  0
 13 15  2  0  0  0  0
 13 23  1  0  0  0  0
 14 15  1  0  0  0  0
 14 18  2  0  0  0  0
 15 24  1  0  0  0  0
 17 19  1  0  0  0  0
 17 26  1  0  0  0  0
 18 20  1  0  0  0  0
 18 27  1  0  0  0  0
 19 20  2  0  0  0  0
 19 28  1  0  0  0  0
 20 29  1  0  0  0  0
M  END
> <PUBCHEM_COMPOUND_CID>
130474

> <PUBCHEM_CONFORMER_RMSD>
0.6

> <PUBCHEM_CONFORMER_DIVERSEORDER>
2
5
12
8
3
9
10
7
4
6
1
11

> <PUBCHEM_MMFF94_PARTIAL_CHARGES>
26
1 1.2
10 -0.15
12 0.57
13 -0.15
15 -0.15
16 0.77
17 -0.15
18 -0.15
19 -0.15
2 -0.37
20 -0.15
22 0.15
23 0.15
24 0.15
25 0.37
26 0.15
27 0.15
28 0.15
29 0.15
3 -0.65
4 -0.65
5 -0.57
6 -0.57
7 -0.49
8 0.4
9 -0.01

> <PUBCHEM_EFFECTIVE_ROTOR_COUNT>
2.6

> <PUBCHEM_PHARMACOPHORE_FEATURES>
7
1 3 acceptor
1 4 acceptor
1 5 acceptor
1 7 donor
5 2 7 8 12 16 rings
6 11 14 17 18 19 20 rings
6 9 10 11 13 14 15 rings

> <PUBCHEM_HEAVY_ATOM_COUNT>
20

> <PUBCHEM_ATOM_DEF_STEREO_COUNT>
0

> <PUBCHEM_ATOM_UDEF_STEREO_COUNT>
1

> <PUBCHEM_BOND_DEF_STEREO_COUNT>
0

> <PUBCHEM_BOND_UDEF_STEREO_COUNT>
0

> <PUBCHEM_ISOTOPIC_ATOM_COUNT>
0

> <PUBCHEM_COMPONENT_COUNT>
1

> <PUBCHEM_CACTVS_TAUTO_COUNT>
3

> <PUBCHEM_CONFORMER_ID>
0001FDAA00000002

> <PUBCHEM_MMFF94_ENERGY>
35.9663

> <PUBCHEM_FEATURE_SELFOVERLAP>
35.567

> <PUBCHEM_SHAPE_FINGERPRINT>
10062212 137 18272931657200596775
10616163 171 18270400632372190551
11578080 2 18264185015926342373
11806522 49 18334856134285025216
12107183 9 17838060307866950953
12236239 1 18411985792541779517
12596602 18 17418091052959953274
12633257 1 16272199808421048467
12839892 36 17418092135534532559
12892183 10 17988631966113767240
13167823 11 18413671300927926379
13533116 47 18411698811765129219
13544653 18 18259984851157610150
13583140 156 18058710464601683344
13675066 3 18260268547091452777
14123255 52 9871745801833419759
14251764 30 18055926385876838462
14252887 29 18186799184333895360
14341114 176 18343588433968192202
14341114 328 18201438125016806272
14420673 8 17696763164073320318
14787075 74 18128532867796704400
14863182 85 18334018324142891822
15196674 1 18411417293590715291
15375462 189 18343017817561412121
17492 89 18411700967591227059
1813 80 17749393641514262844
18186145 218 14635144672940902885
19422 9 18341892957268698722
200 152 18335979856991627801
20291156 8 18410007693750533410
20645477 70 17749108949659898429
21065198 48 18343586226444666433
21267235 1 18411989039774471154
21673915 165 18411979174086912306
2255824 54 18117566338615616212
22620623 9 16734665256719470356
22646028 28 18410573994005253315
23366157 5 17910672400049217001
23557571 272 17060072423156543137
23559900 14 18341606005955634048
3298306 158 13626108588254893310
4072396 5 17847066571662781183
46194498 28 17168420584122733519
5104073 3 18271806791684404667
7097593 13 18342454837611784844
90316 7 18272099270942957121
9709674 26 18261115187966279411
9981440 41 17472134454494400793

> <PUBCHEM_SHAPE_MULTIPOLES>
390.83
9.91
2.46
1.06
2.03
0.54
-0.25
4.53
1.58
-1.7
0.11
0.11
-0.13
-1.23

> <PUBCHEM_SHAPE_SELFOVERLAP>
835.19

> <PUBCHEM_SHAPE_VOLUME>
216.1

> <PUBCHEM_COORDINATE_TYPE>
2
5
10

$$$$
