REMARK  Name = 130417
REMARK  5 active torsions:
REMARK  status: ('A' for Active; 'I' for Inactive)
REMARK    1  A    between atoms: N_4  and  C_16
REMARK    2  A    between atoms: C_6  and  O_24
REMARK    3  A    between atoms: C_17  and  C_21
REMARK    4  A    between atoms: C_21  and  O_22
REMARK    5  A    between atoms: O_24  and  C_25
REMARK                            x       y       z     vdW  Elec       q    Type
REMARK                         _______ _______ _______ _____ _____    ______ ____
ROOT
ATOM      1 BR   UNL     1      -1.565   1.258   2.629  0.00  0.00    -0.067 Br
ATOM      2  O   UNL     1      -0.941   2.470  -2.005  0.00  0.00    -0.252 OA
ATOM      3  O   UNL     1      -4.408   1.773   0.913  0.00  0.00    -0.274 OA
ATOM      4  N   UNL     1      -0.795   0.614  -0.609  0.00  0.00    -0.215 N 
ATOM      5  N   UNL     1      -2.707   1.994  -0.625  0.00  0.00    -0.239 N 
ATOM      6  C   UNL     1      -1.509  -0.329   0.245  0.00  0.00    +0.217 C 
ATOM      7  C   UNL     1      -1.435   1.732  -1.149  0.00  0.00    +0.313 C 
ATOM      8  C   UNL     1      -2.493   0.354   1.173  0.00  0.00    +0.180 C 
ATOM      9  C   UNL     1      -3.312   1.415   0.485  0.00  0.00    +0.244 C 
ATOM     10  H   UNL     1      -3.238   2.672  -1.101  0.00  0.00    +0.159 HD
ENDROOT
BRANCH   4  16
ATOM     11  O   UNL     1       0.650  -1.171  -0.977  0.00  0.00    -0.333 OA
ATOM     12  O   UNL     1       2.806   1.096  -0.784  0.00  0.00    -0.330 OA
ATOM     13  O   UNL     1       3.314  -0.153   1.135  0.00  0.00    -0.332 OA
ATOM     14  C   UNL     1       1.585   0.829  -0.090  0.00  0.00    +0.194 C 
ATOM     15  C   UNL     1       1.938  -0.313   0.817  0.00  0.00    +0.178 C 
ATOM     16  C   UNL     1       0.535   0.260  -1.021  0.00  0.00    +0.228 C 
ATOM     17  C   UNL     1       1.691  -1.534  -0.059  0.00  0.00    +0.176 C 
ATOM     18  C   UNL     1       3.835   0.764   0.159  0.00  0.00    +0.188 C 
ATOM     19  C   UNL     1       4.293   2.030   0.879  0.00  0.00    +0.061 C 
ATOM     20  C   UNL     1       4.996   0.115  -0.582  0.00  0.00    +0.061 C 
BRANCH  17  21
ATOM     21  C   UNL     1       1.260  -2.755   0.736  0.00  0.00    +0.169 C 
BRANCH  21  22
ATOM     22  O   UNL     1       1.046  -3.829  -0.164  0.00  0.00    -0.379 OA
ATOM     23  H   UNL     1       0.770  -4.615   0.332  0.00  0.00    +0.211 HD
ENDBRANCH  21  22
ENDBRANCH  17  21
ENDBRANCH   4  16
BRANCH   6  24
ATOM     24  O   UNL     1      -2.232  -1.242  -0.580  0.00  0.00    -0.336 OA
BRANCH  24  25
ATOM     25  C   UNL     1      -2.897  -2.225   0.198  0.00  0.00    +0.144 C 
ATOM     26  C   UNL     1      -3.656  -3.154  -0.726  0.00  0.00    +0.035 C 
ENDBRANCH  24  25
ENDBRANCH   6  24
TORSDOF 5
