130403
  -OEChem-03292013323D

 38 40  0     1  0  0  0  0  0999 V2000
    0.6132   -0.8279    0.2098 O   0  0  0  0  0  0  0  0  0  0  0  0
   -0.2494    2.7417   -0.0681 O   0  0  0  0  0  0  0  0  0  0  0  0
    2.4286    2.7964   -0.4308 O   0  0  0  0  0  0  0  0  0  0  0  0
    4.7582    1.6511   -0.3258 O   0  0  0  0  0  0  0  0  0  0  0  0
   -4.0411   -0.8175   -2.0554 O   0  0  0  0  0  0  0  0  0  0  0  0
   -4.4766    0.1430    2.6163 O   0  0  0  0  0  0  0  0  0  0  0  0
    4.8015   -3.0304    0.4499 O   0  0  0  0  0  0  0  0  0  0  0  0
   -5.6273   -0.5789    0.2029 O   0  0  0  0  0  0  0  0  0  0  0  0
   -0.0553    0.4051    0.5195 C   0  0  1  0  0  0  0  0  0  0  0  0
    0.3778    1.5237   -0.4298 C   0  0  2  0  0  0  0  0  0  0  0  0
   -1.5468    0.1414    0.4348 C   0  0  0  0  0  0  0  0  0  0  0  0
    1.8745    1.7101   -0.3108 C   0  0  0  0  0  0  0  0  0  0  0  0
    2.6535    0.4789   -0.0737 C   0  0  0  0  0  0  0  0  0  0  0  0
    1.9772   -0.7213    0.1567 C   0  0  0  0  0  0  0  0  0  0  0  0
   -2.1198   -0.2220   -0.7823 C   0  0  0  0  0  0  0  0  0  0  0  0
   -2.3391    0.2628    1.5744 C   0  0  0  0  0  0  0  0  0  0  0  0
    4.0503    0.5078   -0.1076 C   0  0  0  0  0  0  0  0  0  0  0  0
    2.7017   -1.9033    0.3191 C   0  0  0  0  0  0  0  0  0  0  0  0
   -3.4911   -0.4650   -0.8600 C   0  0  0  0  0  0  0  0  0  0  0  0
   -3.7105    0.0197    1.4967 C   0  0  0  0  0  0  0  0  0  0  0  0
    4.7689   -0.6743    0.0736 C   0  0  0  0  0  0  0  0  0  0  0  0
    4.0961   -1.8782    0.2818 C   0  0  0  0  0  0  0  0  0  0  0  0
   -4.2864   -0.3442    0.2794 C   0  0  0  0  0  0  0  0  0  0  0  0
   -3.1579   -0.9186   -3.1706 C   0  0  0  0  0  0  0  0  0  0  0  0
    0.1936    0.6766    1.5562 H   0  0  0  0  0  0  0  0  0  0  0  0
    0.1576    1.3013   -1.4801 H   0  0  0  0  0  0  0  0  0  0  0  0
   -1.4555   -0.3167   -1.6338 H   0  0  0  0  0  0  0  0  0  0  0  0
   -1.8918    0.5468    2.5237 H   0  0  0  0  0  0  0  0  0  0  0  0
    2.1751   -2.8404    0.4839 H   0  0  0  0  0  0  0  0  0  0  0  0
   -0.0086    3.4056   -0.7367 H   0  0  0  0  0  0  0  0  0  0  0  0
    5.8559   -0.6601    0.0456 H   0  0  0  0  0  0  0  0  0  0  0  0
    4.1616    2.4072   -0.4334 H   0  0  0  0  0  0  0  0  0  0  0  0
   -3.9090    0.4017    3.3625 H   0  0  0  0  0  0  0  0  0  0  0  0
    4.1783   -3.7654    0.5822 H   0  0  0  0  0  0  0  0  0  0  0  0
   -6.0130   -0.4468    1.0865 H   0  0  0  0  0  0  0  0  0  0  0  0
   -2.4162   -1.7120   -3.0281 H   0  0  0  0  0  0  0  0  0  0  0  0
   -2.6980    0.0460   -3.4112 H   0  0  0  0  0  0  0  0  0  0  0  0
   -3.7646   -1.2045   -4.0363 H   0  0  0  0  0  0  0  0  0  0  0  0
  1  9  1  0  0  0  0
  1 14  1  0  0  0  0
  2 10  1  0  0  0  0
  2 30  1  0  0  0  0
  3 12  2  0  0  0  0
  4 17  1  0  0  0  0
  4 32  1  0  0  0  0
  5 19  1  0  0  0  0
  5 24  1  0  0  0  0
  6 20  1  0  0  0  0
  6 33  1  0  0  0  0
  7 22  1  0  0  0  0
  7 34  1  0  0  0  0
  8 23  1  0  0  0  0
  8 35  1  0  0  0  0
  9 10  1  0  0  0  0
  9 11  1  0  0  0  0
  9 25  1  0  0  0  0
 10 12  1  0  0  0  0
 10 26  1  0  0  0  0
 11 15  1  0  0  0  0
 11 16  2  0  0  0  0
 12 13  1  0  0  0  0
 13 14  1  0  0  0  0
 13 17  2  0  0  0  0
 14 18  2  0  0  0  0
 15 19  2  0  0  0  0
 15 27  1  0  0  0  0
 16 20  1  0  0  0  0
 16 28  1  0  0  0  0
 17 21  1  0  0  0  0
 18 22  1  0  0  0  0
 18 29  1  0  0  0  0
 19 23  1  0  0  0  0
 20 23  2  0  0  0  0
 21 22  2  0  0  0  0
 21 31  1  0  0  0  0
 24 36  1  0  0  0  0
 24 37  1  0  0  0  0
 24 38  1  0  0  0  0
M  END
> <PUBCHEM_COMPOUND_CID>
130403

> <PUBCHEM_CONFORMER_RMSD>
0.6

> <PUBCHEM_CONFORMER_DIVERSEORDER>
1
8
13
15
11
3
9
6
7
16
12
4
14
5
10
2

> <PUBCHEM_MMFF94_PARTIAL_CHARGES>
33
1 -0.36
10 0.34
11 -0.14
12 0.42
13 0.09
14 0.08
15 -0.15
16 -0.15
17 0.08
18 -0.15
19 0.08
2 -0.68
20 0.08
21 -0.15
22 0.08
23 0.08
24 0.28
27 0.15
28 0.15
29 0.15
3 -0.57
30 0.4
31 0.15
32 0.45
33 0.45
34 0.45
35 0.45
4 -0.53
5 -0.36
6 -0.53
7 -0.53
8 -0.53
9 0.42

> <PUBCHEM_EFFECTIVE_ROTOR_COUNT>
2.6

> <PUBCHEM_PHARMACOPHORE_FEATURES>
12
1 1 acceptor
1 2 acceptor
1 2 donor
1 3 acceptor
1 4 donor
1 5 acceptor
1 6 donor
1 7 donor
1 8 donor
6 1 9 10 12 13 14 rings
6 11 15 16 19 20 23 rings
6 13 14 17 18 21 22 rings

> <PUBCHEM_HEAVY_ATOM_COUNT>
24

> <PUBCHEM_ATOM_DEF_STEREO_COUNT>
2

> <PUBCHEM_ATOM_UDEF_STEREO_COUNT>
0

> <PUBCHEM_BOND_DEF_STEREO_COUNT>
0

> <PUBCHEM_BOND_UDEF_STEREO_COUNT>
0

> <PUBCHEM_ISOTOPIC_ATOM_COUNT>
0

> <PUBCHEM_COMPONENT_COUNT>
1

> <PUBCHEM_CACTVS_TAUTO_COUNT>
998

> <PUBCHEM_CONFORMER_ID>
0001FD6300000001

> <PUBCHEM_MMFF94_ENERGY>
75.1529

> <PUBCHEM_FEATURE_SELFOVERLAP>
60.94

> <PUBCHEM_SHAPE_FINGERPRINT>
10062212 137 17917711322854464919
10319926 262 15482673425434616422
10369192 42 16954529383026152228
10622 236 17986363729155331623
11049842 53 14853816520013975025
12107183 9 17908998612058498753
12236239 1 18060142054879467041
12553582 1 18410015407997210478
12616971 3 18272088271040808978
12623949 98 17028291185843192115
13134695 92 18408038528813555540
13140716 1 18120942973727404688
13544653 18 18261396607197897260
13692114 37 17266395578557256665
13782708 43 17385730227068925387
14251757 17 17458057149272231529
14386348 63 17530687623486289099
14739800 52 16844998139369523424
15788980 27 18411133615190202191
15806764 133 17022624191033351453
15961568 22 14924803370104345086
17349148 13 18201998832696800358
17357779 13 18113610162566014964
1813 80 18269569259978955534
18186145 218 17095521773110082097
200 152 18411415094372150904
20511986 3 18060410322647451169
20645477 70 18187078468856231482
21033648 29 17531515572827188061
21065201 7 15791728598596490986
21267235 1 18337680724381668394
21641784 216 17823157656889093508
221357 26 18114452401790290533
22182313 1 17531239586660426148
23175994 123 17894917321497711845
23402539 116 18337950074227852658
23557571 272 14907913681811490689
23559900 14 16226596395696810514
23598288 3 18129662980971447153
34797466 226 15410621440402457120
46194498 28 17168427176554446551
5104073 3 18263364694715984464
5281201 14 17240203235454511942
573450 72 17346881152263947819
602551 16 15984819380363641126
621550 5 16951148243310781325
7064713 232 17131829824592197990
77492 1 17988930006673882105
7970288 3 18336265622230328298
9849439 229 14855215082035821863

> <PUBCHEM_SHAPE_MULTIPOLES>
446.95
11.19
2.24
1.76
0.88
0.46
0.72
-4.27
-0.88
-3.51
0.26
3.69
-0.48
-1.74

> <PUBCHEM_SHAPE_SELFOVERLAP>
989.633

> <PUBCHEM_SHAPE_VOLUME>
238.5

> <PUBCHEM_COORDINATE_TYPE>
2
5
10

$$$$
