REMARK  Name = 130475
REMARK  4 active torsions:
REMARK  status: ('A' for Active; 'I' for Inactive)
REMARK    1  A    between atoms: C_2  and  C_13
REMARK    2  A    between atoms: CA_5  and  C_10
REMARK    3  A    between atoms: C_10  and  O_11
REMARK    4  A    between atoms: C_13  and  C_18
REMARK                            x       y       z     vdW  Elec       q    Type
REMARK                         _______ _______ _______ _____ _____    ______ ____
ROOT
ATOM      1  N   UNL     1       2.817   1.018   0.178  0.00  0.00    +0.392 N 
ATOM      2  C   UNL     1      -0.108   1.063  -0.015  0.00  0.00    +0.011 C 
ATOM      3  C   UNL     1       0.713  -0.201  -0.298  0.00  0.00    -0.009 C 
ATOM      4  C   UNL     1       0.752   2.307  -0.267  0.00  0.00    -0.022 C 
ATOM      5  CA  UNL     1       2.034  -0.182   0.473  0.00  0.00    +0.040 C 
ATOM      6  C   UNL     1       2.070   2.234   0.502  0.00  0.00    -0.081 C 
ATOM      7  H1  UNL     1       3.050   1.026  -0.815  0.00  0.00    -0.084 HD
ATOM      8  H2  UNL     1       3.662   0.999   0.748  0.00  0.00    -0.084 HD
ENDROOT
BRANCH   5  10
ATOM      9  OXT UNL     1       3.987  -1.264  -0.448  0.00  0.00    -0.253 OA
ATOM     10  C   UNL     1       2.880  -1.346   0.063  0.00  0.00    +0.293 C 
BRANCH  10  11
ATOM     11  O   UNL     1       2.249  -2.515   0.333  0.00  0.00    -0.482 OA
ATOM     12  H   UNL     1       1.399  -2.508   0.727  0.00  0.00    +0.295 HD
ENDBRANCH  10  11
ENDBRANCH   5  10
BRANCH   2  13
ATOM     13  C   UNL     1      -1.378   1.093  -0.861  0.00  0.00    +0.102 C 
BRANCH  13  18
ATOM     14  N   UNL     1      -3.339   0.662   0.563  0.00  0.00    -0.114 NA
ATOM     15  N   UNL     1      -2.570  -1.080  -0.663  0.00  0.00    -0.091 NA
ATOM     16  N   UNL     1      -4.036  -0.471   0.726  0.00  0.00    -0.140 N 
ATOM     17  N   UNL     1      -3.616  -1.529   0.019  0.00  0.00    -0.022 NA
ATOM     18  C   UNL     1      -2.454   0.212  -0.305  0.00  0.00    +0.050 C 
ATOM     19  H   UNL     1      -4.811  -0.523   1.331  0.00  0.00    +0.197 HD
ENDBRANCH  13  18
ENDBRANCH   2  13
TORSDOF 4
