REMARK  Name = 130476800
REMARK  4 active torsions:
REMARK  status: ('A' for Active; 'I' for Inactive)
REMARK    1  A    between atoms: C_16  and  O_25
REMARK    2  A    between atoms: C_18  and  N_22
REMARK    3  A    between atoms: C_19  and  O_23
REMARK    4  A    between atoms: O_25  and  C_27
REMARK                            x       y       z     vdW  Elec       q    Type
REMARK                         _______ _______ _______ _____ _____    ______ ____
ROOT
ATOM      1  O   UNL     1      -5.504   1.843  -0.251  0.00  0.00    -0.296 OA
ATOM      2  C   UNL     1      -3.123  -0.603   0.396  0.00  0.00    +0.007 C 
ATOM      3  C   UNL     1      -3.469   0.548  -0.571  0.00  0.00    +0.052 C 
ATOM      4  C   UNL     1      -1.751  -1.196   0.082  0.00  0.00    +0.005 C 
ATOM      5  C   UNL     1      -0.678  -0.084   0.295  0.00  0.00    +0.025 C 
ATOM      6  C   UNL     1      -2.477   1.680  -0.324  0.00  0.00    +0.007 C 
ATOM      7  C   UNL     1      -4.363  -1.490   0.379  0.00  0.00    +0.008 C 
ATOM      8  C   UNL     1      -1.024   1.200  -0.509  0.00  0.00    +0.005 C 
ATOM      9  C   UNL     1      -1.405  -2.396   0.965  0.00  0.00    +0.005 C 
ATOM     10  C   UNL     1      -4.900   0.786  -0.124  0.00  0.00    +0.150 C 
ATOM     11  C   UNL     1      -5.509  -0.472   0.474  0.00  0.00    +0.064 C 
ATOM     12  C   UNL     1       0.732  -0.626   0.075  0.00  0.00    +0.010 C 
ATOM     13  C   UNL     1      -3.530   0.182  -2.066  0.00  0.00    +0.007 C 
ATOM     14  C   UNL     1      -0.086  -3.013   0.508  0.00  0.00    +0.026 C 
ATOM     15  C   UNL     1       1.000  -2.004   0.222  0.00  0.00    -0.020 C 
ATOM     16  C   UNL     1       1.810   0.237  -0.191  0.00  0.00    +0.169 C 
ATOM     17  C   UNL     1       2.310  -2.485   0.051  0.00  0.00    +0.034 C 
ATOM     18  C   UNL     1       3.108  -0.253  -0.351  0.00  0.00    +0.210 C 
ATOM     19  C   UNL     1       3.358  -1.614  -0.234  0.00  0.00    +0.159 C 
ENDROOT
BRANCH  18  22
ATOM     20  O   UNL     1       4.811   1.135   0.348  0.00  0.00    -0.126 OA
ATOM     21  O   UNL     1       4.481   0.890  -1.808  0.00  0.00    -0.126 OA
ATOM     22  N   UNL     1       4.189   0.637  -0.618  0.00  0.00    +0.064 N 
ENDBRANCH  18  22
BRANCH  19  23
ATOM     23  O   UNL     1       4.614  -2.122  -0.387  0.00  0.00    -0.504 OA
ATOM     24  H   UNL     1       4.760  -3.044  -0.304  0.00  0.00    +0.292 HD
ENDBRANCH  19  23
BRANCH  16  25
ATOM     25  O   UNL     1       1.679   1.594  -0.240  0.00  0.00    -0.423 OA
BRANCH  25  27
ATOM     26  O   UNL     1       2.141   1.678   2.053  0.00  0.00    -0.250 OA
ATOM     27  C   UNL     1       1.877   2.232   0.994  0.00  0.00    +0.322 C 
ATOM     28  C   UNL     1       1.712   3.714   0.835  0.00  0.00    +0.122 C 
ENDBRANCH  25  27
ENDBRANCH  16  25
TORSDOF 4
