REMARK  Name = 130400
REMARK  13 active torsions:
REMARK  status: ('A' for Active; 'I' for Inactive)
REMARK    1  A    between atoms: C_1  and  N_2
REMARK    2  A    between atoms: C_1  and  C_19
REMARK    3  A    between atoms: N_2  and  C_5
REMARK    4  A    between atoms: C_5  and  C_6
REMARK    5  A    between atoms: C_6  and  O_7
REMARK    6  A    between atoms: O_7  and  C_8
REMARK    7  A    between atoms: C_9  and  N_14
REMARK    8  A    between atoms: C_19  and  O_20
REMARK    9  A    between atoms: C_19  and  C_22
REMARK   10  A    between atoms: C_22  and  O_23
REMARK   11  A    between atoms: O_23  and  C_24
REMARK   12  A    between atoms: C_25  and  N_30
REMARK   13  A    between atoms: N_30  and  S_32
REMARK                            x       y       z     vdW  Elec       q    Type
REMARK                         _______ _______ _______ _____ _____    ______ ____
ROOT
ATOM      1  C   UNL     1       3.300  -3.519  -0.262  0.00  0.00    -0.048 C 
ENDROOT
BRANCH   1   2
ATOM      2  N   UNL     1       1.884  -3.214  -0.415  0.00  0.00    +0.388 N 
ATOM      3  H   UNL     1       1.716  -2.251  -0.124  0.00  0.00    -0.084 HD
ATOM      4  H   UNL     1       1.348  -3.861   0.163  0.00  0.00    -0.084 HD
BRANCH   2   5
ATOM      5  C   UNL     1       1.464  -3.373  -1.801  0.00  0.00    -0.033 C 
BRANCH   5   6
ATOM      6  C   UNL     1      -0.004  -3.012  -1.962  0.00  0.00    +0.182 C 
BRANCH   6   7
ATOM      7  O   UNL     1      -0.190  -1.664  -1.554  0.00  0.00    -0.478 OA
BRANCH   7   8
ATOM      8  C   UNL     1      -1.419  -1.337  -1.044  0.00  0.00    +0.139 C 
ATOM      9  C   UNL     1      -3.914  -0.672  -0.012  0.00  0.00    +0.057 C 
ATOM     10  C   UNL     1      -1.524  -0.328  -0.094  0.00  0.00    +0.038 C 
ATOM     11  C   UNL     1      -2.550  -2.017  -1.484  0.00  0.00    +0.038 C 
ATOM     12  C   UNL     1      -2.776   0.006   0.424  0.00  0.00    +0.018 C 
ATOM     13  C   UNL     1      -3.801  -1.683  -0.966  0.00  0.00    +0.018 C 
BRANCH   9  14
ATOM     14  N   UNL     1      -5.155  -0.341   0.501  0.00  0.00    -0.246 N 
ATOM     15  N   UNL     1      -6.702   0.703   1.721  0.00  0.00    -0.224 NA
ATOM     16  C   UNL     1      -6.356  -0.916   0.172  0.00  0.00    +0.092 C 
ATOM     17  C   UNL     1      -5.420   0.626   1.438  0.00  0.00    +0.172 C 
ATOM     18  C   UNL     1      -7.291  -0.256   0.935  0.00  0.00    +0.117 C 
ENDBRANCH   9  14
ENDBRANCH   7   8
ENDBRANCH   6   7
ENDBRANCH   5   6
ENDBRANCH   2   5
ENDBRANCH   1   2
BRANCH   1  19
ATOM     19  C   UNL     1       3.783  -3.303   1.174  0.00  0.00    +0.133 C 
BRANCH  19  20
ATOM     20  O   UNL     1       5.184  -3.587   1.222  0.00  0.00    -0.383 OA
ATOM     21  H   UNL     1       5.342  -4.489   0.903  0.00  0.00    +0.210 HD
ENDBRANCH  19  20
BRANCH  19  22
ATOM     22  C   UNL     1       3.557  -1.880   1.681  0.00  0.00    +0.232 C 
BRANCH  22  23
ATOM     23  O   UNL     1       4.293  -0.978   0.861  0.00  0.00    -0.473 OA
BRANCH  23  24
ATOM     24  C   UNL     1       3.769   0.277   0.702  0.00  0.00    +0.139 C 
ATOM     25  C   UNL     1       2.703   2.826   0.380  0.00  0.00    +0.065 C 
ATOM     26  C   UNL     1       4.004   0.979  -0.476  0.00  0.00    +0.038 C 
ATOM     27  C   UNL     1       3.006   0.839   1.720  0.00  0.00    +0.038 C 
ATOM     28  C   UNL     1       3.469   2.257  -0.637  0.00  0.00    +0.019 C 
ATOM     29  C   UNL     1       2.471   2.117   1.559  0.00  0.00    +0.019 C 
BRANCH  25  30
ATOM     30  N   UNL     1       2.157   4.135   0.216  0.00  0.00    -0.219 N 
ATOM     31  H   UNL     1       2.507   4.897   0.731  0.00  0.00    +0.173 HD
BRANCH  30  32
ATOM     32  S   UNL     1       0.869   4.344  -0.909  0.00  0.00    +0.056 S 
ATOM     33  O   UNL     1       0.655   5.766  -1.102  0.00  0.00    -0.154 OA
ATOM     34  O   UNL     1       1.028   3.462  -2.048  0.00  0.00    -0.154 OA
ATOM     35  C   UNL     1      -0.496   3.744   0.061  0.00  0.00    +0.200 C 
ENDBRANCH  30  32
ENDBRANCH  25  30
ENDBRANCH  23  24
ENDBRANCH  22  23
ENDBRANCH  19  22
ENDBRANCH   1  19
TORSDOF 13
