130421
  -OEChem-03292013323D

 32 34  0     1  0  0  0  0  0999 V2000
    0.6269    3.6436   -0.9756 Br  0  0  0  0  0  0  0  0  0  0  0  0
   -1.6198   -0.4191   -0.7461 O   0  0  0  0  0  0  0  0  0  0  0  0
   -1.0057    0.5338    2.1674 O   0  0  0  0  0  0  0  0  0  0  0  0
   -4.0079    1.2453    0.2919 O   0  0  0  0  0  0  0  0  0  0  0  0
   -3.3391   -2.4957   -1.4780 O   0  0  0  0  0  0  0  0  0  0  0  0
    0.3641    0.8209   -0.2841 N   0  0  0  0  0  0  0  0  0  0  0  0
    2.4715    1.5408   -0.4847 N   0  0  0  0  0  0  0  0  0  0  0  0
    0.7804   -1.5063    0.2797 N   0  0  0  0  0  0  0  0  0  0  0  0
    3.1710   -1.9891    0.3704 N   0  0  0  0  0  0  0  0  0  0  0  0
    4.8352   -0.3233   -0.0557 N   0  0  0  0  0  0  0  0  0  0  0  0
   -1.7413    1.1086    1.0931 C   0  0  1  0  0  0  0  0  0  0  0  0
   -1.0944    0.8337   -0.2659 C   0  0  2  0  0  0  0  0  0  0  0  0
   -3.0753    0.3989    0.9534 C   0  0  2  0  0  0  0  0  0  0  0  0
   -2.7104   -0.8205    0.1055 C   0  0  1  0  0  0  0  0  0  0  0  0
   -3.8325   -1.3843   -0.7477 C   0  0  0  0  0  0  0  0  0  0  0  0
    1.1672   -0.2595   -0.0293 C   0  0  0  0  0  0  0  0  0  0  0  0
    1.2004    1.8775   -0.5528 C   0  0  0  0  0  0  0  0  0  0  0  0
    2.4654    0.2079   -0.1583 C   0  0  0  0  0  0  0  0  0  0  0  0
    3.4885   -0.7104    0.0547 C   0  0  0  0  0  0  0  0  0  0  0  0
    1.8560   -2.3029    0.4619 C   0  0  0  0  0  0  0  0  0  0  0  0
   -1.8427    2.1823    1.2825 H   0  0  0  0  0  0  0  0  0  0  0  0
   -1.4291    1.5760   -0.9988 H   0  0  0  0  0  0  0  0  0  0  0  0
   -3.5039    0.1020    1.9164 H   0  0  0  0  0  0  0  0  0  0  0  0
   -2.3010   -1.6113    0.7468 H   0  0  0  0  0  0  0  0  0  0  0  0
   -4.1944   -0.6550   -1.4793 H   0  0  0  0  0  0  0  0  0  0  0  0
   -4.6721   -1.7169   -0.1307 H   0  0  0  0  0  0  0  0  0  0  0  0
   -0.1955    1.0587    2.2820 H   0  0  0  0  0  0  0  0  0  0  0  0
   -4.8713    0.7985    0.3063 H   0  0  0  0  0  0  0  0  0  0  0  0
   -2.5884   -2.1857   -2.0129 H   0  0  0  0  0  0  0  0  0  0  0  0
    1.6383   -3.3347    0.7165 H   0  0  0  0  0  0  0  0  0  0  0  0
    5.5606   -1.0092    0.1037 H   0  0  0  0  0  0  0  0  0  0  0  0
    5.0750    0.6302   -0.2911 H   0  0  0  0  0  0  0  0  0  0  0  0
  1 17  1  0  0  0  0
  2 12  1  0  0  0  0
  2 14  1  0  0  0  0
  3 11  1  0  0  0  0
  3 27  1  0  0  0  0
  4 13  1  0  0  0  0
  4 28  1  0  0  0  0
  5 15  1  0  0  0  0
  5 29  1  0  0  0  0
  6 12  1  0  0  0  0
  6 16  1  0  0  0  0
  6 17  1  0  0  0  0
  7 17  2  0  0  0  0
  7 18  1  0  0  0  0
  8 16  2  0  0  0  0
  8 20  1  0  0  0  0
  9 19  1  0  0  0  0
  9 20  2  0  0  0  0
 10 19  1  0  0  0  0
 10 31  1  0  0  0  0
 10 32  1  0  0  0  0
 11 12  1  0  0  0  0
 11 13  1  0  0  0  0
 11 21  1  0  0  0  0
 12 22  1  0  0  0  0
 13 14  1  0  0  0  0
 13 23  1  0  0  0  0
 14 15  1  0  0  0  0
 14 24  1  0  0  0  0
 15 25  1  0  0  0  0
 15 26  1  0  0  0  0
 16 18  1  0  0  0  0
 18 19  2  0  0  0  0
 20 30  1  0  0  0  0
M  END
> <PUBCHEM_COMPOUND_CID>
130421

> <PUBCHEM_CONFORMER_RMSD>
0.6

> <PUBCHEM_CONFORMER_DIVERSEORDER>
1
7
9
10
4
8
11
5
6
3
2

> <PUBCHEM_MMFF94_PARTIAL_CHARGES>
26
1 -0.06
10 -0.9
11 0.28
12 0.54
13 0.28
14 0.28
15 0.28
16 0.11
17 0.24
18 0.23
19 0.41
2 -0.56
20 0.47
27 0.4
28 0.4
29 0.4
3 -0.68
30 0.15
31 0.4
32 0.4
4 -0.68
5 -0.68
6 0.05
7 -0.57
8 -0.57
9 -0.62

> <PUBCHEM_EFFECTIVE_ROTOR_COUNT>
3

> <PUBCHEM_PHARMACOPHORE_FEATURES>
16
1 1 hydrophobe
1 10 cation
1 10 donor
1 2 acceptor
1 3 acceptor
1 3 donor
1 4 acceptor
1 4 donor
1 5 acceptor
1 5 donor
3 6 7 17 cation
3 6 8 16 cation
3 8 9 20 cation
5 2 11 12 13 14 rings
5 6 7 16 17 18 rings
6 8 9 16 18 19 20 rings

> <PUBCHEM_HEAVY_ATOM_COUNT>
20

> <PUBCHEM_ATOM_DEF_STEREO_COUNT>
4

> <PUBCHEM_ATOM_UDEF_STEREO_COUNT>
0

> <PUBCHEM_BOND_DEF_STEREO_COUNT>
0

> <PUBCHEM_BOND_UDEF_STEREO_COUNT>
0

> <PUBCHEM_ISOTOPIC_ATOM_COUNT>
0

> <PUBCHEM_COMPONENT_COUNT>
1

> <PUBCHEM_CACTVS_TAUTO_COUNT>
3

> <PUBCHEM_CONFORMER_ID>
0001FD7500000001

> <PUBCHEM_MMFF94_ENERGY>
47.2933

> <PUBCHEM_FEATURE_SELFOVERLAP>
81.805

> <PUBCHEM_SHAPE_FINGERPRINT>
10616163 171 18272652367845892503
10967382 1 18334862766004726036
11578080 2 17986080025069273913
11806522 49 18341326790485077294
12236239 1 18273500052544620043
12553582 1 18334297526570076226
12596599 1 18059028185039188806
13004483 165 18119519934401420289
13140716 1 18261395615630138416
13538477 17 18060140933703183161
13583140 156 18114477695153279489
13965767 371 17335937510958877849
14115302 16 18059858342230206497
14787075 74 17341523408011189416
14790565 3 18190198913311924372
15099037 8 18342174522582205775
16945 1 18190186865199774833
18186145 218 16732978760728273473
19433438 48 18412825750690034722
200 152 18413384354394995607
20600515 1 16630257960455455297
20645477 70 17970059148730552135
21267235 1 18411991273052151959
21339142 126 18191584147195084116
21634736 98 18196652028052461182
221490 88 18117281569235296451
22445834 79 18339931424124296979
2255824 54 18263933309325034708
23388829 49 18336552629403587644
23402539 116 18411133624244444950
23557571 272 16917075459896724651
23559900 14 18269263728869515601
23598291 2 18341623636902009189
238 59 17971478643605580753
2748010 2 17113262139884383612
34934 24 18262516966417716457
352729 6 17255128259862286164
6992083 37 18269005189018237001
77492 1 18201447981797847865
7832392 63 18409167671520809661
81228 2 17534918376853548572
84936 182 18126290984656745857
9981440 41 17472415929333974321

> <PUBCHEM_SHAPE_MULTIPOLES>
369.15
6.9
3.05
1.15
0.28
1.83
-0.28
-3.27
0.5
-0.84
1.01
0.98
0.01
-1.47

> <PUBCHEM_SHAPE_SELFOVERLAP>
786.834

> <PUBCHEM_SHAPE_VOLUME>
211.4

> <PUBCHEM_COORDINATE_TYPE>
2
5
10

$$$$
