REMARK  Name = 130420
REMARK  9 active torsions:
REMARK  status: ('A' for Active; 'I' for Inactive)
REMARK    1  A    between atoms: P_1  and  O_3
REMARK    2  A    between atoms: P_1  and  O_5
REMARK    3  A    between atoms: P_1  and  C_16
REMARK    4  A    between atoms: O_5  and  C_6
REMARK    5  A    between atoms: C_9  and  C_13
REMARK    6  A    between atoms: C_13  and  O_14
REMARK    7  A    between atoms: C_16  and  N_18
REMARK    8  A    between atoms: C_19  and  C_21
REMARK    9  A    between atoms: C_21  and  C_22
REMARK                            x       y       z     vdW  Elec       q    Type
REMARK                         _______ _______ _______ _____ _____    ______ ____
ROOT
ATOM      1  P   UNL     1       1.294   2.870  -0.065  0.00  0.00    +0.408 P 
ATOM      2  O   UNL     1       0.795   4.220   0.361  0.00  0.00    -0.242 OA
ENDROOT
BRANCH   1   3
ATOM      3  O   UNL     1       1.507   2.692  -1.659  0.00  0.00    -0.314 OA
ATOM      4  H   UNL     1       0.677   2.893  -2.121  0.00  0.00    +0.221 HD
ENDBRANCH   1   3
BRANCH   1   5
ATOM      5  O   UNL     1       0.378   1.616   0.368  0.00  0.00    -0.421 OA
BRANCH   5   6
ATOM      6  C   UNL     1      -0.949   1.460   0.080  0.00  0.00    +0.147 C 
ATOM      7  C   UNL     1      -1.623   0.322   0.515  0.00  0.00    +0.044 C 
ATOM      8  C   UNL     1      -1.619   2.439  -0.648  0.00  0.00    +0.037 C 
ATOM      9  C   UNL     1      -2.976   0.162   0.221  0.00  0.00    +0.078 C 
ATOM     10  C   UNL     1      -2.973   2.279  -0.943  0.00  0.00    +0.003 C 
ATOM     11  C   UNL     1      -3.652   1.141  -0.509  0.00  0.00    +0.007 C 
BRANCH   9  13
ATOM     12  O   UNL     1      -4.878  -1.269   0.468  0.00  0.00    -0.245 OA
ATOM     13  C   UNL     1      -3.684  -1.026   0.673  0.00  0.00    +0.338 C 
BRANCH  13  14
ATOM     14  O   UNL     1      -2.880  -1.877   1.367  0.00  0.00    -0.477 OA
ATOM     15  H   UNL     1      -1.979  -1.663   1.505  0.00  0.00    +0.295 HD
ENDBRANCH  13  14
ENDBRANCH   9  13
ENDBRANCH   5   6
ENDBRANCH   1   5
BRANCH   1  16
ATOM     16  C   UNL     1       2.899   2.464   0.611  0.00  0.00    +0.220 C 
BRANCH  16  18
ATOM     17  O   UNL     1       2.348  -0.077   1.879  0.00  0.00    -0.275 OA
ATOM     18  N   UNL     1       3.256   1.149   0.124  0.00  0.00    -0.293 N 
ATOM     19  C   UNL     1       2.947  -0.016   0.806  0.00  0.00    +0.227 C 
ATOM     20  H   UNL     1       3.741   1.080  -0.730  0.00  0.00    +0.150 HD
BRANCH  19  21
ATOM     21  C   UNL     1       3.369  -1.262   0.059  0.00  0.00    +0.111 C 
BRANCH  21  22
ATOM     22  C   UNL     1       2.172  -2.107  -0.294  0.00  0.00    -0.013 C 
ATOM     23  C   UNL     1       1.738  -3.081   0.594  0.00  0.00    -0.004 C 
ATOM     24  C   UNL     1       1.521  -1.897  -1.502  0.00  0.00    -0.004 C 
ATOM     25  C   UNL     1       0.630  -3.862   0.267  0.00  0.00    -0.000 C 
ATOM     26  C   UNL     1       0.413  -2.679  -1.828  0.00  0.00    -0.000 C 
ATOM     27  C   UNL     1      -0.033  -3.662  -0.944  0.00  0.00    -0.000 C 
ENDBRANCH  21  22
ENDBRANCH  19  21
ENDBRANCH  16  18
ENDBRANCH   1  16
TORSDOF 9
