REMARK  Name = 130474
REMARK  2 active torsions:
REMARK  status: ('A' for Active; 'I' for Inactive)
REMARK    1  A    between atoms: S_1  and  C_4
REMARK    2  A    between atoms: S_1  and  C_18
REMARK                            x       y       z     vdW  Elec       q    Type
REMARK                         _______ _______ _______ _____ _____    ______ ____
ROOT
ATOM      1  S   UNL     1       1.240   1.182  -0.679  0.00  0.00    +0.025 S 
ATOM      2  O   UNL     1       1.476   0.505  -1.947  0.00  0.00    -0.167 OA
ATOM      3  O   UNL     1       1.548   2.600  -0.550  0.00  0.00    -0.167 OA
ENDROOT
BRANCH   1   4
ATOM      4  C   UNL     1      -0.427   0.922  -0.232  0.00  0.00    +0.107 C 
ATOM      5  C   UNL     1      -1.115  -0.190  -0.721  0.00  0.00    +0.018 C 
ATOM      6  C   UNL     1      -2.457  -0.413  -0.371  0.00  0.00    +0.001 C 
ATOM      7  C   UNL     1      -1.070   1.823   0.611  0.00  0.00    +0.018 C 
ATOM      8  C   UNL     1      -3.110   0.504   0.486  0.00  0.00    +0.000 C 
ATOM      9  C   UNL     1      -2.403   1.617   0.968  0.00  0.00    +0.001 C 
ATOM     10  C   UNL     1      -3.164  -1.526  -0.854  0.00  0.00    +0.000 C 
ATOM     11  C   UNL     1      -4.452   0.281   0.836  0.00  0.00    +0.000 C 
ATOM     12  C   UNL     1      -4.497  -1.732  -0.496  0.00  0.00    +0.000 C 
ATOM     13  C   UNL     1      -5.140  -0.830   0.347  0.00  0.00    +0.000 C 
ENDBRANCH   1   4
BRANCH   1  18
ATOM     14  S   UNL     1       1.843  -1.446   0.618  0.00  0.00    -0.024 S 
ATOM     15  O   UNL     1       4.219   1.564   0.220  0.00  0.00    -0.272 OA
ATOM     16  O   UNL     1       3.904  -3.043   0.284  0.00  0.00    -0.262 OA
ATOM     17  N   UNL     1       4.267  -0.748   0.228  0.00  0.00    -0.245 N 
ATOM     18  C   UNL     1       2.172   0.333   0.575  0.00  0.00    +0.265 C 
ATOM     19  C   UNL     1       3.651   0.482   0.327  0.00  0.00    +0.262 C 
ATOM     20  C   UNL     1       3.515  -1.887   0.349  0.00  0.00    +0.281 C 
ATOM     21  H   UNL     1       5.238  -0.807   0.072  0.00  0.00    +0.158 HD
ENDBRANCH   1  18
TORSDOF 2
