REMARK  Name = 130444
REMARK  5 active torsions:
REMARK  status: ('A' for Active; 'I' for Inactive)
REMARK    1  A    between atoms: C_4  and  C_25
REMARK    2  A    between atoms: C_7  and  N_13
REMARK    3  A    between atoms: C_8  and  C_22
REMARK    4  A    between atoms: C_22  and  O_23
REMARK    5  A    between atoms: C_25  and  O_27
REMARK                            x       y       z     vdW  Elec       q    Type
REMARK                         _______ _______ _______ _____ _____    ______ ____
ROOT
ATOM      1  O   UNL     1      -3.700  -1.839   0.670  0.00  0.00    -0.274 OA
ATOM      2  N   UNL     1      -1.871  -1.183  -0.666  0.00  0.00    -0.253 N 
ATOM      3  C   UNL     1      -2.021   0.010  -1.533  0.00  0.00    +0.096 C 
ATOM      4  C   UNL     1      -3.509   0.030  -1.062  0.00  0.00    +0.123 C 
ATOM      5  C   UNL     1      -0.865   0.941  -1.100  0.00  0.00    +0.059 C 
ATOM      6  C   UNL     1      -3.145  -1.189  -0.187  0.00  0.00    +0.233 C 
ATOM      7  C   UNL     1      -0.103   0.069  -0.131  0.00  0.00    +0.068 C 
ATOM      8  C   UNL     1      -0.732  -1.091   0.078  0.00  0.00    +0.142 C 
ATOM      9  C   UNL     1      -1.305   2.271  -0.516  0.00  0.00    +0.008 C 
ENDROOT
BRANCH   7  13
ATOM     10 CL   UNL     1       4.803  -1.183  -2.799  0.00  0.00    -0.082 Cl
ATOM     11  O   UNL     1       2.548   1.477   1.899  0.00  0.00    -0.407 OA
ATOM     12  O   UNL     1       0.295   1.595   2.362  0.00  0.00    -0.222 OA
ATOM     13  N   UNL     1       1.058   0.490   0.432  0.00  0.00    -0.243 N 
ATOM     14  C   UNL     1       2.337   0.285  -0.060  0.00  0.00    +0.105 A 
ATOM     15  C   UNL     1       1.194   1.213   1.621  0.00  0.00    +0.426 A 
ATOM     16  C   UNL     1       3.203   0.883   0.833  0.00  0.00    +0.166 A 
ATOM     17  C   UNL     1       2.790  -0.362  -1.192  0.00  0.00    +0.032 C 
ATOM     18  C   UNL     1       4.569   0.868   0.645  0.00  0.00    +0.040 C 
ATOM     19  C   UNL     1       4.171  -0.392  -1.405  0.00  0.00    +0.059 C 
ATOM     20  C   UNL     1       5.054   0.218  -0.494  0.00  0.00    +0.015 C 
ENDBRANCH   7  13
BRANCH   8  22
ATOM     21  O   UNL     1       0.627  -2.109   1.740  0.00  0.00    -0.244 OA
ATOM     22  C   UNL     1      -0.350  -2.146   1.006  0.00  0.00    +0.353 C 
BRANCH  22  23
ATOM     23  O   UNL     1      -1.233  -3.167   0.934  0.00  0.00    -0.476 OA
ATOM     24  H   UNL     1      -1.959  -3.117   0.343  0.00  0.00    +0.295 HD
ENDBRANCH  22  23
ENDBRANCH   8  22
BRANCH   4  25
ATOM     25  C   UNL     1      -4.089   1.190  -0.292  0.00  0.00    +0.121 C 
ATOM     26  C   UNL     1      -4.471   2.356  -1.200  0.00  0.00    +0.032 C 
BRANCH  25  27
ATOM     27  O   UNL     1      -5.255   0.765   0.416  0.00  0.00    -0.384 OA
ATOM     28  H   UNL     1      -5.027   0.022   0.998  0.00  0.00    +0.210 HD
ENDBRANCH  25  27
ENDBRANCH   4  25
TORSDOF 5
