REMARK  Name = 130421
REMARK  5 active torsions:
REMARK  status: ('A' for Active; 'I' for Inactive)
REMARK    1  A    between atoms: N_2  and  C1*_13
REMARK    2  A    between atoms: C2*_12  and  O2*_16
REMARK    3  A    between atoms: C3*_14  and  O3*_18
REMARK    4  A    between atoms: C4*_15  and  C5*_20
REMARK    5  A    between atoms: C5*_20  and  O5*_21
REMARK                            x       y       z     vdW  Elec       q    Type
REMARK                         _______ _______ _______ _____ _____    ______ ____
ROOT
ATOM      1 BR   UNL     1       0.627   3.644  -0.976  0.00  0.00    +0.004 Br
ATOM      2  N   UNL     1       0.364   0.821  -0.284  0.00  0.00    -0.215 N 
ATOM      3  N   UNL     1       2.471   1.541  -0.485  0.00  0.00    -0.374 NA
ATOM      4  N   UNL     1       0.780  -1.506   0.280  0.00  0.00    -0.227 NA
ATOM      5  N   UNL     1       3.171  -1.989   0.370  0.00  0.00    -0.227 NA
ATOM      6  C   UNL     1       1.167  -0.260  -0.029  0.00  0.00    +0.169 C 
ATOM      7  C   UNL     1       1.200   1.877  -0.553  0.00  0.00    +0.225 C 
ATOM      8  C   UNL     1       2.465   0.208  -0.158  0.00  0.00    +0.196 C 
ATOM      9  C   UNL     1       3.489  -0.710   0.055  0.00  0.00    +0.155 C 
ATOM     10  C   UNL     1       1.856  -2.303   0.462  0.00  0.00    +0.253 C 
ATOM     11  N   UNL     1       4.835  -0.323  -0.056  0.00  0.00    -0.341 N 
ATOM     12  H   UNL     1       5.551  -0.982   0.097  0.00  0.00    +0.144 HD
ATOM     13  H   UNL     1       5.063   0.606  -0.286  0.00  0.00    +0.144 HD
ENDROOT
BRANCH   2  16
ATOM     14  O4* UNL     1      -1.620  -0.419  -0.746  0.00  0.00    -0.333 OA
ATOM     15  C2* UNL     1      -1.741   1.109   1.093  0.00  0.00    +0.187 C 
ATOM     16  C1* UNL     1      -1.094   0.834  -0.266  0.00  0.00    +0.229 C 
ATOM     17  C3* UNL     1      -3.075   0.399   0.953  0.00  0.00    +0.171 C 
ATOM     18  C4* UNL     1      -2.710  -0.821   0.105  0.00  0.00    +0.175 C 
BRANCH  15  19
ATOM     19  O2* UNL     1      -1.006   0.534   2.167  0.00  0.00    -0.378 OA
ATOM     20  H2* UNL     1      -0.153   0.988   2.255  0.00  0.00    +0.211 HD
ENDBRANCH  15  19
BRANCH  17  21
ATOM     21  O3* UNL     1      -4.008   1.245   0.292  0.00  0.00    -0.379 OA
ATOM     22  H3* UNL     1      -4.214   2.005   0.859  0.00  0.00    +0.211 HD
ENDBRANCH  17  21
BRANCH  18  23
ATOM     23  C5* UNL     1      -3.833  -1.384  -0.748  0.00  0.00    +0.169 C 
BRANCH  23  24
ATOM     24  O5* UNL     1      -3.339  -2.496  -1.478  0.00  0.00    -0.379 OA
ATOM     25  H5* UNL     1      -4.050  -2.863  -2.027  0.00  0.00    +0.211 HD
ENDBRANCH  23  24
ENDBRANCH  18  23
ENDBRANCH   2  16
TORSDOF 5
