130475
  -OEChem-03292013323D

 28 29  0     1  0  0  0  0  0999 V2000
    2.2489   -2.5147    0.3331 O   0  0  0  0  0  0  0  0  0  0  0  0
    3.9869   -1.2636   -0.4479 O   0  0  0  0  0  0  0  0  0  0  0  0
    2.8168    1.0179    0.1783 N   0  0  0  0  0  0  0  0  0  0  0  0
   -3.3386    0.6618    0.5626 N   0  0  0  0  0  0  0  0  0  0  0  0
   -2.5703   -1.0802   -0.6634 N   0  0  0  0  0  0  0  0  0  0  0  0
   -4.0360   -0.4712    0.7264 N   0  0  0  0  0  0  0  0  0  0  0  0
   -3.6165   -1.5294    0.0191 N   0  0  0  0  0  0  0  0  0  0  0  0
   -0.1083    1.0625   -0.0152 C   0  0  1  0  0  0  0  0  0  0  0  0
    0.7134   -0.2010   -0.2982 C   0  0  0  0  0  0  0  0  0  0  0  0
    0.7516    2.3067   -0.2673 C   0  0  0  0  0  0  0  0  0  0  0  0
    2.0343   -0.1820    0.4735 C   0  0  1  0  0  0  0  0  0  0  0  0
    2.0697    2.2341    0.5022 C   0  0  0  0  0  0  0  0  0  0  0  0
   -1.3783    1.0927   -0.8612 C   0  0  0  0  0  0  0  0  0  0  0  0
    2.8799   -1.3459    0.0631 C   0  0  0  0  0  0  0  0  0  0  0  0
   -2.4535    0.2122   -0.3052 C   0  0  0  0  0  0  0  0  0  0  0  0
   -0.3815    1.0620    1.0499 H   0  0  0  0  0  0  0  0  0  0  0  0
    0.9096   -0.2903   -1.3759 H   0  0  0  0  0  0  0  0  0  0  0  0
    0.1350   -1.0893   -0.0171 H   0  0  0  0  0  0  0  0  0  0  0  0
    0.2057    3.2080    0.0366 H   0  0  0  0  0  0  0  0  0  0  0  0
    0.9594    2.4068   -1.3408 H   0  0  0  0  0  0  0  0  0  0  0  0
    1.8660   -0.2505    1.5551 H   0  0  0  0  0  0  0  0  0  0  0  0
    2.6858    3.1052    0.2537 H   0  0  0  0  0  0  0  0  0  0  0  0
    1.8839    2.2793    1.5822 H   0  0  0  0  0  0  0  0  0  0  0  0
   -1.1665    0.8022   -1.8976 H   0  0  0  0  0  0  0  0  0  0  0  0
   -1.7711    2.1173   -0.9072 H   0  0  0  0  0  0  0  0  0  0  0  0
    3.0432    1.0351   -0.8171 H   0  0  0  0  0  0  0  0  0  0  0  0
    2.7871   -3.2912    0.0691 H   0  0  0  0  0  0  0  0  0  0  0  0
   -4.8349   -0.5246    1.3492 H   0  0  0  0  0  0  0  0  0  0  0  0
  1 14  1  0  0  0  0
  1 27  1  0  0  0  0
  2 14  2  0  0  0  0
  3 11  1  0  0  0  0
  3 12  1  0  0  0  0
  3 26  1  0  0  0  0
  4  6  1  0  0  0  0
  4 15  2  0  0  0  0
  5  7  2  0  0  0  0
  5 15  1  0  0  0  0
  6  7  1  0  0  0  0
  6 28  1  0  0  0  0
  8  9  1  0  0  0  0
  8 10  1  0  0  0  0
  8 13  1  0  0  0  0
  8 16  1  0  0  0  0
  9 11  1  0  0  0  0
  9 17  1  0  0  0  0
  9 18  1  0  0  0  0
 10 12  1  0  0  0  0
 10 19  1  0  0  0  0
 10 20  1  0  0  0  0
 11 14  1  0  0  0  0
 11 21  1  0  0  0  0
 12 22  1  0  0  0  0
 12 23  1  0  0  0  0
 13 15  1  0  0  0  0
 13 24  1  0  0  0  0
 13 25  1  0  0  0  0
M  END
> <PUBCHEM_COMPOUND_CID>
130475

> <PUBCHEM_CONFORMER_RMSD>
0.6

> <PUBCHEM_CONFORMER_DIVERSEORDER>
1
12
6
18
7
9
5
11
14
2
16
3
19
4
13
17
15
8
10

> <PUBCHEM_MMFF94_PARTIAL_CHARGES>
15
1 -0.65
11 0.33
12 0.27
13 0.18
14 0.66
15 0.34
2 -0.57
26 0.36
27 0.5
28 0.27
3 -0.9
4 -0.71
5 -0.23
6 0.57
7 -0.42

> <PUBCHEM_EFFECTIVE_ROTOR_COUNT>
4.2

> <PUBCHEM_PHARMACOPHORE_FEATURES>
8
1 1 acceptor
1 2 acceptor
1 3 cation
1 3 donor
3 1 2 14 anion
3 4 5 15 cation
5 4 5 6 7 15 rings
6 3 8 9 10 11 12 rings

> <PUBCHEM_HEAVY_ATOM_COUNT>
15

> <PUBCHEM_ATOM_DEF_STEREO_COUNT>
2

> <PUBCHEM_ATOM_UDEF_STEREO_COUNT>
0

> <PUBCHEM_BOND_DEF_STEREO_COUNT>
0

> <PUBCHEM_BOND_UDEF_STEREO_COUNT>
0

> <PUBCHEM_ISOTOPIC_ATOM_COUNT>
0

> <PUBCHEM_COMPONENT_COUNT>
1

> <PUBCHEM_CACTVS_TAUTO_COUNT>
2

> <PUBCHEM_CONFORMER_ID>
0001FDAB00000001

> <PUBCHEM_MMFF94_ENERGY>
12.1387

> <PUBCHEM_FEATURE_SELFOVERLAP>
40.65

> <PUBCHEM_SHAPE_FINGERPRINT>
12032990 46 18410856521407083662
12251169 10 18272370867177686973
12553582 1 18338792304282146118
12932764 1 17749097855827996593
13296908 3 18260822692119246245
13533116 47 18271524312434594483
14251717 144 18337666533092076766
14252887 29 18115311206102085305
15375462 189 18335704897026871602
15442244 35 18341616975492148449
15501101 241 18334855047616452268
15536298 74 18342738554455864024
19422 9 18343304794617965089
20281407 28 18260266322060919189
20281475 54 18335704909842961244
20291156 8 18339080389155178234
20339313 130 18202004304891070476
20442098 301 18272926167609945823
20645477 70 18263066860055569591
20708731 107 18334582386202757348
20871998 22 18199472073888426030
221490 88 18335990864724055114
22445834 79 18342457101318071149
2255824 54 18336833112126808572
231179 274 12319459848582754586
23402539 116 16371008430653477310
23463225 33 18413671318234253221
23598291 2 18202279242668912407
2748010 2 18265029393584882180
33824 294 18264481969811284339
4416823 128 18409167688309990013
458136 41 18120665874816141472
581208 293 18264481961073780001
5902787 121 18335411319053730506
6049 1 18187635890949756141
7364860 26 18341893051779311880
83771 10 18336267855617466252
8809292 202 18260833682771914171
94968 8 18334579040270077370
9709674 26 18190179173377844427

> <PUBCHEM_SHAPE_MULTIPOLES>
272.05
6.81
2.39
0.78
3.52
0.1
0.02
-3.31
-0.74
-1.77
-0.08
0.2
0.07
0.22

> <PUBCHEM_SHAPE_SELFOVERLAP>
563.313

> <PUBCHEM_SHAPE_VOLUME>
155.5

> <PUBCHEM_COORDINATE_TYPE>
2
5
10

$$$$
