REMARK  Name = 130471
REMARK  7 active torsions:
REMARK  status: ('A' for Active; 'I' for Inactive)
REMARK    1  A    between atoms: C_1  and  C_4
REMARK    2  A    between atoms: C_1  and  O_15
REMARK    3  A    between atoms: C_1  and  C_17
REMARK    4  A    between atoms: C_9  and  O_13
REMARK    5  A    between atoms: C_17  and  C_20
REMARK    6  A    between atoms: C_17  and  O_31
REMARK    7  A    between atoms: C_25  and  O_29
REMARK                            x       y       z     vdW  Elec       q    Type
REMARK                         _______ _______ _______ _____ _____    ______ ____
ROOT
ATOM      1  C   UNL     1      -0.521  -2.753  -0.582  0.00  0.00    +0.177 C 
ENDROOT
BRANCH   1   4
ATOM      2  N   UNL     1      -2.611  -1.578   0.043  0.00  0.00    -0.316 N 
ATOM      3  N   UNL     1      -1.133  -0.397  -1.124  0.00  0.00    -0.316 N 
ATOM      4  C   UNL     1      -1.391  -1.563  -0.574  0.00  0.00    +0.174 C 
ATOM      5  C   UNL     1      -3.178  -0.340  -0.120  0.00  0.00    +0.062 C 
ATOM      6  C   UNL     1      -2.237   0.378  -0.851  0.00  0.00    +0.059 C 
ATOM      7  C   UNL     1      -4.397   0.196   0.297  0.00  0.00    +0.052 C 
ATOM      8  C   UNL     1      -2.510   1.713  -1.196  0.00  0.00    +0.019 C 
ATOM      9  C   UNL     1      -4.653   1.525  -0.055  0.00  0.00    +0.140 C 
ATOM     10  C   UNL     1      -3.728   2.272  -0.789  0.00  0.00    +0.038 C 
ATOM     11  H   UNL     1      -3.011  -2.341   0.520  0.00  0.00    +0.148 HD
ATOM     12  H   UNL     1      -0.326  -0.136  -1.623  0.00  0.00    +0.148 HD
BRANCH   9  13
ATOM     13  O   UNL     1      -5.829   2.102   0.326  0.00  0.00    -0.471 OA
ATOM     14  C   UNL     1      -6.734   1.292   1.072  0.00  0.00    +0.252 C 
ENDBRANCH   9  13
ENDBRANCH   1   4
BRANCH   1  15
ATOM     15  O   UNL     1       0.195  -2.796  -1.834  0.00  0.00    -0.379 OA
ATOM     16  H   UNL     1       0.771  -3.576  -1.851  0.00  0.00    +0.211 HD
ENDBRANCH   1  15
BRANCH   1  17
ATOM     17  C   UNL     1       0.543  -2.790   0.549  0.00  0.00    +0.177 C 
BRANCH  17  20
ATOM     18  N   UNL     1       2.603  -1.573  -0.096  0.00  0.00    -0.316 N 
ATOM     19  N   UNL     1       1.157  -0.453   1.168  0.00  0.00    -0.316 N 
ATOM     20  C   UNL     1       1.427  -1.561   0.562  0.00  0.00    +0.174 C 
ATOM     21  C   UNL     1       3.167  -0.339   0.099  0.00  0.00    +0.062 C 
ATOM     22  C   UNL     1       2.246   0.341   0.891  0.00  0.00    +0.059 C 
ATOM     23  C   UNL     1       4.368   0.224  -0.335  0.00  0.00    +0.052 C 
ATOM     24  C   UNL     1       2.522   1.663   1.281  0.00  0.00    +0.019 C 
ATOM     25  C   UNL     1       4.627   1.540   0.063  0.00  0.00    +0.140 C 
ATOM     26  C   UNL     1       3.722   2.248   0.857  0.00  0.00    +0.038 C 
ATOM     27  H   UNL     1       2.981  -2.320  -0.614  0.00  0.00    +0.148 HD
ATOM     28  H   UNL     1       0.361  -0.230   1.702  0.00  0.00    +0.148 HD
BRANCH  25  29
ATOM     29  O   UNL     1       5.785   2.140  -0.333  0.00  0.00    -0.471 OA
ATOM     30  C   UNL     1       6.670   1.369  -1.142  0.00  0.00    +0.252 C 
ENDBRANCH  25  29
ENDBRANCH  17  20
BRANCH  17  31
ATOM     31  O   UNL     1      -0.107  -2.858   1.823  0.00  0.00    -0.379 OA
ATOM     32  H   UNL     1      -0.684  -3.637   1.850  0.00  0.00    +0.211 HD
ENDBRANCH  17  31
ENDBRANCH   1  17
TORSDOF 7
