REMARK  Name = 130458
REMARK  10 active torsions:
REMARK  status: ('A' for Active; 'I' for Inactive)
REMARK    1  A    between atoms: C_1  and  C_4
REMARK    2  A    between atoms: C_1  and  O_15
REMARK    3  A    between atoms: C_1  and  C_17
REMARK    4  A    between atoms: N_3  and  C_6
REMARK    5  A    between atoms: C_6  and  C_12
REMARK    6  A    between atoms: C_12  and  O_13
REMARK    7  A    between atoms: C_17  and  N_18
REMARK    8  A    between atoms: C_17  and  C_22
REMARK    9  A    between atoms: C_22  and  C_23
REMARK   10  A    between atoms: C_26  and  S_29
REMARK                            x       y       z     vdW  Elec       q    Type
REMARK                         _______ _______ _______ _____ _____    ______ ____
ROOT
ATOM      1  C   UNL     1      -0.868   1.678  -0.613  0.00  0.00    +0.167 C 
ENDROOT
BRANCH   1   4
ATOM      2  O   UNL     1      -3.248   1.657  -1.053  0.00  0.00    -0.273 OA
ATOM      3  N   UNL     1      -2.282  -0.222  -0.091  0.00  0.00    -0.297 N 
ATOM      4  C   UNL     1      -2.263   1.056  -0.627  0.00  0.00    +0.248 C 
ATOM      5  H   UNL     1      -1.435  -0.615   0.223  0.00  0.00    +0.150 HD
BRANCH   3   6
ATOM      6  C   UNL     1      -3.489  -1.000   0.025  0.00  0.00    +0.146 C 
ATOM      7  C   UNL     1      -4.144  -1.227  -1.346  0.00  0.00    +0.029 C 
ATOM      8  C   UNL     1      -4.546  -0.308   0.899  0.00  0.00    +0.029 C 
ATOM      9  C   UNL     1      -5.626  -0.947  -1.129  0.00  0.00    +0.002 C 
ATOM     10  C   UNL     1      -5.627   0.146  -0.075  0.00  0.00    +0.002 C 
BRANCH   6  12
ATOM     11  O   UNL     1      -1.886  -2.543   0.976  0.00  0.00    -0.249 OA
ATOM     12  C   UNL     1      -3.035  -2.288   0.648  0.00  0.00    +0.330 C 
BRANCH  12  13
ATOM     13  O   UNL     1      -4.078  -3.141   0.797  0.00  0.00    -0.479 OA
ATOM     14  H   UNL     1      -4.937  -2.883   0.524  0.00  0.00    +0.295 HD
ENDBRANCH  12  13
ENDBRANCH   6  12
ENDBRANCH   3   6
ENDBRANCH   1   4
BRANCH   1  15
ATOM     15  O   UNL     1      -0.938   2.958  -1.224  0.00  0.00    -0.377 OA
ATOM     16  H   UNL     1      -1.290   2.868  -2.123  0.00  0.00    +0.211 HD
ENDBRANCH   1  15
BRANCH   1  17
ATOM     17  C   UNL     1      -0.309   1.801   0.820  0.00  0.00    -0.025 C 
BRANCH  17  18
ATOM     18  N   UNL     1      -1.268   2.576   1.619  0.00  0.00    +0.384 N 
ATOM     19  H   UNL     1      -2.182   2.123   1.586  0.00  0.00    -0.089 HD
ATOM     20  H   UNL     1      -1.343   3.520   1.240  0.00  0.00    -0.089 HD
ATOM     21  H   UNL     1      -0.946   2.622   2.586  0.00  0.00    -0.089 HD
ENDBRANCH  17  18
BRANCH  17  22
ATOM     22  C   UNL     1       1.085   2.469   0.855  0.00  0.00    +0.007 C 
BRANCH  22  23
ATOM     23  C   UNL     1       2.216   1.518   0.539  0.00  0.00    -0.024 C 
ATOM     24  C   UNL     1       2.824   0.822   1.570  0.00  0.00    -0.003 C 
ATOM     25  C   UNL     1       2.623   1.362  -0.776  0.00  0.00    -0.003 C 
ATOM     26  C   UNL     1       4.291  -0.223  -0.041  0.00  0.00    +0.106 C 
ATOM     27  C   UNL     1       3.869  -0.055   1.278  0.00  0.00    +0.018 C 
ATOM     28  C   UNL     1       3.668   0.486  -1.068  0.00  0.00    +0.018 C 
BRANCH  26  29
ATOM     29  S   UNL     1       5.599  -1.320  -0.407  0.00  0.00    +0.010 S 
ATOM     30  O   UNL     1       6.208  -0.890  -1.658  0.00  0.00    -0.169 OA
ATOM     31  O   UNL     1       6.425  -1.482   0.781  0.00  0.00    -0.169 OA
ATOM     32  C   UNL     1       4.798  -2.881  -0.698  0.00  0.00    +0.182 C 
ENDBRANCH  26  29
ENDBRANCH  22  23
ENDBRANCH  17  22
ENDBRANCH   1  17
TORSDOF 10
