REMARK  Name = 130440
REMARK  4 active torsions:
REMARK  status: ('A' for Active; 'I' for Inactive)
REMARK    1  A    between atoms: N_1  and  C_11
REMARK    2  A    between atoms: C_12  and  C_18
REMARK    3  A    between atoms: C_14  and  O_16
REMARK    4  A    between atoms: C_18  and  O_19
REMARK                            x       y       z     vdW  Elec       q    Type
REMARK                         _______ _______ _______ _____ _____    ______ ____
ROOT
ATOM      1  N   UNL     1      -0.332  -0.222  -0.040  0.00  0.00    -0.271 N 
ATOM      2  N   UNL     1      -1.758  -1.852   0.484  0.00  0.00    -0.242 NA
ATOM      3  N   UNL     1      -1.903   1.552  -0.574  0.00  0.00    -0.228 NA
ATOM      4  N   UNL     1      -4.210   0.800  -0.311  0.00  0.00    -0.229 NA
ATOM      5  C   UNL     1      -1.581   0.308  -0.190  0.00  0.00    +0.151 C 
ATOM      6  C   UNL     1      -0.489  -1.520   0.365  0.00  0.00    +0.221 C 
ATOM      7  C   UNL     1      -2.452  -0.719   0.141  0.00  0.00    +0.140 C 
ATOM      8  C   UNL     1      -3.812  -0.438   0.070  0.00  0.00    +0.143 C 
ATOM      9  C   UNL     1      -3.245   1.705  -0.605  0.00  0.00    +0.253 C 
ATOM     10  N   UNL     1      -4.766  -1.419   0.389  0.00  0.00    -0.342 N 
ATOM     11  H   UNL     1      -5.726  -1.209   0.336  0.00  0.00    +0.144 HD
ATOM     12  H   UNL     1      -4.474  -2.318   0.666  0.00  0.00    +0.144 HD
ENDROOT
BRANCH   1  14
ATOM     13  F   UNL     1       3.291   2.023  -0.111  0.00  0.00    -0.235 F 
ATOM     14  C   UNL     1       0.940   0.459  -0.268  0.00  0.00    +0.106 C 
ATOM     15  C   UNL     1       3.258  -0.209  -0.815  0.00  0.00    +0.066 C 
ATOM     16  C   UNL     1       1.818  -0.180  -1.367  0.00  0.00    +0.028 C 
ATOM     17  C   UNL     1       1.840   0.534   0.974  0.00  0.00    +0.161 C 
ATOM     18  C   UNL     1       3.221   0.749   0.374  0.00  0.00    +0.192 C 
BRANCH  17  19
ATOM     19  O   UNL     1       1.492   1.617   1.818  0.00  0.00    -0.380 OA
ATOM     20  H   UNL     1       0.611   1.465   2.192  0.00  0.00    +0.211 HD
ENDBRANCH  17  19
BRANCH  15  21
ATOM     21  C   UNL     1       3.679  -1.619  -0.410  0.00  0.00    +0.140 C 
BRANCH  21  22
ATOM     22  O   UNL     1       5.008  -1.570   0.075  0.00  0.00    -0.382 OA
ATOM     23  H   UNL     1       5.290  -2.460   0.336  0.00  0.00    +0.210 HD
ENDBRANCH  21  22
ENDBRANCH  15  21
ENDBRANCH   1  14
TORSDOF 4
