REMARK  Name = 130403
REMARK  7 active torsions:
REMARK  status: ('A' for Active; 'I' for Inactive)
REMARK    1  A    between atoms: C_3  and  C_12
REMARK    2  A    between atoms: C_4  and  O_24
REMARK    3  A    between atoms: C_8  and  O_26
REMARK    4  A    between atoms: C_11  and  O_28
REMARK    5  A    between atoms: C_15  and  O_18
REMARK    6  A    between atoms: C_16  and  O_20
REMARK    7  A    between atoms: C_17  and  O_22
REMARK                            x       y       z     vdW  Elec       q    Type
REMARK                         _______ _______ _______ _____ _____    ______ ____
ROOT
ATOM      1  O   UNL     1       0.613  -0.828   0.210  0.00  0.00    -0.471 OA
ATOM      2  O   UNL     1       2.429   2.796  -0.431  0.00  0.00    -0.288 OA
ATOM      3  C   UNL     1      -0.055   0.405   0.519  0.00  0.00    +0.222 C 
ATOM      4  C   UNL     1       0.378   1.524  -0.430  0.00  0.00    +0.217 C 
ATOM      5  C   UNL     1       1.875   1.710  -0.311  0.00  0.00    +0.209 C 
ATOM      6  C   UNL     1       2.654   0.479  -0.074  0.00  0.00    +0.105 C 
ATOM      7  C   UNL     1       1.977  -0.721   0.157  0.00  0.00    +0.148 C 
ATOM      8  C   UNL     1       4.050   0.508  -0.108  0.00  0.00    +0.142 C 
ATOM      9  C   UNL     1       2.702  -1.903   0.319  0.00  0.00    +0.074 C 
ATOM     10  C   UNL     1       4.769  -0.674   0.074  0.00  0.00    +0.073 C 
ATOM     11  C   UNL     1       4.096  -1.878   0.282  0.00  0.00    +0.140 C 
ENDROOT
BRANCH   3  12
ATOM     12  C   UNL     1      -1.547   0.141   0.435  0.00  0.00    +0.026 C 
ATOM     13  C   UNL     1      -2.120  -0.222  -0.782  0.00  0.00    +0.040 C 
ATOM     14  C   UNL     1      -2.339   0.263   1.574  0.00  0.00    +0.039 C 
ATOM     15  C   UNL     1      -3.491  -0.465  -0.860  0.00  0.00    +0.175 C 
ATOM     16  C   UNL     1      -3.711   0.020   1.497  0.00  0.00    +0.170 C 
ATOM     17  C   UNL     1      -4.286  -0.344   0.279  0.00  0.00    +0.202 C 
BRANCH  15  18
ATOM     18  O   UNL     1      -4.041  -0.818  -2.055  0.00  0.00    -0.468 OA
ATOM     19  C   UNL     1      -3.158  -0.919  -3.171  0.00  0.00    +0.253 C 
ENDBRANCH  15  18
BRANCH  16  20
ATOM     20  O   UNL     1      -4.477   0.143   2.616  0.00  0.00    -0.503 OA
ATOM     21  H   UNL     1      -4.081   0.388   3.430  0.00  0.00    +0.292 HD
ENDBRANCH  16  20
BRANCH  17  22
ATOM     22  O   UNL     1      -5.627  -0.579   0.203  0.00  0.00    -0.501 OA
ATOM     23  H   UNL     1      -6.014  -0.823  -0.615  0.00  0.00    +0.292 HD
ENDBRANCH  17  22
ENDBRANCH   3  12
BRANCH   4  24
ATOM     24  O   UNL     1      -0.249   2.742  -0.068  0.00  0.00    -0.374 OA
ATOM     25  H   UNL     1      -1.212   2.643  -0.138  0.00  0.00    +0.211 HD
ENDBRANCH   4  24
BRANCH   8  26
ATOM     26  O   UNL     1       4.758   1.651  -0.326  0.00  0.00    -0.505 OA
ATOM     27  H   UNL     1       4.309   2.464  -0.452  0.00  0.00    +0.292 HD
ENDBRANCH   8  26
BRANCH  11  28
ATOM     28  O   UNL     1       4.801  -3.030   0.450  0.00  0.00    -0.505 OA
ATOM     29  H   UNL     1       4.350  -3.840   0.590  0.00  0.00    +0.292 HD
ENDBRANCH  11  28
TORSDOF 7
