13055260
  -OEChem-03292013303D

 38 39  0     1  0  0  0  0  0999 V2000
    1.4014    1.5284   -1.3956 O   0  0  0  0  0  0  0  0  0  0  0  0
    4.3512   -0.9399   -1.5357 O   0  0  0  0  0  0  0  0  0  0  0  0
    4.1721    0.1468    0.4601 O   0  0  0  0  0  0  0  0  0  0  0  0
   -4.7525   -2.2284   -0.1792 O   0  0  0  0  0  0  0  0  0  0  0  0
    1.4596   -0.0706    0.2767 N   0  0  0  0  0  0  0  0  0  0  0  0
    0.7456    3.1654    0.8385 N   0  0  0  0  0  0  0  0  0  0  0  0
    2.2714   -1.0398   -0.4476 C   0  0  2  0  0  0  0  0  0  0  0  0
    2.1213   -2.3361    0.3400 C   0  0  0  0  0  0  0  0  0  0  0  0
    1.8739   -1.8570    1.7683 C   0  0  0  0  0  0  0  0  0  0  0  0
    1.0458   -0.5957    1.5755 C   0  0  0  0  0  0  0  0  0  0  0  0
    1.0297    1.1166   -0.2953 C   0  0  0  0  0  0  0  0  0  0  0  0
    0.0556    1.9198    0.5293 C   0  0  2  0  0  0  0  0  0  0  0  0
    3.6832   -0.5362   -0.4276 C   0  0  0  0  0  0  0  0  0  0  0  0
   -1.2363    2.1832   -0.2442 C   0  0  0  0  0  0  0  0  0  0  0  0
   -2.1779    1.0016   -0.2266 C   0  0  0  0  0  0  0  0  0  0  0  0
   -2.0847    0.0461   -1.2247 C   0  0  0  0  0  0  0  0  0  0  0  0
   -3.1157    0.8977    0.7874 C   0  0  0  0  0  0  0  0  0  0  0  0
   -2.9542   -1.0445   -1.2086 C   0  0  0  0  0  0  0  0  0  0  0  0
   -3.9851   -0.1930    0.8037 C   0  0  0  0  0  0  0  0  0  0  0  0
   -3.9043   -1.1643   -0.1943 C   0  0  0  0  0  0  0  0  0  0  0  0
    1.9161   -1.1172   -1.4806 H   0  0  0  0  0  0  0  0  0  0  0  0
    2.9902   -2.9973    0.2698 H   0  0  0  0  0  0  0  0  0  0  0  0
    1.2406   -2.8853   -0.0147 H   0  0  0  0  0  0  0  0  0  0  0  0
    1.3652   -2.6030    2.3853 H   0  0  0  0  0  0  0  0  0  0  0  0
    2.8278   -1.6124    2.2505 H   0  0  0  0  0  0  0  0  0  0  0  0
   -0.0231   -0.8304    1.5268 H   0  0  0  0  0  0  0  0  0  0  0  0
    1.2290    0.1338    2.3694 H   0  0  0  0  0  0  0  0  0  0  0  0
   -0.2010    1.4554    1.4816 H   0  0  0  0  0  0  0  0  0  0  0  0
   -1.0331    2.4721   -1.2844 H   0  0  0  0  0  0  0  0  0  0  0  0
   -1.7667    3.0428    0.1896 H   0  0  0  0  0  0  0  0  0  0  0  0
    1.5468    2.9756    1.4399 H   0  0  0  0  0  0  0  0  0  0  0  0
    0.1304    3.7775    1.3731 H   0  0  0  0  0  0  0  0  0  0  0  0
    5.2783   -0.6192   -1.5418 H   0  0  0  0  0  0  0  0  0  0  0  0
   -1.3493    0.1301   -2.0195 H   0  0  0  0  0  0  0  0  0  0  0  0
   -3.1843    1.6474    1.5704 H   0  0  0  0  0  0  0  0  0  0  0  0
   -2.8863   -1.7977   -1.9888 H   0  0  0  0  0  0  0  0  0  0  0  0
   -4.7202   -0.2749    1.5998 H   0  0  0  0  0  0  0  0  0  0  0  0
   -5.3416   -2.1508    0.5909 H   0  0  0  0  0  0  0  0  0  0  0  0
  1 11  2  0  0  0  0
  2 13  1  0  0  0  0
  2 33  1  0  0  0  0
  3 13  2  0  0  0  0
  4 20  1  0  0  0  0
  4 38  1  0  0  0  0
  5  7  1  0  0  0  0
  5 10  1  0  0  0  0
  5 11  1  0  0  0  0
  6 12  1  0  0  0  0
  6 31  1  0  0  0  0
  6 32  1  0  0  0  0
  7  8  1  0  0  0  0
  7 13  1  0  0  0  0
  7 21  1  0  0  0  0
  8  9  1  0  0  0  0
  8 22  1  0  0  0  0
  8 23  1  0  0  0  0
  9 10  1  0  0  0  0
  9 24  1  0  0  0  0
  9 25  1  0  0  0  0
 10 26  1  0  0  0  0
 10 27  1  0  0  0  0
 11 12  1  0  0  0  0
 12 14  1  0  0  0  0
 12 28  1  0  0  0  0
 14 15  1  0  0  0  0
 14 29  1  0  0  0  0
 14 30  1  0  0  0  0
 15 16  2  0  0  0  0
 15 17  1  0  0  0  0
 16 18  1  0  0  0  0
 16 34  1  0  0  0  0
 17 19  2  0  0  0  0
 17 35  1  0  0  0  0
 18 20  2  0  0  0  0
 18 36  1  0  0  0  0
 19 20  1  0  0  0  0
 19 37  1  0  0  0  0
M  END
> <PUBCHEM_COMPOUND_CID>
13055260

> <PUBCHEM_CONFORMER_RMSD>
0.8

> <PUBCHEM_CONFORMER_DIVERSEORDER>
11
52
93
73
62
74
77
8
75
22
21
36
14
66
98
70
27
48
44
33
69
71
96
65
13
95
97
81
63
79
72
56
32
19
100
42
1
88
57
59
85
51
68
86
67
58
7
34
3
94
30
15
91
83
101
87
64
17
99
55
29
16
54
45
41
53
102
60
23
5
49
90
31
50
39
43
26
80
38
47
61
89
78
6
28
37
10
12
82
4
84
20
24
92
76
2
9
25
46
35
18
40

> <PUBCHEM_MMFF94_PARTIAL_CHARGES>
26
1 -0.57
10 0.3
11 0.57
12 0.33
13 0.66
14 0.14
15 -0.14
16 -0.15
17 -0.15
18 -0.15
19 -0.15
2 -0.65
20 0.08
3 -0.57
31 0.36
32 0.36
33 0.5
34 0.15
35 0.15
36 0.15
37 0.15
38 0.45
4 -0.53
5 -0.66
6 -0.99
7 0.36

> <PUBCHEM_EFFECTIVE_ROTOR_COUNT>
6

> <PUBCHEM_PHARMACOPHORE_FEATURES>
9
1 1 acceptor
1 2 acceptor
1 3 acceptor
1 4 donor
1 6 cation
1 6 donor
3 2 3 13 anion
5 5 7 8 9 10 rings
6 15 16 17 18 19 20 rings

> <PUBCHEM_HEAVY_ATOM_COUNT>
20

> <PUBCHEM_ATOM_DEF_STEREO_COUNT>
0

> <PUBCHEM_ATOM_UDEF_STEREO_COUNT>
2

> <PUBCHEM_BOND_DEF_STEREO_COUNT>
0

> <PUBCHEM_BOND_UDEF_STEREO_COUNT>
0

> <PUBCHEM_ISOTOPIC_ATOM_COUNT>
0

> <PUBCHEM_COMPONENT_COUNT>
1

> <PUBCHEM_CACTVS_TAUTO_COUNT>
2

> <PUBCHEM_CONFORMER_ID>
00C7351C0000000B

> <PUBCHEM_MMFF94_ENERGY>
44.0823

> <PUBCHEM_FEATURE_SELFOVERLAP>
45.726

> <PUBCHEM_SHAPE_FINGERPRINT>
11578080 2 18188750782755783628
11725454 13 14201975591435762046
11806522 49 18408321116154945644
12403259 327 14907902721229277903
12553582 1 18411694357815334931
12596599 1 18271534126012983459
12633257 1 14117798011784135063
13464513 79 18342454901952275039
13533116 47 18056197123724945539
13583140 156 13830127274593217173
14787075 74 18338237171654552192
15375462 189 18409168787943060601
15415430 112 18339646624695297021
15537594 2 18262532411463173355
17349148 13 17677052326922915882
17492 54 17168720729253694934
20291156 8 18410855426005865239
20645477 70 18196070356905841183
21634736 98 18335424624667241182
21731516 1 18336536128086190227
2255824 54 18192152809349839053
22749437 52 9150877395746069459
23402539 116 18261110717337834170
23559900 14 18126557921790735536
2871803 45 18260824912527570127
34934 24 18264487286949518521
6287921 2 17702089473080157376
7364860 26 18199744928481028441

> <PUBCHEM_SHAPE_MULTIPOLES>
378.15
7.91
2.66
1.39
1.72
0.88
-0.08
-4.62
1.18
0.23
-0.48
-0.49
-0.26
-0.53

> <PUBCHEM_SHAPE_SELFOVERLAP>
797

> <PUBCHEM_SHAPE_VOLUME>
212.7

> <PUBCHEM_COORDINATE_TYPE>
2
5
10

$$$$
