13051589
  -OEChem-03292013303D

 62 66  0     1  0  0  0  0  0999 V2000
   -2.1076   -0.5697    0.0742 O   0  0  0  0  0  0  0  0  0  0  0  0
   -4.4422   -0.4909   -0.3382 O   0  0  0  0  0  0  0  0  0  0  0  0
   -2.5724    4.0940    0.9880 O   0  0  0  0  0  0  0  0  0  0  0  0
   -6.0084   -2.8967   -0.0518 O   0  0  0  0  0  0  0  0  0  0  0  0
    0.1360   -1.4160   -0.9183 O   0  0  0  0  0  0  0  0  0  0  0  0
   -0.7318    4.0121   -1.6959 O   0  0  0  0  0  0  0  0  0  0  0  0
    2.4431   -2.4220   -0.9853 O   0  0  0  0  0  0  0  0  0  0  0  0
    4.6180    1.9483    1.1865 O   0  0  0  0  0  0  0  0  0  0  0  0
   -3.7348   -4.5981    0.2687 N   0  0  0  0  0  0  0  0  0  0  0  0
   -1.5925    0.7017   -0.3194 C   0  0  1  0  0  0  0  0  0  0  0  0
   -1.7594    3.1574    0.2854 C   0  0  2  0  0  0  0  0  0  0  0  0
   -2.4079    1.7833    0.3922 C   0  0  0  0  0  0  0  0  0  0  0  0
   -0.3538    3.1447    0.8903 C   0  0  0  0  0  0  0  0  0  0  0  0
   -0.1103    0.7759   -0.0266 C   0  0  0  0  0  0  0  0  0  0  0  0
    0.4711    1.9377    0.5126 C   0  0  0  0  0  0  0  0  0  0  0  0
   -3.1735   -0.9804   -0.7772 C   0  0  2  0  0  0  0  0  0  0  0  0
   -3.6363   -3.1479    0.4222 C   0  0  1  0  0  0  0  0  0  0  0  0
   -3.1809   -2.5059   -0.8932 C   0  0  0  0  0  0  0  0  0  0  0  0
   -4.9756   -2.5463    0.8709 C   0  0  1  0  0  0  0  0  0  0  0  0
   -4.8631   -1.0157    0.9281 C   0  0  2  0  0  0  0  0  0  0  0  0
    0.7187   -0.3091   -0.3635 C   0  0  0  0  0  0  0  0  0  0  0  0
   -1.7666    3.6623   -1.1302 C   0  0  0  0  0  0  0  0  0  0  0  0
    1.8556    1.9741    0.7516 C   0  0  0  0  0  0  0  0  0  0  0  0
    2.0987   -0.2597   -0.1317 C   0  0  0  0  0  0  0  0  0  0  0  0
    2.6665    0.8804    0.4302 C   0  0  0  0  0  0  0  0  0  0  0  0
   -6.1902   -0.3490    1.2749 C   0  0  0  0  0  0  0  0  0  0  0  0
   -3.1016    3.7165   -1.8225 C   0  0  0  0  0  0  0  0  0  0  0  0
    2.9417   -1.4198   -0.4880 C   0  0  0  0  0  0  0  0  0  0  0  0
    4.1200    0.9476    0.6858 C   0  0  0  0  0  0  0  0  0  0  0  0
    4.3956   -1.3537   -0.2360 C   0  0  0  0  0  0  0  0  0  0  0  0
    4.9644   -0.2110    0.3301 C   0  0  0  0  0  0  0  0  0  0  0  0
    5.2062   -2.4454   -0.5691 C   0  0  0  0  0  0  0  0  0  0  0  0
    6.3441   -0.1594    0.5625 C   0  0  0  0  0  0  0  0  0  0  0  0
    6.5808   -2.3900   -0.3358 C   0  0  0  0  0  0  0  0  0  0  0  0
    7.1484   -1.2493    0.2285 C   0  0  0  0  0  0  0  0  0  0  0  0
   -1.6744    0.8451   -1.4056 H   0  0  0  0  0  0  0  0  0  0  0  0
   -3.4396    1.8003    0.0233 H   0  0  0  0  0  0  0  0  0  0  0  0
   -2.5189    1.5213    1.4551 H   0  0  0  0  0  0  0  0  0  0  0  0
   -0.4378    3.1559    1.9861 H   0  0  0  0  0  0  0  0  0  0  0  0
    0.1854    4.0641    0.6266 H   0  0  0  0  0  0  0  0  0  0  0  0
   -3.0233   -0.6008   -1.7950 H   0  0  0  0  0  0  0  0  0  0  0  0
   -2.8821   -2.9442    1.1925 H   0  0  0  0  0  0  0  0  0  0  0  0
   -2.1804   -2.8706   -1.1542 H   0  0  0  0  0  0  0  0  0  0  0  0
   -3.8585   -2.7993   -1.7051 H   0  0  0  0  0  0  0  0  0  0  0  0
   -5.2643   -2.9419    1.8514 H   0  0  0  0  0  0  0  0  0  0  0  0
   -4.1273   -0.7273    1.6892 H   0  0  0  0  0  0  0  0  0  0  0  0
    2.2894    2.8711    1.1887 H   0  0  0  0  0  0  0  0  0  0  0  0
   -2.0936    4.9398    1.0293 H   0  0  0  0  0  0  0  0  0  0  0  0
   -6.0560    0.7356    1.3545 H   0  0  0  0  0  0  0  0  0  0  0  0
   -6.9390   -0.5099    0.4921 H   0  0  0  0  0  0  0  0  0  0  0  0
   -6.5847   -0.7202    2.2255 H   0  0  0  0  0  0  0  0  0  0  0  0
   -4.4396   -4.8217   -0.4334 H   0  0  0  0  0  0  0  0  0  0  0  0
   -4.0673   -5.0110    1.1395 H   0  0  0  0  0  0  0  0  0  0  0  0
   -3.4057    2.7142   -2.1321 H   0  0  0  0  0  0  0  0  0  0  0  0
   -3.8626    4.1617   -1.1779 H   0  0  0  0  0  0  0  0  0  0  0  0
   -3.0144    4.3430   -2.7156 H   0  0  0  0  0  0  0  0  0  0  0  0
   -5.8660   -2.4000   -0.8749 H   0  0  0  0  0  0  0  0  0  0  0  0
    0.7410   -2.1719   -0.9046 H   0  0  0  0  0  0  0  0  0  0  0  0
    4.7879   -3.3460   -1.0106 H   0  0  0  0  0  0  0  0  0  0  0  0
    6.8109    0.7184    1.0014 H   0  0  0  0  0  0  0  0  0  0  0  0
    7.2092   -3.2372   -0.5947 H   0  0  0  0  0  0  0  0  0  0  0  0
    8.2187   -1.2087    0.4088 H   0  0  0  0  0  0  0  0  0  0  0  0
  1 10  1  0  0  0  0
  1 16  1  0  0  0  0
  2 16  1  0  0  0  0
  2 20  1  0  0  0  0
  3 11  1  0  0  0  0
  3 48  1  0  0  0  0
  4 19  1  0  0  0  0
  4 57  1  0  0  0  0
  5 21  1  0  0  0  0
  5 58  1  0  0  0  0
  6 22  2  0  0  0  0
  7 28  2  0  0  0  0
  8 29  2  0  0  0  0
  9 17  1  0  0  0  0
  9 52  1  0  0  0  0
  9 53  1  0  0  0  0
 10 12  1  0  0  0  0
 10 14  1  0  0  0  0
 10 36  1  0  0  0  0
 11 12  1  0  0  0  0
 11 13  1  0  0  0  0
 11 22  1  0  0  0  0
 12 37  1  0  0  0  0
 12 38  1  0  0  0  0
 13 15  1  0  0  0  0
 13 39  1  0  0  0  0
 13 40  1  0  0  0  0
 14 15  1  0  0  0  0
 14 21  2  0  0  0  0
 15 23  2  0  0  0  0
 16 18  1  0  0  0  0
 16 41  1  0  0  0  0
 17 18  1  0  0  0  0
 17 19  1  0  0  0  0
 17 42  1  0  0  0  0
 18 43  1  0  0  0  0
 18 44  1  0  0  0  0
 19 20  1  0  0  0  0
 19 45  1  0  0  0  0
 20 26  1  0  0  0  0
 20 46  1  0  0  0  0
 21 24  1  0  0  0  0
 22 27  1  0  0  0  0
 23 25  1  0  0  0  0
 23 47  1  0  0  0  0
 24 25  2  0  0  0  0
 24 28  1  0  0  0  0
 25 29  1  0  0  0  0
 26 49  1  0  0  0  0
 26 50  1  0  0  0  0
 26 51  1  0  0  0  0
 27 54  1  0  0  0  0
 27 55  1  0  0  0  0
 27 56  1  0  0  0  0
 28 30  1  0  0  0  0
 29 31  1  0  0  0  0
 30 31  1  0  0  0  0
 30 32  2  0  0  0  0
 31 33  2  0  0  0  0
 32 34  1  0  0  0  0
 32 59  1  0  0  0  0
 33 35  1  0  0  0  0
 33 60  1  0  0  0  0
 34 35  2  0  0  0  0
 34 61  1  0  0  0  0
 35 62  1  0  0  0  0
M  END
> <PUBCHEM_COMPOUND_CID>
13051589

> <PUBCHEM_CONFORMER_RMSD>
0.8

> <PUBCHEM_CONFORMER_DIVERSEORDER>
4
14
13
11
2
18
21
19
20
12
6
9
1
10
8
5
15
7
3
16
17

> <PUBCHEM_MMFF94_PARTIAL_CHARGES>
42
1 -0.56
10 0.42
11 0.34
13 0.14
14 -0.14
15 -0.14
16 0.56
17 0.27
19 0.28
2 -0.56
20 0.28
21 0.08
22 0.45
23 -0.15
24 0.09
25 0.09
27 0.06
28 0.4
29 0.4
3 -0.68
30 0.09
31 0.09
32 -0.15
33 -0.15
34 -0.15
35 -0.15
4 -0.68
47 0.15
48 0.4
5 -0.53
52 0.36
53 0.36
57 0.4
58 0.45
59 0.15
6 -0.57
60 0.15
61 0.15
62 0.15
7 -0.57
8 -0.57
9 -0.99

> <PUBCHEM_EFFECTIVE_ROTOR_COUNT>
5

> <PUBCHEM_PHARMACOPHORE_FEATURES>
17
1 1 acceptor
1 2 acceptor
1 3 acceptor
1 3 donor
1 4 acceptor
1 4 donor
1 5 donor
1 6 acceptor
1 7 acceptor
1 8 acceptor
1 9 cation
1 9 donor
6 10 11 12 13 14 15 rings
6 14 15 21 23 24 25 rings
6 2 16 17 18 19 20 rings
6 24 25 28 29 30 31 rings
6 30 31 32 33 34 35 rings

> <PUBCHEM_HEAVY_ATOM_COUNT>
35

> <PUBCHEM_ATOM_DEF_STEREO_COUNT>
6

> <PUBCHEM_ATOM_UDEF_STEREO_COUNT>
0

> <PUBCHEM_BOND_DEF_STEREO_COUNT>
0

> <PUBCHEM_BOND_UDEF_STEREO_COUNT>
0

> <PUBCHEM_ISOTOPIC_ATOM_COUNT>
0

> <PUBCHEM_COMPONENT_COUNT>
1

> <PUBCHEM_CACTVS_TAUTO_COUNT>
24

> <PUBCHEM_CONFORMER_ID>
00C726C500000004

> <PUBCHEM_MMFF94_ENERGY>
99.6315

> <PUBCHEM_FEATURE_SELFOVERLAP>
86.38

> <PUBCHEM_SHAPE_FINGERPRINT>
10050765 1 18412265013457563312
10190108 129 18188788149249833507
10258939 38 18116978082999951312
10411042 1 18339924913133470967
10688039 33 18335419105570884325
11135609 12 18410576175854122496
117089 54 18192440876980653659
12107183 9 18270976712820851379
12166972 35 17676491678750017006
12422481 6 18059859488559251835
12760667 363 18343017783518204207
12788726 201 18261105236569428331
13140716 1 18269558393896468435
13540713 4 18269818892369463472
13690498 29 18334861576356671060
13782708 43 18342457019972369706
14347332 77 18407760331081157092
14394314 77 18408327662281360075
14415360 78 17835232351113695885
14675019 173 18040160621927209797
14790565 3 17259342691926358289
15042514 8 18411984633064315449
15064986 96 17560538282134207007
15131766 46 15408330109757032472
15361156 5 18260842530604783002
16087824 20 18264770962126144229
16110190 28 18272656778792837027
16993438 75 18269826537204963743
17492 89 18411980256982763944
17686467 74 18334572482736133992
1813 80 18114744949013458853
18608769 82 18341331184817025834
19958102 18 18118955889131242125
20739085 24 17977663439857691305
21033650 10 17095514059670734605
21267235 1 18343306959898933638
21716022 299 17824841167530027957
22182313 1 17703515372685185910
23559900 14 18412254060435812040
25223398 141 18261394390826273388
3103668 31 18187075128042037133
350125 39 18343302561630778968
4073 2 18340485544257979874
4409770 3 18262512586294938341
5080951 261 18188765029309464705
5104073 3 18200868466946883410
513202 73 18335425642621950323
54583773 228 18409174329896245734
59755656 520 18123747552495508997
9555976 147 17130727127011558699

> <PUBCHEM_SHAPE_MULTIPOLES>
668.35
15.05
5.42
1.16
13.24
1.87
-0.2
-13.59
2.68
-7.24
-0.88
-0.75
0.73
2.14

> <PUBCHEM_SHAPE_SELFOVERLAP>
1481.663

> <PUBCHEM_SHAPE_VOLUME>
351.7

> <PUBCHEM_COORDINATE_TYPE>
2
5
10

$$$$
