REMARK  Name = 130575
REMARK  6 active torsions:
REMARK  status: ('A' for Active; 'I' for Inactive)
REMARK    1  A    between atoms: CA_6  and  CB_37
REMARK    2  A    between atoms: C_7  and  C_34
REMARK    3  A    between atoms: C_8  and  N_27
REMARK    4  A    between atoms: C_21  and  O_31
REMARK    5  A    between atoms: C_34  and  O_35
REMARK    6  A    between atoms: CB_37  and  CG_40
REMARK                            x       y       z     vdW  Elec       q    Type
REMARK                         _______ _______ _______ _____ _____    ______ ____
ROOT
ATOM      1  O   UNK A   3       3.232  -1.675   1.190  0.00  0.00    -0.450 OA
ATOM      2  O   ASN A   2      -1.239  -0.302  -1.581  0.00  0.00    -0.273 OA
ATOM      3  O   UNK A   1      -0.130   2.093   1.675  0.00  0.00    -0.277 OA
ATOM      4  N   ASN A   2      -1.113   2.131  -0.427  0.00  0.00    -0.300 N 
ATOM      5  N   UNK A   3      -2.876  -1.030  -0.099  0.00  0.00    -0.295 N 
ATOM      6  CA  ASN A   2      -2.279   1.316  -0.108  0.00  0.00    +0.158 C 
ATOM      7  C   UNK A   3      -2.860  -2.433  -0.484  0.00  0.00    +0.176 C 
ATOM      8  C   UNK A   1       0.981   3.312  -0.105  0.00  0.00    +0.017 C 
ATOM      9  C   UNK A   1       2.334   3.154   0.607  0.00  0.00    +0.013 C 
ATOM     10  C   UNK A   3      -2.164  -3.317   0.557  0.00  0.00    +0.057 C 
ATOM     11  C   ASN A   2      -2.046  -0.077  -0.681  0.00  0.00    +0.241 C 
ATOM     12  C   UNK A   1      -0.121   2.437   0.495  0.00  0.00    +0.202 C 
ATOM     13  C   UNK A   1       3.052   1.883   0.217  0.00  0.00    -0.021 C 
ATOM     14  C   UNK A   3      -0.709  -2.965   0.748  0.00  0.00    -0.020 C 
ATOM     15  C   UNK A   1       2.828   0.694   0.920  0.00  0.00    +0.036 C 
ATOM     16  C   UNK A   1       3.940   1.872  -0.867  0.00  0.00    -0.001 C 
ATOM     17  C   UNK A   1       3.465  -0.488   0.526  0.00  0.00    +0.179 C 
ATOM     18  C   UNK A   3       0.208  -3.133  -0.299  0.00  0.00    -0.001 C 
ATOM     19  C   UNK A   3      -0.265  -2.430   1.966  0.00  0.00    -0.001 C 
ATOM     20  C   UNK A   3       1.942  -2.138   1.047  0.00  0.00    +0.145 C 
ATOM     21  C   UNK A   1       4.373  -0.485  -0.531  0.00  0.00    +0.173 C 
ATOM     22  C   UNK A   3       1.532  -2.719  -0.154  0.00  0.00    +0.037 C 
ATOM     23  C   UNK A   3       1.062  -2.029   2.122  0.00  0.00    +0.037 C 
ATOM     24  C   UNK A   1       4.604   0.697  -1.232  0.00  0.00    +0.040 C 
ATOM     25  H   ASN A   2      -1.025   2.482  -1.342  0.00  0.00    +0.150 HD
ATOM     26  H   UNK A   3      -3.501  -0.742   0.604  0.00  0.00    +0.150 HD
ENDROOT
BRANCH   8  27
ATOM     27  N   UNK A   1       0.524   4.695   0.048  0.00  0.00    +0.388 N 
ATOM     28  H   UNK A   1       1.224   5.329  -0.338  0.00  0.00    -0.089 HD
ATOM     29  H   UNK A   1       0.387   4.901   1.037  0.00  0.00    -0.089 HD
ATOM     30  H   UNK A   1      -0.358   4.819  -0.450  0.00  0.00    -0.089 HD
ENDBRANCH   8  27
BRANCH  21  31
ATOM     31  O   UNK A   1       5.043  -1.613  -0.887  0.00  0.00    -0.468 OA
ATOM     32  C   UNK A   1       5.951  -1.508  -1.982  0.00  0.00    +0.253 C 
ENDBRANCH  21  31
BRANCH   7  34
ATOM     33  O   UNK A   3      -5.206  -2.343   0.078  0.00  0.00    -0.248 OA
ATOM     34  C   UNK A   3      -4.304  -2.803  -0.605  0.00  0.00    +0.332 C 
BRANCH  34  35
ATOM     35  O   UNK A   3      -4.481  -3.728  -1.581  0.00  0.00    -0.479 OA
ATOM     36  H   UNK A   3      -3.745  -4.041  -2.069  0.00  0.00    +0.295 HD
ENDBRANCH  34  35
ENDBRANCH   7  34
BRANCH   6  37
ATOM     37  CB  ASN A   2      -3.541   1.934  -0.694  0.00  0.00    +0.114 C 
BRANCH  37  40
ATOM     38  OD1 ASN A   2      -3.352   4.351  -0.676  0.00  0.00    -0.275 OA
ATOM     39  ND2 ASN A   2      -4.591   3.318   0.962  0.00  0.00    -0.329 N 
ATOM     40  CG  ASN A   2      -3.797   3.328  -0.164  0.00  0.00    +0.222 C 
ATOM     41 HD21 ASN A   2      -4.831   4.165   1.403  0.00  0.00    +0.145 HD
ATOM     42 HD22 ASN A   2      -4.918   2.464   1.326  0.00  0.00    +0.145 HD
ENDBRANCH  37  40
ENDBRANCH   6  37
TORSDOF 6
