REMARK  Name = 130513
REMARK  6 active torsions:
REMARK  status: ('A' for Active; 'I' for Inactive)
REMARK    1  A    between atoms: C_6  and  O_17
REMARK    2  A    between atoms: C_8  and  C_23
REMARK    3  A    between atoms: C_11  and  O_19
REMARK    4  A    between atoms: C_14  and  C_22
REMARK    5  A    between atoms: C_23  and  O_24
REMARK    6  A    between atoms: O_24  and  C_27
REMARK                            x       y       z     vdW  Elec       q    Type
REMARK                         _______ _______ _______ _____ _____    ______ ____
ROOT
ATOM      1  O   UNL     1      -0.096   1.978   1.400  0.00  0.00    -0.236 OA
ATOM      2  N   UNL     1      -0.548   1.484  -1.891  0.00  0.00    +0.388 N 
ATOM      3  N   UNL     1       1.086   1.823   0.660  0.00  0.00    -0.239 N 
ATOM      4  C   UNL     1      -1.295   1.896  -0.704  0.00  0.00    -0.024 C 
ATOM      5  C   UNL     1      -0.137   2.717  -1.242  0.00  0.00    -0.051 C 
ATOM      6  C   UNL     1      -1.133   1.277   0.678  0.00  0.00    +0.196 C 
ATOM      7  C   UNL     1       1.140   2.775  -0.452  0.00  0.00    +0.109 C 
ATOM      8  C   UNL     1      -0.821  -0.253   0.748  0.00  0.00    +0.122 C 
ATOM      9  C   UNL     1       0.649  -0.555   0.470  0.00  0.00    +0.037 C 
ATOM     10  C   UNL     1       1.564   0.520   0.423  0.00  0.00    +0.081 C 
ATOM     11  C   UNL     1       1.118  -1.860   0.273  0.00  0.00    +0.131 C 
ATOM     12  C   UNL     1       2.911   0.275   0.126  0.00  0.00    +0.022 C 
ATOM     13  C   UNL     1       2.465  -2.093  -0.007  0.00  0.00    +0.040 C 
ATOM     14  C   UNL     1       3.358  -1.027  -0.087  0.00  0.00    +0.047 C 
ATOM     15  H   UNL     1      -0.997   1.523  -2.806  0.00  0.00    -0.084 HD
ATOM     16  H   UNL     1      -0.059   0.630  -2.155  0.00  0.00    -0.084 HD
ENDROOT
BRANCH   6  17
ATOM     17  O   UNL     1      -2.359   1.467   1.406  0.00  0.00    -0.363 OA
ATOM     18  H   UNL     1      -2.600   2.407   1.394  0.00  0.00    +0.213 HD
ENDBRANCH   6  17
BRANCH  11  19
ATOM     19  O   UNL     1       0.307  -2.950   0.382  0.00  0.00    -0.506 OA
ATOM     20  H   UNL     1      -0.604  -2.839   0.570  0.00  0.00    +0.292 HD
ENDBRANCH  11  19
BRANCH  14  22
ATOM     21  O   UNL     1       5.603  -0.376  -0.454  0.00  0.00    -0.283 OA
ATOM     22  C   UNL     1       4.761  -1.275  -0.380  0.00  0.00    +0.234 C 
ENDBRANCH  14  22
BRANCH   8  23
ATOM     23  C   UNL     1      -1.833  -1.040  -0.105  0.00  0.00    +0.219 C 
BRANCH  23  24
ATOM     24  O   UNL     1      -3.131  -0.649   0.287  0.00  0.00    -0.434 OA
BRANCH  24  27
ATOM     25  O   UNL     1      -4.049  -2.090  -1.257  0.00  0.00    -0.227 OA
ATOM     26  N   UNL     1      -5.384  -0.794   0.094  0.00  0.00    -0.295 N 
ATOM     27  C   UNL     1      -4.176  -1.252  -0.370  0.00  0.00    +0.398 C 
ATOM     28  H   UNL     1      -5.412  -0.118   0.810  0.00  0.00    +0.148 HD
ATOM     29  H   UNL     1      -6.222  -1.141  -0.288  0.00  0.00    +0.148 HD
ENDBRANCH  24  27
ENDBRANCH  23  24
ENDBRANCH   8  23
TORSDOF 6
