REMARK  Name = 130540
REMARK  5 active torsions:
REMARK  status: ('A' for Active; 'I' for Inactive)
REMARK    1  A    between atoms: C_1  and  C_20
REMARK    2  A    between atoms: C_2  and  N_7
REMARK    3  A    between atoms: C_4  and  O_16
REMARK    4  A    between atoms: C_5  and  O_18
REMARK    5  A    between atoms: C_20  and  O_21
REMARK                            x       y       z     vdW  Elec       q    Type
REMARK                         _______ _______ _______ _____ _____    ______ ____
ROOT
ATOM      1  C   UNL     1       2.631  -0.332   0.274  0.00  0.00    +0.060 C 
ATOM      2  C   UNL     1       0.407   0.631   0.566  0.00  0.00    +0.119 C 
ATOM      3  C   UNL     1       1.293  -0.557   0.980  0.00  0.00    +0.029 C 
ATOM      4  C   UNL     1       2.197   0.299  -1.046  0.00  0.00    +0.141 C 
ATOM      5  C   UNL     1       1.117   1.297  -0.626  0.00  0.00    +0.156 C 
ENDROOT
BRANCH   2   7
ATOM      6  O   UNL     1      -1.952   1.471   1.856  0.00  0.00    -0.193 OA
ATOM      7  N   UNL     1      -0.925   0.200   0.227  0.00  0.00    -0.204 N 
ATOM      8  N   UNL     1      -3.312   0.213   0.544  0.00  0.00    -0.306 NA
ATOM      9  N   UNL     1      -4.700  -1.079  -0.802  0.00  0.00    -0.332 N 
ATOM     10  C   UNL     1      -1.083  -0.700  -0.812  0.00  0.00    +0.081 C 
ATOM     11  C   UNL     1      -2.062   0.670   0.925  0.00  0.00    +0.274 C 
ATOM     12  C   UNL     1      -2.276  -1.152  -1.193  0.00  0.00    +0.065 C 
ATOM     13  C   UNL     1      -3.449  -0.637  -0.440  0.00  0.00    +0.193 C 
ATOM     14  H   UNL     1      -5.495  -0.754  -0.321  0.00  0.00    +0.145 HD
ATOM     15  H   UNL     1      -4.800  -1.719  -1.543  0.00  0.00    +0.145 HD
ENDBRANCH   2   7
BRANCH   4  16
ATOM     16  O   UNL     1       3.279   0.915  -1.716  0.00  0.00    -0.382 OA
ATOM     17  H   UNL     1       3.933   0.243  -1.961  0.00  0.00    +0.210 HD
ENDBRANCH   4  16
BRANCH   5  18
ATOM     18  O   UNL     1       1.691   2.532  -0.203  0.00  0.00    -0.380 OA
ATOM     19  H   UNL     1       0.985   3.144   0.057  0.00  0.00    +0.211 HD
ENDBRANCH   5  18
BRANCH   1  20
ATOM     20  C   UNL     1       3.435  -1.612   0.094  0.00  0.00    +0.140 C 
BRANCH  20  21
ATOM     21  O   UNL     1       3.710  -2.160   1.371  0.00  0.00    -0.382 OA
ATOM     22  H   UNL     1       4.223  -2.977   1.269  0.00  0.00    +0.210 HD
ENDBRANCH  20  21
ENDBRANCH   1  20
TORSDOF 5
