REMARK  Name = 130588
REMARK  10 active torsions:
REMARK  status: ('A' for Active; 'I' for Inactive)
REMARK    1  A    between atoms: C_2  and  C_10
REMARK    2  A    between atoms: C_3  and  C_20
REMARK    3  A    between atoms: C_4  and  C_32
REMARK    4  A    between atoms: C_13  and  N_18
REMARK    5  A    between atoms: C_20  and  O_21
REMARK    6  A    between atoms: O_21  and  C_22
REMARK    7  A    between atoms: C_22  and  C_23
REMARK    8  A    between atoms: C_23  and  N_24
REMARK    9  A    between atoms: C_32  and  O_33
REMARK   10  A    between atoms: O_33  and  C_34
REMARK                            x       y       z     vdW  Elec       q    Type
REMARK                         _______ _______ _______ _____ _____    ______ ____
ROOT
ATOM      1  N   UNL     1      -2.939   3.011  -0.529  0.00  0.00    -0.334 N 
ATOM      2  C   UNL     1      -1.547   0.798   0.562  0.00  0.00    +0.011 C 
ATOM      3  C   UNL     1      -0.850   2.066   0.057  0.00  0.00    +0.071 C 
ATOM      4  C   UNL     1      -3.074   0.919   0.567  0.00  0.00    +0.085 C 
ATOM      5  C   UNL     1      -1.556   3.092  -0.469  0.00  0.00    +0.098 C 
ATOM      6  C   UNL     1      -3.695   1.983   0.009  0.00  0.00    +0.028 C 
ATOM      7  C   UNL     1      -0.969   4.361  -1.026  0.00  0.00    +0.026 C 
ATOM      8  C   UNL     1      -5.184   2.174  -0.086  0.00  0.00    +0.047 C 
ATOM      9  H   UNL     1      -3.418   3.738  -0.988  0.00  0.00    +0.147 HD
ENDROOT
BRANCH   2  10
ATOM     10  C   UNL     1      -1.129  -0.381  -0.269  0.00  0.00    +0.002 C 
ATOM     11  C   UNL     1      -0.447  -1.435   0.328  0.00  0.00    +0.024 C 
ATOM     12  C   UNL     1      -1.428  -0.406  -1.626  0.00  0.00    +0.000 C 
ATOM     13  C   UNL     1      -0.058  -2.530  -0.445  0.00  0.00    +0.143 C 
ATOM     14  C   UNL     1      -1.039  -1.500  -2.398  0.00  0.00    +0.002 C 
ATOM     15  C   UNL     1      -0.354  -2.562  -1.807  0.00  0.00    +0.024 C 
BRANCH  13  18
ATOM     16  O   UNL     1       0.977  -4.587  -0.556  0.00  0.00    -0.126 OA
ATOM     17  O   UNL     1       0.894  -3.563   1.384  0.00  0.00    -0.126 OA
ATOM     18  N   UNL     1       0.637  -3.612   0.156  0.00  0.00    +0.058 N 
ENDBRANCH  13  18
ENDBRANCH   2  10
BRANCH   3  20
ATOM     19  O   UNL     1       1.142   2.547   1.248  0.00  0.00    -0.245 OA
ATOM     20  C   UNL     1       0.610   2.131   0.236  0.00  0.00    +0.339 C 
BRANCH  20  21
ATOM     21  O   UNL     1       1.200   1.660  -0.889  0.00  0.00    -0.448 OA
BRANCH  21  22
ATOM     22  C   UNL     1       2.631   1.658  -0.868  0.00  0.00    +0.186 C 
BRANCH  22  23
ATOM     23  C   UNL     1       3.111   0.328  -0.309  0.00  0.00    -0.029 C 
BRANCH  23  24
ATOM     24  N   UNL     1       4.572   0.274  -0.286  0.00  0.00    +0.389 N 
ATOM     25  C   UNL     1       5.111   1.324   0.589  0.00  0.00    -0.077 C 
ATOM     26  C   UNL     1       5.030  -1.057   0.138  0.00  0.00    -0.077 C 
ATOM     27  C   UNL     1       6.640   1.313   0.587  0.00  0.00    -0.023 C 
ATOM     28  C   UNL     1       6.557  -1.146   0.120  0.00  0.00    -0.023 C 
ATOM     29  C   UNL     1       7.186  -0.055   0.980  0.00  0.00    -0.004 C 
ATOM     30  H   UNL     1       4.921   0.441  -1.230  0.00  0.00    -0.080 HD
ENDBRANCH  23  24
ENDBRANCH  22  23
ENDBRANCH  21  22
ENDBRANCH  20  21
ENDBRANCH   3  20
BRANCH   4  32
ATOM     31  O   UNL     1      -4.078  -0.134   2.438  0.00  0.00    -0.245 OA
ATOM     32  C   UNL     1      -3.818  -0.153   1.250  0.00  0.00    +0.342 C 
BRANCH  32  33
ATOM     33  O   UNL     1      -4.132  -1.104   0.337  0.00  0.00    -0.445 OA
BRANCH  33  34
ATOM     34  C   UNL     1      -4.863  -2.221   0.853  0.00  0.00    +0.209 C 
ATOM     35  C   UNL     1      -5.140  -3.192  -0.275  0.00  0.00    +0.051 C 
ENDBRANCH  33  34
ENDBRANCH  32  33
ENDBRANCH   4  32
TORSDOF 10
