130575
  -OEChem-03292013323D

 60 62  0     1  0  0  0  0  0999 V2000
    3.2319   -1.6748    1.1895 O   0  0  0  0  0  0  0  0  0  0  0  0
   -1.2391   -0.3019   -1.5811 O   0  0  0  0  0  0  0  0  0  0  0  0
   -0.1302    2.0934    1.6755 O   0  0  0  0  0  0  0  0  0  0  0  0
   -4.4806   -3.7280   -1.5805 O   0  0  0  0  0  0  0  0  0  0  0  0
    5.0433   -1.6129   -0.8869 O   0  0  0  0  0  0  0  0  0  0  0  0
   -5.2059   -2.3426    0.0779 O   0  0  0  0  0  0  0  0  0  0  0  0
   -3.3519    4.3511   -0.6761 O   0  0  0  0  0  0  0  0  0  0  0  0
   -1.1135    2.1305   -0.4266 N   0  0  0  0  0  0  0  0  0  0  0  0
   -2.8755   -1.0295   -0.0994 N   0  0  0  0  0  0  0  0  0  0  0  0
    0.5238    4.6952    0.0476 N   0  0  0  0  0  0  0  0  0  0  0  0
   -4.5910    3.3178    0.9623 N   0  0  0  0  0  0  0  0  0  0  0  0
   -2.2787    1.3164   -0.1084 C   0  0  2  0  0  0  0  0  0  0  0  0
   -2.8595   -2.4330   -0.4844 C   0  0  1  0  0  0  0  0  0  0  0  0
    0.9811    3.3116   -0.1051 C   0  0  1  0  0  0  0  0  0  0  0  0
    2.3342    3.1544    0.6073 C   0  0  0  0  0  0  0  0  0  0  0  0
   -2.1639   -3.3169    0.5569 C   0  0  0  0  0  0  0  0  0  0  0  0
   -2.0460   -0.0771   -0.6811 C   0  0  0  0  0  0  0  0  0  0  0  0
   -3.5409    1.9337   -0.6936 C   0  0  0  0  0  0  0  0  0  0  0  0
   -0.1210    2.4368    0.4953 C   0  0  0  0  0  0  0  0  0  0  0  0
    3.0518    1.8829    0.2173 C   0  0  0  0  0  0  0  0  0  0  0  0
   -0.7087   -2.9648    0.7482 C   0  0  0  0  0  0  0  0  0  0  0  0
    2.8281    0.6938    0.9204 C   0  0  0  0  0  0  0  0  0  0  0  0
   -4.3037   -2.8033   -0.6054 C   0  0  0  0  0  0  0  0  0  0  0  0
    3.9403    1.8717   -0.8674 C   0  0  0  0  0  0  0  0  0  0  0  0
    3.4650   -0.4878    0.5256 C   0  0  0  0  0  0  0  0  0  0  0  0
    0.2085   -3.1328   -0.2994 C   0  0  0  0  0  0  0  0  0  0  0  0
   -0.2648   -2.4296    1.9662 C   0  0  0  0  0  0  0  0  0  0  0  0
   -3.7971    3.3279   -0.1644 C   0  0  0  0  0  0  0  0  0  0  0  0
    1.9419   -2.1384    1.0467 C   0  0  0  0  0  0  0  0  0  0  0  0
    4.3733   -0.4851   -0.5314 C   0  0  0  0  0  0  0  0  0  0  0  0
    1.5316   -2.7191   -0.1541 C   0  0  0  0  0  0  0  0  0  0  0  0
    1.0615   -2.0288    2.1219 C   0  0  0  0  0  0  0  0  0  0  0  0
    4.6044    0.6973   -1.2315 C   0  0  0  0  0  0  0  0  0  0  0  0
    5.9513   -1.5085   -1.9817 C   0  0  0  0  0  0  0  0  0  0  0  0
   -2.3640    1.2397    0.9821 H   0  0  0  0  0  0  0  0  0  0  0  0
   -2.3832   -2.5166   -1.4679 H   0  0  0  0  0  0  0  0  0  0  0  0
    1.0907    3.0929   -1.1738 H   0  0  0  0  0  0  0  0  0  0  0  0
    2.2195    3.1855    1.6989 H   0  0  0  0  0  0  0  0  0  0  0  0
    2.9896    4.0009    0.3588 H   0  0  0  0  0  0  0  0  0  0  0  0
   -2.6923   -3.2489    1.5174 H   0  0  0  0  0  0  0  0  0  0  0  0
   -2.2302   -4.3714    0.2586 H   0  0  0  0  0  0  0  0  0  0  0  0
   -0.9988    2.4291   -1.3910 H   0  0  0  0  0  0  0  0  0  0  0  0
   -4.4133    1.2992   -0.4940 H   0  0  0  0  0  0  0  0  0  0  0  0
   -3.4668    2.0073   -1.7865 H   0  0  0  0  0  0  0  0  0  0  0  0
   -3.5101   -0.7437    0.6415 H   0  0  0  0  0  0  0  0  0  0  0  0
    2.1546    0.6895    1.7726 H   0  0  0  0  0  0  0  0  0  0  0  0
    0.3987    4.9167    1.0347 H   0  0  0  0  0  0  0  0  0  0  0  0
   -0.3859    4.8117   -0.3969 H   0  0  0  0  0  0  0  0  0  0  0  0
    4.1264    2.7824   -1.4316 H   0  0  0  0  0  0  0  0  0  0  0  0
   -0.1110   -3.5621   -1.2456 H   0  0  0  0  0  0  0  0  0  0  0  0
   -0.9558   -2.3005    2.7955 H   0  0  0  0  0  0  0  0  0  0  0  0
    2.2238   -2.8348   -0.9831 H   0  0  0  0  0  0  0  0  0  0  0  0
    1.3884   -1.5987    3.0642 H   0  0  0  0  0  0  0  0  0  0  0  0
    5.2846    0.7828   -2.0721 H   0  0  0  0  0  0  0  0  0  0  0  0
   -4.9418    2.4600    1.3763 H   0  0  0  0  0  0  0  0  0  0  0  0
   -4.8466    4.1832    1.4262 H   0  0  0  0  0  0  0  0  0  0  0  0
   -5.4224   -3.9856   -1.6746 H   0  0  0  0  0  0  0  0  0  0  0  0
    6.3953   -2.4989   -2.1268 H   0  0  0  0  0  0  0  0  0  0  0  0
    6.7750   -0.8213   -1.7599 H   0  0  0  0  0  0  0  0  0  0  0  0
    5.4337   -1.2539   -2.9130 H   0  0  0  0  0  0  0  0  0  0  0  0
  1 25  1  0  0  0  0
  1 29  1  0  0  0  0
  2 17  2  0  0  0  0
  3 19  2  0  0  0  0
  4 23  1  0  0  0  0
  4 57  1  0  0  0  0
  5 30  1  0  0  0  0
  5 34  1  0  0  0  0
  6 23  2  0  0  0  0
  7 28  2  0  0  0  0
  8 12  1  0  0  0  0
  8 19  1  0  0  0  0
  8 42  1  0  0  0  0
  9 13  1  0  0  0  0
  9 17  1  0  0  0  0
  9 45  1  0  0  0  0
 10 14  1  0  0  0  0
 10 47  1  0  0  0  0
 10 48  1  0  0  0  0
 11 28  1  0  0  0  0
 11 55  1  0  0  0  0
 11 56  1  0  0  0  0
 12 17  1  0  0  0  0
 12 18  1  0  0  0  0
 12 35  1  0  0  0  0
 13 16  1  0  0  0  0
 13 23  1  0  0  0  0
 13 36  1  0  0  0  0
 14 15  1  0  0  0  0
 14 19  1  0  0  0  0
 14 37  1  0  0  0  0
 15 20  1  0  0  0  0
 15 38  1  0  0  0  0
 15 39  1  0  0  0  0
 16 21  1  0  0  0  0
 16 40  1  0  0  0  0
 16 41  1  0  0  0  0
 18 28  1  0  0  0  0
 18 43  1  0  0  0  0
 18 44  1  0  0  0  0
 20 22  2  0  0  0  0
 20 24  1  0  0  0  0
 21 26  2  0  0  0  0
 21 27  1  0  0  0  0
 22 25  1  0  0  0  0
 22 46  1  0  0  0  0
 24 33  2  0  0  0  0
 24 49  1  0  0  0  0
 25 30  2  0  0  0  0
 26 31  1  0  0  0  0
 26 50  1  0  0  0  0
 27 32  2  0  0  0  0
 27 51  1  0  0  0  0
 29 31  2  0  0  0  0
 29 32  1  0  0  0  0
 30 33  1  0  0  0  0
 31 52  1  0  0  0  0
 32 53  1  0  0  0  0
 33 54  1  0  0  0  0
 34 58  1  0  0  0  0
 34 59  1  0  0  0  0
 34 60  1  0  0  0  0
M  END
> <PUBCHEM_COMPOUND_CID>
130575

> <PUBCHEM_CONFORMER_RMSD>
0.8

> <PUBCHEM_CONFORMER_DIVERSEORDER>
5
22
24
15
16
31
33
14
21
3
28
8
4
27
23
18
32
13
25
7
30
9
17
11
12
26
20
29
2
19
10
6
1

> <PUBCHEM_MMFF94_PARTIAL_CHARGES>
48
1 -0.17
10 -0.99
11 -0.8
12 0.36
13 0.36
14 0.33
15 0.14
16 0.14
17 0.57
18 0.06
19 0.57
2 -0.57
20 -0.14
21 -0.14
22 -0.15
23 0.66
24 -0.15
25 0.08
26 -0.15
27 -0.15
28 0.57
29 0.08
3 -0.57
30 0.08
31 -0.15
32 -0.15
33 -0.15
34 0.28
4 -0.65
42 0.37
45 0.37
46 0.15
47 0.36
48 0.36
49 0.15
5 -0.36
50 0.15
51 0.15
52 0.15
53 0.15
54 0.15
55 0.37
56 0.37
57 0.5
6 -0.57
7 -0.57
8 -0.73
9 -0.73

> <PUBCHEM_EFFECTIVE_ROTOR_COUNT>
5.6

> <PUBCHEM_PHARMACOPHORE_FEATURES>
15
1 1 acceptor
1 10 cation
1 10 donor
1 11 donor
1 2 acceptor
1 3 acceptor
1 4 acceptor
1 5 acceptor
1 6 acceptor
1 7 acceptor
1 8 donor
1 9 donor
3 4 6 23 anion
6 20 22 24 25 30 33 rings
6 21 26 27 29 31 32 rings

> <PUBCHEM_HEAVY_ATOM_COUNT>
34

> <PUBCHEM_ATOM_DEF_STEREO_COUNT>
3

> <PUBCHEM_ATOM_UDEF_STEREO_COUNT>
0

> <PUBCHEM_BOND_DEF_STEREO_COUNT>
0

> <PUBCHEM_BOND_UDEF_STEREO_COUNT>
0

> <PUBCHEM_ISOTOPIC_ATOM_COUNT>
0

> <PUBCHEM_COMPONENT_COUNT>
1

> <PUBCHEM_CACTVS_TAUTO_COUNT>
8

> <PUBCHEM_CONFORMER_ID>
0001FE0F00000005

> <PUBCHEM_MMFF94_ENERGY>
102.8628

> <PUBCHEM_FEATURE_SELFOVERLAP>
76.187

> <PUBCHEM_SHAPE_FINGERPRINT>
10675989 125 17904192977752120801
1100329 8 18192704545011489402
11513181 2 17985272025919920222
11828532 37 17972887143866680486
12107698 1 18341328998193518678
12553582 1 18195234521583967640
12788726 201 18118681256153582064
13122387 1 16464725046074238072
13140716 1 18265596720035676960
13402501 40 17758953010676258760
1361 2 17834103157646549001
14117953 113 17544745734098055396
14363568 33 16170060989264821696
144659 178 18045785843293999813
14681490 219 18194958771961783719
14725015 67 18265880535743365650
14790565 3 17979353058606966993
14931854 50 18262517121421648630
14955137 171 17975425916943001419
15297060 5 18199744744288000290
15927050 60 18339924788964346645
15968369 153 18270669987562472179
16067689 134 18339643318541676925
17093844 170 17759512670500608816
19311894 1 18341619157219314740
19319366 153 17751929008043825002
19930381 70 17691121956326103374
20642791 35 18337100289484698195
20764821 26 18335129860950908008
221357 26 18339646753971973694
24941158 1 16772654689335151400
437795 70 18340784666939260278
463206 1 18266453213940429160
5252454 2 17969218936957732998
6004065 56 17188110836032256311

> <PUBCHEM_SHAPE_MULTIPOLES>
638.69
10.06
6.49
1.51
2.13
3.78
0.2
-2.02
-4.74
-5.89
0.33
0.79
-0.88
-0.36

> <PUBCHEM_SHAPE_SELFOVERLAP>
1359.462

> <PUBCHEM_SHAPE_VOLUME>
351.9

> <PUBCHEM_COORDINATE_TYPE>
2
5
10

$$$$
