130540
  -OEChem-03292013323D

 32 33  0     1  0  0  0  0  0999 V2000
    3.2785    0.9153   -1.7161 O   0  0  0  0  0  0  0  0  0  0  0  0
    1.6908    2.5321   -0.2027 O   0  0  0  0  0  0  0  0  0  0  0  0
    3.7100   -2.1597    1.3712 O   0  0  0  0  0  0  0  0  0  0  0  0
   -1.9523    1.4706    1.8563 O   0  0  0  0  0  0  0  0  0  0  0  0
   -0.9254    0.2001    0.2269 N   0  0  0  0  0  0  0  0  0  0  0  0
   -3.3121    0.2133    0.5441 N   0  0  0  0  0  0  0  0  0  0  0  0
   -4.6998   -1.0786   -0.8024 N   0  0  0  0  0  0  0  0  0  0  0  0
    2.6312   -0.3324    0.2741 C   0  0  2  0  0  0  0  0  0  0  0  0
    0.4071    0.6313    0.5664 C   0  0  1  0  0  0  0  0  0  0  0  0
    1.2933   -0.5575    0.9803 C   0  0  0  0  0  0  0  0  0  0  0  0
    2.1971    0.2987   -1.0463 C   0  0  1  0  0  0  0  0  0  0  0  0
    1.1168    1.2966   -0.6258 C   0  0  2  0  0  0  0  0  0  0  0  0
    3.4346   -1.6116    0.0936 C   0  0  0  0  0  0  0  0  0  0  0  0
   -1.0831   -0.6996   -0.8123 C   0  0  0  0  0  0  0  0  0  0  0  0
   -2.0621    0.6704    0.9255 C   0  0  0  0  0  0  0  0  0  0  0  0
   -2.2761   -1.1521   -1.1933 C   0  0  0  0  0  0  0  0  0  0  0  0
   -3.4486   -0.6368   -0.4396 C   0  0  0  0  0  0  0  0  0  0  0  0
    3.2358    0.3709    0.8627 H   0  0  0  0  0  0  0  0  0  0  0  0
    0.3577    1.3350    1.4058 H   0  0  0  0  0  0  0  0  0  0  0  0
    0.8664   -1.5307    0.7122 H   0  0  0  0  0  0  0  0  0  0  0  0
    1.4270   -0.5742    2.0686 H   0  0  0  0  0  0  0  0  0  0  0  0
    1.7895   -0.4620   -1.7188 H   0  0  0  0  0  0  0  0  0  0  0  0
    0.4552    1.5413   -1.4628 H   0  0  0  0  0  0  0  0  0  0  0  0
    4.3835   -1.4052   -0.4117 H   0  0  0  0  0  0  0  0  0  0  0  0
    2.8809   -2.3532   -0.4919 H   0  0  0  0  0  0  0  0  0  0  0  0
    2.2678    2.3601    0.5601 H   0  0  0  0  0  0  0  0  0  0  0  0
    3.6360    1.6081   -1.1354 H   0  0  0  0  0  0  0  0  0  0  0  0
   -0.2015   -1.0531   -1.3273 H   0  0  0  0  0  0  0  0  0  0  0  0
    4.2250   -2.9721    1.2293 H   0  0  0  0  0  0  0  0  0  0  0  0
   -2.4105   -1.8581   -2.0018 H   0  0  0  0  0  0  0  0  0  0  0  0
   -5.5281   -0.7538   -0.3153 H   0  0  0  0  0  0  0  0  0  0  0  0
   -4.8383   -1.7384   -1.5608 H   0  0  0  0  0  0  0  0  0  0  0  0
  1 11  1  0  0  0  0
  1 27  1  0  0  0  0
  2 12  1  0  0  0  0
  2 26  1  0  0  0  0
  3 13  1  0  0  0  0
  3 29  1  0  0  0  0
  4 15  2  0  0  0  0
  5  9  1  0  0  0  0
  5 14  1  0  0  0  0
  5 15  1  0  0  0  0
  6 15  1  0  0  0  0
  6 17  2  0  0  0  0
  7 17  1  0  0  0  0
  7 31  1  0  0  0  0
  7 32  1  0  0  0  0
  8 10  1  0  0  0  0
  8 11  1  0  0  0  0
  8 13  1  0  0  0  0
  8 18  1  0  0  0  0
  9 10  1  0  0  0  0
  9 12  1  0  0  0  0
  9 19  1  0  0  0  0
 10 20  1  0  0  0  0
 10 21  1  0  0  0  0
 11 12  1  0  0  0  0
 11 22  1  0  0  0  0
 12 23  1  0  0  0  0
 13 24  1  0  0  0  0
 13 25  1  0  0  0  0
 14 16  2  0  0  0  0
 14 28  1  0  0  0  0
 16 17  1  0  0  0  0
 16 30  1  0  0  0  0
M  END
> <PUBCHEM_COMPOUND_CID>
130540

> <PUBCHEM_CONFORMER_RMSD>
0.6

> <PUBCHEM_CONFORMER_DIVERSEORDER>
1
22
23
13
4
8
10
21
19
20
11
16
12
18
9
15
6
17
14
5
7
2
3

> <PUBCHEM_MMFF94_PARTIAL_CHARGES>
22
1 -0.68
11 0.28
12 0.28
13 0.28
14 -0.04
15 0.84
16 -0.14
17 0.49
2 -0.68
26 0.4
27 0.4
28 0.15
29 0.4
3 -0.68
30 0.15
31 0.4
32 0.4
4 -0.57
5 -0.47
6 -0.66
7 -0.85
9 0.3

> <PUBCHEM_EFFECTIVE_ROTOR_COUNT>
3

> <PUBCHEM_PHARMACOPHORE_FEATURES>
11
1 1 acceptor
1 1 donor
1 2 acceptor
1 2 donor
1 3 acceptor
1 3 donor
1 4 acceptor
1 6 donor
1 7 donor
5 8 9 10 11 12 rings
6 5 6 14 15 16 17 rings

> <PUBCHEM_HEAVY_ATOM_COUNT>
17

> <PUBCHEM_ATOM_DEF_STEREO_COUNT>
3

> <PUBCHEM_ATOM_UDEF_STEREO_COUNT>
1

> <PUBCHEM_BOND_DEF_STEREO_COUNT>
0

> <PUBCHEM_BOND_UDEF_STEREO_COUNT>
0

> <PUBCHEM_ISOTOPIC_ATOM_COUNT>
0

> <PUBCHEM_COMPONENT_COUNT>
1

> <PUBCHEM_CACTVS_TAUTO_COUNT>
3

> <PUBCHEM_CONFORMER_ID>
0001FDEC00000001

> <PUBCHEM_MMFF94_ENERGY>
54.8745

> <PUBCHEM_FEATURE_SELFOVERLAP>
55.881

> <PUBCHEM_SHAPE_FINGERPRINT>
11132069 177 16702305650720557111
11543360 7 17677046975261867447
11578080 2 18195781056003871224
12236239 1 18412547595844258946
13083527 12 14544749505310007463
13538477 17 18271809081049834663
13581323 91 17561078098860417331
14178342 30 17702672020927236539
15219456 202 16009036111059328096
16752209 62 17846783992573565735
16945 1 18114474456252241164
1813 80 18117846499844004670
18186145 218 18338516456086724069
19422 9 18408890615801520627
19784866 240 18335696105171080087
20279233 1 15864072095711835936
20361792 2 18261667078468440998
20559304 39 18202282528266158782
20645476 183 18339928241722628407
20645477 70 17603303747793163194
20671657 53 18334566928293309285
20715346 28 15410614744437308688
22112679 90 18269564857664051968
2255824 54 18338520866896973644
22646028 28 18411978053010803055
22802520 49 16370723678178805022
23114952 82 16443356360032881382
232386 152 17917422125273452278
23402539 116 16702004367438982693
23526113 38 16082201896980713818
23557571 272 16558755615351804353
23559900 14 16701472160734995540
23598291 2 18340220591477131492
474 4 18048599510534343852
4990 188 16660355991891227831
6049 1 15430620392669343436
633830 44 16009296678779015519
6992083 37 18198634224036558513
7364860 26 18271238447516088696
74978 22 18338801220586435615
7615 1 18412833464414563352
77492 1 18340216218920862328
8030462 33 18339370754603415345

> <PUBCHEM_SHAPE_MULTIPOLES>
311.43
7
1.82
1.41
2.75
0.31
-0.06
-3.25
0.5
-1.13
-0.19
-0.39
0.11
-1.89

> <PUBCHEM_SHAPE_SELFOVERLAP>
653.669

> <PUBCHEM_SHAPE_VOLUME>
174.7

> <PUBCHEM_COORDINATE_TYPE>
2
5
10

$$$$
