REMARK  Name = 130591
REMARK  4 active torsions:
REMARK  status: ('A' for Active; 'I' for Inactive)
REMARK    1  A    between atoms: N_2  and  C1*_16
REMARK    2  A    between atoms: C3*_18  and  O3*_20
REMARK    3  A    between atoms: C4*_19  and  C5*_22
REMARK    4  A    between atoms: C5*_22  and  O5*_23
REMARK                            x       y       z     vdW  Elec       q    Type
REMARK                         _______ _______ _______ _____ _____    ______ ____
ROOT
ATOM      1  O   UNL     1      -3.548  -2.197   0.367  0.00  0.00    -0.268 OA
ATOM      2  N   UNL     1       0.613  -0.362   0.168  0.00  0.00    -0.209 NA
ATOM      3  N   UNL     1      -1.283   1.149  -0.072  0.00  0.00    -0.290 N 
ATOM      4  N   UNL     1      -0.513  -2.290   0.422  0.00  0.00    -0.249 NA
ATOM      5  N   UNL     1      -3.398   0.051   0.053  0.00  0.00    -0.203 N 
ATOM      6  N   UNL     1      -3.445   2.268  -0.258  0.00  0.00    -0.214 NA
ATOM      7  C   UNL     1      -0.708  -0.060   0.106  0.00  0.00    +0.182 C 
ATOM      8  C   UNL     1       0.681  -1.725   0.360  0.00  0.00    +0.204 C 
ATOM      9  C   UNL     1      -1.376  -1.249   0.263  0.00  0.00    +0.143 C 
ATOM     10  C   UNL     1      -2.819  -1.224   0.240  0.00  0.00    +0.275 C 
ATOM     11  C   UNL     1      -2.652   1.229  -0.102  0.00  0.00    +0.196 C 
ATOM     12  C   UNL     1      -4.720   0.400  -0.013  0.00  0.00    +0.096 C 
ATOM     13  C   UNL     1      -4.721   1.762  -0.204  0.00  0.00    +0.118 C 
ATOM     14  H   UNL     1      -0.730   1.957  -0.178  0.00  0.00    +0.151 HD
ENDROOT
BRANCH   2  16
ATOM     15  O4* UNL     1       2.836   0.092   0.879  0.00  0.00    -0.338 OA
ATOM     16  C1* UNL     1       1.752   0.553   0.055  0.00  0.00    +0.182 C 
ATOM     17  C2* UNL     1       2.278   0.708  -1.370  0.00  0.00    +0.079 C 
ATOM     18  C3* UNL     1       3.562  -0.091  -1.366  0.00  0.00    +0.144 C 
ATOM     19  C4* UNL     1       4.029  -0.006   0.079  0.00  0.00    +0.173 C 
BRANCH  18  20
ATOM     20  O3* UNL     1       3.281  -1.451  -1.681  0.00  0.00    -0.382 OA
ATOM     21  H3* UNL     1       2.982  -1.514  -2.602  0.00  0.00    +0.210 HD
ENDBRANCH  18  20
BRANCH  19  22
ATOM     22  C5* UNL     1       4.886   1.223   0.354  0.00  0.00    +0.169 C 
BRANCH  22  23
ATOM     23  O5* UNL     1       5.263   1.222   1.721  0.00  0.00    -0.379 OA
ATOM     24  H5* UNL     1       5.810   2.002   1.906  0.00  0.00    +0.211 HD
ENDBRANCH  22  23
ENDBRANCH  19  22
ENDBRANCH   2  16
TORSDOF 4
