REMARK  Name = 130560
REMARK  9 active torsions:
REMARK  status: ('A' for Active; 'I' for Inactive)
REMARK    1  A    between atoms: N_2  and  C_5
REMARK    2  A    between atoms: C_3  and  C_17
REMARK    3  A    between atoms: C_5  and  C_9
REMARK    4  A    between atoms: N_8  and  C_11
REMARK    5  A    between atoms: C_11  and  C_14
REMARK    6  A    between atoms: C_17  and  C_20
REMARK    7  A    between atoms: C_17  and  C_24
REMARK    8  A    between atoms: N_19  and  O_22
REMARK    9  A    between atoms: C_24  and  C_25
REMARK                            x       y       z     vdW  Elec       q    Type
REMARK                         _______ _______ _______ _____ _____    ______ ____
ROOT
ATOM      1  O   UNL     1       0.540   0.916   1.117  0.00  0.00    -0.275 OA
ATOM      2  N   UNL     1       0.249   0.632  -1.168  0.00  0.00    -0.298 N 
ATOM      3  C   UNL     1       0.911   0.458   0.039  0.00  0.00    +0.231 C 
ATOM      4  H   UNL     1       0.632   0.222  -1.977  0.00  0.00    +0.150 HD
ENDROOT
BRANCH   2   5
ATOM      5  C   UNL     1      -0.976   1.388  -1.292  0.00  0.00    +0.149 C 
ATOM      6  C   UNL     1      -1.095   2.027  -2.667  0.00  0.00    +0.031 C 
BRANCH   5   9
ATOM      7  O   UNL     1      -2.127  -0.744  -1.349  0.00  0.00    -0.273 OA
ATOM      8  N   UNL     1      -3.213   1.089  -0.430  0.00  0.00    -0.295 N 
ATOM      9  C   UNL     1      -2.140   0.442  -1.028  0.00  0.00    +0.241 C 
ATOM     10  H   UNL     1      -3.125   2.045  -0.211  0.00  0.00    +0.150 HD
BRANCH   8  11
ATOM     11  C   UNL     1      -4.452   0.418  -0.117  0.00  0.00    +0.175 C 
BRANCH  11  14
ATOM     12  O   UNL     1      -3.384  -0.107   1.991  0.00  0.00    -0.273 OA
ATOM     13  N   UNL     1      -5.546  -0.803   1.638  0.00  0.00    -0.327 N 
ATOM     14  C   UNL     1      -4.381  -0.161   1.277  0.00  0.00    +0.239 C 
ATOM     15  H   UNL     1      -5.623  -1.223   2.525  0.00  0.00    +0.145 HD
ATOM     16  H   UNL     1      -6.302  -0.843   1.008  0.00  0.00    +0.145 HD
ENDBRANCH  11  14
ENDBRANCH   8  11
ENDBRANCH   5   9
ENDBRANCH   2   5
BRANCH   3  17
ATOM     17  C   UNL     1       2.200  -0.352  -0.124  0.00  0.00    +0.154 C 
BRANCH  17  20
ATOM     18  O   UNL     1       1.475  -2.338   1.056  0.00  0.00    -0.273 OA
ATOM     19  N   UNL     1       2.223  -2.555  -1.119  0.00  0.00    -0.197 N 
ATOM     20  C   UNL     1       1.927  -1.849   0.023  0.00  0.00    +0.253 C 
ATOM     21  H   UNL     1       2.585  -2.118  -1.924  0.00  0.00    +0.182 HD
BRANCH  19  22
ATOM     22  O   UNL     1       1.979  -3.933  -1.066  0.00  0.00    -0.295 OA
ATOM     23  H   UNL     1       2.219  -4.337  -1.915  0.00  0.00    +0.241 HD
ENDBRANCH  19  22
ENDBRANCH  17  20
BRANCH  17  24
ATOM     24  C   UNL     1       3.288   0.051   0.894  0.00  0.00    +0.018 C 
BRANCH  24  25
ATOM     25  C   UNL     1       3.651   1.552   0.864  0.00  0.00    +0.001 C 
ATOM     26  C   UNL     1       4.685   1.855   1.952  0.00  0.00    +0.000 C 
ATOM     27  C   UNL     1       4.183   2.014  -0.492  0.00  0.00    +0.000 C 
ENDBRANCH  24  25
ENDBRANCH  17  24
ENDBRANCH   3  17
TORSDOF 9
