130591
  -OEChem-03292013323D

 34 37  0     1  0  0  0  0  0999 V2000
    2.8359    0.0919    0.8788 O   0  0  0  0  0  0  0  0  0  0  0  0
    3.2806   -1.4511   -1.6815 O   0  0  0  0  0  0  0  0  0  0  0  0
    5.2632    1.2222    1.7211 O   0  0  0  0  0  0  0  0  0  0  0  0
   -3.5481   -2.1972    0.3675 O   0  0  0  0  0  0  0  0  0  0  0  0
    0.6134   -0.3622    0.1677 N   0  0  0  0  0  0  0  0  0  0  0  0
   -1.2826    1.1489   -0.0718 N   0  0  0  0  0  0  0  0  0  0  0  0
   -0.5126   -2.2901    0.4221 N   0  0  0  0  0  0  0  0  0  0  0  0
   -3.3979    0.0507    0.0533 N   0  0  0  0  0  0  0  0  0  0  0  0
   -3.4451    2.2683   -0.2583 N   0  0  0  0  0  0  0  0  0  0  0  0
    1.7524    0.5528    0.0546 C   0  0  2  0  0  0  0  0  0  0  0  0
    2.2778    0.7082   -1.3699 C   0  0  0  0  0  0  0  0  0  0  0  0
    3.5622   -0.0910   -1.3660 C   0  0  1  0  0  0  0  0  0  0  0  0
    4.0287   -0.0063    0.0788 C   0  0  1  0  0  0  0  0  0  0  0  0
    4.8864    1.2228    0.3537 C   0  0  0  0  0  0  0  0  0  0  0  0
   -0.7076   -0.0605    0.1059 C   0  0  0  0  0  0  0  0  0  0  0  0
    0.6810   -1.7247    0.3598 C   0  0  0  0  0  0  0  0  0  0  0  0
   -1.3762   -1.2494    0.2634 C   0  0  0  0  0  0  0  0  0  0  0  0
   -2.8188   -1.2244    0.2400 C   0  0  0  0  0  0  0  0  0  0  0  0
   -2.6517    1.2289   -0.1019 C   0  0  0  0  0  0  0  0  0  0  0  0
   -4.7198    0.3998   -0.0133 C   0  0  0  0  0  0  0  0  0  0  0  0
   -4.7211    1.7625   -0.2041 C   0  0  0  0  0  0  0  0  0  0  0  0
    1.4194    1.5160    0.4567 H   0  0  0  0  0  0  0  0  0  0  0  0
    2.5093    1.7654   -1.5465 H   0  0  0  0  0  0  0  0  0  0  0  0
    1.5620    0.3849   -2.1325 H   0  0  0  0  0  0  0  0  0  0  0  0
    4.2941    0.2752   -2.0919 H   0  0  0  0  0  0  0  0  0  0  0  0
    4.5542   -0.9114    0.4029 H   0  0  0  0  0  0  0  0  0  0  0  0
    5.7923    1.2264   -0.2602 H   0  0  0  0  0  0  0  0  0  0  0  0
    4.3350    2.1505    0.1725 H   0  0  0  0  0  0  0  0  0  0  0  0
    1.6211   -2.2519    0.4490 H   0  0  0  0  0  0  0  0  0  0  0  0
    4.1192   -1.9412   -1.6340 H   0  0  0  0  0  0  0  0  0  0  0  0
   -0.7253    1.9902   -0.1867 H   0  0  0  0  0  0  0  0  0  0  0  0
    5.7875    0.4193    1.8821 H   0  0  0  0  0  0  0  0  0  0  0  0
   -5.5190   -0.3226    0.0774 H   0  0  0  0  0  0  0  0  0  0  0  0
   -5.5815    2.4079   -0.3059 H   0  0  0  0  0  0  0  0  0  0  0  0
  1 10  1  0  0  0  0
  1 13  1  0  0  0  0
  2 12  1  0  0  0  0
  2 30  1  0  0  0  0
  3 14  1  0  0  0  0
  3 32  1  0  0  0  0
  4 18  2  0  0  0  0
  5 10  1  0  0  0  0
  5 15  1  0  0  0  0
  5 16  1  0  0  0  0
  6 15  1  0  0  0  0
  6 19  1  0  0  0  0
  6 31  1  0  0  0  0
  7 16  2  0  0  0  0
  7 17  1  0  0  0  0
  8 18  1  0  0  0  0
  8 19  1  0  0  0  0
  8 20  1  0  0  0  0
  9 19  2  0  0  0  0
  9 21  1  0  0  0  0
 10 11  1  0  0  0  0
 10 22  1  0  0  0  0
 11 12  1  0  0  0  0
 11 23  1  0  0  0  0
 11 24  1  0  0  0  0
 12 13  1  0  0  0  0
 12 25  1  0  0  0  0
 13 14  1  0  0  0  0
 13 26  1  0  0  0  0
 14 27  1  0  0  0  0
 14 28  1  0  0  0  0
 15 17  2  0  0  0  0
 16 29  1  0  0  0  0
 17 18  1  0  0  0  0
 20 21  2  0  0  0  0
 20 33  1  0  0  0  0
 21 34  1  0  0  0  0
M  END
> <PUBCHEM_COMPOUND_CID>
130591

> <PUBCHEM_CONFORMER_RMSD>
0.6

> <PUBCHEM_CONFORMER_DIVERSEORDER>
1
4
11
14
9
5
10
2
3
6
12
8
13
7

> <PUBCHEM_MMFF94_PARTIAL_CHARGES>
26
1 -0.56
10 0.54
12 0.28
13 0.28
14 0.28
15 -0.07
16 0.04
17 0.14
18 0.67
19 0.27
2 -0.68
20 -0.3
21 0.08
29 0.15
3 -0.68
30 0.4
31 0.4
32 0.4
33 0.15
34 0.15
4 -0.57
5 0.05
6 -0.57
7 -0.57
8 0.29
9 -0.57

> <PUBCHEM_EFFECTIVE_ROTOR_COUNT>
3

> <PUBCHEM_PHARMACOPHORE_FEATURES>
12
1 1 acceptor
1 2 acceptor
1 2 donor
1 3 acceptor
1 3 donor
1 4 acceptor
1 6 donor
3 5 7 16 cation
5 1 10 11 12 13 rings
5 5 7 15 16 17 rings
5 8 9 19 20 21 rings
6 6 8 15 17 18 19 rings

> <PUBCHEM_HEAVY_ATOM_COUNT>
21

> <PUBCHEM_ATOM_DEF_STEREO_COUNT>
3

> <PUBCHEM_ATOM_UDEF_STEREO_COUNT>
0

> <PUBCHEM_BOND_DEF_STEREO_COUNT>
0

> <PUBCHEM_BOND_UDEF_STEREO_COUNT>
0

> <PUBCHEM_ISOTOPIC_ATOM_COUNT>
0

> <PUBCHEM_COMPONENT_COUNT>
1

> <PUBCHEM_CACTVS_TAUTO_COUNT>
3

> <PUBCHEM_CONFORMER_ID>
0001FE1F00000001

> <PUBCHEM_MMFF94_ENERGY>
41.3121

> <PUBCHEM_FEATURE_SELFOVERLAP>
61.14

> <PUBCHEM_SHAPE_FINGERPRINT>
10319926 262 18339062888017814866
10411042 1 17615972548592283739
10498660 4 18336547131713671029
10646746 165 18410856560030238188
11128504 68 13110962067793623480
11132069 177 18334298656146442773
12173636 292 18408885101443347111
12236239 1 17458061581973860520
12390115 104 18198637527758231985
12403259 118 17530967969108666789
12403259 415 18272662259244543990
12633257 1 15502376725143360664
12788726 201 17172670299517299842
12916748 109 18408047316300402897
13140716 1 18263654033899093817
13544592 145 18341905039286230078
13675066 3 18412549833527579346
14251757 17 18131632274704891984
15196674 1 18408604746967836122
15375358 24 18201438108053039248
15536298 74 18338801095932358663
16752209 62 18334859467143158995
17980427 23 18263636441628803172
1813 80 15936963021750269154
18186145 218 18201454553155832986
200 152 15554451768971978862
20279233 1 18131357418636488438
20510252 161 18341337776731703081
20645477 56 18412266155047990609
20645477 70 17060064705311062558
21033648 29 18059562651101787032
21065201 7 18408610262127882758
212916 134 18337096934966975696
22182313 1 18267607774322410503
23366157 5 17606404250456685499
23402539 116 18411974797609864996
23557571 272 18270685380092355482
23559900 14 18342465811923061518
2916195 48 18272642472172410880
3545911 37 18410016507002189286
474 4 17385732378288039251
495365 180 17846772980362087566
4990 188 18130511829459041607
5104073 3 18336266751805863667
573450 72 18113328743507943770
633830 44 18270961245715229349
7064713 232 18187646860296321069
7364860 26 18122906434579106803
9709674 26 18340215188524746510
9862522 239 17750219336329621349
9981440 41 18259702285823988971

> <PUBCHEM_SHAPE_MULTIPOLES>
383.79
10.51
2.09
1.07
2.62
0.49
0.17
-4.71
-0.92
-1.79
-0.12
1.7
-0.05
1.05

> <PUBCHEM_SHAPE_SELFOVERLAP>
855.058

> <PUBCHEM_SHAPE_VOLUME>
203.1

> <PUBCHEM_COORDINATE_TYPE>
2
5
10

$$$$
