REMARK  Name = 13055260
REMARK  7 active torsions:
REMARK  status: ('A' for Active; 'I' for Inactive)
REMARK    1  A    between atoms: CA_1  and  C_8
REMARK    2  A    between atoms: CA_1  and  N_13
REMARK    3  A    between atoms: CA_1  and  CB_17
REMARK    4  A    between atoms: CA_4  and  C_10
REMARK    5  A    between atoms: C_10  and  O_11
REMARK    6  A    between atoms: CB_17  and  CG_18
REMARK    7  A    between atoms: CZ_23  and  OH_24
REMARK                            x       y       z     vdW  Elec       q    Type
REMARK                         _______ _______ _______ _____ _____    ______ ____
ROOT
ATOM      1  CA  TYR A   1       0.056   1.920   0.529  0.00  0.00    +0.018 C 
ENDROOT
BRANCH   1   8
ATOM      2  O   TYR A   1       1.401   1.528  -1.396  0.00  0.00    -0.277 OA
ATOM      3  N   PRO A   2       1.460  -0.071   0.277  0.00  0.00    -0.273 N 
ATOM      4  CA  PRO A   2       2.271  -1.040  -0.448  0.00  0.00    +0.174 C 
ATOM      5  CB  PRO A   2       2.121  -2.336   0.340  0.00  0.00    +0.033 C 
ATOM      6  CG  PRO A   2       1.874  -1.857   1.768  0.00  0.00    +0.024 C 
ATOM      7  CD  PRO A   2       1.046  -0.596   1.575  0.00  0.00    +0.094 C 
ATOM      8  C   TYR A   1       1.030   1.117  -0.295  0.00  0.00    +0.206 C 
BRANCH   4  10
ATOM      9  OXT PRO A   2       4.172   0.147   0.460  0.00  0.00    -0.248 OA
ATOM     10  C   PRO A   2       3.683  -0.536  -0.428  0.00  0.00    +0.332 C 
BRANCH  10  11
ATOM     11  O   PRO A   2       4.351  -0.940  -1.536  0.00  0.00    -0.479 OA
ATOM     12  H   PRO A   2       3.917  -1.464  -2.180  0.00  0.00    +0.295 HD
ENDBRANCH  10  11
ENDBRANCH   4  10
ENDBRANCH   1   8
BRANCH   1  13
ATOM     13  N   TYR A   1       0.746   3.165   0.839  0.00  0.00    +0.388 N 
ATOM     14  H1  TYR A   1       1.602   2.961   1.353  0.00  0.00    -0.089 HD
ATOM     15  H2  TYR A   1       0.140   3.757   1.407  0.00  0.00    -0.089 HD
ATOM     16  H3  TYR A   1       0.978   3.650  -0.029  0.00  0.00    -0.089 HD
ENDBRANCH   1  13
BRANCH   1  17
ATOM     17  CB  TYR A   1      -1.236   2.183  -0.244  0.00  0.00    +0.013 C 
BRANCH  17  18
ATOM     18  CG  TYR A   1      -2.178   1.002  -0.227  0.00  0.00    -0.024 C 
ATOM     19  CD1 TYR A   1      -2.085   0.046  -1.225  0.00  0.00    -0.001 C 
ATOM     20  CD2 TYR A   1      -3.116   0.898   0.787  0.00  0.00    -0.001 C 
ATOM     21  CE1 TYR A   1      -2.954  -1.044  -1.209  0.00  0.00    +0.036 C 
ATOM     22  CE2 TYR A   1      -3.985  -0.193   0.804  0.00  0.00    +0.036 C 
ATOM     23  CZ  TYR A   1      -3.904  -1.164  -0.194  0.00  0.00    +0.134 C 
BRANCH  23  24
ATOM     24  OH  TYR A   1      -4.753  -2.228  -0.179  0.00  0.00    -0.506 OA
ATOM     25  HH  TYR A   1      -4.698  -2.881  -0.850  0.00  0.00    +0.292 HD
ENDBRANCH  23  24
ENDBRANCH  17  18
ENDBRANCH   1  17
TORSDOF 7
