130560
  -OEChem-03292013323D

 43 42  0     1  0  0  0  0  0999 V2000
    0.5402    0.9161    1.1173 O   0  0  0  0  0  0  0  0  0  0  0  0
    1.4752   -2.3380    1.0562 O   0  0  0  0  0  0  0  0  0  0  0  0
   -2.1268   -0.7442   -1.3488 O   0  0  0  0  0  0  0  0  0  0  0  0
    1.9791   -3.9332   -1.0658 O   0  0  0  0  0  0  0  0  0  0  0  0
   -3.3835   -0.1072    1.9911 O   0  0  0  0  0  0  0  0  0  0  0  0
    0.2495    0.6323   -1.1682 N   0  0  0  0  0  0  0  0  0  0  0  0
    2.2234   -2.5546   -1.1185 N   0  0  0  0  0  0  0  0  0  0  0  0
   -3.2127    1.0893   -0.4302 N   0  0  0  0  0  0  0  0  0  0  0  0
   -5.5461   -0.8034    1.6378 N   0  0  0  0  0  0  0  0  0  0  0  0
    3.2885    0.0513    0.8939 C   0  0  0  0  0  0  0  0  0  0  0  0
    3.6510    1.5519    0.8637 C   0  0  0  0  0  0  0  0  0  0  0  0
    2.2000   -0.3522   -0.1239 C   0  0  2  0  0  0  0  0  0  0  0  0
    0.9114    0.4583    0.0393 C   0  0  0  0  0  0  0  0  0  0  0  0
    4.6849    1.8554    1.9521 C   0  0  0  0  0  0  0  0  0  0  0  0
    4.1834    2.0143   -0.4922 C   0  0  0  0  0  0  0  0  0  0  0  0
   -0.9758    1.3878   -1.2918 C   0  0  1  0  0  0  0  0  0  0  0  0
    1.9274   -1.8491    0.0227 C   0  0  0  0  0  0  0  0  0  0  0  0
   -1.0955    2.0267   -2.6667 C   0  0  0  0  0  0  0  0  0  0  0  0
   -2.1401    0.4423   -1.0277 C   0  0  0  0  0  0  0  0  0  0  0  0
   -4.4525    0.4176   -0.1174 C   0  0  0  0  0  0  0  0  0  0  0  0
   -4.3810   -0.1613    1.2769 C   0  0  0  0  0  0  0  0  0  0  0  0
    2.9518   -0.2073    1.9071 H   0  0  0  0  0  0  0  0  0  0  0  0
    4.1896   -0.5494    0.7112 H   0  0  0  0  0  0  0  0  0  0  0  0
    2.7628    2.1499    1.0961 H   0  0  0  0  0  0  0  0  0  0  0  0
    2.5948   -0.1657   -1.1306 H   0  0  0  0  0  0  0  0  0  0  0  0
    5.6165    1.3058    1.7793 H   0  0  0  0  0  0  0  0  0  0  0  0
    4.9219    2.9243    1.9782 H   0  0  0  0  0  0  0  0  0  0  0  0
    4.3035    1.5757    2.9399 H   0  0  0  0  0  0  0  0  0  0  0  0
    4.5082    3.0595   -0.4473 H   0  0  0  0  0  0  0  0  0  0  0  0
    3.4132    1.9503   -1.2666 H   0  0  0  0  0  0  0  0  0  0  0  0
    5.0389    1.4085   -0.8092 H   0  0  0  0  0  0  0  0  0  0  0  0
   -0.9667    2.1744   -0.5278 H   0  0  0  0  0  0  0  0  0  0  0  0
    0.5966    0.1528   -1.9941 H   0  0  0  0  0  0  0  0  0  0  0  0
   -1.1137    1.2679   -3.4574 H   0  0  0  0  0  0  0  0  0  0  0  0
   -2.0177    2.6115   -2.7487 H   0  0  0  0  0  0  0  0  0  0  0  0
   -0.2477    2.6918   -2.8628 H   0  0  0  0  0  0  0  0  0  0  0  0
    2.7058   -2.2053   -1.9384 H   0  0  0  0  0  0  0  0  0  0  0  0
   -3.1370    2.0749   -0.1965 H   0  0  0  0  0  0  0  0  0  0  0  0
   -4.6383   -0.3836   -0.8395 H   0  0  0  0  0  0  0  0  0  0  0  0
   -5.2586    1.1555   -0.1684 H   0  0  0  0  0  0  0  0  0  0  0  0
    1.0940   -3.9664   -1.4667 H   0  0  0  0  0  0  0  0  0  0  0  0
   -5.6355   -1.2525    2.5432 H   0  0  0  0  0  0  0  0  0  0  0  0
   -6.3536   -0.8475    1.0244 H   0  0  0  0  0  0  0  0  0  0  0  0
  1 13  2  0  0  0  0
  2 17  2  0  0  0  0
  3 19  2  0  0  0  0
  4  7  1  0  0  0  0
  4 41  1  0  0  0  0
  5 21  2  0  0  0  0
  6 13  1  0  0  0  0
  6 16  1  0  0  0  0
  6 33  1  0  0  0  0
  7 17  1  0  0  0  0
  7 37  1  0  0  0  0
  8 19  1  0  0  0  0
  8 20  1  0  0  0  0
  8 38  1  0  0  0  0
  9 21  1  0  0  0  0
  9 42  1  0  0  0  0
  9 43  1  0  0  0  0
 10 11  1  0  0  0  0
 10 12  1  0  0  0  0
 10 22  1  0  0  0  0
 10 23  1  0  0  0  0
 11 14  1  0  0  0  0
 11 15  1  0  0  0  0
 11 24  1  0  0  0  0
 12 13  1  0  0  0  0
 12 17  1  0  0  0  0
 12 25  1  0  0  0  0
 14 26  1  0  0  0  0
 14 27  1  0  0  0  0
 14 28  1  0  0  0  0
 15 29  1  0  0  0  0
 15 30  1  0  0  0  0
 15 31  1  0  0  0  0
 16 18  1  0  0  0  0
 16 19  1  0  0  0  0
 16 32  1  0  0  0  0
 18 34  1  0  0  0  0
 18 35  1  0  0  0  0
 18 36  1  0  0  0  0
 20 21  1  0  0  0  0
 20 39  1  0  0  0  0
 20 40  1  0  0  0  0
M  END
> <PUBCHEM_COMPOUND_CID>
130560

> <PUBCHEM_CONFORMER_RMSD>
1

> <PUBCHEM_CONFORMER_DIVERSEORDER>
1
63
82
214
251
235
147
182
14
293
71
106
120
292
200
283
275
178
216
98
150
221
296
88
159
27
81
157
26
24
176
233
192
166
199
211
160
136
303
232
158
271
57
266
203
95
121
36
112
183
219
177
193
184
286
139
12
137
281
85
124
6
270
228
220
264
240
185
70
186
78
72
156
103
276
49
133
280
173
298
197
143
109
60
114
17
254
204
67
217
202
171
287
131
188
40
126
113
42
66
187
97
99
263
300
172
258
90
155
284
43
31
73
56
237
262
179
28
163
267
55
245
272
230
68
50
208
285
64
151
295
241
39
146
96
206
92
83
87
84
301
255
257
218
140
278
69
132
205
148
164
261
110
236
169
247
294
290
7
201
170
128
23
162
93
115
22
161
196
250
51
152
122
20
34
144
253
91
224
168
265
41
249
154
207
239
231
138
129
135
260
210
52
213
58
104
127
167
297
77
35
238
101
13
21
252
100
94
25
145
259
61
299
190
277
116
195
2
105
279
80
79
16
227
111
149
8
165
30
62
288
222
225
248
18
37
4
32
198
33
243
5
117
289
65
181
273
76
226
46
3
118
10
274
242
19
102
291
59
246
38
108
153
282
234
180
142
174
175
268
47
123
189
134
75
86
223
256
29
244
215
48
191
209
15
107
9
54
269
44
212
141
74
119
302
11
194
125
229
53
89
45
130

> <PUBCHEM_MMFF94_PARTIAL_CHARGES>
22
1 -0.57
12 0.12
13 0.57
16 0.36
17 0.57
19 0.57
2 -0.57
20 0.36
21 0.57
3 -0.57
33 0.37
37 0.37
38 0.37
4 -0.44
41 0.4
42 0.37
43 0.37
5 -0.57
6 -0.73
7 -0.39
8 -0.73
9 -0.8

> <PUBCHEM_EFFECTIVE_ROTOR_COUNT>
11

> <PUBCHEM_PHARMACOPHORE_FEATURES>
10
1 1 acceptor
1 12 anion
1 2 acceptor
1 3 acceptor
1 5 acceptor
1 6 donor
1 7 donor
1 8 donor
1 9 donor
3 11 14 15 hydrophobe

> <PUBCHEM_HEAVY_ATOM_COUNT>
21

> <PUBCHEM_ATOM_DEF_STEREO_COUNT>
1

> <PUBCHEM_ATOM_UDEF_STEREO_COUNT>
1

> <PUBCHEM_BOND_DEF_STEREO_COUNT>
0

> <PUBCHEM_BOND_UDEF_STEREO_COUNT>
0

> <PUBCHEM_ISOTOPIC_ATOM_COUNT>
0

> <PUBCHEM_COMPONENT_COUNT>
1

> <PUBCHEM_CACTVS_TAUTO_COUNT>
24

> <PUBCHEM_CONFORMER_ID>
0001FE0000000001

> <PUBCHEM_MMFF94_ENERGY>
39.7698

> <PUBCHEM_FEATURE_SELFOVERLAP>
50.748

> <PUBCHEM_SHAPE_FINGERPRINT>
11488393 25 18266462010466253954
12363563 72 16877667881073439673
12596602 18 17704075131504364051
12892183 10 18271535221482747457
13294875 104 12463285843847183164
13911882 115 18261971711840545627
14252887 29 18260274031627344745
15099037 37 17313371327662779229
15375358 24 17821717326346501869
17349148 13 13767922377949632312
18186145 218 18200576091216879572
192875 21 12107782995274318037
19784866 34 17988348373660391208
20603629 256 18201157650466938058
20645477 70 18196351668135867407
20693207 138 17972039136948686927
21365058 27 18199205047118642830
21524375 3 18192124175419600152
21618674 53 17274814809166777876
23493267 7 16200152139967756087
23557571 272 17240763930428815573
23559900 14 17532930498205160438
458136 41 18342176678798213238
49207404 50 18260539018288273400
57100710 210 15285620110654868660
59682541 52 9943262363674667641
59755656 520 18058727039650228888
6049 1 18045213843527585004
621550 34 18334573538169018916
633830 44 17489016180360524324
6442390 28 18198905988566933838

> <PUBCHEM_SHAPE_MULTIPOLES>
382.9
9.69
2.86
2.06
6.3
2.84
-0.04
-2.28
6.38
-3.14
-1.55
0.77
-0.48
2.33

> <PUBCHEM_SHAPE_SELFOVERLAP>
745.152

> <PUBCHEM_SHAPE_VOLUME>
230.1

> <PUBCHEM_COORDINATE_TYPE>
2
5
10

$$$$
