REMARK  Name = 13051589
REMARK  7 active torsions:
REMARK  status: ('A' for Active; 'I' for Inactive)
REMARK    1  A    between atoms: C_3  and  O_28
REMARK    2  A    between atoms: C_4  and  C_22
REMARK    3  A    between atoms: C_4  and  O_24
REMARK    4  A    between atoms: C_9  and  O_26
REMARK    5  A    between atoms: O_28  and  C_30
REMARK    6  A    between atoms: C_31  and  N_36
REMARK    7  A    between atoms: C_33  and  O_40
REMARK                            x       y       z     vdW  Elec       q    Type
REMARK                         _______ _______ _______ _____ _____    ______ ____
ROOT
ATOM      1  O   UNL     1       2.443  -2.422  -0.985  0.00  0.00    -0.286 OA
ATOM      2  O   UNL     1       4.618   1.948   1.187  0.00  0.00    -0.287 OA
ATOM      3  C   UNL     1      -1.593   0.702  -0.319  0.00  0.00    +0.145 C 
ATOM      4  C   UNL     1      -1.759   3.157   0.285  0.00  0.00    +0.146 C 
ATOM      5  C   UNL     1      -2.408   1.783   0.392  0.00  0.00    +0.069 C 
ATOM      6  C   UNL     1      -0.354   3.145   0.890  0.00  0.00    +0.060 C 
ATOM      7  C   UNL     1      -0.110   0.776  -0.027  0.00  0.00    +0.035 C 
ATOM      8  C   UNL     1       0.471   1.938   0.513  0.00  0.00    -0.018 C 
ATOM      9  C   UNL     1       0.719  -0.309  -0.363  0.00  0.00    +0.135 C 
ATOM     10  C   UNL     1       1.856   1.974   0.752  0.00  0.00    -0.001 C 
ATOM     11  C   UNL     1       2.099  -0.260  -0.132  0.00  0.00    +0.075 C 
ATOM     12  C   UNL     1       2.667   0.880   0.430  0.00  0.00    +0.045 C 
ATOM     13  C   UNL     1       2.942  -1.420  -0.488  0.00  0.00    +0.199 C 
ATOM     14  C   UNL     1       4.120   0.948   0.686  0.00  0.00    +0.196 C 
ATOM     15  C   UNL     1       4.396  -1.354  -0.236  0.00  0.00    +0.042 C 
ATOM     16  C   UNL     1       4.964  -0.211   0.330  0.00  0.00    +0.042 C 
ATOM     17  C   UNL     1       5.206  -2.445  -0.569  0.00  0.00    +0.003 C 
ATOM     18  C   UNL     1       6.344  -0.159   0.563  0.00  0.00    +0.003 C 
ATOM     19  C   UNL     1       6.581  -2.390  -0.336  0.00  0.00    +0.000 C 
ATOM     20  C   UNL     1       7.148  -1.249   0.229  0.00  0.00    +0.000 C 
ENDROOT
BRANCH   4  22
ATOM     21  O   UNL     1      -0.732   4.012  -1.696  0.00  0.00    -0.294 OA
ATOM     22  C   UNL     1      -1.767   3.662  -1.130  0.00  0.00    +0.175 C 
ATOM     23  C   UNL     1      -3.102   3.716  -1.823  0.00  0.00    +0.075 C 
ENDBRANCH   4  22
BRANCH   4  24
ATOM     24  O   UNL     1      -2.572   4.094   0.988  0.00  0.00    -0.379 OA
ATOM     25  H   UNL     1      -2.623   3.841   1.923  0.00  0.00    +0.211 HD
ENDBRANCH   4  24
BRANCH   9  26
ATOM     26  O   UNL     1       0.136  -1.416  -0.918  0.00  0.00    -0.506 OA
ATOM     27  H   UNL     1      -0.789  -1.434  -1.067  0.00  0.00    +0.292 HD
ENDBRANCH   9  26
BRANCH   3  28
ATOM     28  O   UNL     1      -2.108  -0.570   0.074  0.00  0.00    -0.328 OA
BRANCH  28  30
ATOM     29  O   UNL     1      -4.442  -0.491  -0.338  0.00  0.00    -0.331 OA
ATOM     30  C   UNL     1      -3.174  -0.980  -0.777  0.00  0.00    +0.233 C 
ATOM     31  C   UNL     1      -3.636  -3.148   0.422  0.00  0.00    -0.031 C 
ATOM     32  C   UNL     1      -3.181  -2.506  -0.893  0.00  0.00    +0.042 C 
ATOM     33  C   UNL     1      -4.976  -2.546   0.871  0.00  0.00    +0.118 C 
ATOM     34  C   UNL     1      -4.863  -1.016   0.928  0.00  0.00    +0.142 C 
ATOM     35  C   UNL     1      -6.190  -0.349   1.275  0.00  0.00    +0.035 C 
BRANCH  31  36
ATOM     36  N   UNL     1      -3.735  -4.598   0.269  0.00  0.00    +0.384 N 
ATOM     37  H   UNL     1      -2.833  -4.970  -0.029  0.00  0.00    -0.089 HD
ATOM     38  H   UNL     1      -4.442  -4.819  -0.432  0.00  0.00    -0.089 HD
ATOM     39  H   UNL     1      -3.998  -5.017   1.161  0.00  0.00    -0.089 HD
ENDBRANCH  31  36
BRANCH  33  40
ATOM     40  O   UNL     1      -6.008  -2.897  -0.052  0.00  0.00    -0.384 OA
ATOM     41  H   UNL     1      -6.088  -3.862  -0.096  0.00  0.00    +0.210 HD
ENDBRANCH  33  40
ENDBRANCH  28  30
ENDBRANCH   3  28
TORSDOF 7
