130588
  -OEChem-03292013323D

 64 66  0     1  0  0  0  0  0999 V2000
    1.2003    1.6596   -0.8889 O   0  0  0  0  0  0  0  0  0  0  0  0
    1.1422    2.5472    1.2484 O   0  0  0  0  0  0  0  0  0  0  0  0
   -4.1323   -1.1038    0.3372 O   0  0  0  0  0  0  0  0  0  0  0  0
   -4.0777   -0.1336    2.4385 O   0  0  0  0  0  0  0  0  0  0  0  0
    0.9770   -4.5874   -0.5563 O   0  5  0  0  0  0  0  0  0  0  0  0
    0.8942   -3.5631    1.3836 O   0  0  0  0  0  0  0  0  0  0  0  0
    4.5719    0.2737   -0.2857 N   0  0  0  0  0  0  0  0  0  0  0  0
   -2.9386    3.0114   -0.5292 N   0  0  0  0  0  0  0  0  0  0  0  0
    0.6374   -3.6118    0.1563 N   0  3  0  0  0  0  0  0  0  0  0  0
    5.1110    1.3244    0.5892 C   0  0  0  0  0  0  0  0  0  0  0  0
    5.0304   -1.0569    0.1375 C   0  0  0  0  0  0  0  0  0  0  0  0
    6.6404    1.3133    0.5869 C   0  0  0  0  0  0  0  0  0  0  0  0
    6.5574   -1.1458    0.1203 C   0  0  0  0  0  0  0  0  0  0  0  0
    7.1858   -0.0549    0.9799 C   0  0  0  0  0  0  0  0  0  0  0  0
    3.1105    0.3277   -0.3094 C   0  0  0  0  0  0  0  0  0  0  0  0
   -1.5471    0.7979    0.5621 C   0  0  1  0  0  0  0  0  0  0  0  0
    2.6315    1.6579   -0.8683 C   0  0  0  0  0  0  0  0  0  0  0  0
   -0.8495    2.0662    0.0571 C   0  0  0  0  0  0  0  0  0  0  0  0
   -3.0743    0.9186    0.5667 C   0  0  0  0  0  0  0  0  0  0  0  0
   -1.5562    3.0923   -0.4690 C   0  0  0  0  0  0  0  0  0  0  0  0
   -1.1291   -0.3814   -0.2687 C   0  0  0  0  0  0  0  0  0  0  0  0
   -3.6946    1.9826    0.0087 C   0  0  0  0  0  0  0  0  0  0  0  0
    0.6102    2.1308    0.2361 C   0  0  0  0  0  0  0  0  0  0  0  0
   -0.9690    4.3608   -1.0262 C   0  0  0  0  0  0  0  0  0  0  0  0
   -0.4472   -1.4354    0.3276 C   0  0  0  0  0  0  0  0  0  0  0  0
   -3.8176   -0.1528    1.2496 C   0  0  0  0  0  0  0  0  0  0  0  0
   -1.4278   -0.4056   -1.6257 C   0  0  0  0  0  0  0  0  0  0  0  0
   -5.1843    2.1736   -0.0856 C   0  0  0  0  0  0  0  0  0  0  0  0
   -0.0584   -2.5299   -0.4447 C   0  0  0  0  0  0  0  0  0  0  0  0
   -1.0389   -1.5000   -2.3980 C   0  0  0  0  0  0  0  0  0  0  0  0
   -0.3542   -2.5623   -1.8074 C   0  0  0  0  0  0  0  0  0  0  0  0
   -4.8634   -2.2211    0.8526 C   0  0  0  0  0  0  0  0  0  0  0  0
   -5.1401   -3.1921   -0.2752 C   0  0  0  0  0  0  0  0  0  0  0  0
    4.7411    1.2091    1.6165 H   0  0  0  0  0  0  0  0  0  0  0  0
    4.8373    2.3262    0.2499 H   0  0  0  0  0  0  0  0  0  0  0  0
    4.6371   -1.8202   -0.5451 H   0  0  0  0  0  0  0  0  0  0  0  0
    4.6592   -1.2966    1.1427 H   0  0  0  0  0  0  0  0  0  0  0  0
    7.0180    2.0731    1.2806 H   0  0  0  0  0  0  0  0  0  0  0  0
    7.0093    1.5802   -0.4117 H   0  0  0  0  0  0  0  0  0  0  0  0
    6.9193   -1.0521   -0.9115 H   0  0  0  0  0  0  0  0  0  0  0  0
    6.8749   -2.1303    0.4821 H   0  0  0  0  0  0  0  0  0  0  0  0
    8.2758   -0.0711    0.8712 H   0  0  0  0  0  0  0  0  0  0  0  0
    6.9636   -0.2479    2.0366 H   0  0  0  0  0  0  0  0  0  0  0  0
    2.7120   -0.4731   -0.9461 H   0  0  0  0  0  0  0  0  0  0  0  0
    2.6860    0.1577    0.6889 H   0  0  0  0  0  0  0  0  0  0  0  0
   -1.2362    0.6599    1.6078 H   0  0  0  0  0  0  0  0  0  0  0  0
    2.9746    2.5416   -0.3251 H   0  0  0  0  0  0  0  0  0  0  0  0
    2.9653    1.7748   -1.9058 H   0  0  0  0  0  0  0  0  0  0  0  0
   -3.4362    3.7947   -0.9378 H   0  0  0  0  0  0  0  0  0  0  0  0
   -1.3445    5.2267   -0.4705 H   0  0  0  0  0  0  0  0  0  0  0  0
   -1.2506    4.4771   -2.0783 H   0  0  0  0  0  0  0  0  0  0  0  0
    0.1232    4.3846   -0.9746 H   0  0  0  0  0  0  0  0  0  0  0  0
   -0.2262   -1.3891    1.3910 H   0  0  0  0  0  0  0  0  0  0  0  0
   -1.9594    0.4084   -2.1099 H   0  0  0  0  0  0  0  0  0  0  0  0
   -5.4866    2.2718   -1.1338 H   0  0  0  0  0  0  0  0  0  0  0  0
   -5.7495    1.3405    0.3418 H   0  0  0  0  0  0  0  0  0  0  0  0
   -5.4833    3.0829    0.4466 H   0  0  0  0  0  0  0  0  0  0  0  0
   -1.2693   -1.5250   -3.4591 H   0  0  0  0  0  0  0  0  0  0  0  0
   -0.0672   -3.3982   -2.4401 H   0  0  0  0  0  0  0  0  0  0  0  0
   -5.8095   -1.8721    1.2816 H   0  0  0  0  0  0  0  0  0  0  0  0
   -4.2719   -2.7165    1.6306 H   0  0  0  0  0  0  0  0  0  0  0  0
   -4.2028   -3.5345   -0.7264 H   0  0  0  0  0  0  0  0  0  0  0  0
   -5.7157   -2.7058   -1.0697 H   0  0  0  0  0  0  0  0  0  0  0  0
   -5.6977   -4.0613    0.0843 H   0  0  0  0  0  0  0  0  0  0  0  0
  1 17  1  0  0  0  0
  1 23  1  0  0  0  0
  2 23  2  0  0  0  0
  3 26  1  0  0  0  0
  3 32  1  0  0  0  0
  4 26  2  0  0  0  0
  5  9  1  0  0  0  0
  6  9  2  0  0  0  0
  7 10  1  0  0  0  0
  7 11  1  0  0  0  0
  7 15  1  0  0  0  0
  8 20  1  0  0  0  0
  8 22  1  0  0  0  0
  8 49  1  0  0  0  0
  9 29  1  0  0  0  0
 10 12  1  0  0  0  0
 10 34  1  0  0  0  0
 10 35  1  0  0  0  0
 11 13  1  0  0  0  0
 11 36  1  0  0  0  0
 11 37  1  0  0  0  0
 12 14  1  0  0  0  0
 12 38  1  0  0  0  0
 12 39  1  0  0  0  0
 13 14  1  0  0  0  0
 13 40  1  0  0  0  0
 13 41  1  0  0  0  0
 14 42  1  0  0  0  0
 14 43  1  0  0  0  0
 15 17  1  0  0  0  0
 15 44  1  0  0  0  0
 15 45  1  0  0  0  0
 16 18  1  0  0  0  0
 16 19  1  0  0  0  0
 16 21  1  0  0  0  0
 16 46  1  0  0  0  0
 17 47  1  0  0  0  0
 17 48  1  0  0  0  0
 18 20  2  0  0  0  0
 18 23  1  0  0  0  0
 19 22  2  0  0  0  0
 19 26  1  0  0  0  0
 20 24  1  0  0  0  0
 21 25  2  0  0  0  0
 21 27  1  0  0  0  0
 22 28  1  0  0  0  0
 24 50  1  0  0  0  0
 24 51  1  0  0  0  0
 24 52  1  0  0  0  0
 25 29  1  0  0  0  0
 25 53  1  0  0  0  0
 27 30  2  0  0  0  0
 27 54  1  0  0  0  0
 28 55  1  0  0  0  0
 28 56  1  0  0  0  0
 28 57  1  0  0  0  0
 29 31  2  0  0  0  0
 30 31  1  0  0  0  0
 30 58  1  0  0  0  0
 31 59  1  0  0  0  0
 32 33  1  0  0  0  0
 32 60  1  0  0  0  0
 32 61  1  0  0  0  0
 33 62  1  0  0  0  0
 33 63  1  0  0  0  0
 33 64  1  0  0  0  0
M  CHG  2   5  -1   9   1
M  END
> <PUBCHEM_COMPOUND_CID>
130588

> <PUBCHEM_CONFORMER_RMSD>
1.2

> <PUBCHEM_CONFORMER_DIVERSEORDER>
2
25
57
73
61
29
60
32
20
1
47
70
17
49
71
68
48
35
64
75
74
37
65
34
28
45
50
5
42
54
55
69
41
21
76
43
53
58
77
14
6
62
59
24
51
23
18
11
27
63
67
22
31
26
7
78
39
72
16
4
40
66
33
15
52
3
46
13
10
8
36
44
12
30
56
19
38
9

> <PUBCHEM_MMFF94_PARTIAL_CHARGES>
34
1 -0.43
10 0.27
11 0.27
15 0.27
16 0.42
17 0.28
18 -0.12
19 -0.12
2 -0.57
20 -0.04
21 -0.14
22 -0.04
23 0.71
24 0.14
25 -0.15
26 0.71
27 -0.15
28 0.14
29 0.13
3 -0.43
30 -0.15
31 -0.15
32 0.28
4 -0.57
49 0.4
5 -0.52
53 0.15
54 0.15
58 0.15
59 0.15
6 -0.52
7 -0.81
8 -0.6
9 0.91

> <PUBCHEM_EFFECTIVE_ROTOR_COUNT>
11.6

> <PUBCHEM_PHARMACOPHORE_FEATURES>
11
1 2 acceptor
1 4 acceptor
1 5 acceptor
1 5 anion
1 6 acceptor
1 7 cation
1 8 cation
1 8 donor
6 21 25 27 29 30 31 rings
6 7 10 11 12 13 14 rings
6 8 16 18 19 20 22 rings

> <PUBCHEM_HEAVY_ATOM_COUNT>
33

> <PUBCHEM_ATOM_DEF_STEREO_COUNT>
0

> <PUBCHEM_ATOM_UDEF_STEREO_COUNT>
1

> <PUBCHEM_BOND_DEF_STEREO_COUNT>
0

> <PUBCHEM_BOND_UDEF_STEREO_COUNT>
0

> <PUBCHEM_ISOTOPIC_ATOM_COUNT>
0

> <PUBCHEM_COMPONENT_COUNT>
1

> <PUBCHEM_CACTVS_TAUTO_COUNT>
3

> <PUBCHEM_CONFORMER_ID>
0001FE1C00000002

> <PUBCHEM_MMFF94_ENERGY>
71.8831

> <PUBCHEM_FEATURE_SELFOVERLAP>
55.903

> <PUBCHEM_SHAPE_FINGERPRINT>
11445158 3 17896045510368669726
11578080 2 16590264174393449895
12422481 6 18201173077983878547
13140716 1 18341337764280233489
13947930 73 17316201625364388106
14028597 1 17559682741570088169
14866123 147 18270113638404747974
15274700 242 18042104541394140336
15439362 3 17687456875838206749
19591789 44 18339082695747678029
20028762 73 17986118628625629567
20905425 154 18195259810335075861
23559900 14 17617376178358611547
3178227 256 18342747308217119721
3298306 158 18195522589467041316
3380486 145 18264788601144794489
3383291 50 18337668728443617730
392239 28 18409457968012427378
5265222 85 18411708695154894540
59755656 215 18191307078802513701
9896288 288 18129104416480439232

> <PUBCHEM_SHAPE_MULTIPOLES>
628.97
13.12
5.09
1.47
21.43
1.52
0.2
0.69
-4.94
-3.5
0.96
-0.91
0.5
0.39

> <PUBCHEM_SHAPE_SELFOVERLAP>
1322.162

> <PUBCHEM_SHAPE_VOLUME>
354.2

> <PUBCHEM_COORDINATE_TYPE>
2
5
10

$$$$
