130601
  -OEChem-03292013323D

 32 33  0     1  0  0  0  0  0999 V2000
    1.6705   -0.1615   -0.9395 O   0  0  0  0  0  0  0  0  0  0  0  0
    3.8858    1.6449    0.1565 O   0  0  0  0  0  0  0  0  0  0  0  0
   -1.0539   -1.1572   -1.4954 O   0  0  0  0  0  0  0  0  0  0  0  0
    2.3657   -2.8354   -0.4697 O   0  0  0  0  0  0  0  0  0  0  0  0
   -2.4314   -2.2923    0.6674 O   0  0  0  0  0  0  0  0  0  0  0  0
   -1.0758    2.8650   -0.4164 O   0  0  0  0  0  0  0  0  0  0  0  0
   -4.3068   -0.3314    0.3263 O   0  0  0  0  0  0  0  0  0  0  0  0
   -0.3831    0.6538   -0.1694 N   0  0  0  0  0  0  0  0  0  0  0  0
   -2.6687    1.2419   -0.1037 N   0  0  0  0  0  0  0  0  0  0  0  0
    1.0144    0.9446   -0.3037 C   0  0  1  0  0  0  0  0  0  0  0  0
    1.7007    1.1705    1.0336 C   0  0  0  0  0  0  0  0  0  0  0  0
    3.0923    0.6381    0.7810 C   0  0  1  0  0  0  0  0  0  0  0  0
    2.8514   -0.5086   -0.1909 C   0  0  1  0  0  0  0  0  0  0  0  0
   -0.7823   -0.7493   -0.1564 C   0  0  1  0  0  0  0  0  0  0  0  0
    2.5882   -1.8347    0.5107 C   0  0  0  0  0  0  0  0  0  0  0  0
   -2.0059   -0.9458    0.7243 C   0  0  1  0  0  0  0  0  0  0  0  0
   -1.3413    1.6732   -0.2450 C   0  0  0  0  0  0  0  0  0  0  0  0
   -3.1199   -0.0160    0.2903 C   0  0  0  0  0  0  0  0  0  0  0  0
    1.1517    1.8212   -0.9477 H   0  0  0  0  0  0  0  0  0  0  0  0
    1.2164    0.5819    1.8225 H   0  0  0  0  0  0  0  0  0  0  0  0
    1.6693    2.2236    1.3298 H   0  0  0  0  0  0  0  0  0  0  0  0
    3.6106    0.3283    1.6933 H   0  0  0  0  0  0  0  0  0  0  0  0
    3.6669   -0.6195   -0.9144 H   0  0  0  0  0  0  0  0  0  0  0  0
   -0.0001   -1.3937    0.2310 H   0  0  0  0  0  0  0  0  0  0  0  0
    1.7389   -1.8102    1.1964 H   0  0  0  0  0  0  0  0  0  0  0  0
    3.4673   -2.1326    1.0913 H   0  0  0  0  0  0  0  0  0  0  0  0
   -1.7605   -0.7027    1.7656 H   0  0  0  0  0  0  0  0  0  0  0  0
    3.9670    2.3825    0.7850 H   0  0  0  0  0  0  0  0  0  0  0  0
   -3.3864    1.9371   -0.2893 H   0  0  0  0  0  0  0  0  0  0  0  0
   -1.6257   -0.4811   -1.8957 H   0  0  0  0  0  0  0  0  0  0  0  0
   -3.1491   -2.4009    1.3146 H   0  0  0  0  0  0  0  0  0  0  0  0
    1.6131   -2.5513   -1.0157 H   0  0  0  0  0  0  0  0  0  0  0  0
  1 10  1  0  0  0  0
  1 13  1  0  0  0  0
  2 12  1  0  0  0  0
  2 28  1  0  0  0  0
  3 14  1  0  0  0  0
  3 30  1  0  0  0  0
  4 15  1  0  0  0  0
  4 32  1  0  0  0  0
  5 16  1  0  0  0  0
  5 31  1  0  0  0  0
  6 17  2  0  0  0  0
  7 18  2  0  0  0  0
  8 10  1  0  0  0  0
  8 14  1  0  0  0  0
  8 17  1  0  0  0  0
  9 17  1  0  0  0  0
  9 18  1  0  0  0  0
  9 29  1  0  0  0  0
 10 11  1  0  0  0  0
 10 19  1  0  0  0  0
 11 12  1  0  0  0  0
 11 20  1  0  0  0  0
 11 21  1  0  0  0  0
 12 13  1  0  0  0  0
 12 22  1  0  0  0  0
 13 15  1  0  0  0  0
 13 23  1  0  0  0  0
 14 16  1  0  0  0  0
 14 24  1  0  0  0  0
 15 25  1  0  0  0  0
 15 26  1  0  0  0  0
 16 18  1  0  0  0  0
 16 27  1  0  0  0  0
M  END
> <PUBCHEM_COMPOUND_CID>
130601

> <PUBCHEM_CONFORMER_RMSD>
0.6

> <PUBCHEM_CONFORMER_DIVERSEORDER>
1
49
29
11
34
23
39
36
27
38
5
13
26
41
48
8
25
46
31
18
12
42
43
47
32
3
20
45
44
24
28
7
16
21
37
19
14
30
10
33
22
40
9
15
6
35
2
4
17

> <PUBCHEM_MMFF94_PARTIAL_CHARGES>
22
1 -0.56
10 0.58
12 0.28
13 0.28
14 0.58
15 0.28
16 0.34
17 0.69
18 0.57
2 -0.68
28 0.4
29 0.37
3 -0.68
30 0.4
31 0.4
32 0.4
4 -0.68
5 -0.68
6 -0.57
7 -0.57
8 -0.66
9 -0.49

> <PUBCHEM_EFFECTIVE_ROTOR_COUNT>
3.8

> <PUBCHEM_PHARMACOPHORE_FEATURES>
14
1 1 acceptor
1 2 acceptor
1 2 donor
1 3 acceptor
1 3 donor
1 4 acceptor
1 4 donor
1 5 acceptor
1 5 donor
1 6 acceptor
1 7 acceptor
1 9 donor
5 1 10 11 12 13 rings
6 8 9 14 16 17 18 rings

> <PUBCHEM_HEAVY_ATOM_COUNT>
18

> <PUBCHEM_ATOM_DEF_STEREO_COUNT>
3

> <PUBCHEM_ATOM_UDEF_STEREO_COUNT>
2

> <PUBCHEM_BOND_DEF_STEREO_COUNT>
0

> <PUBCHEM_BOND_UDEF_STEREO_COUNT>
0

> <PUBCHEM_ISOTOPIC_ATOM_COUNT>
0

> <PUBCHEM_COMPONENT_COUNT>
1

> <PUBCHEM_CACTVS_TAUTO_COUNT>
3

> <PUBCHEM_CONFORMER_ID>
0001FE2900000001

> <PUBCHEM_MMFF94_ENERGY>
39.6494

> <PUBCHEM_FEATURE_SELFOVERLAP>
71.071

> <PUBCHEM_SHAPE_FINGERPRINT>
10366900 7 18270676579593654864
10608611 8 18338511946028515936
10618630 7 18260830405685162107
10967382 1 18409730689797718050
10980938 120 18272650147341908330
12251169 10 18201718504502588673
12382932 28 18336264651466544050
12553582 1 17901967540352895995
12932764 1 17917419947830476300
13140716 1 18124588945056956280
13214271 11 18266455597335652184
13380535 21 18411423886555386128
14223421 5 18410292497569504474
15219456 202 18412540977157315464
15309172 13 17346883355292059525
15375358 24 18261949742897846273
15375462 6 18410855456028633212
15422964 175 18262805180346009027
15775835 57 18131350855699665178
16945 1 18335431165928923509
17804303 29 18194408792471986182
19049666 15 18268144249812075912
19784866 170 18338237184191138656
20510252 161 18411418367554527305
20645477 70 18342732979667714743
21501502 16 18340770325621140584
21524375 3 17692243046043719437
23463225 33 18409171008567623117
23559900 14 18409444752840811612
2748010 2 18267016150808267788
31174 14 18201716253902828392
34934 24 18337667615661095257
598444 67 18120660128112495487
69090 78 18201714072570969431
7364860 26 18341895160903542918
81228 2 18187090520476916049
9709674 26 18410293566884823610

> <PUBCHEM_SHAPE_MULTIPOLES>
319.38
6.1
2.52
0.93
0.58
0.34
-0.06
0.53
1.06
-0.47
-0.13
-0.09
0.14
0.6

> <PUBCHEM_SHAPE_SELFOVERLAP>
668.174

> <PUBCHEM_SHAPE_VOLUME>
178.8

> <PUBCHEM_COORDINATE_TYPE>
2
5
10

$$$$
