REMARK  Name = 130628
REMARK  11 active torsions:
REMARK  status: ('A' for Active; 'I' for Inactive)
REMARK    1  A    between atoms: C_1  and  O_2
REMARK    2  A    between atoms: C_1  and  C_7
REMARK    3  A    between atoms: C_1  and  C_17
REMARK    4  A    between atoms: O_2  and  S_3
REMARK    5  A    between atoms: C_7  and  O_8
REMARK    6  A    between atoms: C_7  and  C_10
REMARK    7  A    between atoms: C_10  and  O_11
REMARK    8  A    between atoms: C_10  and  C_14
REMARK    9  A    between atoms: C_14  and  O_15
REMARK   10  A    between atoms: C_17  and  O_18
REMARK   11  A    between atoms: C_17  and  C_21
REMARK                            x       y       z     vdW  Elec       q    Type
REMARK                         _______ _______ _______ _____ _____    ______ ____
ROOT
ATOM      1  C   UNL     1       0.132  -0.271   0.403  0.00  0.00    +0.211 C 
ENDROOT
BRANCH   1   2
ATOM      2  O   UNL     1       0.544   0.806  -0.441  0.00  0.00    -0.197 OA
BRANCH   2   3
ATOM      3  S   UNL     1       1.568   1.935   0.138  0.00  0.00    +0.239 S 
ATOM      4  O   UNL     1       1.633   3.044  -1.057  0.00  0.00    -0.116 OA
ATOM      5  O   UNL     1       0.922   2.559   1.278  0.00  0.00    -0.022 OA
ATOM      6  O   UNL     1       2.889   1.352   0.278  0.00  0.00    -0.116 OA
ENDBRANCH   2   3
ENDBRANCH   1   2
BRANCH   1   7
ATOM      7  C   UNL     1      -0.899  -1.147  -0.345  0.00  0.00    +0.181 C 
BRANCH   7   8
ATOM      8  O   UNL     1      -0.260  -1.745  -1.475  0.00  0.00    -0.379 OA
ATOM      9  H   UNL     1       0.530  -2.227  -1.182  0.00  0.00    +0.211 HD
ENDBRANCH   7   8
BRANCH   7  10
ATOM     10  C   UNL     1      -2.146  -0.388  -0.825  0.00  0.00    +0.239 C 
BRANCH  10  11
ATOM     11  O   UNL     1      -1.751   0.709  -1.638  0.00  0.00    -0.373 OA
ATOM     12  H   UNL     1      -1.250   0.382  -2.401  0.00  0.00    +0.211 HD
ENDBRANCH  10  11
BRANCH  10  14
ATOM     13  O   UNL     1      -3.098   1.387   0.552  0.00  0.00    -0.248 OA
ATOM     14  C   UNL     1      -2.920   0.196   0.341  0.00  0.00    +0.344 C 
BRANCH  14  15
ATOM     15  O   UNL     1      -3.382  -0.785   1.158  0.00  0.00    -0.478 OA
ATOM     16  H   UNL     1      -3.218  -1.684   0.950  0.00  0.00    +0.295 HD
ENDBRANCH  14  15
ENDBRANCH  10  14
ENDBRANCH   7  10
ENDBRANCH   1   7
BRANCH   1  17
ATOM     17  C   UNL     1       1.390  -1.043   0.825  0.00  0.00    +0.207 C 
BRANCH  17  18
ATOM     18  O   UNL     1       1.076  -2.085   1.732  0.00  0.00    -0.375 OA
ATOM     19  H   UNL     1       0.641  -1.713   2.515  0.00  0.00    +0.211 HD
ENDBRANCH  17  18
BRANCH  17  21
ATOM     20  O   UNL     1       2.235  -2.865  -0.542  0.00  0.00    -0.286 OA
ATOM     21  C   UNL     1       2.067  -1.660  -0.384  0.00  0.00    +0.239 C 
ENDBRANCH  17  21
ENDBRANCH   1  17
TORSDOF 11
