REMARK  Name = 130601
REMARK  6 active torsions:
REMARK  status: ('A' for Active; 'I' for Inactive)
REMARK    1  A    between atoms: N_3  and  C1*_11
REMARK    2  A    between atoms: C_5  and  O_20
REMARK    3  A    between atoms: C_6  and  O_22
REMARK    4  A    between atoms: C3*_13  and  O3*_15
REMARK    5  A    between atoms: C4*_14  and  C5*_17
REMARK    6  A    between atoms: C5*_17  and  O5*_18
REMARK                            x       y       z     vdW  Elec       q    Type
REMARK                         _______ _______ _______ _____ _____    ______ ____
ROOT
ATOM      1  O   UNL     1      -1.076   2.865  -0.416  0.00  0.00    -0.252 OA
ATOM      2  O   UNL     1      -4.307  -0.331   0.326  0.00  0.00    -0.272 OA
ATOM      3  N   UNL     1      -0.383   0.654  -0.169  0.00  0.00    -0.216 N 
ATOM      4  N   UNL     1      -2.669   1.242  -0.104  0.00  0.00    -0.237 N 
ATOM      5  C   UNL     1      -0.782  -0.749  -0.156  0.00  0.00    +0.230 C 
ATOM      6  C   UNL     1      -2.006  -0.946   0.724  0.00  0.00    +0.234 C 
ATOM      7  C   UNL     1      -1.341   1.673  -0.245  0.00  0.00    +0.313 C 
ATOM      8  C   UNL     1      -3.120  -0.016   0.290  0.00  0.00    +0.261 C 
ATOM      9  H   UNL     1      -3.365   1.908  -0.307  0.00  0.00    +0.159 HD
ENDROOT
BRANCH   3  11
ATOM     10  O4* UNL     1       1.671  -0.162  -0.940  0.00  0.00    -0.335 OA
ATOM     11  C1* UNL     1       1.014   0.945  -0.304  0.00  0.00    +0.200 C 
ATOM     12  C2* UNL     1       1.701   1.171   1.034  0.00  0.00    +0.083 C 
ATOM     13  C3* UNL     1       3.092   0.638   0.781  0.00  0.00    +0.144 C 
ATOM     14  C4* UNL     1       2.851  -0.509  -0.191  0.00  0.00    +0.173 C 
BRANCH  13  15
ATOM     15  O3* UNL     1       3.886   1.645   0.157  0.00  0.00    -0.382 OA
ATOM     16  H3* UNL     1       4.035   2.372   0.781  0.00  0.00    +0.210 HD
ENDBRANCH  13  15
BRANCH  14  17
ATOM     17  C5* UNL     1       2.588  -1.835   0.511  0.00  0.00    +0.169 C 
BRANCH  17  18
ATOM     18  O5* UNL     1       2.366  -2.835  -0.470  0.00  0.00    -0.379 OA
ATOM     19  H5* UNL     1       2.197  -3.685  -0.032  0.00  0.00    +0.211 HD
ENDBRANCH  17  18
ENDBRANCH  14  17
ENDBRANCH   3  11
BRANCH   5  20
ATOM     20  O   UNL     1      -1.054  -1.157  -1.495  0.00  0.00    -0.365 OA
ATOM     21  H   UNL     1      -0.263  -1.024  -2.041  0.00  0.00    +0.212 HD
ENDBRANCH   5  20
BRANCH   6  22
ATOM     22  O   UNL     1      -2.431  -2.292   0.667  0.00  0.00    -0.373 OA
ATOM     23  H   UNL     1      -1.707  -2.873   0.948  0.00  0.00    +0.211 HD
ENDBRANCH   6  22
TORSDOF 6
