REMARK  Name = 130613
REMARK  5 active torsions:
REMARK  status: ('A' for Active; 'I' for Inactive)
REMARK    1  A    between atoms: N_1  and  C1*_18
REMARK    2  A    between atoms: C2*_19  and  O2*_22
REMARK    3  A    between atoms: C3*_20  and  O3*_24
REMARK    4  A    between atoms: C4*_21  and  C5*_26
REMARK    5  A    between atoms: C5*_26  and  O5*_27
REMARK                            x       y       z     vdW  Elec       q    Type
REMARK                         _______ _______ _______ _____ _____    ______ ____
ROOT
ATOM      1  N   UNL     1       0.410   0.249  -0.238  0.00  0.00    -0.170 N 
ATOM      2  N   UNL     1       0.086  -1.069  -0.030  0.00  0.00    -0.176 NA
ATOM      3  N   UNL     1      -0.795   2.408  -0.469  0.00  0.00    -0.231 NA
ATOM      4  N   UNL     1      -3.945  -0.399   0.121  0.00  0.00    -0.195 N 
ATOM      5  N   UNL     1      -3.527  -1.736   0.289  0.00  0.00    -0.161 NA
ATOM      6  N   UNL     1      -3.240   1.979  -0.257  0.00  0.00    -0.231 NA
ATOM      7  N   UNL     1      -1.731  -3.319   0.404  0.00  0.00    -0.340 N 
ATOM      8  C   UNL     1      -0.679   1.083  -0.289  0.00  0.00    +0.139 C 
ATOM      9  C   UNL     1      -1.727   0.238  -0.105  0.00  0.00    +0.155 C 
ATOM     10  C   UNL     1      -1.248  -1.041   0.047  0.00  0.00    +0.123 C 
ATOM     11  C   UNL     1      -3.036   0.648  -0.082  0.00  0.00    +0.137 C 
ATOM     12  C   UNL     1      -2.251  -2.064   0.257  0.00  0.00    +0.159 C 
ATOM     13  C   UNL     1      -2.122   2.757  -0.436  0.00  0.00    +0.253 C 
ATOM     14  C   UNL     1      -5.359  -0.107   0.174  0.00  0.00    +0.141 C 
ATOM     15  H   UNL     1      -2.330  -4.086   0.551  0.00  0.00    +0.144 HD
ATOM     16  H   UNL     1      -0.757  -3.456   0.363  0.00  0.00    +0.144 HD
ENDROOT
BRANCH   1  18
ATOM     17  O4* UNL     1       2.545  -0.429  -1.020  0.00  0.00    -0.332 OA
ATOM     18  C1* UNL     1       1.812   0.634  -0.382  0.00  0.00    +0.243 C 
ATOM     19  C2* UNL     1       2.520   0.902   0.938  0.00  0.00    +0.188 C 
ATOM     20  C3* UNL     1       3.965   0.638   0.564  0.00  0.00    +0.171 C 
ATOM     21  C4* UNL     1       3.842  -0.544  -0.392  0.00  0.00    +0.176 C 
BRANCH  19  22
ATOM     22  O2* UNL     1       2.299   2.221   1.396  0.00  0.00    -0.378 OA
ATOM     23  H2* UNL     1       1.361   2.333   1.619  0.00  0.00    +0.211 HD
ENDBRANCH  19  22
BRANCH  20  24
ATOM     24  O3* UNL     1       4.484   1.758  -0.152  0.00  0.00    -0.379 OA
ATOM     25  H3* UNL     1       4.565   2.516   0.447  0.00  0.00    +0.211 HD
ENDBRANCH  20  24
BRANCH  21  26
ATOM     26  C5* UNL     1       3.916  -1.890   0.315  0.00  0.00    +0.169 C 
BRANCH  26  27
ATOM     27  O5* UNL     1       3.783  -2.918  -0.650  0.00  0.00    -0.379 OA
ATOM     28  H5* UNL     1       3.828  -3.782  -0.211  0.00  0.00    +0.211 HD
ENDBRANCH  26  27
ENDBRANCH  21  26
ENDBRANCH   1  18
TORSDOF 5
