REMARK  Name = 130689
REMARK  7 active torsions:
REMARK  status: ('A' for Active; 'I' for Inactive)
REMARK    1  A    between atoms: C_6  and  O_21
REMARK    2  A    between atoms: C_6  and  C_26
REMARK    3  A    between atoms: C_9  and  O_23
REMARK    4  A    between atoms: C_10  and  C_31
REMARK    5  A    between atoms: C_26  and  C_27
REMARK    6  A    between atoms: C_27  and  O_28
REMARK    7  A    between atoms: C_31  and  O_32
REMARK                            x       y       z     vdW  Elec       q    Type
REMARK                         _______ _______ _______ _____ _____    ______ ____
ROOT
ATOM      1  O   UNL     1      -6.511   1.004   1.858  0.00  0.00    -0.287 OA
ATOM      2  C   UNL     1       1.214  -0.760  -0.351  0.00  0.00    +0.032 C 
ATOM      3  C   UNL     1       0.476   0.594  -0.434  0.00  0.00    +0.003 C 
ATOM      4  C   UNL     1      -0.966   0.480  -0.951  0.00  0.00    +0.003 C 
ATOM      5  C   UNL     1      -1.780  -0.445   0.021  0.00  0.00    +0.034 C 
ATOM      6  C   UNL     1       2.609  -0.264   0.141  0.00  0.00    +0.151 C 
ATOM      7  C   UNL     1       0.429  -1.656   0.631  0.00  0.00    +0.032 C 
ATOM      8  C   UNL     1       1.459   1.487  -1.190  0.00  0.00    +0.014 C 
ATOM      9  C   UNL     1      -1.062  -1.810   0.259  0.00  0.00    +0.111 C 
ATOM     10  C   UNL     1       2.850   1.033  -0.685  0.00  0.00    +0.130 C 
ATOM     11  C   UNL     1      -3.309  -0.526  -0.372  0.00  0.00    +0.036 C 
ATOM     12  C   UNL     1      -1.609   1.875  -1.061  0.00  0.00    +0.004 C 
ATOM     13  C   UNL     1       1.382  -1.458  -1.730  0.00  0.00    +0.003 C 
ATOM     14  C   UNL     1      -3.082   1.805  -1.447  0.00  0.00    +0.022 C 
ATOM     15  C   UNL     1      -3.828   0.911  -0.491  0.00  0.00    -0.038 C 
ATOM     16  C   UNL     1      -3.590  -1.241  -1.713  0.00  0.00    +0.009 C 
ATOM     17  C   UNL     1      -4.078  -1.302   0.687  0.00  0.00    -0.020 C 
ATOM     18  C   UNL     1      -4.853   1.396   0.228  0.00  0.00    +0.034 C 
ATOM     19  C   UNL     1      -5.098  -0.825   1.407  0.00  0.00    +0.038 C 
ATOM     20  C   UNL     1      -5.566   0.560   1.215  0.00  0.00    +0.195 C 
ENDROOT
BRANCH   6  21
ATOM     21  O   UNL     1       2.615   0.029   1.534  0.00  0.00    -0.379 OA
ATOM     22  H   UNL     1       1.914   0.670   1.732  0.00  0.00    +0.211 HD
ENDBRANCH   6  21
BRANCH   9  23
ATOM     23  O   UNL     1      -1.192  -2.727  -0.817  0.00  0.00    -0.384 OA
ATOM     24  H   UNL     1      -2.129  -2.822  -1.049  0.00  0.00    +0.210 HD
ENDBRANCH   9  23
BRANCH   6  26
ATOM     25  O   UNL     1       4.681  -1.011  -0.773  0.00  0.00    -0.291 OA
ATOM     26  C   UNL     1       3.722  -1.256  -0.043  0.00  0.00    +0.204 C 
BRANCH  26  27
ATOM     27  C   UNL     1       3.591  -2.559   0.716  0.00  0.00    +0.204 C 
BRANCH  27  28
ATOM     28  O   UNL     1       4.864  -3.071   1.049  0.00  0.00    -0.375 OA
ATOM     29  H   UNL     1       4.760  -3.905   1.534  0.00  0.00    +0.211 HD
ENDBRANCH  27  28
ENDBRANCH  26  27
ENDBRANCH   6  26
BRANCH  10  31
ATOM     30  O   UNL     1       2.957   3.201   0.360  0.00  0.00    -0.250 OA
ATOM     31  C   UNL     1       3.489   2.126   0.120  0.00  0.00    +0.319 C 
BRANCH  31  32
ATOM     32  O   UNL     1       4.729   1.728   0.526  0.00  0.00    -0.444 OA
ATOM     33  C   UNL     1       5.455   2.682   1.308  0.00  0.00    +0.256 C 
ENDBRANCH  31  32
ENDBRANCH  10  31
TORSDOF 7
