REMARK  Name = 130627
REMARK  7 active torsions:
REMARK  status: ('A' for Active; 'I' for Inactive)
REMARK    1  A    between atoms: N_2  and  C_5
REMARK    2  A    between atoms: C_3  and  C_15
REMARK    3  A    between atoms: C_5  and  C_6
REMARK    4  A    between atoms: C_6  and  C_7
REMARK    5  A    between atoms: C_7  and  N_9
REMARK    6  A    between atoms: C_15  and  N_16
REMARK    7  A    between atoms: C_21  and  N_27
REMARK                            x       y       z     vdW  Elec       q    Type
REMARK                         _______ _______ _______ _____ _____    ______ ____
ROOT
ATOM      1  O   UNL     1      -0.592   3.404   1.548  0.00  0.00    -0.273 OA
ATOM      2  N   UNL     1       0.527   2.985  -0.445  0.00  0.00    -0.303 N 
ATOM      3  C   UNL     1      -0.596   3.047   0.373  0.00  0.00    +0.243 C 
ATOM      4  H   UNL     1       0.414   2.683  -1.375  0.00  0.00    +0.149 HD
ENDROOT
BRANCH   2   5
ATOM      5  C   UNL     1       1.846   3.340   0.004  0.00  0.00    +0.087 C 
BRANCH   5   6
ATOM      6  C   UNL     1       2.604   2.153   0.591  0.00  0.00    -0.002 C 
BRANCH   6   7
ATOM      7  C   UNL     1       2.807   1.030  -0.428  0.00  0.00    -0.075 C 
BRANCH   7   9
ATOM      8  O   UNL     1       3.854  -2.801   0.930  0.00  0.00    -0.358 OA
ATOM      9  N   UNL     1       3.552  -0.073   0.177  0.00  0.00    +0.390 N 
ATOM     10  C   UNL     1       3.837  -1.117  -0.817  0.00  0.00    -0.045 C 
ATOM     11  C   UNL     1       2.809  -0.645   1.309  0.00  0.00    -0.045 C 
ATOM     12  C   UNL     1       4.603  -2.262  -0.160  0.00  0.00    +0.119 C 
ATOM     13  C   UNL     1       3.599  -1.800   1.916  0.00  0.00    +0.119 C 
ATOM     14  H   UNL     1       4.436   0.299   0.523  0.00  0.00    -0.079 HD
ENDBRANCH   7   9
ENDBRANCH   6   7
ENDBRANCH   5   6
ENDBRANCH   2   5
BRANCH   3  15
ATOM     15  C   UNL     1      -1.846   2.613  -0.362  0.00  0.00    +0.182 C 
BRANCH  15  16
ATOM     16  N   UNL     1      -2.109   1.183  -0.236  0.00  0.00    -0.261 N 
ATOM     17  N   UNL     1      -0.874   0.442  -2.165  0.00  0.00    -0.229 NA
ATOM     18  C   UNL     1      -1.644   0.222  -1.083  0.00  0.00    +0.137 C 
ATOM     19  C   UNL     1      -2.112  -1.004  -0.620  0.00  0.00    +0.056 C 
ATOM     20  C   UNL     1      -2.858   0.624   0.755  0.00  0.00    +0.091 C 
ATOM     21  C   UNL     1      -2.880  -0.738   0.544  0.00  0.00    +0.160 C 
ATOM     22  C   UNL     1      -1.752  -2.150  -1.348  0.00  0.00    +0.006 C 
ATOM     23  C   UNL     1      -0.954  -1.979  -2.478  0.00  0.00    +0.021 C 
ATOM     24  C   UNL     1      -0.557  -0.695  -2.827  0.00  0.00    +0.100 C 
BRANCH  21  27
ATOM     25  O   UNL     1      -4.193  -1.234   2.369  0.00  0.00    -0.126 OA
ATOM     26  O   UNL     1      -3.514  -2.884   1.085  0.00  0.00    -0.126 OA
ATOM     27  N   UNL     1      -3.558  -1.657   1.368  0.00  0.00    +0.059 N 
ENDBRANCH  21  27
ENDBRANCH  15  16
ENDBRANCH   3  15
TORSDOF 7
