130613
  -OEChem-03292013323D

 38 41  0     1  0  0  0  0  0999 V2000
    2.5449   -0.4291   -1.0205 O   0  0  0  0  0  0  0  0  0  0  0  0
    2.2985    2.2208    1.3956 O   0  0  0  0  0  0  0  0  0  0  0  0
    4.4837    1.7583   -0.1524 O   0  0  0  0  0  0  0  0  0  0  0  0
    3.7826   -2.9179   -0.6504 O   0  0  0  0  0  0  0  0  0  0  0  0
    0.4099    0.2491   -0.2381 N   0  0  0  0  0  0  0  0  0  0  0  0
    0.0856   -1.0694   -0.0303 N   0  0  0  0  0  0  0  0  0  0  0  0
   -0.7951    2.4080   -0.4694 N   0  0  0  0  0  0  0  0  0  0  0  0
   -3.9449   -0.3985    0.1208 N   0  0  0  0  0  0  0  0  0  0  0  0
   -3.5273   -1.7363    0.2892 N   0  0  0  0  0  0  0  0  0  0  0  0
   -3.2398    1.9792   -0.2571 N   0  0  0  0  0  0  0  0  0  0  0  0
   -1.7309   -3.3186    0.4041 N   0  0  0  0  0  0  0  0  0  0  0  0
    1.8121    0.6339   -0.3817 C   0  0  1  0  0  0  0  0  0  0  0  0
    2.5196    0.9023    0.9379 C   0  0  1  0  0  0  0  0  0  0  0  0
    3.9648    0.6381    0.5644 C   0  0  1  0  0  0  0  0  0  0  0  0
    3.8425   -0.5440   -0.3921 C   0  0  1  0  0  0  0  0  0  0  0  0
    3.9158   -1.8899    0.3153 C   0  0  0  0  0  0  0  0  0  0  0  0
   -0.6788    1.0828   -0.2893 C   0  0  0  0  0  0  0  0  0  0  0  0
   -1.7273    0.2380   -0.1052 C   0  0  0  0  0  0  0  0  0  0  0  0
   -1.2485   -1.0409    0.0474 C   0  0  0  0  0  0  0  0  0  0  0  0
   -3.0356    0.6478   -0.0821 C   0  0  0  0  0  0  0  0  0  0  0  0
   -2.2509   -2.0641    0.2565 C   0  0  0  0  0  0  0  0  0  0  0  0
   -2.1215    2.7575   -0.4363 C   0  0  0  0  0  0  0  0  0  0  0  0
   -5.3594   -0.1070    0.1736 C   0  0  0  0  0  0  0  0  0  0  0  0
    1.8264    1.5060   -1.0468 H   0  0  0  0  0  0  0  0  0  0  0  0
    2.1883    0.1988    1.7113 H   0  0  0  0  0  0  0  0  0  0  0  0
    4.6175    0.4642    1.4237 H   0  0  0  0  0  0  0  0  0  0  0  0
    4.5862   -0.5048   -1.1963 H   0  0  0  0  0  0  0  0  0  0  0  0
    3.1104   -2.0149    1.0458 H   0  0  0  0  0  0  0  0  0  0  0  0
    4.8760   -2.0166    0.8239 H   0  0  0  0  0  0  0  0  0  0  0  0
    2.8692    2.3591    2.1706 H   0  0  0  0  0  0  0  0  0  0  0  0
    4.0125    1.8404   -0.9981 H   0  0  0  0  0  0  0  0  0  0  0  0
    2.9274   -2.7924   -1.0962 H   0  0  0  0  0  0  0  0  0  0  0  0
   -2.3196    3.8165   -0.5733 H   0  0  0  0  0  0  0  0  0  0  0  0
   -5.9455   -1.0195    0.3280 H   0  0  0  0  0  0  0  0  0  0  0  0
   -5.6970    0.3499   -0.7629 H   0  0  0  0  0  0  0  0  0  0  0  0
   -5.5841    0.5764    0.9996 H   0  0  0  0  0  0  0  0  0  0  0  0
   -2.3370   -4.1178    0.5559 H   0  0  0  0  0  0  0  0  0  0  0  0
   -0.7333   -3.5024    0.3677 H   0  0  0  0  0  0  0  0  0  0  0  0
  1 12  1  0  0  0  0
  1 15  1  0  0  0  0
  2 13  1  0  0  0  0
  2 30  1  0  0  0  0
  3 14  1  0  0  0  0
  3 31  1  0  0  0  0
  4 16  1  0  0  0  0
  4 32  1  0  0  0  0
  5  6  1  0  0  0  0
  5 12  1  0  0  0  0
  5 17  1  0  0  0  0
  6 19  2  0  0  0  0
  7 17  1  0  0  0  0
  7 22  2  0  0  0  0
  8  9  1  0  0  0  0
  8 20  1  0  0  0  0
  8 23  1  0  0  0  0
  9 21  2  0  0  0  0
 10 20  2  0  0  0  0
 10 22  1  0  0  0  0
 11 21  1  0  0  0  0
 11 37  1  0  0  0  0
 11 38  1  0  0  0  0
 12 13  1  0  0  0  0
 12 24  1  0  0  0  0
 13 14  1  0  0  0  0
 13 25  1  0  0  0  0
 14 15  1  0  0  0  0
 14 26  1  0  0  0  0
 15 16  1  0  0  0  0
 15 27  1  0  0  0  0
 16 28  1  0  0  0  0
 16 29  1  0  0  0  0
 17 18  2  0  0  0  0
 18 19  1  0  0  0  0
 18 20  1  0  0  0  0
 19 21  1  0  0  0  0
 22 33  1  0  0  0  0
 23 34  1  0  0  0  0
 23 35  1  0  0  0  0
 23 36  1  0  0  0  0
M  END
> <PUBCHEM_COMPOUND_CID>
130613

> <PUBCHEM_CONFORMER_RMSD>
0.6

> <PUBCHEM_CONFORMER_DIVERSEORDER>
6
5
15
4
13
9
2
11
10
14
7
1
12
8
3

> <PUBCHEM_MMFF94_PARTIAL_CHARGES>
28
1 -0.56
10 -0.62
11 -0.85
12 0.54
13 0.28
14 0.28
15 0.28
16 0.28
17 0.11
19 0.2
2 -0.68
20 0.41
21 0.59
22 0.47
23 0.37
3 -0.68
30 0.4
31 0.4
32 0.4
33 0.15
37 0.4
38 0.4
4 -0.68
5 0.31
6 -0.71
7 -0.57
8 -0.43
9 -0.49

> <PUBCHEM_EFFECTIVE_ROTOR_COUNT>
3.2

> <PUBCHEM_PHARMACOPHORE_FEATURES>
16
1 1 acceptor
1 11 donor
1 2 acceptor
1 2 donor
1 3 acceptor
1 3 donor
1 4 acceptor
1 4 donor
1 6 acceptor
3 7 10 22 cation
3 8 10 20 cation
3 9 11 21 cation
5 1 12 13 14 15 rings
5 5 6 17 18 19 rings
6 7 10 17 18 20 22 rings
6 8 9 18 19 20 21 rings

> <PUBCHEM_HEAVY_ATOM_COUNT>
23

> <PUBCHEM_ATOM_DEF_STEREO_COUNT>
4

> <PUBCHEM_ATOM_UDEF_STEREO_COUNT>
0

> <PUBCHEM_BOND_DEF_STEREO_COUNT>
0

> <PUBCHEM_BOND_UDEF_STEREO_COUNT>
0

> <PUBCHEM_ISOTOPIC_ATOM_COUNT>
0

> <PUBCHEM_COMPONENT_COUNT>
1

> <PUBCHEM_CACTVS_TAUTO_COUNT>
2

> <PUBCHEM_CONFORMER_ID>
0001FE3500000006

> <PUBCHEM_MMFF94_ENERGY>
85.3739

> <PUBCHEM_FEATURE_SELFOVERLAP>
81.61

> <PUBCHEM_SHAPE_FINGERPRINT>
10319926 262 18338778067251238960
10366900 7 18200869703180104064
10608611 8 18413102862206877608
10616163 171 18337675338192057358
10693767 8 18199727264119830535
11552529 35 17773878795061149043
12236239 1 17240197750718198220
12403259 226 18340200787098339780
12553582 1 17903368343672729103
12633257 1 18128546976405088386
13140716 1 18120380019352071161
13533116 47 18272650134457207787
13862211 1 18408602587475063895
14223421 5 18340482374134291520
14790565 3 18337397037518334493
14866123 147 16759732846555055834
15042514 8 18262244425664441891
15196674 1 18410010996738782381
16752209 62 18114452393052493429
16945 1 18335423517066760637
17492 89 18408042901095907650
17804303 29 18339083679252951998
1813 80 17168146749507596917
19049666 15 18342171138111072768
19141452 34 18272091647396767719
19591789 44 18264769857258635387
20510252 161 18413107230246835081
20645477 70 17775571914377063334
21267235 1 18335711511202771122
21279426 13 18265610996992414965
21421861 104 18187072937144304146
23366157 5 17391352188740601477
23402539 116 18340761620392247447
23557571 272 18341903999830434276
23559900 14 18410574007148715596
335352 9 18193838132851561973
34934 24 18337388356650515815
350125 39 18264774251046959469
4214541 1 18337108969386386284
43471831 8 18187925002742172875
474 4 16661502877414864212
5104073 3 18339360768894195176
59755656 215 18190460459586919263
69090 78 18272085015624293431
81228 2 18260268589819579729
9709674 26 18411983542285008150

> <PUBCHEM_SHAPE_MULTIPOLES>
414.98
9.15
3.1
0.81
1.09
0.86
-0.09
1.31
-0.4
-0.19
-0.04
0.49
-0.15
1.06

> <PUBCHEM_SHAPE_SELFOVERLAP>
917.812

> <PUBCHEM_SHAPE_VOLUME>
221.2

> <PUBCHEM_COORDINATE_TYPE>
2
5
10

$$$$
