REMARK  Name = 130611
REMARK  5 active torsions:
REMARK  status: ('A' for Active; 'I' for Inactive)
REMARK    1  A    between atoms: C_6  and  C_19
REMARK    2  A    between atoms: C_7  and  O_13
REMARK    3  A    between atoms: C_8  and  O_15
REMARK    4  A    between atoms: C_9  and  O_17
REMARK    5  A    between atoms: C_19  and  O_20
REMARK                            x       y       z     vdW  Elec       q    Type
REMARK                         _______ _______ _______ _____ _____    ______ ____
ROOT
ATOM      1  O   UNL     1      -2.404   1.401   0.848  0.00  0.00    -0.265 OA
ATOM      2  O   UNL     1      -3.571  -1.051   0.105  0.00  0.00    -0.265 OA
ATOM      3  N   UNL     1      -0.433   0.402   0.003  0.00  0.00    -0.252 N 
ATOM      4  N   UNL     1      -1.375  -1.590  -0.568  0.00  0.00    -0.281 N 
ATOM      5  C   UNL     1      -0.126  -0.873  -0.609  0.00  0.00    +0.182 C 
ATOM      6  C   UNL     1       0.614   1.385   0.273  0.00  0.00    +0.136 C 
ATOM      7  C   UNL     1       0.992  -1.574   0.158  0.00  0.00    +0.177 C 
ATOM      8  C   UNL     1       1.825   0.700   0.944  0.00  0.00    +0.160 C 
ATOM      9  C   UNL     1       2.213  -0.647   0.305  0.00  0.00    +0.169 C 
ATOM     10  C   UNL     1      -1.765   0.508   0.335  0.00  0.00    +0.304 C 
ATOM     11  C   UNL     1      -2.392  -0.816  -0.052  0.00  0.00    +0.301 C 
ATOM     12  H   UNL     1      -1.489  -2.519  -0.873  0.00  0.00    +0.151 HD
ENDROOT
BRANCH   7  13
ATOM     13  O   UNL     1       1.367  -2.757  -0.540  0.00  0.00    -0.379 OA
ATOM     14  H   UNL     1       0.596  -3.338  -0.631  0.00  0.00    +0.211 HD
ENDBRANCH   7  13
BRANCH   8  15
ATOM     15  O   UNL     1       1.487   0.475   2.316  0.00  0.00    -0.380 OA
ATOM     16  H   UNL     1       1.241   1.317   2.730  0.00  0.00    +0.211 HD
ENDBRANCH   8  15
BRANCH   9  17
ATOM     17  O   UNL     1       2.794  -0.423  -0.978  0.00  0.00    -0.379 OA
ATOM     18  H   UNL     1       3.036  -1.274  -1.375  0.00  0.00    +0.211 HD
ENDBRANCH   9  17
BRANCH   6  19
ATOM     19  C   UNL     1       0.978   2.142  -1.004  0.00  0.00    +0.159 C 
BRANCH  19  20
ATOM     20  O   UNL     1      -0.202   2.716  -1.536  0.00  0.00    -0.380 OA
ATOM     21  H   UNL     1       0.013   3.201  -2.348  0.00  0.00    +0.211 HD
ENDBRANCH  19  20
ENDBRANCH   6  19
TORSDOF 5
