REMARK  Name = 130680
REMARK  7 active torsions:
REMARK  status: ('A' for Active; 'I' for Inactive)
REMARK    1  A    between atoms: N_3  and  C1*_10
REMARK    2  A    between atoms: N_4  and  C_19
REMARK    3  A    between atoms: C3*_11  and  O3*_14
REMARK    4  A    between atoms: C4*_13  and  C5*_16
REMARK    5  A    between atoms: C5*_16  and  O5*_17
REMARK    6  A    between atoms: C_19  and  C_20
REMARK    7  A    between atoms: C_20  and  O_21
REMARK                            x       y       z     vdW  Elec       q    Type
REMARK                         _______ _______ _______ _____ _____    ______ ____
ROOT
ATOM      1  O   UNL     1      -1.141  -2.018   0.861  0.00  0.00    -0.252 OA
ATOM      2  O   UNL     1      -3.401   1.987   0.028  0.00  0.00    -0.269 OA
ATOM      3  N   UNL     1       0.073  -0.105   0.349  0.00  0.00    -0.218 N 
ATOM      4  N   UNL     1      -2.320  -0.049   0.458  0.00  0.00    -0.208 N 
ATOM      5  C   UNL     1      -1.129  -0.817   0.577  0.00  0.00    +0.319 C 
ATOM      6  C   UNL     1       0.048   1.243   0.031  0.00  0.00    +0.076 C 
ATOM      7  C   UNL     1      -1.069   1.960  -0.082  0.00  0.00    +0.075 C 
ATOM      8  C   UNL     1      -2.379   1.314   0.138  0.00  0.00    +0.257 C 
ENDROOT
BRANCH   3  10
ATOM      9  O4* UNL     1       2.324   0.177   0.923  0.00  0.00    -0.335 OA
ATOM     10  C1* UNL     1       1.348  -0.755   0.437  0.00  0.00    +0.202 C 
ATOM     11  C3* UNL     1       3.341  -1.120  -0.781  0.00  0.00    +0.144 C 
ATOM     12  C2* UNL     1       1.842  -1.270  -0.905  0.00  0.00    +0.083 C 
ATOM     13  C4* UNL     1       3.493   0.125   0.082  0.00  0.00    +0.173 C 
BRANCH  11  14
ATOM     14  O3* UNL     1       3.882  -2.251  -0.102  0.00  0.00    -0.382 OA
ATOM     15  H3* UNL     1       3.782  -3.040  -0.657  0.00  0.00    +0.210 HD
ENDBRANCH  11  14
BRANCH  13  16
ATOM     16  C5* UNL     1       3.540   1.410  -0.734  0.00  0.00    +0.169 C 
BRANCH  16  17
ATOM     17  O5* UNL     1       3.671   2.510   0.151  0.00  0.00    -0.379 OA
ATOM     18  H5* UNL     1       3.702   3.335  -0.360  0.00  0.00    +0.211 HD
ENDBRANCH  16  17
ENDBRANCH  13  16
ENDBRANCH   3  10
BRANCH   4  19
ATOM     19  C   UNL     1      -3.586  -0.738   0.688  0.00  0.00    +0.134 C 
BRANCH  19  20
ATOM     20  C   UNL     1      -4.142  -1.326  -0.596  0.00  0.00    +0.159 C 
BRANCH  20  21
ATOM     21  O   UNL     1      -4.394  -0.280  -1.524  0.00  0.00    -0.380 OA
ATOM     22  H   UNL     1      -4.749  -0.655  -2.345  0.00  0.00    +0.211 HD
ENDBRANCH  20  21
ENDBRANCH  19  20
ENDBRANCH   4  19
TORSDOF 7
