REMARK  Name = 130671
REMARK  10 active torsions:
REMARK  status: ('A' for Active; 'I' for Inactive)
REMARK    1  A    between atoms: C_3  and  C_11
REMARK    2  A    between atoms: C_4  and  C_20
REMARK    3  A    between atoms: C_11  and  C_12
REMARK    4  A    between atoms: C_12  and  O_13
REMARK    5  A    between atoms: C_12  and  C_16
REMARK    6  A    between atoms: C_16  and  O_17
REMARK    7  A    between atoms: C_20  and  C_21
REMARK    8  A    between atoms: C_21  and  O_22
REMARK    9  A    between atoms: C_21  and  C_25
REMARK   10  A    between atoms: C_25  and  O_26
REMARK                            x       y       z     vdW  Elec       q    Type
REMARK                         _______ _______ _______ _____ _____    ______ ____
ROOT
ATOM      1  N   UNL     1      -0.005  -2.461  -0.019  0.00  0.00    -0.334 N 
ATOM      2  C   UNL     1      -0.003   0.358   0.048  0.00  0.00    +0.004 C 
ATOM      3  C   UNL     1      -1.246  -0.473   0.299  0.00  0.00    +0.033 C 
ATOM      4  C   UNL     1       1.236  -0.463  -0.252  0.00  0.00    +0.047 C 
ATOM      5  C   UNL     1      -1.205  -1.823   0.261  0.00  0.00    +0.095 C 
ATOM      6  C   UNL     1       1.194  -1.813  -0.271  0.00  0.00    +0.025 C 
ATOM      7  C   UNL     1      -2.365  -2.749   0.511  0.00  0.00    +0.026 C 
ATOM      8  C   UNL     1       2.360  -2.727  -0.534  0.00  0.00    +0.047 C 
ATOM      9  H   UNL     1      -0.006  -3.445  -0.040  0.00  0.00    +0.147 HD
ENDROOT
BRANCH   3  11
ATOM     10  O   UNL     1      -2.776   0.593   1.717  0.00  0.00    -0.288 OA
ATOM     11  C   UNL     1      -2.472   0.292   0.562  0.00  0.00    +0.208 C 
BRANCH  11  12
ATOM     12  C   UNL     1      -3.326   0.688  -0.630  0.00  0.00    +0.271 C 
BRANCH  12  13
ATOM     13  O   UNL     1      -2.812   1.912  -1.130  0.00  0.00    -0.368 OA
ATOM     14  H   UNL     1      -1.872   1.804  -1.346  0.00  0.00    +0.212 HD
ENDBRANCH  12  13
BRANCH  12  16
ATOM     15  O   UNL     1      -5.376   1.965  -0.390  0.00  0.00    -0.247 OA
ATOM     16  C   UNL     1      -4.788   0.894  -0.305  0.00  0.00    +0.349 C 
BRANCH  16  17
ATOM     17  O   UNL     1      -5.394  -0.247   0.110  0.00  0.00    -0.478 OA
ATOM     18  H   UNL     1      -4.906  -1.045   0.160  0.00  0.00    +0.295 HD
ENDBRANCH  16  17
ENDBRANCH  12  16
ENDBRANCH  11  12
ENDBRANCH   3  11
BRANCH   4  20
ATOM     19  O   UNL     1       2.708   0.662  -1.687  0.00  0.00    -0.288 OA
ATOM     20  C   UNL     1       2.453   0.312  -0.533  0.00  0.00    +0.212 C 
BRANCH  20  21
ATOM     21  C   UNL     1       3.356   0.655   0.637  0.00  0.00    +0.272 C 
BRANCH  21  22
ATOM     22  O   UNL     1       2.867   1.858   1.210  0.00  0.00    -0.368 OA
ATOM     23  H   UNL     1       1.937   1.742   1.460  0.00  0.00    +0.212 HD
ENDBRANCH  21  22
BRANCH  21  25
ATOM     24  O   UNL     1       5.398   1.940   0.365  0.00  0.00    -0.247 OA
ATOM     25  C   UNL     1       4.805   0.874   0.260  0.00  0.00    +0.349 C 
BRANCH  25  26
ATOM     26  O   UNL     1       5.389  -0.249  -0.229  0.00  0.00    -0.478 OA
ATOM     27  H   UNL     1       4.897  -1.044  -0.292  0.00  0.00    +0.295 HD
ENDBRANCH  25  26
ENDBRANCH  21  25
ENDBRANCH  20  21
ENDBRANCH   4  20
TORSDOF 10
