REMARK  Name = 130796
REMARK  8 active torsions:
REMARK  status: ('A' for Active; 'I' for Inactive)
REMARK    1  A    between atoms: C_2  and  O_13
REMARK    2  A    between atoms: C_3  and  O_7
REMARK    3  A    between atoms: C_4  and  O_9
REMARK    4  A    between atoms: C_5  and  O_11
REMARK    5  A    between atoms: C_6  and  C_25
REMARK    6  A    between atoms: O_13  and  C_15
REMARK    7  A    between atoms: C_18  and  C_24
REMARK    8  A    between atoms: C_25  and  O_26
REMARK                            x       y       z     vdW  Elec       q    Type
REMARK                         _______ _______ _______ _____ _____    ______ ____
ROOT
ATOM      1  O   UNL     1      -2.078   1.021   0.133  0.00  0.00    -0.326 OA
ATOM      2  C   UNL     1      -1.230  -0.070  -0.217  0.00  0.00    +0.266 C 
ATOM      3  C   UNL     1      -1.689  -1.350   0.482  0.00  0.00    +0.196 C 
ATOM      4  C   UNL     1      -3.165  -1.636   0.206  0.00  0.00    +0.172 C 
ATOM      5  C   UNL     1      -4.023  -0.393   0.441  0.00  0.00    +0.169 C 
ATOM      6  C   UNL     1      -3.430   0.820  -0.281  0.00  0.00    +0.176 C 
ENDROOT
BRANCH   3   7
ATOM      7  O   UNL     1      -0.897  -2.434  -0.005  0.00  0.00    -0.378 OA
ATOM      8  H   UNL     1       0.040  -2.253   0.169  0.00  0.00    +0.211 HD
ENDBRANCH   3   7
BRANCH   4   9
ATOM      9  O   UNL     1      -3.624  -2.662   1.089  0.00  0.00    -0.379 OA
ATOM     10  H   UNL     1      -3.092  -3.463   0.957  0.00  0.00    +0.211 HD
ENDBRANCH   4   9
BRANCH   5  11
ATOM     11  O   UNL     1      -5.342  -0.632  -0.043  0.00  0.00    -0.379 OA
ATOM     12  H   UNL     1      -5.720  -1.400   0.413  0.00  0.00    +0.211 HD
ENDBRANCH   5  11
BRANCH   2  13
ATOM     13  O   UNL     1       0.106   0.204   0.201  0.00  0.00    -0.331 OA
BRANCH  13  15
ATOM     14  C   UNL     1       3.030   1.068   0.540  0.00  0.00    +0.024 C 
ATOM     15  C   UNL     1       0.837   0.889  -0.810  0.00  0.00    +0.122 C 
ATOM     16  C   UNL     1       1.887   1.812  -0.207  0.00  0.00    +0.034 C 
ATOM     17  C   UNL     1       1.478  -0.131  -1.744  0.00  0.00    +0.051 C 
ATOM     18  C   UNL     1       3.458  -0.203  -0.205  0.00  0.00    +0.012 C 
ATOM     19  C   UNL     1       2.771  -0.745  -1.236  0.00  0.00    -0.042 C 
ATOM     20  C   UNL     1       4.199   2.077   0.651  0.00  0.00    +0.005 C 
ATOM     21  C   UNL     1       2.578   0.698   1.970  0.00  0.00    +0.005 C 
ATOM     22  C   UNL     1       3.145  -1.987  -2.011  0.00  0.00    +0.026 C 
BRANCH  18  24
ATOM     23  O   UNL     1       5.079  -0.777   1.415  0.00  0.00    -0.284 OA
ATOM     24  C   UNL     1       4.709  -0.841   0.257  0.00  0.00    +0.229 C 
ENDBRANCH  18  24
ENDBRANCH  13  15
ENDBRANCH   2  13
BRANCH   6  25
ATOM     25  C   UNL     1      -4.203   2.097   0.033  0.00  0.00    +0.169 C 
BRANCH  25  26
ATOM     26  O   UNL     1      -3.595   3.173  -0.658  0.00  0.00    -0.379 OA
ATOM     27  H   UNL     1      -4.076   3.993  -0.468  0.00  0.00    +0.211 HD
ENDBRANCH  25  26
ENDBRANCH   6  25
TORSDOF 8
