REMARK  Name = 130706
REMARK  7 active torsions:
REMARK  status: ('A' for Active; 'I' for Inactive)
REMARK    1  A    between atoms: C_1  and  C_17
REMARK    2  A    between atoms: C_2  and  C_8
REMARK    3  A    between atoms: C_8  and  O_9
REMARK    4  A    between atoms: O_9  and  N_12
REMARK    5  A    between atoms: C_17  and  S_19
REMARK    6  A    between atoms: S_19  and  S_20
REMARK    7  A    between atoms: S_20  and  C_22
REMARK                            x       y       z     vdW  Elec       q    Type
REMARK                         _______ _______ _______ _____ _____    ______ ____
ROOT
ATOM      1  C   UNL     1      -2.664  -1.498   0.196  0.00  0.00    -0.012 C 
ATOM      2  C   UNL     1       0.065  -1.201   0.475  0.00  0.00    +0.078 C 
ATOM      3  C   UNL     1      -2.081  -1.558   1.462  0.00  0.00    -0.003 C 
ATOM      4  C   UNL     1      -1.866  -1.288  -0.929  0.00  0.00    -0.003 C 
ATOM      5  C   UNL     1      -0.702  -1.408   1.603  0.00  0.00    +0.006 C 
ATOM      6  C   UNL     1      -0.487  -1.137  -0.788  0.00  0.00    +0.006 C 
ENDROOT
BRANCH   2   8
ATOM      7  O   UNL     1       2.177  -1.573   1.517  0.00  0.00    -0.243 OA
ATOM      8  C   UNL     1       1.534  -1.041   0.625  0.00  0.00    +0.363 C 
BRANCH   8   9
ATOM      9  O   UNL     1       2.054  -0.239  -0.357  0.00  0.00    -0.332 OA
BRANCH   9  12
ATOM     10  O   UNL     1       3.378   1.913   0.971  0.00  0.00    -0.267 OA
ATOM     11  O   UNL     1       4.054  -1.869  -1.576  0.00  0.00    -0.267 OA
ATOM     12  N   UNL     1       3.421  -0.064  -0.253  0.00  0.00    -0.054 N 
ATOM     13  C   UNL     1       5.449   0.831   0.342  0.00  0.00    +0.066 C 
ATOM     14  C   UNL     1       5.674  -0.424  -0.504  0.00  0.00    +0.066 C 
ATOM     15  C   UNL     1       3.955   0.995   0.409  0.00  0.00    +0.287 C 
ATOM     16  C   UNL     1       4.295  -0.902  -0.869  0.00  0.00    +0.287 C 
ENDBRANCH   9  12
ENDBRANCH   8   9
ENDBRANCH   2   8
BRANCH   1  17
ATOM     17  C   UNL     1      -4.139  -1.659   0.045  0.00  0.00    +0.080 C 
ATOM     18  C   UNL     1      -4.563  -2.853  -0.828  0.00  0.00    +0.017 C 
BRANCH  17  19
ATOM     19  S   UNL     1      -4.925  -0.145  -0.635  0.00  0.00    -0.073 S 
BRANCH  19  20
ATOM     20  S   UNL     1      -4.424   1.233   0.800  0.00  0.00    -0.036 S 
BRANCH  20  22
ATOM     21  N   UNL     1      -2.699   1.848  -1.152  0.00  0.00    -0.237 NA
ATOM     22  C   UNL     1      -2.867   1.853   0.190  0.00  0.00    +0.116 C 
ATOM     23  C   UNL     1      -1.913   2.302   1.089  0.00  0.00    +0.026 C 
ATOM     24  C   UNL     1      -0.710   2.777   0.578  0.00  0.00    +0.004 C 
ATOM     25  C   UNL     1      -0.500   2.788  -0.796  0.00  0.00    +0.021 C 
ATOM     26  C   UNL     1      -1.517   2.317  -1.611  0.00  0.00    +0.099 C 
ENDBRANCH  20  22
ENDBRANCH  19  20
ENDBRANCH  17  19
ENDBRANCH   1  17
TORSDOF 7
