REMARK  Name = 130778
REMARK  8 active torsions:
REMARK  status: ('A' for Active; 'I' for Inactive)
REMARK    1  A    between atoms: C_2  and  C_26
REMARK    2  A    between atoms: C_6  and  C_29
REMARK    3  A    between atoms: C_8  and  C_22
REMARK    4  A    between atoms: C_9  and  O_19
REMARK    5  A    between atoms: C_22  and  C_23
REMARK    6  A    between atoms: C_23  and  O_24
REMARK    7  A    between atoms: C_26  and  O_27
REMARK    8  A    between atoms: C_29  and  O_30
REMARK                            x       y       z     vdW  Elec       q    Type
REMARK                         _______ _______ _______ _____ _____    ______ ____
ROOT
ATOM      1  O   UNL     1       5.632   0.359   2.228  0.00  0.00    -0.291 OA
ATOM      2  C   UNL     1      -1.971  -0.136   0.029  0.00  0.00    +0.036 C 
ATOM      3  C   UNL     1      -0.982  -1.287   0.300  0.00  0.00    +0.003 C 
ATOM      4  C   UNL     1       0.363  -1.109  -0.414  0.00  0.00    +0.003 C 
ATOM      5  C   UNL     1       1.026   0.226   0.093  0.00  0.00    +0.033 C 
ATOM      6  C   UNL     1       2.464   0.424  -0.521  0.00  0.00    +0.045 C 
ATOM      7  C   UNL     1      -1.347   1.160   0.576  0.00  0.00    +0.032 C 
ATOM      8  C   UNL     1      -3.180  -0.654   0.846  0.00  0.00    +0.063 C 
ATOM      9  C   UNL     1       0.060   1.446   0.007  0.00  0.00    +0.111 C 
ATOM     10  C   UNL     1      -1.811  -2.538   0.028  0.00  0.00    +0.001 C 
ATOM     11  C   UNL     1       1.277  -2.329  -0.168  0.00  0.00    +0.004 C 
ATOM     12  C   UNL     1      -3.208  -2.171   0.564  0.00  0.00    +0.007 C 
ATOM     13  C   UNL     1       3.248  -0.835  -0.127  0.00  0.00    -0.040 C 
ATOM     14  C   UNL     1       2.703  -2.128  -0.679  0.00  0.00    +0.022 C 
ATOM     15  C   UNL     1       3.188   1.692   0.012  0.00  0.00    +0.014 C 
ATOM     16  C   UNL     1       3.706   1.545   1.431  0.00  0.00    +0.070 C 
ATOM     17  C   UNL     1       4.269  -0.855   0.746  0.00  0.00    +0.029 C 
ATOM     18  C   UNL     1       4.639   0.363   1.504  0.00  0.00    +0.173 C 
ENDROOT
BRANCH   9  19
ATOM     19  O   UNL     1      -0.083   1.922  -1.324  0.00  0.00    -0.384 OA
ATOM     20  H   UNL     1       0.793   2.107  -1.696  0.00  0.00    +0.210 HD
ENDBRANCH   9  19
BRANCH   8  22
ATOM     21  O   UNL     1      -5.201  -0.402  -0.388  0.00  0.00    -0.293 OA
ATOM     22  C   UNL     1      -4.479   0.014   0.517  0.00  0.00    +0.180 C 
BRANCH  22  23
ATOM     23  C   UNL     1      -4.843   1.220   1.356  0.00  0.00    +0.202 C 
BRANCH  23  24
ATOM     24  O   UNL     1      -6.091   1.748   0.956  0.00  0.00    -0.375 OA
ATOM     25  H   UNL     1      -6.307   2.518   1.504  0.00  0.00    +0.211 HD
ENDBRANCH  23  24
ENDBRANCH  22  23
ENDBRANCH   8  22
BRANCH   2  26
ATOM     26  C   UNL     1      -2.355   0.023  -1.465  0.00  0.00    +0.137 C 
BRANCH  26  27
ATOM     27  O   UNL     1      -3.296   1.067  -1.553  0.00  0.00    -0.382 OA
ATOM     28  H   UNL     1      -3.556   1.190  -2.480  0.00  0.00    +0.210 HD
ENDBRANCH  26  27
ENDBRANCH   2  26
BRANCH   6  29
ATOM     29  C   UNL     1       2.465   0.561  -2.066  0.00  0.00    +0.141 C 
BRANCH  29  30
ATOM     30  O   UNL     1       3.805   0.673  -2.488  0.00  0.00    -0.382 OA
ATOM     31  H   UNL     1       3.834   0.761  -3.453  0.00  0.00    +0.210 HD
ENDBRANCH  29  30
ENDBRANCH   6  29
TORSDOF 8
