REMARK  Name = 13072094
REMARK  8 active torsions:
REMARK  status: ('A' for Active; 'I' for Inactive)
REMARK    1  A    between atoms: C_6  and  S_11
REMARK    2  A    between atoms: C_8  and  C_21
REMARK    3  A    between atoms: C_9  and  C_24
REMARK    4  A    between atoms: S_11  and  C_13
REMARK    5  A    between atoms: C_13  and  C_14
REMARK    6  A    between atoms: C_14  and  N_16
REMARK    7  A    between atoms: C_21  and  O_22
REMARK    8  A    between atoms: C_24  and  O_25
REMARK                            x       y       z     vdW  Elec       q    Type
REMARK                         _______ _______ _______ _____ _____    ______ ____
ROOT
ATOM      1  O   UNL     1      -2.188   2.099  -1.409  0.00  0.00    -0.270 OA
ATOM      2  N   UNL     1      -1.599   1.280   0.742  0.00  0.00    -0.247 N 
ATOM      3  C   UNL     1      -2.322   0.082   1.208  0.00  0.00    +0.111 C 
ATOM      4  C   UNL     1      -1.229  -0.975   1.400  0.00  0.00    +0.061 C 
ATOM      5  C   UNL     1      -3.085   0.203  -0.093  0.00  0.00    +0.045 C 
ATOM      6  C   UNL     1       0.034  -0.170   1.240  0.00  0.00    +0.056 C 
ATOM      7  C   UNL     1      -2.287   1.386  -0.431  0.00  0.00    +0.250 C 
ATOM      8  C   UNL     1      -0.248   1.078   0.847  0.00  0.00    +0.135 C 
ATOM      9  C   UNL     1      -4.060  -0.456  -0.709  0.00  0.00    -0.013 C 
ATOM     10  C   UNL     1      -4.606  -0.050  -2.071  0.00  0.00    +0.029 C 
ENDROOT
BRANCH   6  11
ATOM     11  S   UNL     1       1.662  -0.799   1.470  0.00  0.00    +0.064 S 
ATOM     12  O   UNL     1       1.537  -1.992   2.381  0.00  0.00    -0.252 OA
BRANCH  11  13
ATOM     13  C   UNL     1       1.921  -1.418  -0.212  0.00  0.00    +0.117 C 
BRANCH  13  14
ATOM     14  C   UNL     1       3.294  -2.049  -0.371  0.00  0.00    +0.104 C 
BRANCH  14  16
ATOM     15  O   UNL     1       4.599  -0.346  -2.327  0.00  0.00    -0.275 OA
ATOM     16  N   UNL     1       4.362  -1.113  -0.141  0.00  0.00    -0.303 N 
ATOM     17  C   UNL     1       4.928  -0.338  -1.143  0.00  0.00    +0.223 C 
ATOM     18  C   UNL     1       6.009   0.573  -0.626  0.00  0.00    +0.095 C 
ATOM     19  H   UNL     1       4.710  -1.019   0.775  0.00  0.00    +0.149 HD
ENDBRANCH  14  16
ENDBRANCH  13  14
ENDBRANCH  11  13
ENDBRANCH   6  11
BRANCH   8  21
ATOM     20  O   UNL     1       1.787   1.985   0.019  0.00  0.00    -0.244 OA
ATOM     21  C   UNL     1       0.677   2.151   0.500  0.00  0.00    +0.352 C 
BRANCH  21  22
ATOM     22  O   UNL     1       0.122   3.349   0.792  0.00  0.00    -0.476 OA
ATOM     23  H   UNL     1      -0.738   3.388   1.161  0.00  0.00    +0.295 HD
ENDBRANCH  21  22
ENDBRANCH   8  21
BRANCH   9  24
ATOM     24  C   UNL     1      -4.746  -1.676  -0.110  0.00  0.00    +0.159 C 
BRANCH  24  25
ATOM     25  O   UNL     1      -4.560  -2.803  -0.956  0.00  0.00    -0.378 OA
ATOM     26  H   UNL     1      -5.000  -3.575  -0.567  0.00  0.00    +0.211 HD
ENDBRANCH  24  25
ENDBRANCH   9  24
TORSDOF 8
