REMARK  Name = 130712
REMARK  6 active torsions:
REMARK  status: ('A' for Active; 'I' for Inactive)
REMARK    1  A    between atoms: C_2  and  C_22
REMARK    2  A    between atoms: C_3  and  O_18
REMARK    3  A    between atoms: C_4  and  O_20
REMARK    4  A    between atoms: C_5  and  N_6
REMARK    5  A    between atoms: C_22  and  C_25
REMARK    6  A    between atoms: C_22  and  S_26
REMARK                            x       y       z     vdW  Elec       q    Type
REMARK                         _______ _______ _______ _____ _____    ______ ____
ROOT
ATOM      1  O   UNL     1       1.205   0.035   1.176  0.00  0.00    -0.334 OA
ATOM      2  C   UNL     1       2.502  -0.343   0.658  0.00  0.00    +0.161 C 
ATOM      3  C   UNL     1       2.265  -1.526  -0.276  0.00  0.00    +0.170 C 
ATOM      4  C   UNL     1       0.853  -1.271  -0.768  0.00  0.00    +0.187 C 
ATOM      5  C   UNL     1       0.191  -0.720   0.485  0.00  0.00    +0.225 C 
ENDROOT
BRANCH   5   6
ATOM      6  N   UNL     1      -0.965   0.134   0.222  0.00  0.00    -0.247 N 
ATOM      7  N   UNL     1      -2.136   1.977  -0.238  0.00  0.00    -0.242 NA
ATOM      8  N   UNL     1      -2.776  -1.477   0.386  0.00  0.00    -0.228 NA
ATOM      9  N   UNL     1      -4.942  -0.422  -0.003  0.00  0.00    -0.229 NA
ATOM     10  C   UNL     1      -2.277  -0.248   0.186  0.00  0.00    +0.152 C 
ATOM     11  C   UNL     1      -0.933   1.479  -0.039  0.00  0.00    +0.223 C 
ATOM     12  C   UNL     1      -2.986   0.908  -0.100  0.00  0.00    +0.140 C 
ATOM     13  C   UNL     1      -4.369   0.791  -0.194  0.00  0.00    +0.143 C 
ATOM     14  C   UNL     1      -4.122  -1.465   0.271  0.00  0.00    +0.253 C 
ATOM     15  N   UNL     1      -5.166   1.912  -0.482  0.00  0.00    -0.342 N 
ATOM     16  H   UNL     1      -6.144   1.817  -0.546  0.00  0.00    +0.144 HD
ATOM     17  H   UNL     1      -4.747   2.792  -0.621  0.00  0.00    +0.144 HD
ENDBRANCH   5   6
BRANCH   3  18
ATOM     18  O   UNL     1       2.292  -2.730   0.490  0.00  0.00    -0.379 OA
ATOM     19  H   UNL     1       3.195  -2.893   0.805  0.00  0.00    +0.211 HD
ENDBRANCH   3  18
BRANCH   4  20
ATOM     20  O   UNL     1       0.210  -2.440  -1.233  0.00  0.00    -0.378 OA
ATOM     21  H   UNL     1       0.660  -2.761  -2.030  0.00  0.00    +0.211 HD
ENDBRANCH   4  20
BRANCH   2  22
ATOM     22  C   UNL     1       3.106   0.861  -0.050  0.00  0.00    +0.140 C 
BRANCH  22  25
ATOM     23  F   UNL     1       5.343   0.155   0.304  0.00  0.00    -0.197 F 
ATOM     24  F   UNL     1       4.984   1.618  -1.273  0.00  0.00    -0.197 F 
ATOM     25  C   UNL     1       4.462   0.528  -0.656  0.00  0.00    +0.330 C 
ENDBRANCH  22  25
BRANCH  22  26
ATOM     26  S   UNL     1       3.259   2.245   1.133  0.00  0.00    -0.161 S 
ATOM     27  H   UNL     1       2.039   2.527   1.663  0.00  0.00    +0.103 HD
ENDBRANCH  22  26
ENDBRANCH   2  22
TORSDOF 6
