REMARK  Name = 130740
REMARK  5 active torsions:
REMARK  status: ('A' for Active; 'I' for Inactive)
REMARK    1  A    between atoms: C_2  and  O_8
REMARK    2  A    between atoms: C_3  and  O_10
REMARK    3  A    between atoms: C_4  and  O_12
REMARK    4  A    between atoms: C_6  and  S_14
REMARK    5  A    between atoms: S_14  and  C_19
REMARK                            x       y       z     vdW  Elec       q    Type
REMARK                         _______ _______ _______ _____ _____    ______ ____
ROOT
ATOM      1  O   UNL     1       1.184  -0.569   0.475  0.00  0.00    -0.342 OA
ATOM      2  C   UNL     1       3.731   0.555  -0.222  0.00  0.00    +0.170 C 
ATOM      3  C   UNL     1       3.601  -0.760   0.548  0.00  0.00    +0.167 C 
ATOM      4  C   UNL     1       2.476   1.419  -0.069  0.00  0.00    +0.178 C 
ATOM      5  C   UNL     1       2.276  -1.451   0.214  0.00  0.00    +0.146 C 
ATOM      6  C   UNL     1       1.211   0.599  -0.344  0.00  0.00    +0.197 C 
ATOM      7  C   UNL     1       2.065  -2.705   1.057  0.00  0.00    +0.035 C 
ENDROOT
BRANCH   2   8
ATOM      8  O   UNL     1       4.841   1.296   0.289  0.00  0.00    -0.379 OA
ATOM      9  H   UNL     1       5.650   0.768   0.203  0.00  0.00    +0.211 HD
ENDBRANCH   2   8
BRANCH   3  10
ATOM     10  O   UNL     1       4.676  -1.627   0.197  0.00  0.00    -0.379 OA
ATOM     11  H   UNL     1       5.520  -1.196   0.406  0.00  0.00    +0.211 HD
ENDBRANCH   3  10
BRANCH   4  12
ATOM     12  O   UNL     1       2.557   2.499  -0.998  0.00  0.00    -0.379 OA
ATOM     13  H   UNL     1       3.358   3.018  -0.823  0.00  0.00    +0.211 HD
ENDBRANCH   4  12
BRANCH   6  14
ATOM     14  S   UNL     1      -0.280   1.611  -0.025  0.00  0.00    -0.067 S 
BRANCH  14  19
ATOM     15  N   UNL     1      -1.342  -0.504  -1.334  0.00  0.00    -0.241 NA
ATOM     16  N   UNL     1      -3.361   1.287   1.164  0.00  0.00    -0.271 NA
ATOM     17  N   UNL     1      -4.916  -0.213   0.617  0.00  0.00    -0.307 N 
ATOM     18  N   UNL     1      -3.590  -1.404  -1.037  0.00  0.00    -0.232 NA
ATOM     19  C   UNL     1      -1.573   0.441  -0.413  0.00  0.00    +0.105 C 
ATOM     20  C   UNL     1      -2.790   0.493   0.211  0.00  0.00    +0.156 C 
ATOM     21  C   UNL     1      -3.775  -0.430  -0.113  0.00  0.00    +0.124 C 
ATOM     22  C   UNL     1      -4.633   0.825   1.374  0.00  0.00    +0.163 C 
ATOM     23  C   UNL     1      -2.358  -1.363  -1.589  0.00  0.00    +0.252 C 
ATOM     24  H   UNL     1      -2.936   2.051   1.618  0.00  0.00    +0.125 HD
ATOM     25  H   UNL     1      -5.758  -0.721   0.582  0.00  0.00    +0.149 HD
ENDBRANCH  14  19
ENDBRANCH   6  14
TORSDOF 5
