REMARK  Name = 130713
REMARK  6 active torsions:
REMARK  status: ('A' for Active; 'I' for Inactive)
REMARK    1  A    between atoms: N_4  and  C_26
REMARK    2  A    between atoms: C_6  and  N_14
REMARK    3  A    between atoms: C_10  and  N_23
REMARK    4  A    between atoms: C_12  and  C_30
REMARK    5  A    between atoms: C_15  and  N_19
REMARK    6  A    between atoms: C_30  and  O_31
REMARK                            x       y       z     vdW  Elec       q    Type
REMARK                         _______ _______ _______ _____ _____    ______ ____
ROOT
ATOM      1  F   UNL     1       1.331   1.759  -0.377  0.00  0.00    -0.201 F 
ATOM      2  F   UNL     1       2.030  -2.872   0.171  0.00  0.00    -0.201 F 
ATOM      3  O   UNL     1      -3.024  -2.328   0.206  0.00  0.00    -0.286 OA
ATOM      4  N   UNL     1      -1.513   1.427  -0.277  0.00  0.00    -0.285 N 
ATOM      5  C   UNL     1      -0.589   0.349  -0.165  0.00  0.00    +0.085 A 
ATOM      6  C   UNL     1       1.678  -0.547  -0.103  0.00  0.00    +0.106 A 
ATOM      7  C   UNL     1      -2.869   1.171  -0.218  0.00  0.00    +0.075 C 
ATOM      8  C   UNL     1      -1.072  -0.966   0.004  0.00  0.00    +0.070 A 
ATOM      9  C   UNL     1       0.802   0.536  -0.216  0.00  0.00    +0.169 A 
ATOM     10  C   UNL     1      -0.194  -2.051   0.117  0.00  0.00    +0.075 A 
ATOM     11  C   UNL     1       1.181  -1.837   0.063  0.00  0.00    +0.168 A 
ATOM     12  C   UNL     1      -3.431  -0.034  -0.061  0.00  0.00    +0.129 C 
ATOM     13  C   UNL     1      -2.537  -1.213   0.063  0.00  0.00    +0.206 C 
ENDROOT
BRANCH   6  14
ATOM     14  N   UNL     1       3.039  -0.338  -0.154  0.00  0.00    -0.306 N 
ATOM     15  C   UNL     1       5.242   0.148   0.511  0.00  0.00    -0.044 C 
ATOM     16  C   UNL     1       3.776   0.510   0.782  0.00  0.00    +0.069 C 
ATOM     17  C   UNL     1       3.924  -0.932  -1.156  0.00  0.00    +0.089 C 
ATOM     18  C   UNL     1       5.237  -0.169  -0.980  0.00  0.00    +0.001 C 
BRANCH  15  19
ATOM     19  N   UNL     1       6.175   1.203   0.864  0.00  0.00    +0.383 N 
ATOM     20  H   UNL     1       6.134   1.371   1.869  0.00  0.00    -0.089 HD
ATOM     21  H   UNL     1       5.925   2.058   0.366  0.00  0.00    -0.089 HD
ATOM     22  H   UNL     1       7.120   0.922   0.604  0.00  0.00    -0.089 HD
ENDBRANCH  15  19
ENDBRANCH   6  14
BRANCH  10  23
ATOM     23  N   UNL     1      -0.633  -3.384   0.288  0.00  0.00    -0.355 N 
ATOM     24  H   UNL     1      -1.596  -3.583   0.332  0.00  0.00    +0.142 HD
ATOM     25  H   UNL     1       0.024  -4.113   0.364  0.00  0.00    +0.142 HD
ENDBRANCH  10  23
BRANCH   4  26
ATOM     26  C   UNL     1      -1.080   2.830  -0.456  0.00  0.00    +0.077 C 
ATOM     27  C   UNL     1      -1.552   3.901   0.470  0.00  0.00    +0.022 C 
ATOM     28  C   UNL     1      -0.118   3.460   0.495  0.00  0.00    +0.022 C 
ENDBRANCH   4  26
BRANCH  12  30
ATOM     29  O   UNL     1      -5.643   0.646  -0.603  0.00  0.00    -0.245 OA
ATOM     30  C   UNL     1      -4.892  -0.116  -0.021  0.00  0.00    +0.342 C 
BRANCH  30  31
ATOM     31  O   UNL     1      -5.266  -1.156   0.753  0.00  0.00    -0.477 OA
ATOM     32  H   UNL     1      -4.617  -1.692   1.164  0.00  0.00    +0.295 HD
ENDBRANCH  30  31
ENDBRANCH  12  30
TORSDOF 6
