REMARK  Name = 130701
REMARK  11 active torsions:
REMARK  status: ('A' for Active; 'I' for Inactive)
REMARK    1  A    between atoms: C_1  and  N_25
REMARK    2  A    between atoms: C_6  and  C_13
REMARK    3  A    between atoms: C_8  and  C_20
REMARK    4  A    between atoms: N_12  and  N_15
REMARK    5  A    between atoms: N_19  and  N_22
REMARK    6  A    between atoms: N_25  and  C_26
REMARK    7  A    between atoms: N_25  and  C_28
REMARK    8  A    between atoms: C_28  and  C_29
REMARK    9  A    between atoms: C_29  and  C_30
REMARK   10  A    between atoms: C_30  and  C_31
REMARK   11  A    between atoms: C_31  and  N_32
REMARK                            x       y       z     vdW  Elec       q    Type
REMARK                         _______ _______ _______ _____ _____    ______ ____
ROOT
ATOM      1  C   UNL     1       1.661   1.703  -0.033  0.00  0.00    +0.048 C 
ATOM      2  C   UNL     1      -0.657   0.982   0.122  0.00  0.00    +0.006 C 
ATOM      3  C   UNL     1       0.685   0.718  -0.193  0.00  0.00    +0.015 C 
ATOM      4  C   UNL     1      -1.016   2.262   0.608  0.00  0.00    +0.000 C 
ATOM      5  C   UNL     1       1.308   2.962   0.444  0.00  0.00    +0.015 C 
ATOM      6  C   UNL     1      -1.652   0.002  -0.033  0.00  0.00    +0.059 C 
ATOM      7  C   UNL     1      -0.022   3.241   0.763  0.00  0.00    +0.001 C 
ATOM      8  C   UNL     1      -2.981   0.281   0.286  0.00  0.00    +0.059 C 
ATOM      9  C   UNL     1      -2.359   2.525   0.924  0.00  0.00    +0.000 C 
ATOM     10  C   UNL     1      -3.334   1.540   0.763  0.00  0.00    +0.005 C 
ENDROOT
BRANCH   6  13
ATOM     11  O   UNL     1      -1.346  -1.565  -1.750  0.00  0.00    -0.269 OA
ATOM     12  N   UNL     1      -0.992  -2.290   0.426  0.00  0.00    -0.250 N 
ATOM     13  C   UNL     1      -1.329  -1.335  -0.531  0.00  0.00    +0.259 C 
ATOM     14  H   UNL     1      -0.994  -2.055   1.382  0.00  0.00    +0.169 HD
BRANCH  12  15
ATOM     15  N   UNL     1      -0.657  -3.569   0.025  0.00  0.00    -0.254 NA
ATOM     16  H   UNL     1      -0.708  -3.631  -0.992  0.00  0.00    +0.140 HD
ATOM     17  H   UNL     1      -1.306  -4.237   0.440  0.00  0.00    +0.140 HD
ENDBRANCH  12  15
ENDBRANCH   6  13
BRANCH   8  20
ATOM     18  O   UNL     1      -3.981  -1.783   0.773  0.00  0.00    -0.269 OA
ATOM     19  N   UNL     1      -5.077  -0.402  -0.736  0.00  0.00    -0.250 N 
ATOM     20  C   UNL     1      -4.032  -0.719   0.134  0.00  0.00    +0.259 C 
ATOM     21  H   UNL     1      -5.073   0.454  -1.221  0.00  0.00    +0.169 HD
BRANCH  19  22
ATOM     22  N   UNL     1      -6.116  -1.295  -0.914  0.00  0.00    -0.254 NA
ATOM     23  H   UNL     1      -5.956  -2.122  -0.338  0.00  0.00    +0.140 HD
ATOM     24  H   UNL     1      -6.165  -1.568  -1.895  0.00  0.00    +0.140 HD
ENDBRANCH  19  22
ENDBRANCH   8  20
BRANCH   1  25
ATOM     25  N   UNL     1       3.006   1.423  -0.354  0.00  0.00    -0.307 N 
BRANCH  25  26
ATOM     26  C   UNL     1       4.026   2.440  -0.191  0.00  0.00    +0.091 C 
ATOM     27  C   UNL     1       4.013   3.387  -1.375  0.00  0.00    +0.023 C 
ENDBRANCH  25  26
BRANCH  25  28
ATOM     28  C   UNL     1       3.386   0.112  -0.838  0.00  0.00    +0.091 C 
BRANCH  28  29
ATOM     29  C   UNL     1       3.752  -0.814   0.320  0.00  0.00    +0.019 C 
BRANCH  29  30
ATOM     30  C   UNL     1       4.164  -2.213  -0.154  0.00  0.00    -0.022 C 
BRANCH  30  31
ATOM     31  C   UNL     1       4.591  -3.132   0.993  0.00  0.00    -0.086 C 
BRANCH  31  32
ATOM     32  N   UNL     1       4.960  -4.460   0.519  0.00  0.00    +0.380 N 
ATOM     33  H   UNL     1       5.237  -5.039   1.312  0.00  0.00    -0.089 HD
ATOM     34  H   UNL     1       5.739  -4.383  -0.135  0.00  0.00    -0.089 HD
ATOM     35  H   UNL     1       4.162  -4.887   0.049  0.00  0.00    -0.089 HD
ENDBRANCH  31  32
ENDBRANCH  30  31
ENDBRANCH  29  30
ENDBRANCH  28  29
ENDBRANCH  25  28
ENDBRANCH   1  25
TORSDOF 11
