130712
  -OEChem-03292013323D

 35 37  0     1  0  0  0  0  0999 V2000
    3.2593    2.2455    1.1333 S   0  0  0  0  0  0  0  0  0  0  0  0
    5.3435    0.1555    0.3041 F   0  0  0  0  0  0  0  0  0  0  0  0
    4.9843    1.6179   -1.2733 F   0  0  0  0  0  0  0  0  0  0  0  0
    1.2049    0.0352    1.1761 O   0  0  0  0  0  0  0  0  0  0  0  0
    2.2917   -2.7301    0.4903 O   0  0  0  0  0  0  0  0  0  0  0  0
    0.2104   -2.4404   -1.2329 O   0  0  0  0  0  0  0  0  0  0  0  0
   -0.9652    0.1337    0.2215 N   0  0  0  0  0  0  0  0  0  0  0  0
   -2.1361    1.9766   -0.2378 N   0  0  0  0  0  0  0  0  0  0  0  0
   -2.7761   -1.4774    0.3858 N   0  0  0  0  0  0  0  0  0  0  0  0
   -4.9419   -0.4220   -0.0032 N   0  0  0  0  0  0  0  0  0  0  0  0
   -5.1662    1.9120   -0.4821 N   0  0  0  0  0  0  0  0  0  0  0  0
    2.5015   -0.3433    0.6584 C   0  0  1  0  0  0  0  0  0  0  0  0
    2.2647   -1.5257   -0.2758 C   0  0  2  0  0  0  0  0  0  0  0  0
    0.8534   -1.2713   -0.7677 C   0  0  2  0  0  0  0  0  0  0  0  0
    0.1909   -0.7199    0.4855 C   0  0  1  0  0  0  0  0  0  0  0  0
    3.1055    0.8611   -0.0501 C   0  0  2  0  0  0  0  0  0  0  0  0
    4.4623    0.5285   -0.6563 C   0  0  0  0  0  0  0  0  0  0  0  0
   -2.2773   -0.2482    0.1863 C   0  0  0  0  0  0  0  0  0  0  0  0
   -0.9332    1.4794   -0.0389 C   0  0  0  0  0  0  0  0  0  0  0  0
   -2.9857    0.9078   -0.1001 C   0  0  0  0  0  0  0  0  0  0  0  0
   -4.3689    0.7909   -0.1935 C   0  0  0  0  0  0  0  0  0  0  0  0
   -4.1219   -1.4654    0.2706 C   0  0  0  0  0  0  0  0  0  0  0  0
    3.1185   -0.6411    1.5155 H   0  0  0  0  0  0  0  0  0  0  0  0
    2.9680   -1.6644   -1.0965 H   0  0  0  0  0  0  0  0  0  0  0  0
    0.8590   -0.5295   -1.5747 H   0  0  0  0  0  0  0  0  0  0  0  0
   -0.1498   -1.5148    1.1603 H   0  0  0  0  0  0  0  0  0  0  0  0
    2.4378    1.2279   -0.8369 H   0  0  0  0  0  0  0  0  0  0  0  0
    4.4231   -0.2617   -1.4067 H   0  0  0  0  0  0  0  0  0  0  0  0
    3.2007   -2.8460    0.8160 H   0  0  0  0  0  0  0  0  0  0  0  0
    0.2571   -3.1097   -0.5292 H   0  0  0  0  0  0  0  0  0  0  0  0
   -0.0126    2.0449   -0.0783 H   0  0  0  0  0  0  0  0  0  0  0  0
    4.1107    1.6397    1.9744 H   0  0  0  0  0  0  0  0  0  0  0  0
   -4.6143   -2.4208    0.4168 H   0  0  0  0  0  0  0  0  0  0  0  0
   -4.7411    2.8182   -0.6244 H   0  0  0  0  0  0  0  0  0  0  0  0
   -6.1691    1.8015   -0.5446 H   0  0  0  0  0  0  0  0  0  0  0  0
  1 16  1  0  0  0  0
  1 32  1  0  0  0  0
  2 17  1  0  0  0  0
  3 17  1  0  0  0  0
  4 12  1  0  0  0  0
  4 15  1  0  0  0  0
  5 13  1  0  0  0  0
  5 29  1  0  0  0  0
  6 14  1  0  0  0  0
  6 30  1  0  0  0  0
  7 15  1  0  0  0  0
  7 18  1  0  0  0  0
  7 19  1  0  0  0  0
  8 19  2  0  0  0  0
  8 20  1  0  0  0  0
  9 18  2  0  0  0  0
  9 22  1  0  0  0  0
 10 21  1  0  0  0  0
 10 22  2  0  0  0  0
 11 21  1  0  0  0  0
 11 34  1  0  0  0  0
 11 35  1  0  0  0  0
 12 13  1  0  0  0  0
 12 16  1  0  0  0  0
 12 23  1  0  0  0  0
 13 14  1  0  0  0  0
 13 24  1  0  0  0  0
 14 15  1  0  0  0  0
 14 25  1  0  0  0  0
 15 26  1  0  0  0  0
 16 17  1  0  0  0  0
 16 27  1  0  0  0  0
 17 28  1  0  0  0  0
 18 20  1  0  0  0  0
 19 31  1  0  0  0  0
 20 21  2  0  0  0  0
 22 33  1  0  0  0  0
M  END
> <PUBCHEM_COMPOUND_CID>
130712

> <PUBCHEM_CONFORMER_RMSD>
0.6

> <PUBCHEM_CONFORMER_DIVERSEORDER>
1
14
17
30
48
24
9
50
49
13
11
3
10
43
29
8
41
39
37
46
7
52
18
26
31
2
38
45
36
12
28
33
53
42
47
34
51
16
6
44
23
25
54
21
5
35
15
19
4
32
22
27
40
20

> <PUBCHEM_MMFF94_PARTIAL_CHARGES>
29
1 -0.41
10 -0.62
11 -0.9
12 0.28
13 0.28
14 0.28
15 0.54
16 0.23
17 0.68
18 0.11
19 0.04
2 -0.34
20 0.23
21 0.41
22 0.47
29 0.4
3 -0.34
30 0.4
31 0.15
32 0.18
33 0.15
34 0.4
35 0.4
4 -0.56
5 -0.68
6 -0.68
7 0.05
8 -0.57
9 -0.57

> <PUBCHEM_EFFECTIVE_ROTOR_COUNT>
4

> <PUBCHEM_PHARMACOPHORE_FEATURES>
13
1 11 cation
1 11 donor
1 4 acceptor
1 5 acceptor
1 5 donor
1 6 acceptor
1 6 donor
3 7 8 19 cation
3 7 9 18 cation
3 9 10 22 cation
5 4 12 13 14 15 rings
5 7 8 18 19 20 rings
6 9 10 18 20 21 22 rings

> <PUBCHEM_HEAVY_ATOM_COUNT>
22

> <PUBCHEM_ATOM_DEF_STEREO_COUNT>
4

> <PUBCHEM_ATOM_UDEF_STEREO_COUNT>
1

> <PUBCHEM_BOND_DEF_STEREO_COUNT>
0

> <PUBCHEM_BOND_UDEF_STEREO_COUNT>
0

> <PUBCHEM_ISOTOPIC_ATOM_COUNT>
0

> <PUBCHEM_COMPONENT_COUNT>
1

> <PUBCHEM_CACTVS_TAUTO_COUNT>
3

> <PUBCHEM_CONFORMER_ID>
0001FE9800000001

> <PUBCHEM_MMFF94_ENERGY>
51.5482

> <PUBCHEM_FEATURE_SELFOVERLAP>
66.589

> <PUBCHEM_SHAPE_FINGERPRINT>
10366900 7 17774996865569275737
10498660 4 18410014338176067348
10608611 8 18339356362521440849
10616163 171 18412545431428843519
10759866 29 18408604742910492474
10906281 52 18337125505416547297
11488393 25 17702404869994201486
11578080 2 16806992252354290430
11595378 159 16226320413704028053
12236239 1 17603585244159956832
12403259 415 18271526506677826712
12730499 353 18411425011504463171
128620 24 18113341911962088475
13224815 77 18341613698479307931
14341114 328 17749104517190423680
14528608 73 18271801345919359541
15196674 1 18409449176171576455
15375358 24 18411133611491307787
15375462 6 18409729538862793570
1601671 61 18409730659896977492
17980427 23 17822299019436794989
18186145 218 17704075135546006832
19591789 44 18126282184215105691
19784866 140 16916799452603045470
19784866 170 18410578383730796667
20645477 56 18334011658464437381
20645477 70 18271805653661027983
21267235 1 18335709390153298963
21524375 3 18411420626923206234
23227448 37 17985543592464743388
23402539 116 18260543441724526822
23557571 272 18335991938576323907
23559900 14 18267858380962872555
296302 2 17603303760788451447
3060560 45 17917991659822994044
3472631 163 17967811605482957581
34934 24 18335416842708610119
350125 39 18408882898251633394
3545911 37 18408041797309761873
4325135 7 18187366553998464533
4409770 3 16166644162788060998
474 4 17531253889112472788
4990 188 17561089124400091028
5104073 3 18336265652768703739
542803 24 17603586330807918144
58051976 378 18273215270390382916
59755656 215 18412267199437408222
633830 44 16917352549616770481
67856867 119 18260822675240116114
7288768 16 15579509897311552612
7364860 26 18339641114690320482
9709674 26 18269557135534757175

> <PUBCHEM_SHAPE_MULTIPOLES>
399.54
10.54
2.44
0.94
1.37
0.4
-0.02
-3.87
-1.18
-0.44
-0.08
-0.72
-0.06
0.48

> <PUBCHEM_SHAPE_SELFOVERLAP>
856.044

> <PUBCHEM_SHAPE_VOLUME>
226.4

> <PUBCHEM_COORDINATE_TYPE>
2
5
10

$$$$
