REMARK  Name = 130783
REMARK  4 active torsions:
REMARK  status: ('A' for Active; 'I' for Inactive)
REMARK    1  A    between atoms: C_3  and  O_17
REMARK    2  A    between atoms: C_4  and  N_8
REMARK    3  A    between atoms: C_5  and  C_19
REMARK    4  A    between atoms: C_19  and  O_20
REMARK                            x       y       z     vdW  Elec       q    Type
REMARK                         _______ _______ _______ _____ _____    ______ ____
ROOT
ATOM      1  O   UNL     1      -1.364  -0.566   1.003  0.00  0.00    -0.334 OA
ATOM      2  C   UNL     1      -1.363   0.995  -0.790  0.00  0.00    +0.077 C 
ATOM      3  C   UNL     1      -2.800   0.609  -0.478  0.00  0.00    +0.144 C 
ATOM      4  C   UNL     1      -0.646   0.566   0.486  0.00  0.00    +0.209 C 
ATOM      5  C   UNL     1      -2.628  -0.679   0.320  0.00  0.00    +0.173 C 
ATOM      6  C   UNL     1      -1.143   2.458  -1.143  0.00  0.00    +0.007 C 
ENDROOT
BRANCH   4   8
ATOM      7  O   UNL     1       1.583   2.265   0.766  0.00  0.00    -0.193 OA
ATOM      8  N   UNL     1       0.719   0.187   0.258  0.00  0.00    -0.180 N 
ATOM      9  N   UNL     1       3.083   0.665   0.184  0.00  0.00    -0.306 NA
ATOM     10  N   UNL     1       4.615  -0.979  -0.415  0.00  0.00    -0.332 N 
ATOM     11  C   UNL     1       0.992  -1.115  -0.134  0.00  0.00    +0.083 C 
ATOM     12  C   UNL     1       1.791   1.101   0.421  0.00  0.00    +0.275 C 
ATOM     13  C   UNL     1       2.228  -1.553  -0.367  0.00  0.00    +0.065 C 
ATOM     14  C   UNL     1       3.324  -0.566  -0.185  0.00  0.00    +0.193 C 
ATOM     15  H   UNL     1       5.362  -0.347  -0.302  0.00  0.00    +0.145 HD
ATOM     16  H   UNL     1       4.794  -1.906  -0.693  0.00  0.00    +0.145 HD
ENDBRANCH   4   8
BRANCH   3  17
ATOM     17  O   UNL     1      -3.404   1.594   0.355  0.00  0.00    -0.382 OA
ATOM     18  H   UNL     1      -3.516   2.417  -0.146  0.00  0.00    +0.210 HD
ENDBRANCH   3  17
BRANCH   5  19
ATOM     19  C   UNL     1      -2.579  -1.924  -0.557  0.00  0.00    +0.169 C 
BRANCH  19  20
ATOM     20  O   UNL     1      -2.408  -3.058   0.275  0.00  0.00    -0.379 OA
ATOM     21  H   UNL     1      -2.376  -3.858  -0.272  0.00  0.00    +0.211 HD
ENDBRANCH  19  20
ENDBRANCH   5  19
TORSDOF 4
