REMARK  Name = 130834
REMARK  10 active torsions:
REMARK  status: ('A' for Active; 'I' for Inactive)
REMARK    1  A    between atoms: S_1  and  C_2
REMARK    2  A    between atoms: S_1  and  C_13
REMARK    3  A    between atoms: C_2  and  C_3
REMARK    4  A    between atoms: C_2  and  C_9
REMARK    5  A    between atoms: C_9  and  C_10
REMARK    6  A    between atoms: C_10  and  O_11
REMARK    7  A    between atoms: C_13  and  C_14
REMARK    8  A    between atoms: C_14  and  N_16
REMARK    9  A    between atoms: C_14  and  C_21
REMARK   10  A    between atoms: C_21  and  O_22
REMARK                            x       y       z     vdW  Elec       q    Type
REMARK                         _______ _______ _______ _____ _____    ______ ____
ROOT
ATOM      1  S   UNK A   1       0.130  -0.071  -1.825  0.00  0.00    -0.134 S 
ENDROOT
BRANCH   1   2
ATOM      2  C   UNK A   1       0.899   0.368  -0.251  0.00  0.00    +0.072 C 
BRANCH   2   3
ATOM      3  C   UNK A   1       2.288  -0.231  -0.162  0.00  0.00    -0.012 C 
ATOM      4  C   UNK A   1       2.435  -1.526   0.302  0.00  0.00    -0.003 C 
ATOM      5  C   UNK A   1       3.376   0.530  -0.549  0.00  0.00    -0.003 C 
ATOM      6  C   UNK A   1       3.713  -2.078   0.383  0.00  0.00    -0.000 C 
ATOM      7  C   UNK A   1       4.655  -0.022  -0.468  0.00  0.00    -0.000 C 
ATOM      8  C   UNK A   1       4.823  -1.326  -0.002  0.00  0.00    -0.000 C 
ENDBRANCH   2   3
BRANCH   2   9
ATOM      9  C   UNK A   1       0.848   1.895  -0.061  0.00  0.00    +0.047 C 
BRANCH   9  10
ATOM     10  C   UNK A   1       1.389   2.340   1.296  0.00  0.00    +0.138 C 
BRANCH  10  11
ATOM     11  O   UNK A   1       1.284   3.755   1.388  0.00  0.00    -0.382 OA
ATOM     12  H   UNK A   1       1.625   4.050   2.247  0.00  0.00    +0.210 HD
ENDBRANCH  10  11
ENDBRANCH   9  10
ENDBRANCH   2   9
ENDBRANCH   1   2
BRANCH   1  13
ATOM     13  C   UNK A   1      -1.460   0.789  -1.582  0.00  0.00    +0.089 C 
BRANCH  13  14
ATOM     14  C   UNK A   1      -2.266   0.270  -0.389  0.00  0.00    +0.182 C 
BRANCH  14  16
ATOM     15  O   UNK A   0      -2.466  -1.565   1.852  0.00  0.00    -0.275 OA
ATOM     16  N   UNK A   1      -2.447  -1.160  -0.441  0.00  0.00    -0.296 N 
ATOM     17  C   UNK A   0      -2.531  -1.957   0.690  0.00  0.00    +0.223 C 
ATOM     18  C   UNK A   0      -2.744  -3.409   0.352  0.00  0.00    +0.095 C 
ATOM     19  H   UNK A   1      -2.513  -1.591  -1.323  0.00  0.00    +0.150 HD
ENDBRANCH  14  16
BRANCH  14  21
ATOM     20  O   UNK A   1      -3.677   2.212  -0.049  0.00  0.00    -0.248 OA
ATOM     21  C   UNK A   1      -3.587   1.002  -0.220  0.00  0.00    +0.333 C 
BRANCH  21  22
ATOM     22  O   UNK A   1      -4.664   0.182  -0.263  0.00  0.00    -0.479 OA
ATOM     23  H   UNK A   1      -4.547  -0.738  -0.396  0.00  0.00    +0.295 HD
ENDBRANCH  21  22
ENDBRANCH  14  21
ENDBRANCH  13  14
ENDBRANCH   1  13
TORSDOF 10
