130862
  -OEChem-03292013323D

 31 31  0     1  0  0  0  0  0999 V2000
    4.8610    0.6348    0.8776 Br  0  0  0  0  0  0  0  0  0  0  0  0
   -0.8200   -1.9223   -0.8755 S   0  0  0  0  0  0  0  0  0  0  0  0
   -3.4766   -0.5559    1.4150 O   0  0  0  0  0  0  0  0  0  0  0  0
    0.3815   -1.7999    1.9346 O   0  0  0  0  0  0  0  0  0  0  0  0
   -4.4615   -1.0438   -0.5680 O   0  0  0  0  0  0  0  0  0  0  0  0
    3.5662    0.4683   -1.9563 O   0  0  0  0  0  0  0  0  0  0  0  0
   -1.2204    2.9533   -0.7442 O   0  0  0  0  0  0  0  0  0  0  0  0
   -1.6331    0.9751    0.4124 N   0  0  0  0  0  0  0  0  0  0  0  0
   -2.4689    0.3380   -0.5743 C   0  0  1  0  0  0  0  0  0  0  0  0
   -1.6487   -0.4628   -1.5888 C   0  0  0  0  0  0  0  0  0  0  0  0
    0.7460   -1.2211   -0.3735 C   0  0  0  0  0  0  0  0  0  0  0  0
   -3.5688   -0.4933    0.0651 C   0  0  0  0  0  0  0  0  0  0  0  0
    1.1552   -1.2429    0.9595 C   0  0  0  0  0  0  0  0  0  0  0  0
    1.5632   -0.6443   -1.3453 C   0  0  0  0  0  0  0  0  0  0  0  0
   -1.0785    2.2339    0.2412 C   0  0  0  0  0  0  0  0  0  0  0  0
    2.7907   -0.0890   -0.9837 C   0  0  0  0  0  0  0  0  0  0  0  0
    2.3827   -0.6877    1.3211 C   0  0  0  0  0  0  0  0  0  0  0  0
    3.2005   -0.1109    0.3494 C   0  0  0  0  0  0  0  0  0  0  0  0
   -0.2704    2.6708    1.4337 C   0  0  0  0  0  0  0  0  0  0  0  0
   -2.9877    1.1417   -1.1131 H   0  0  0  0  0  0  0  0  0  0  0  0
   -0.9320    0.1860   -2.1015 H   0  0  0  0  0  0  0  0  0  0  0  0
   -2.3228   -0.8488   -2.3622 H   0  0  0  0  0  0  0  0  0  0  0  0
   -1.4433    0.4658    1.2709 H   0  0  0  0  0  0  0  0  0  0  0  0
    1.2601   -0.6341   -2.3900 H   0  0  0  0  0  0  0  0  0  0  0  0
    2.6996   -0.7054    2.3614 H   0  0  0  0  0  0  0  0  0  0  0  0
    0.4961    3.3815    1.1122 H   0  0  0  0  0  0  0  0  0  0  0  0
   -0.9320    3.1523    2.1586 H   0  0  0  0  0  0  0  0  0  0  0  0
    0.2269    1.8203    1.9078 H   0  0  0  0  0  0  0  0  0  0  0  0
   -4.1988   -1.0912    1.8076 H   0  0  0  0  0  0  0  0  0  0  0  0
    0.8336   -1.7143    2.7914 H   0  0  0  0  0  0  0  0  0  0  0  0
    3.1130    0.3894   -2.8132 H   0  0  0  0  0  0  0  0  0  0  0  0
  1 18  1  0  0  0  0
  2 10  1  0  0  0  0
  2 11  1  0  0  0  0
  3 12  1  0  0  0  0
  3 29  1  0  0  0  0
  4 13  1  0  0  0  0
  4 30  1  0  0  0  0
  5 12  2  0  0  0  0
  6 16  1  0  0  0  0
  6 31  1  0  0  0  0
  7 15  2  0  0  0  0
  8  9  1  0  0  0  0
  8 15  1  0  0  0  0
  8 23  1  0  0  0  0
  9 10  1  0  0  0  0
  9 12  1  0  0  0  0
  9 20  1  0  0  0  0
 10 21  1  0  0  0  0
 10 22  1  0  0  0  0
 11 13  2  0  0  0  0
 11 14  1  0  0  0  0
 13 17  1  0  0  0  0
 14 16  2  0  0  0  0
 14 24  1  0  0  0  0
 15 19  1  0  0  0  0
 16 18  1  0  0  0  0
 17 18  2  0  0  0  0
 17 25  1  0  0  0  0
 19 26  1  0  0  0  0
 19 27  1  0  0  0  0
 19 28  1  0  0  0  0
M  END
> <PUBCHEM_COMPOUND_CID>
130862

> <PUBCHEM_CONFORMER_RMSD>
0.8

> <PUBCHEM_CONFORMER_DIVERSEORDER>
1
95
91
7
50
84
59
10
102
100
15
92
21
52
87
82
86
14
85
83
39
107
11
23
8
77
16
93
55
51
66
13
90
70
88
79
46
99
75
74
32
4
76
106
48
80
27
49
68
64
17
35
72
33
24
58
34
78
44
38
28
43
5
53
62
26
61
63
65
96
12
19
3
37
67
104
29
71
6
31
57
97
20
56
101
89
98
9
47
42
81
18
73
54
103
36
41
22
45
40
60
25
105
2
94
69
30

> <PUBCHEM_MMFF94_PARTIAL_CHARGES>
25
1 -0.11
10 0.23
11 0.1
12 0.66
13 0.08
14 -0.15
15 0.57
16 0.08
17 -0.15
18 0.11
19 0.06
2 -0.33
23 0.37
24 0.15
25 0.15
29 0.5
3 -0.65
30 0.45
31 0.45
4 -0.53
5 -0.57
6 -0.53
7 -0.57
8 -0.73
9 0.36

> <PUBCHEM_EFFECTIVE_ROTOR_COUNT>
6

> <PUBCHEM_PHARMACOPHORE_FEATURES>
9
1 1 hydrophobe
1 3 acceptor
1 4 donor
1 5 acceptor
1 6 donor
1 7 acceptor
1 8 donor
3 3 5 12 anion
6 11 13 14 16 17 18 rings

> <PUBCHEM_HEAVY_ATOM_COUNT>
19

> <PUBCHEM_ATOM_DEF_STEREO_COUNT>
1

> <PUBCHEM_ATOM_UDEF_STEREO_COUNT>
0

> <PUBCHEM_BOND_DEF_STEREO_COUNT>
0

> <PUBCHEM_BOND_UDEF_STEREO_COUNT>
0

> <PUBCHEM_ISOTOPIC_ATOM_COUNT>
0

> <PUBCHEM_COMPONENT_COUNT>
1

> <PUBCHEM_CACTVS_TAUTO_COUNT>
14

> <PUBCHEM_CONFORMER_ID>
0001FF2E00000001

> <PUBCHEM_MMFF94_ENERGY>
40.2205

> <PUBCHEM_FEATURE_SELFOVERLAP>
45.73

> <PUBCHEM_SHAPE_FINGERPRINT>
10498660 4 18130223753297172165
11132069 177 18131349725986077517
11370993 70 16660635263539276963
12596599 1 18059582450584535851
128993 33 17344071762320822696
13464513 79 18059003012167165195
13764800 53 18056759823794738717
14341114 328 18114759186687288881
14386348 128 17488467364632316593
14787075 74 18115302422482547162
16945 1 18412542119829561134
17492 54 18265341792104448197
17834072 14 14346084147707644035
18981168 100 17913486835528596428
192875 21 17748544840350390820
200 152 17676479553909913175
21069387 34 12613046019104163275
22802520 49 17272859705888871476
23114952 82 16917080953655651908
23402539 116 18129929174322507174
23419403 2 17468799566986137081
23557571 272 17917711305790666224
3286 77 15791727520802507166
3797600 57 18041294243229857634
6287921 2 16844435219106313064

> <PUBCHEM_SHAPE_MULTIPOLES>
366.48
7.16
2.42
1.7
1.8
2.07
0.07
-0.13
0.35
-1.17
0.07
0.65
-0.28
0.1

> <PUBCHEM_SHAPE_SELFOVERLAP>
726.491

> <PUBCHEM_SHAPE_VOLUME>
221.6

> <PUBCHEM_COORDINATE_TYPE>
2
5
10

$$$$
