REMARK  Name = 130861
REMARK  8 active torsions:
REMARK  status: ('A' for Active; 'I' for Inactive)
REMARK    1  A    between atoms: S_1  and  C_3
REMARK    2  A    between atoms: S_1  and  C_13
REMARK    3  A    between atoms: C_4  and  O_9
REMARK    4  A    between atoms: C_6  and  O_11
REMARK    5  A    between atoms: C_13  and  C_14
REMARK    6  A    between atoms: C_14  and  N_16
REMARK    7  A    between atoms: C_14  and  C_21
REMARK    8  A    between atoms: C_21  and  O_22
REMARK                            x       y       z     vdW  Elec       q    Type
REMARK                         _______ _______ _______ _____ _____    ______ ____
ROOT
ATOM      1  S   UNK A   1       0.017  -0.545   0.925  0.00  0.00    -0.108 S 
ENDROOT
BRANCH   1   3
ATOM      2 BR   UNK A   1       1.401   2.527   0.869  0.00  0.00    -0.045 Br
ATOM      3  C   UNK A   1       1.708  -0.320   0.389  0.00  0.00    +0.068 C 
ATOM      4  C   UNK A   1       2.436  -1.450  -0.004  0.00  0.00    +0.140 C 
ATOM      5  C   UNK A   1       2.325   0.937   0.348  0.00  0.00    +0.077 C 
ATOM      6  C   UNK A   1       3.647   1.061  -0.078  0.00  0.00    +0.140 C 
ATOM      7  C   UNK A   1       3.758  -1.327  -0.430  0.00  0.00    +0.040 C 
ATOM      8  C   UNK A   1       4.364  -0.071  -0.467  0.00  0.00    +0.040 C 
BRANCH   4   9
ATOM      9  O   UNK A   1       1.886  -2.699   0.016  0.00  0.00    -0.505 OA
ATOM     10  H   UNK A   1       1.000  -2.817   0.297  0.00  0.00    +0.292 HD
ENDBRANCH   4   9
BRANCH   6  11
ATOM     11  O   UNK A   1       4.279   2.269  -0.129  0.00  0.00    -0.505 OA
ATOM     12  H   UNK A   1       3.823   3.047   0.126  0.00  0.00    +0.292 HD
ENDBRANCH   6  11
ENDBRANCH   1   3
BRANCH   1  13
ATOM     13  C   UNK A   1      -0.881  -0.367  -0.652  0.00  0.00    +0.093 C 
BRANCH  13  14
ATOM     14  C   UNK A   1      -2.399  -0.513  -0.517  0.00  0.00    +0.182 C 
BRANCH  14  16
ATOM     15  O   UNK A   0      -3.327   2.040  -1.542  0.00  0.00    -0.275 OA
ATOM     16  N   UNK A   1      -2.981   0.572   0.232  0.00  0.00    -0.296 N 
ATOM     17  C   UNK A   0      -3.397   1.760  -0.348  0.00  0.00    +0.223 C 
ATOM     18  C   UNK A   0      -3.990   2.712   0.657  0.00  0.00    +0.095 C 
ATOM     19  H   UNK A   1      -3.088   0.464   1.205  0.00  0.00    +0.150 HD
ENDBRANCH  14  16
BRANCH  14  21
ATOM     20  O   UNK A   1      -2.515  -2.935  -0.489  0.00  0.00    -0.248 OA
ATOM     21  C   UNK A   1      -2.802  -1.868   0.040  0.00  0.00    +0.333 C 
BRANCH  21  22
ATOM     22  O   UNK A   1      -3.529  -1.783   1.180  0.00  0.00    -0.479 OA
ATOM     23  H   UNK A   1      -3.724  -0.945   1.550  0.00  0.00    +0.295 HD
ENDBRANCH  21  22
ENDBRANCH  14  21
ENDBRANCH  13  14
ENDBRANCH   1  13
TORSDOF 8
