130860
  -OEChem-03292013323D

 31 31  0     1  0  0  0  0  0999 V2000
    3.3207   -1.4888    2.3804 Br  0  0  0  0  0  0  0  0  0  0  0  0
   -0.6525   -1.3527   -1.6371 S   0  0  0  0  0  0  0  0  0  0  0  0
   -3.2396   -1.2824    1.0964 O   0  0  0  0  0  0  0  0  0  0  0  0
    0.7075   -2.2625    0.9180 O   0  0  0  0  0  0  0  0  0  0  0  0
   -4.3186   -1.0172   -0.8799 O   0  0  0  0  0  0  0  0  0  0  0  0
    3.4866    1.6670   -1.7778 O   0  0  0  0  0  0  0  0  0  0  0  0
   -1.3932    2.9938    0.4863 O   0  0  0  0  0  0  0  0  0  0  0  0
   -1.5832    0.6878    0.7471 N   0  0  0  0  0  0  0  0  0  0  0  0
   -2.4358    0.4287   -0.3861 C   0  0  1  0  0  0  0  0  0  0  0  0
   -1.6304    0.1863   -1.6651 C   0  0  0  0  0  0  0  0  0  0  0  0
    0.8893   -0.7713   -0.9436 C   0  0  0  0  0  0  0  0  0  0  0  0
   -3.4272   -0.6887   -0.1065 C   0  0  0  0  0  0  0  0  0  0  0  0
    1.3938   -1.2891    0.2495 C   0  0  0  0  0  0  0  0  0  0  0  0
    1.5924    0.2228   -1.6246 C   0  0  0  0  0  0  0  0  0  0  0  0
   -1.1335    1.9543    1.0869 C   0  0  0  0  0  0  0  0  0  0  0  0
    2.7994    0.6987   -1.1126 C   0  0  0  0  0  0  0  0  0  0  0  0
    2.6009   -0.8132    0.7613 C   0  0  0  0  0  0  0  0  0  0  0  0
    3.3036    0.1808    0.0804 C   0  0  0  0  0  0  0  0  0  0  0  0
   -0.2803    1.9456    2.3270 C   0  0  0  0  0  0  0  0  0  0  0  0
   -3.0463    1.3293   -0.5326 H   0  0  0  0  0  0  0  0  0  0  0  0
   -0.9990    1.0509   -1.8913 H   0  0  0  0  0  0  0  0  0  0  0  0
   -2.3259    0.0844   -2.5063 H   0  0  0  0  0  0  0  0  0  0  0  0
   -1.2998   -0.1048    1.3162 H   0  0  0  0  0  0  0  0  0  0  0  0
    1.2187    0.6255   -2.5634 H   0  0  0  0  0  0  0  0  0  0  0  0
    4.2457    0.5602    0.4693 H   0  0  0  0  0  0  0  0  0  0  0  0
    0.4225    2.7826    2.2896 H   0  0  0  0  0  0  0  0  0  0  0  0
   -0.9229    2.0488    3.2053 H   0  0  0  0  0  0  0  0  0  0  0  0
    0.2939    1.0185    2.4070 H   0  0  0  0  0  0  0  0  0  0  0  0
   -3.8931   -1.9956    1.2595 H   0  0  0  0  0  0  0  0  0  0  0  0
    1.2051   -2.4944    1.7210 H   0  0  0  0  0  0  0  0  0  0  0  0
    2.9940    1.9096   -2.5805 H   0  0  0  0  0  0  0  0  0  0  0  0
  1 17  1  0  0  0  0
  2 10  1  0  0  0  0
  2 11  1  0  0  0  0
  3 12  1  0  0  0  0
  3 29  1  0  0  0  0
  4 13  1  0  0  0  0
  4 30  1  0  0  0  0
  5 12  2  0  0  0  0
  6 16  1  0  0  0  0
  6 31  1  0  0  0  0
  7 15  2  0  0  0  0
  8  9  1  0  0  0  0
  8 15  1  0  0  0  0
  8 23  1  0  0  0  0
  9 10  1  0  0  0  0
  9 12  1  0  0  0  0
  9 20  1  0  0  0  0
 10 21  1  0  0  0  0
 10 22  1  0  0  0  0
 11 13  2  0  0  0  0
 11 14  1  0  0  0  0
 13 17  1  0  0  0  0
 14 16  2  0  0  0  0
 14 24  1  0  0  0  0
 15 19  1  0  0  0  0
 16 18  1  0  0  0  0
 17 18  2  0  0  0  0
 18 25  1  0  0  0  0
 19 26  1  0  0  0  0
 19 27  1  0  0  0  0
 19 28  1  0  0  0  0
M  END
> <PUBCHEM_COMPOUND_CID>
130860

> <PUBCHEM_CONFORMER_RMSD>
0.8

> <PUBCHEM_CONFORMER_DIVERSEORDER>
1
6
18
99
91
63
71
9
59
106
82
85
12
5
56
95
68
39
79
117
41
64
118
102
54
62
34
88
49
111
51
55
84
92
97
87
66
109
93
10
78
45
70
47
38
110
15
65
86
30
80
81
28
67
57
69
73
43
112
25
115
22
96
90
94
33
114
76
13
77
29
7
72
108
60
46
20
107
83
116
103
4
8
61
21
42
23
11
24
48
44
53
105
50
36
31
3
26
27
75
35
32
14
40
101
19
17
2
58
16
52
37
104
89
98
100
74
113

> <PUBCHEM_MMFF94_PARTIAL_CHARGES>
25
1 -0.11
10 0.23
11 0.1
12 0.66
13 0.08
14 -0.15
15 0.57
16 0.08
17 0.11
18 -0.15
19 0.06
2 -0.33
23 0.37
24 0.15
25 0.15
29 0.5
3 -0.65
30 0.45
31 0.45
4 -0.53
5 -0.57
6 -0.53
7 -0.57
8 -0.73
9 0.36

> <PUBCHEM_EFFECTIVE_ROTOR_COUNT>
6

> <PUBCHEM_PHARMACOPHORE_FEATURES>
9
1 1 hydrophobe
1 3 acceptor
1 4 donor
1 5 acceptor
1 6 donor
1 7 acceptor
1 8 donor
3 3 5 12 anion
6 11 13 14 16 17 18 rings

> <PUBCHEM_HEAVY_ATOM_COUNT>
19

> <PUBCHEM_ATOM_DEF_STEREO_COUNT>
1

> <PUBCHEM_ATOM_UDEF_STEREO_COUNT>
0

> <PUBCHEM_BOND_DEF_STEREO_COUNT>
0

> <PUBCHEM_BOND_UDEF_STEREO_COUNT>
0

> <PUBCHEM_ISOTOPIC_ATOM_COUNT>
0

> <PUBCHEM_COMPONENT_COUNT>
1

> <PUBCHEM_CACTVS_TAUTO_COUNT>
14

> <PUBCHEM_CONFORMER_ID>
0001FF2C00000001

> <PUBCHEM_MMFF94_ENERGY>
39.72

> <PUBCHEM_FEATURE_SELFOVERLAP>
45.73

> <PUBCHEM_SHAPE_FINGERPRINT>
10498660 4 17632303337100836093
10863032 1 17603585265793133399
11132069 177 16844706720973510307
11370993 70 17530957025331471379
11471102 22 17023182695906403350
11578080 2 17688820528117704469
128993 33 16485864484004611488
13764800 53 17559120873932392401
14386348 128 16629697132009830857
14787075 74 17758979385864870647
15852999 172 17408509654974063713
16945 1 17988915682810140262
18981168 100 17130147494412843076
192875 21 18114452371266369002
20511035 2 16839104464638447823
20600515 1 16984865943849425671
20715895 44 17831282923169470933
22802520 49 16270815407338452828
23419403 2 17402926772961881001
23557571 272 17775001228670433905
23559900 14 17914058590603006591
2748010 2 17202201802763944285
3286 77 16950832618590229374
3797600 57 18336840795643900878
6049 1 16486980531530887376
6287921 2 15482098513738559864
81228 2 16771801476501245671
9925002 15 13459362337222542060

> <PUBCHEM_SHAPE_MULTIPOLES>
366.48
6.24
2.36
2.27
1.28
2.02
-0.33
-1.2
-1.14
1.5
-0.21
-2.44
-0.11
-0.38

> <PUBCHEM_SHAPE_SELFOVERLAP>
726.509

> <PUBCHEM_SHAPE_VOLUME>
221.4

> <PUBCHEM_COORDINATE_TYPE>
2
5
10

$$$$
