REMARK  Name = 130865
REMARK  8 active torsions:
REMARK  status: ('A' for Active; 'I' for Inactive)
REMARK    1  A    between atoms: S_1  and  C_4
REMARK    2  A    between atoms: S_1  and  S_11
REMARK    3  A    between atoms: C_3  and  N_10
REMARK    4  A    between atoms: S_11  and  C_12
REMARK    5  A    between atoms: C_12  and  C_13
REMARK    6  A    between atoms: C_14  and  C_15
REMARK    7  A    between atoms: C_15  and  O_16
REMARK    8  A    between atoms: O_16  and  N_17
REMARK                            x       y       z     vdW  Elec       q    Type
REMARK                         _______ _______ _______ _____ _____    ______ ____
ROOT
ATOM      1  S   UNL     1       1.652  -0.923  -1.517  0.00  0.00    -0.034 S 
ENDROOT
BRANCH   1   4
ATOM      2  N   UNL     1       1.048  -1.885   0.881  0.00  0.00    -0.235 NA
ATOM      3  C   UNL     1      -0.867  -1.081  -0.357  0.00  0.00    +0.167 C 
ATOM      4  C   UNL     1       0.494  -1.327  -0.222  0.00  0.00    +0.139 C 
ATOM      5  C   UNL     1      -1.704  -1.426   0.699  0.00  0.00    +0.028 C 
ATOM      6  C   UNL     1      -1.166  -2.001   1.845  0.00  0.00    +0.022 C 
ATOM      7  C   UNL     1       0.203  -2.207   1.886  0.00  0.00    +0.100 C 
BRANCH   3  10
ATOM      8  O   UNL     1      -2.673  -0.306  -1.563  0.00  0.00    -0.126 OA
ATOM      9  O   UNL     1      -0.679  -0.183  -2.473  0.00  0.00    -0.126 OA
ATOM     10  N   UNL     1      -1.434  -0.495  -1.522  0.00  0.00    +0.060 N 
ENDBRANCH   3  10
ENDBRANCH   1   4
BRANCH   1  11
ATOM     11  S   UNL     1       3.361  -0.518  -0.447  0.00  0.00    -0.071 S 
BRANCH  11  12
ATOM     12  C   UNL     1       3.191   1.262  -0.147  0.00  0.00    +0.095 C 
BRANCH  12  13
ATOM     13  C   UNL     1       1.940   1.537   0.625  0.00  0.00    -0.016 C 
ATOM     14  C   UNL     1       0.950   2.327   0.181  0.00  0.00    +0.004 C 
BRANCH  14  15
ATOM     15  C   UNL     1      -0.295   2.611   0.955  0.00  0.00    +0.192 C 
BRANCH  15  16
ATOM     16  O   UNL     1      -1.413   2.164   0.200  0.00  0.00    -0.284 OA
BRANCH  16  17
ATOM     17  N   UNL     1      -2.608   2.453   0.976  0.00  0.00    -0.214 NA
ATOM     18  H   UNL     1      -3.432   2.143   0.460  0.00  0.00    +0.150 HD
ATOM     19  H   UNL     1      -2.670   3.457   1.144  0.00  0.00    +0.150 HD
ENDBRANCH  16  17
ENDBRANCH  15  16
ENDBRANCH  14  15
ENDBRANCH  12  13
ENDBRANCH  11  12
ENDBRANCH   1  11
TORSDOF 8
