REMARK  Name = 130862
REMARK  8 active torsions:
REMARK  status: ('A' for Active; 'I' for Inactive)
REMARK    1  A    between atoms: S_1  and  C_3
REMARK    2  A    between atoms: S_1  and  C_13
REMARK    3  A    between atoms: C_4  and  O_9
REMARK    4  A    between atoms: C_6  and  O_11
REMARK    5  A    between atoms: C_13  and  C_14
REMARK    6  A    between atoms: C_14  and  N_16
REMARK    7  A    between atoms: C_14  and  C_21
REMARK    8  A    between atoms: C_21  and  O_22
REMARK                            x       y       z     vdW  Elec       q    Type
REMARK                         _______ _______ _______ _____ _____    ______ ____
ROOT
ATOM      1  S   UNK A   1      -0.820  -1.922  -0.875  0.00  0.00    -0.108 S 
ENDROOT
BRANCH   1   3
ATOM      2 BR   UNK A   1       4.861   0.635   0.878  0.00  0.00    -0.046 Br
ATOM      3  C   UNK A   1       0.746  -1.221  -0.373  0.00  0.00    +0.062 C 
ATOM      4  C   UNK A   1       1.155  -1.243   0.960  0.00  0.00    +0.140 C 
ATOM      5  C   UNK A   1       1.563  -0.644  -1.345  0.00  0.00    +0.046 C 
ATOM      6  C   UNK A   1       2.791  -0.089  -0.984  0.00  0.00    +0.140 C 
ATOM      7  C   UNK A   1       2.383  -0.688   1.321  0.00  0.00    +0.047 C 
ATOM      8  C   UNK A   1       3.200  -0.111   0.349  0.00  0.00    +0.071 C 
BRANCH   4   9
ATOM      9  O   UNK A   1       0.382  -1.800   1.935  0.00  0.00    -0.505 OA
ATOM     10  H   UNK A   1      -0.447  -2.179   1.716  0.00  0.00    +0.292 HD
ENDBRANCH   4   9
BRANCH   6  11
ATOM     11  O   UNK A   1       3.566   0.468  -1.956  0.00  0.00    -0.505 OA
ATOM     12  H   UNK A   1       3.271   0.472  -2.846  0.00  0.00    +0.292 HD
ENDBRANCH   6  11
ENDBRANCH   1   3
BRANCH   1  13
ATOM     13  C   UNK A   1      -1.649  -0.463  -1.589  0.00  0.00    +0.093 C 
BRANCH  13  14
ATOM     14  C   UNK A   1      -2.469   0.338  -0.574  0.00  0.00    +0.182 C 
BRANCH  14  16
ATOM     15  O   UNK A   0      -1.220   2.953  -0.744  0.00  0.00    -0.275 OA
ATOM     16  N   UNK A   1      -1.633   0.975   0.412  0.00  0.00    -0.296 N 
ATOM     17  C   UNK A   0      -1.079   2.234   0.241  0.00  0.00    +0.223 C 
ATOM     18  C   UNK A   0      -0.270   2.671   1.434  0.00  0.00    +0.095 C 
ATOM     19  H   UNK A   1      -1.447   0.492   1.250  0.00  0.00    +0.150 HD
ENDBRANCH  14  16
BRANCH  14  21
ATOM     20  O   UNK A   1      -4.462  -1.044  -0.568  0.00  0.00    -0.248 OA
ATOM     21  C   UNK A   1      -3.569  -0.493   0.065  0.00  0.00    +0.333 C 
BRANCH  21  22
ATOM     22  O   UNK A   1      -3.477  -0.556   1.415  0.00  0.00    -0.479 OA
ATOM     23  H   UNK A   1      -2.776  -0.119   1.858  0.00  0.00    +0.295 HD
ENDBRANCH  21  22
ENDBRANCH  14  21
ENDBRANCH  13  14
ENDBRANCH   1  13
TORSDOF 8
