130856
  -OEChem-03292013323D

 26 26  0     1  0  0  0  0  0999 V2000
   -5.2678    0.6210    0.3376 Br  0  0  0  0  0  0  0  0  0  0  0  0
    0.9587   -0.9090   -0.5449 S   0  0  0  0  0  0  0  0  0  0  0  0
   -1.3681   -2.8142    0.0195 O   0  0  0  0  0  0  0  0  0  0  0  0
    4.6042   -0.6688   -1.1022 O   0  0  0  0  0  0  0  0  0  0  0  0
   -2.8410    2.4956   -0.2397 O   0  0  0  0  0  0  0  0  0  0  0  0
    3.7864    1.4382   -0.9081 O   0  0  0  0  0  0  0  0  0  0  0  0
    3.8432    0.6244    1.9204 N   0  0  0  0  0  0  0  0  0  0  0  0
    3.2584   -0.1585    0.8300 C   0  0  1  0  0  0  0  0  0  0  0  0
    1.7391    0.0205    0.8132 C   0  0  0  0  0  0  0  0  0  0  0  0
   -0.7658   -0.5047   -0.2986 C   0  0  0  0  0  0  0  0  0  0  0  0
   -1.7136   -1.4966   -0.0484 C   0  0  0  0  0  0  0  0  0  0  0  0
   -1.1544    0.8329   -0.3608 C   0  0  0  0  0  0  0  0  0  0  0  0
    3.9058    0.3028   -0.4623 C   0  0  0  0  0  0  0  0  0  0  0  0
   -2.4925    1.1792   -0.1728 C   0  0  0  0  0  0  0  0  0  0  0  0
   -3.0516   -1.1503    0.1396 C   0  0  0  0  0  0  0  0  0  0  0  0
   -3.4411    0.1876    0.0775 C   0  0  0  0  0  0  0  0  0  0  0  0
    3.5037   -1.2149    0.9952 H   0  0  0  0  0  0  0  0  0  0  0  0
    1.3078   -0.3243    1.7601 H   0  0  0  0  0  0  0  0  0  0  0  0
    1.4923    1.0821    0.7004 H   0  0  0  0  0  0  0  0  0  0  0  0
   -0.4258    1.6133   -0.5682 H   0  0  0  0  0  0  0  0  0  0  0  0
    4.8394    0.4196    1.9917 H   0  0  0  0  0  0  0  0  0  0  0  0
    3.4309    0.3366    2.8071 H   0  0  0  0  0  0  0  0  0  0  0  0
   -3.7829   -1.9315    0.3341 H   0  0  0  0  0  0  0  0  0  0  0  0
   -0.4093   -2.8850   -0.1295 H   0  0  0  0  0  0  0  0  0  0  0  0
    4.9969   -0.3453   -1.9408 H   0  0  0  0  0  0  0  0  0  0  0  0
   -2.0480    3.0291   -0.4193 H   0  0  0  0  0  0  0  0  0  0  0  0
  1 16  1  0  0  0  0
  2  9  1  0  0  0  0
  2 10  1  0  0  0  0
  3 11  1  0  0  0  0
  3 24  1  0  0  0  0
  4 13  1  0  0  0  0
  4 25  1  0  0  0  0
  5 14  1  0  0  0  0
  5 26  1  0  0  0  0
  6 13  2  0  0  0  0
  7  8  1  0  0  0  0
  7 21  1  0  0  0  0
  7 22  1  0  0  0  0
  8  9  1  0  0  0  0
  8 13  1  0  0  0  0
  8 17  1  0  0  0  0
  9 18  1  0  0  0  0
  9 19  1  0  0  0  0
 10 11  2  0  0  0  0
 10 12  1  0  0  0  0
 11 15  1  0  0  0  0
 12 14  2  0  0  0  0
 12 20  1  0  0  0  0
 14 16  1  0  0  0  0
 15 16  2  0  0  0  0
 15 23  1  0  0  0  0
M  END
> <PUBCHEM_COMPOUND_CID>
130856

> <PUBCHEM_CONFORMER_RMSD>
0.6

> <PUBCHEM_CONFORMER_DIVERSEORDER>
1
15
65
60
54
32
39
44
40
45
67
46
51
55
7
33
17
64
28
34
37
59
47
49
48
58
11
53
2
24
13
10
61
22
8
57
63
42
12
35
5
62
16
52
29
9
23
4
18
6
20
36
19
27
3
25
41
31
26
30
56
14
38
66
50
21
43

> <PUBCHEM_MMFF94_PARTIAL_CHARGES>
23
1 -0.11
10 0.1
11 0.08
12 -0.15
13 0.66
14 0.08
15 -0.15
16 0.11
2 -0.33
20 0.15
21 0.36
22 0.36
23 0.15
24 0.45
25 0.5
26 0.45
3 -0.53
4 -0.65
5 -0.53
6 -0.57
7 -0.99
8 0.33
9 0.23

> <PUBCHEM_EFFECTIVE_ROTOR_COUNT>
4

> <PUBCHEM_PHARMACOPHORE_FEATURES>
9
1 1 hydrophobe
1 3 donor
1 4 acceptor
1 5 donor
1 6 acceptor
1 7 cation
1 7 donor
3 4 6 13 anion
6 10 11 12 14 15 16 rings

> <PUBCHEM_HEAVY_ATOM_COUNT>
16

> <PUBCHEM_ATOM_DEF_STEREO_COUNT>
1

> <PUBCHEM_ATOM_UDEF_STEREO_COUNT>
0

> <PUBCHEM_BOND_DEF_STEREO_COUNT>
0

> <PUBCHEM_BOND_UDEF_STEREO_COUNT>
0

> <PUBCHEM_ISOTOPIC_ATOM_COUNT>
0

> <PUBCHEM_COMPONENT_COUNT>
1

> <PUBCHEM_CACTVS_TAUTO_COUNT>
7

> <PUBCHEM_CONFORMER_ID>
0001FF2800000001

> <PUBCHEM_MMFF94_ENERGY>
32.0919

> <PUBCHEM_FEATURE_SELFOVERLAP>
45.729

> <PUBCHEM_SHAPE_FINGERPRINT>
11132069 177 18412820313261236369
12173636 292 18411128121979693887
12236239 1 17458349636544972246
12390115 104 18056773039889481569
13081056 2 18131067121375127536
13533116 47 16805317756522636537
13897977 58 18261117399879626941
15042514 8 18336553832337744203
15669948 3 18335977678984636598
18186145 218 17346595283614782298
19050596 39 17894904161686002250
19784866 170 18336274440525017657
20279233 1 17561359617335433706
20510252 161 18341897334125508841
20645477 56 18343014519137272632
20645477 70 16486978388816681382
21652331 79 18187649119343545557
23402539 116 18412819210145835575
23557571 272 18200325427982155255
23559900 14 18341902861590280486
2748010 2 17830744154097502023
474 4 16806740679562679044
6049 1 17916866949474314920
633830 44 15698012859111785234
7097593 13 17896578619195636922

> <PUBCHEM_SHAPE_MULTIPOLES>
310.61
9.94
1.91
1.04
2.99
0.41
-0.3
-2.96
-0.52
-1.43
0.19
1.34
-0.16
0.25

> <PUBCHEM_SHAPE_SELFOVERLAP>
612.822

> <PUBCHEM_SHAPE_VOLUME>
189.6

> <PUBCHEM_COORDINATE_TYPE>
2
5
10

$$$$
