REMARK  Name = 130860
REMARK  8 active torsions:
REMARK  status: ('A' for Active; 'I' for Inactive)
REMARK    1  A    between atoms: S_1  and  C_3
REMARK    2  A    between atoms: S_1  and  C_13
REMARK    3  A    between atoms: C_4  and  O_9
REMARK    4  A    between atoms: C_6  and  O_11
REMARK    5  A    between atoms: C_13  and  C_14
REMARK    6  A    between atoms: C_14  and  N_16
REMARK    7  A    between atoms: C_14  and  C_21
REMARK    8  A    between atoms: C_21  and  O_22
REMARK                            x       y       z     vdW  Elec       q    Type
REMARK                         _______ _______ _______ _____ _____    ______ ____
ROOT
ATOM      1  S   UNK A   1      -0.652  -1.353  -1.637  0.00  0.00    -0.108 S 
ENDROOT
BRANCH   1   3
ATOM      2 BR   UNK A   1       3.321  -1.489   2.380  0.00  0.00    -0.046 Br
ATOM      3  C   UNK A   1       0.889  -0.771  -0.944  0.00  0.00    +0.062 C 
ATOM      4  C   UNK A   1       1.394  -1.289   0.249  0.00  0.00    +0.146 C 
ATOM      5  C   UNK A   1       1.592   0.223  -1.625  0.00  0.00    +0.046 C 
ATOM      6  C   UNK A   1       2.799   0.699  -1.113  0.00  0.00    +0.135 C 
ATOM      7  C   UNK A   1       2.601  -0.813   0.761  0.00  0.00    +0.072 C 
ATOM      8  C   UNK A   1       3.304   0.181   0.080  0.00  0.00    +0.046 C 
BRANCH   4   9
ATOM      9  O   UNK A   1       0.708  -2.263   0.918  0.00  0.00    -0.505 OA
ATOM     10  H   UNK A   1      -0.104  -2.583   0.576  0.00  0.00    +0.292 HD
ENDBRANCH   4   9
BRANCH   6  11
ATOM     11  O   UNK A   1       3.487   1.667  -1.778  0.00  0.00    -0.505 OA
ATOM     12  H   UNK A   1       3.148   2.015  -2.579  0.00  0.00    +0.292 HD
ENDBRANCH   6  11
ENDBRANCH   1   3
BRANCH   1  13
ATOM     13  C   UNK A   1      -1.630   0.186  -1.665  0.00  0.00    +0.093 C 
BRANCH  13  14
ATOM     14  C   UNK A   1      -2.436   0.429  -0.386  0.00  0.00    +0.182 C 
BRANCH  14  16
ATOM     15  O   UNK A   0      -1.393   2.994   0.486  0.00  0.00    -0.275 OA
ATOM     16  N   UNK A   1      -1.583   0.688   0.747  0.00  0.00    -0.296 N 
ATOM     17  C   UNK A   0      -1.133   1.954   1.087  0.00  0.00    +0.223 C 
ATOM     18  C   UNK A   0      -0.280   1.946   2.327  0.00  0.00    +0.095 C 
ATOM     19  H   UNK A   1      -1.306  -0.073   1.308  0.00  0.00    +0.150 HD
ENDBRANCH  14  16
BRANCH  14  21
ATOM     20  O   UNK A   1      -4.319  -1.017  -0.880  0.00  0.00    -0.248 OA
ATOM     21  C   UNK A   1      -3.427  -0.689  -0.106  0.00  0.00    +0.333 C 
BRANCH  21  22
ATOM     22  O   UNK A   1      -3.240  -1.282   1.096  0.00  0.00    -0.479 OA
ATOM     23  H   UNK A   1      -2.544  -0.998   1.656  0.00  0.00    +0.295 HD
ENDBRANCH  21  22
ENDBRANCH  14  21
ENDBRANCH  13  14
ENDBRANCH   1  13
TORSDOF 8
