130865
  -OEChem-03292013323D

 28 28  0     0  0  0  0  0  0999 V2000
    1.6519   -0.9226   -1.5174 S   0  0  0  0  0  0  0  0  0  0  0  0
    3.3606   -0.5181   -0.4470 S   0  0  0  0  0  0  0  0  0  0  0  0
   -1.4128    2.1636    0.1999 O   0  0  0  0  0  0  0  0  0  0  0  0
   -2.6729   -0.3061   -1.5633 O   0  5  0  0  0  0  0  0  0  0  0  0
   -0.6787   -0.1833   -2.4727 O   0  0  0  0  0  0  0  0  0  0  0  0
    1.0478   -1.8849    0.8810 N   0  0  0  0  0  0  0  0  0  0  0  0
   -1.4340   -0.4948   -1.5215 N   0  3  0  0  0  0  0  0  0  0  0  0
   -2.6085    2.4526    0.9763 N   0  0  0  0  0  0  0  0  0  0  0  0
   -0.8668   -1.0809   -0.3569 C   0  0  0  0  0  0  0  0  0  0  0  0
    0.4939   -1.3270   -0.2224 C   0  0  0  0  0  0  0  0  0  0  0  0
    3.1910    1.2615   -0.1466 C   0  0  0  0  0  0  0  0  0  0  0  0
   -1.7035   -1.4262    0.6986 C   0  0  0  0  0  0  0  0  0  0  0  0
    1.9396    1.5368    0.6251 C   0  0  0  0  0  0  0  0  0  0  0  0
    0.9504    2.3266    0.1808 C   0  0  0  0  0  0  0  0  0  0  0  0
   -1.1661   -2.0006    1.8452 C   0  0  0  0  0  0  0  0  0  0  0  0
   -0.2952    2.6105    0.9545 C   0  0  0  0  0  0  0  0  0  0  0  0
    0.2034   -2.2072    1.8864 C   0  0  0  0  0  0  0  0  0  0  0  0
    3.2226    1.7966   -1.1017 H   0  0  0  0  0  0  0  0  0  0  0  0
    4.0540    1.5932    0.4396 H   0  0  0  0  0  0  0  0  0  0  0  0
   -2.7776   -1.2633    0.6679 H   0  0  0  0  0  0  0  0  0  0  0  0
    1.8547    1.0878    1.6126 H   0  0  0  0  0  0  0  0  0  0  0  0
    1.0371    2.7929   -0.7975 H   0  0  0  0  0  0  0  0  0  0  0  0
   -1.7987   -2.2772    2.6809 H   0  0  0  0  0  0  0  0  0  0  0  0
   -0.3697    3.6919    1.1216 H   0  0  0  0  0  0  0  0  0  0  0  0
   -0.2811    2.1049    1.9282 H   0  0  0  0  0  0  0  0  0  0  0  0
    0.6723   -2.6513    2.7583 H   0  0  0  0  0  0  0  0  0  0  0  0
   -3.0336    1.5274    1.0136 H   0  0  0  0  0  0  0  0  0  0  0  0
   -3.1447    2.9916    0.2981 H   0  0  0  0  0  0  0  0  0  0  0  0
  1  2  1  0  0  0  0
  1 10  1  0  0  0  0
  2 11  1  0  0  0  0
  3  8  1  0  0  0  0
  3 16  1  0  0  0  0
  4  7  1  0  0  0  0
  5  7  2  0  0  0  0
  6 10  1  0  0  0  0
  6 17  2  0  0  0  0
  7  9  1  0  0  0  0
  8 27  1  0  0  0  0
  8 28  1  0  0  0  0
  9 10  2  0  0  0  0
  9 12  1  0  0  0  0
 11 13  1  0  0  0  0
 11 18  1  0  0  0  0
 11 19  1  0  0  0  0
 12 15  2  0  0  0  0
 12 20  1  0  0  0  0
 13 14  2  3  0  0  0
 13 21  1  0  0  0  0
 14 16  1  0  0  0  0
 14 22  1  0  0  0  0
 15 17  1  0  0  0  0
 15 23  1  0  0  0  0
 16 24  1  0  0  0  0
 16 25  1  0  0  0  0
 17 26  1  0  0  0  0
M  CHG  2   4  -1   7   1
M  END
> <PUBCHEM_COMPOUND_CID>
130865

> <PUBCHEM_CONFORMER_RMSD>
0.8

> <PUBCHEM_CONFORMER_DIVERSEORDER>
1
133
119
113
121
11
155
12
89
82
90
138
68
81
18
65
161
177
152
32
117
29
171
51
116
6
58
108
66
148
95
139
173
22
28
19
23
56
26
97
122
180
10
134
111
100
144
120
41
130
85
75
145
93
157
142
132
78
167
69
124
169
128
37
46
153
16
70
40
14
55
71
96
112
158
126
3
54
9
92
45
47
77
8
114
172
179
163
4
125
115
118
123
106
74
59
33
159
146
5
61
49
164
165
131
80
63
162
160
44
2
34
43
53
103
25
84
99
168
20
137
154
140
141
31
24
30
86
174
149
127
102
87
109
170
72
39
175
21
147
50
156
110
151
64
48
42
73
143
36
27
135
107
94
178
104
13
88
129
62
176
136
181
91
15
101
35
52
7
38
67
60
17
98
166
79
83
105
57
76
150

> <PUBCHEM_MMFF94_PARTIAL_CHARGES>
24
1 -0.1
10 0.41
11 0.37
12 -0.15
13 -0.29
14 -0.29
15 -0.15
16 0.42
17 0.16
2 -0.23
20 0.15
21 0.15
22 0.15
23 0.15
26 0.15
27 0.36
28 0.36
3 -0.18
4 -0.52
5 -0.52
6 -0.62
7 0.91
8 -0.82
9 0.13

> <PUBCHEM_EFFECTIVE_ROTOR_COUNT>
7

> <PUBCHEM_PHARMACOPHORE_FEATURES>
6
1 4 acceptor
1 4 anion
1 5 acceptor
1 6 acceptor
4 1 2 11 13 hydrophobe
6 6 9 10 12 15 17 rings

> <PUBCHEM_HEAVY_ATOM_COUNT>
17

> <PUBCHEM_ATOM_DEF_STEREO_COUNT>
0

> <PUBCHEM_ATOM_UDEF_STEREO_COUNT>
0

> <PUBCHEM_BOND_DEF_STEREO_COUNT>
0

> <PUBCHEM_BOND_UDEF_STEREO_COUNT>
1

> <PUBCHEM_ISOTOPIC_ATOM_COUNT>
0

> <PUBCHEM_COMPONENT_COUNT>
1

> <PUBCHEM_CACTVS_TAUTO_COUNT>
1

> <PUBCHEM_CONFORMER_ID>
0001FF3100000001

> <PUBCHEM_MMFF94_ENERGY>
31.9462

> <PUBCHEM_FEATURE_SELFOVERLAP>
30.528

> <PUBCHEM_SHAPE_FINGERPRINT>
104564 63 18126589996422333992
14251711 518 17835513826010122448
14251745 187 18271802436888649048
144361 1 17775002336793056240
14817 1 16115356484525775379
15881359 60 17916885585221367592
16945 1 18200028585554008278
17859628 37 17547899498761408707
18219364 16 17476357678851178120
18721546 61 18200876158726745142
20645476 183 17900014614523240212
21623110 236 11276291067218807313
23419403 2 17325759783097991407
23526113 38 18120350301914206868
2748010 2 17332241412802146208
2803657 2 17689964892030546428
598444 67 17681542954994723594

> <PUBCHEM_SHAPE_MULTIPOLES>
325
3.85
3.24
1.92
2.27
2.31
-0.69
0.14
-0.22
-0.78
1.64
-1.01
-0.73
0.69

> <PUBCHEM_SHAPE_SELFOVERLAP>
632.298

> <PUBCHEM_SHAPE_VOLUME>
198.7

> <PUBCHEM_COORDINATE_TYPE>
2
5
10

$$$$
