REMARK  Name = 130816
REMARK  13 active torsions:
REMARK  status: ('A' for Active; 'I' for Inactive)
REMARK    1  A    between atoms: CA_1  and  N_3
REMARK    2  A    between atoms: CA_1  and  C_17
REMARK    3  A    between atoms: CA_1  and  CB_27
REMARK    4  A    between atoms: C_4  and  CA_6
REMARK    5  A    between atoms: CA_6  and  N_7
REMARK    6  A    between atoms: CA_6  and  CB_11
REMARK    7  A    between atoms: CB_11  and  CG_12
REMARK    8  A    between atoms: N_16  and  CA_19
REMARK    9  A    between atoms: CA_19  and  CB_20
REMARK   10  A    between atoms: CA_19  and  C_24
REMARK   11  A    between atoms: C_24  and  O_25
REMARK   12  A    between atoms: CB_27  and  CG_29
REMARK   13  A    between atoms: CG_29  and  OD1_30
REMARK                            x       y       z     vdW  Elec       q    Type
REMARK                         _______ _______ _______ _____ _____    ______ ____
ROOT
ATOM      1  CA  ASP A   2       0.258   1.357   0.048  0.00  0.00    +0.160 C 
ENDROOT
BRANCH   1   3
ATOM      2  O   LEU A   1      -1.337  -0.519  -1.456  0.00  0.00    -0.277 OA
ATOM      3  N   ASP A   2      -1.108   0.968   0.312  0.00  0.00    -0.300 N 
ATOM      4  C   LEU A   1      -1.797   0.053  -0.470  0.00  0.00    +0.202 C 
ATOM      5  H   ASP A   2      -1.571   1.370   1.083  0.00  0.00    +0.150 HD
BRANCH   4   6
ATOM      6  CA  LEU A   1      -3.232  -0.157   0.003  0.00  0.00    +0.013 C 
BRANCH   6   7
ATOM      7  N   LEU A   1      -4.015   0.909  -0.627  0.00  0.00    +0.387 N 
ATOM      8  H1  LEU A   1      -4.992   0.823  -0.348  0.00  0.00    -0.089 HD
ATOM      9  H2  LEU A   1      -3.943   0.830  -1.641  0.00  0.00    -0.089 HD
ATOM     10  H3  LEU A   1      -3.655   1.816  -0.330  0.00  0.00    -0.089 HD
ENDBRANCH   6   7
BRANCH   6  11
ATOM     11  CB  LEU A   1      -3.786  -1.532  -0.406  0.00  0.00    -0.013 C 
BRANCH  11  12
ATOM     12  CG  LEU A   1      -5.219  -1.817   0.092  0.00  0.00    -0.002 C 
ATOM     13  CD1 LEU A   1      -5.727  -3.193  -0.341  0.00  0.00    -0.000 C 
ATOM     14  CD2 LEU A   1      -5.266  -1.708   1.619  0.00  0.00    -0.000 C 
ENDBRANCH  11  12
ENDBRANCH   6  11
ENDBRANCH   4   6
ENDBRANCH   1   3
BRANCH   1  17
ATOM     15  O   ASP A   2       0.895  -0.169   1.818  0.00  0.00    -0.273 OA
ATOM     16  N   VAL A   3       2.305   0.074  -0.009  0.00  0.00    -0.295 N 
ATOM     17  C   ASP A   2       1.171   0.353   0.740  0.00  0.00    +0.241 C 
ATOM     18  H   VAL A   3       2.436   0.547  -0.863  0.00  0.00    +0.150 HD
BRANCH  16  19
ATOM     19  CA  VAL A   3       3.301  -0.883   0.412  0.00  0.00    +0.171 C 
BRANCH  19  20
ATOM     20  CB  VAL A   3       2.929  -2.295  -0.088  0.00  0.00    +0.029 C 
ATOM     21  CG1 VAL A   3       3.827  -3.379   0.515  0.00  0.00    +0.002 C 
ATOM     22  CG2 VAL A   3       2.912  -2.411  -1.615  0.00  0.00    +0.002 C 
ENDBRANCH  19  20
BRANCH  19  24
ATOM     23  OXT VAL A   3       5.727  -0.996   0.355  0.00  0.00    -0.248 OA
ATOM     24  C   VAL A   3       4.700  -0.422   0.012  0.00  0.00    +0.332 C 
BRANCH  24  25
ATOM     25  O   VAL A   3       4.730   0.718  -0.722  0.00  0.00    -0.479 OA
ATOM     26  H   VAL A   3       3.929   1.136  -0.971  0.00  0.00    +0.295 HD
ENDBRANCH  24  25
ENDBRANCH  19  24
ENDBRANCH  16  19
ENDBRANCH   1  17
BRANCH   1  27
ATOM     27  CB  ASP A   2       0.549   2.777   0.528  0.00  0.00    +0.138 C 
BRANCH  27  29
ATOM     28  OD2 ASP A   2      -0.864   3.627  -1.238  0.00  0.00    -0.250 OA
ATOM     29  CG  ASP A   2      -0.372   3.776  -0.127  0.00  0.00    +0.316 C 
BRANCH  29  30
ATOM     30  OD1 ASP A   2      -0.584   4.872   0.643  0.00  0.00    -0.480 OA
ATOM     31  HD1 ASP A   2      -0.183   4.936   1.487  0.00  0.00    +0.295 HD
ENDBRANCH  29  30
ENDBRANCH  27  29
ENDBRANCH   1  27
TORSDOF 13
