REMARK  Name = 130868
REMARK  12 active torsions:
REMARK  status: ('A' for Active; 'I' for Inactive)
REMARK    1  A    between atoms: C_3  and  C_30
REMARK    2  A    between atoms: C_6  and  O_14
REMARK    3  A    between atoms: C_10  and  O_12
REMARK    4  A    between atoms: O_14  and  C_20
REMARK    5  A    between atoms: C_16  and  O_21
REMARK    6  A    between atoms: C_17  and  O_23
REMARK    7  A    between atoms: C_18  and  O_25
REMARK    8  A    between atoms: C_19  and  C_27
REMARK    9  A    between atoms: C_27  and  O_28
REMARK   10  A    between atoms: C_30  and  C_31
REMARK   11  A    between atoms: C_31  and  C_32
REMARK   12  A    between atoms: C_37  and  O_38
REMARK                            x       y       z     vdW  Elec       q    Type
REMARK                         _______ _______ _______ _____ _____    ______ ____
ROOT
ATOM      1  O   UNL     1       2.309  -3.563   0.280  0.00  0.00    -0.449 OA
ATOM      2  O   UNL     1       1.511  -4.111  -1.765  0.00  0.00    -0.245 OA
ATOM      3  C   UNL     1       2.203  -2.749   1.470  0.00  0.00    +0.174 C 
ATOM      4  C   UNL     1       0.800  -2.837   2.058  0.00  0.00    +0.070 C 
ATOM      5  C   UNL     1      -0.211  -2.552   0.991  0.00  0.00    -0.006 C 
ATOM      6  C   UNL     1      -2.386  -1.736   0.303  0.00  0.00    +0.144 C 
ATOM      7  C   UNL     1       0.064  -2.912  -0.333  0.00  0.00    +0.106 C 
ATOM      8  C   UNL     1      -1.446  -1.973   1.306  0.00  0.00    +0.033 C 
ATOM      9  C   UNL     1      -2.104  -2.086  -1.016  0.00  0.00    +0.074 C 
ATOM     10  C   UNL     1      -0.882  -2.678  -1.337  0.00  0.00    +0.143 C 
ATOM     11  C   UNL     1       1.344  -3.572  -0.678  0.00  0.00    +0.344 C 
ENDROOT
BRANCH  10  12
ATOM     12  O   UNL     1      -0.669  -3.019  -2.639  0.00  0.00    -0.505 OA
ATOM     13  H   UNL     1       0.140  -3.418  -2.893  0.00  0.00    +0.292 HD
ENDBRANCH  10  12
BRANCH   6  14
ATOM     14  O   UNL     1      -3.582  -1.159   0.614  0.00  0.00    -0.450 OA
BRANCH  14  20
ATOM     15  O   UNL     1      -2.876   1.042   0.295  0.00  0.00    -0.316 OA
ATOM     16  C   UNL     1      -5.579   1.947  -0.059  0.00  0.00    +0.173 C 
ATOM     17  C   UNL     1      -4.413   2.911   0.163  0.00  0.00    +0.169 C 
ATOM     18  C   UNL     1      -5.248   0.550   0.465  0.00  0.00    +0.210 C 
ATOM     19  C   UNL     1      -3.102   2.303  -0.339  0.00  0.00    +0.177 C 
ATOM     20  C   UNL     1      -3.879   0.081  -0.027  0.00  0.00    +0.318 C 
BRANCH  16  21
ATOM     21  O   UNL     1      -6.715   2.460   0.638  0.00  0.00    -0.379 OA
ATOM     22  H   UNL     1      -6.925   3.347   0.306  0.00  0.00    +0.211 HD
ENDBRANCH  16  21
BRANCH  17  23
ATOM     23  O   UNL     1      -4.667   4.126  -0.538  0.00  0.00    -0.379 OA
ATOM     24  H   UNL     1      -5.498   4.514  -0.222  0.00  0.00    +0.211 HD
ENDBRANCH  17  23
BRANCH  18  25
ATOM     25  O   UNL     1      -6.231  -0.375   0.000  0.00  0.00    -0.377 OA
ATOM     26  H   UNL     1      -7.108  -0.094   0.303  0.00  0.00    +0.211 HD
ENDBRANCH  18  25
BRANCH  19  27
ATOM     27  C   UNL     1      -1.907   3.197  -0.022  0.00  0.00    +0.169 C 
BRANCH  27  28
ATOM     28  O   UNL     1      -0.733   2.567  -0.504  0.00  0.00    -0.379 OA
ATOM     29  H   UNL     1       0.036   3.126  -0.309  0.00  0.00    +0.211 HD
ENDBRANCH  27  28
ENDBRANCH  19  27
ENDBRANCH  14  20
ENDBRANCH   6  14
BRANCH   3  30
ATOM     30  C   UNL     1       2.662  -1.325   1.162  0.00  0.00    +0.049 C 
BRANCH  30  31
ATOM     31  C   UNL     1       4.056  -1.314   0.535  0.00  0.00    +0.030 C 
BRANCH  31  32
ATOM     32  C   UNL     1       4.504   0.086   0.203  0.00  0.00    -0.022 C 
ATOM     33  C   UNL     1       4.215   0.616  -1.046  0.00  0.00    -0.001 C 
ATOM     34  C   UNL     1       5.200   0.822   1.150  0.00  0.00    -0.001 C 
ATOM     35  C   UNL     1       4.631   1.911  -1.354  0.00  0.00    +0.037 C 
ATOM     36  C   UNL     1       5.616   2.117   0.843  0.00  0.00    +0.037 C 
ATOM     37  C   UNL     1       5.331   2.662  -0.410  0.00  0.00    +0.139 C 
BRANCH  37  38
ATOM     38  O   UNL     1       5.736   3.926  -0.711  0.00  0.00    -0.471 OA
ATOM     39  C   UNL     1       6.448   4.638   0.300  0.00  0.00    +0.252 C 
ENDBRANCH  37  38
ENDBRANCH  31  32
ENDBRANCH  30  31
ENDBRANCH   3  30
TORSDOF 12
