130896
  -OEChem-03292013323D

 31 33  0     0  0  0  0  0  0999 V2000
   -1.7941   -1.6815    0.4975 S   0  0  0  0  0  0  0  0  0  0  0  0
    4.6805    1.7955    0.1863 S   0  0  0  0  0  0  0  0  0  0  0  0
   -7.0340    0.6565   -0.4938 F   0  0  0  0  0  0  0  0  0  0  0  0
    0.2526    2.4038   -0.2325 O   0  0  0  0  0  0  0  0  0  0  0  0
   -2.1925    0.7978   -0.0916 N   0  0  0  0  0  0  0  0  0  0  0  0
    0.0895    0.1194    0.2637 N   0  0  0  0  0  0  0  0  0  0  0  0
    2.8085    0.0310    0.4407 N   0  0  0  0  0  0  0  0  0  0  0  0
    5.0322   -0.7599    0.7338 N   0  0  0  0  0  0  0  0  0  0  0  0
    6.4482   -2.4411   -0.2741 N   0  0  0  0  0  0  0  0  0  0  0  0
    5.0855   -1.1465   -1.5660 N   0  0  0  0  0  0  0  0  0  0  0  0
   -3.4373    0.1858   -0.0662 C   0  0  0  0  0  0  0  0  0  0  0  0
   -3.4230   -1.1785    0.2396 C   0  0  0  0  0  0  0  0  0  0  0  0
   -1.2627   -0.0853    0.1888 C   0  0  0  0  0  0  0  0  0  0  0  0
   -4.6781    0.8110   -0.3166 C   0  0  0  0  0  0  0  0  0  0  0  0
   -4.6032   -1.9365    0.3035 C   0  0  0  0  0  0  0  0  0  0  0  0
   -5.8570    0.0624   -0.2547 C   0  0  0  0  0  0  0  0  0  0  0  0
   -5.8177   -1.2934    0.0515 C   0  0  0  0  0  0  0  0  0  0  0  0
    0.7772    1.3321    0.0538 C   0  0  0  0  0  0  0  0  0  0  0  0
    2.2441    1.2387    0.1588 C   0  0  0  0  0  0  0  0  0  0  0  0
    3.0578    2.3124   -0.0150 C   0  0  0  0  0  0  0  0  0  0  0  0
    4.1111    0.2037    0.4812 C   0  0  0  0  0  0  0  0  0  0  0  0
    5.5125   -1.4275   -0.2889 C   0  0  0  0  0  0  0  0  0  0  0  0
   -4.7206    1.8695   -0.5569 H   0  0  0  0  0  0  0  0  0  0  0  0
   -4.5802   -2.9955    0.5420 H   0  0  0  0  0  0  0  0  0  0  0  0
    0.6375   -0.7067    0.4905 H   0  0  0  0  0  0  0  0  0  0  0  0
   -6.7431   -1.8617    0.0954 H   0  0  0  0  0  0  0  0  0  0  0  0
    2.8175    3.3418   -0.2411 H   0  0  0  0  0  0  0  0  0  0  0  0
    6.8583   -2.7615    0.5964 H   0  0  0  0  0  0  0  0  0  0  0  0
    6.7532   -2.8935   -1.1288 H   0  0  0  0  0  0  0  0  0  0  0  0
    5.4565   -1.6615   -2.3576 H   0  0  0  0  0  0  0  0  0  0  0  0
    4.3997   -0.4323   -1.7829 H   0  0  0  0  0  0  0  0  0  0  0  0
  1 12  1  0  0  0  0
  1 13  1  0  0  0  0
  2 20  1  0  0  0  0
  2 21  1  0  0  0  0
  3 16  1  0  0  0  0
  4 18  2  0  0  0  0
  5 11  1  0  0  0  0
  5 13  2  0  0  0  0
  6 13  1  0  0  0  0
  6 18  1  0  0  0  0
  6 25  1  0  0  0  0
  7 19  1  0  0  0  0
  7 21  2  0  0  0  0
  8 21  1  0  0  0  0
  8 22  2  0  0  0  0
  9 22  1  0  0  0  0
  9 28  1  0  0  0  0
  9 29  1  0  0  0  0
 10 22  1  0  0  0  0
 10 30  1  0  0  0  0
 10 31  1  0  0  0  0
 11 12  2  0  0  0  0
 11 14  1  0  0  0  0
 12 15  1  0  0  0  0
 14 16  2  0  0  0  0
 14 23  1  0  0  0  0
 15 17  2  0  0  0  0
 15 24  1  0  0  0  0
 16 17  1  0  0  0  0
 17 26  1  0  0  0  0
 18 19  1  0  0  0  0
 19 20  2  0  0  0  0
 20 27  1  0  0  0  0
M  END
> <PUBCHEM_COMPOUND_CID>
130896

> <PUBCHEM_CONFORMER_RMSD>
0.6

> <PUBCHEM_CONFORMER_DIVERSEORDER>
1
16
29
31
20
26
23
18
7
17
22
32
27
24
30
15
21
19
13
25
9
6
8
5
4
14
10
2
11
12
28
33
3

> <PUBCHEM_MMFF94_PARTIAL_CHARGES>
31
1 -0.08
10 -0.85
11 0.23
12 0.04
13 0.44
14 -0.15
15 -0.15
16 0.19
17 -0.15
18 0.72
19 0.14
2 -0.08
20 -0.11
21 0.5
22 0.55
23 0.15
24 0.15
25 0.37
26 0.15
27 0.15
28 0.4
29 0.4
3 -0.19
30 0.4
31 0.4
4 -0.57
5 -0.57
6 -0.49
7 -0.57
8 -0.58
9 -0.85

> <PUBCHEM_EFFECTIVE_ROTOR_COUNT>
4

> <PUBCHEM_PHARMACOPHORE_FEATURES>
8
1 10 donor
1 4 acceptor
1 6 donor
1 9 donor
4 8 9 10 22 cation
5 1 5 11 12 13 rings
5 2 7 19 20 21 rings
6 11 12 14 15 16 17 rings

> <PUBCHEM_HEAVY_ATOM_COUNT>
22

> <PUBCHEM_ATOM_DEF_STEREO_COUNT>
0

> <PUBCHEM_ATOM_UDEF_STEREO_COUNT>
0

> <PUBCHEM_BOND_DEF_STEREO_COUNT>
0

> <PUBCHEM_BOND_UDEF_STEREO_COUNT>
0

> <PUBCHEM_ISOTOPIC_ATOM_COUNT>
0

> <PUBCHEM_COMPONENT_COUNT>
1

> <PUBCHEM_CACTVS_TAUTO_COUNT>
9

> <PUBCHEM_CONFORMER_ID>
0001FF5000000001

> <PUBCHEM_MMFF94_ENERGY>
51.3127

> <PUBCHEM_FEATURE_SELFOVERLAP>
40.722

> <PUBCHEM_SHAPE_FINGERPRINT>
10638233 991 14562532885923581967
11578080 2 16445294691943584127
11796584 16 18409163346177558650
11858739 19 18343019995114995318
12107183 9 18198070170282018697
12236239 1 18202281424844757217
12516196 113 18272368706725189560
13073987 5 18271810158960343993
13167823 11 18337387248728087259
13402501 40 18410576171664935918
13533116 47 18131632300943979496
13685833 64 18413108342927882882
13914758 101 17060063601815658097
14211702 104 18264775548328316211
14341114 176 18335423508413684937
14420673 8 18408325467015189683
14866123 147 18053107228766047016
15183329 4 18408041788529780587
15196674 1 18335980969145493041
15510800 12 17844251723217741094
15531645 54 18408884036233220633
17834072 8 18333731312256698783
17844677 252 18409453587103483233
1813 80 16878217649498007884
19784866 240 18341900666893250552
20403669 9 18341335513774834118
20645477 70 18410292540877776144
21130935 74 18272652389431264867
21150785 3 12685095921377903715
21267235 1 18335707143674348187
21279426 13 18334851710711491917
21641784 216 15213293093466098414
21682296 61 18341056246031726111
220451 1 17917155025494018837
22061861 79 18411135852883922999
2215653 11 18410854364953842463
23016692 55 18408611344659939318
2303208 19 18041007275369706035
23081809 10 17846218895115644169
23402539 116 18341887546153354661
23536379 177 18411135866180456873
23559900 14 18338512049265973873
239999 70 18410293636363539986
29717793 49 18343301474429046732
3004659 81 18259703398304459122
3014965 18 18411417306380652174
3103668 31 17970060046332394917
328311 84 18333455352814763427
335352 9 18408319987005581165
3421961 26 18341893009388717384
4073 2 17896040021558707578
4214541 1 18335135440751858681
465052 167 18344150293654002798
5104073 3 18336827601773458865
5207 123 18411985745655562644
542803 24 14345789453069503153
559249 180 18341331098474295361
59755656 215 18261670385714831687
6138700 20 18337110072871702242
633830 44 17604141661541902763
8988823 20 16988838406641353248
90127 26 17821730571825540137
960060 61 17894639171110252172
9709674 26 18191028004559235338
9965369 4 18342177739634049569
9971528 1 18187080710576465772

> <PUBCHEM_SHAPE_MULTIPOLES>
417.42
17.39
2.37
0.78
2.85
0.11
-0.11
6.39
-2.21
-2.67
-0.11
-0.53
0.16
1.14

> <PUBCHEM_SHAPE_SELFOVERLAP>
891.234

> <PUBCHEM_SHAPE_VOLUME>
235

> <PUBCHEM_COORDINATE_TYPE>
2
5
10

$$$$
