REMARK  Name = 130835
REMARK  10 active torsions:
REMARK  status: ('A' for Active; 'I' for Inactive)
REMARK    1  A    between atoms: S_1  and  C_2
REMARK    2  A    between atoms: S_1  and  C_14
REMARK    3  A    between atoms: C_2  and  C_3
REMARK    4  A    between atoms: C_2  and  C_9
REMARK    5  A    between atoms: C_9  and  C_11
REMARK    6  A    between atoms: C_11  and  O_12
REMARK    7  A    between atoms: C_14  and  C_15
REMARK    8  A    between atoms: C_15  and  N_17
REMARK    9  A    between atoms: C_15  and  C_22
REMARK   10  A    between atoms: C_22  and  O_23
REMARK                            x       y       z     vdW  Elec       q    Type
REMARK                         _______ _______ _______ _____ _____    ______ ____
ROOT
ATOM      1  S   UNK A   1      -0.034  -0.242  -1.917  0.00  0.00    -0.134 S 
ENDROOT
BRANCH   1   2
ATOM      2  C   UNK A   1       0.796   0.247  -0.389  0.00  0.00    +0.081 C 
BRANCH   2   3
ATOM      3  C   UNK A   1       2.164  -0.401  -0.292  0.00  0.00    -0.012 C 
ATOM      4  C   UNK A   1       2.271  -1.667   0.253  0.00  0.00    -0.003 C 
ATOM      5  C   UNK A   1       3.269   0.290  -0.753  0.00  0.00    -0.003 C 
ATOM      6  C   UNK A   1       3.529  -2.263   0.342  0.00  0.00    -0.000 C 
ATOM      7  C   UNK A   1       4.527  -0.306  -0.664  0.00  0.00    -0.000 C 
ATOM      8  C   UNK A   1       4.657  -1.582  -0.117  0.00  0.00    -0.000 C 
ENDBRANCH   2   3
BRANCH   2   9
ATOM      9  C   UNK A   1       0.821   1.779  -0.299  0.00  0.00    +0.125 C 
BRANCH   9  11
ATOM     10  O   UNK A   1       1.439   1.593   2.030  0.00  0.00    -0.250 OA
ATOM     11  C   UNK A   1       1.464   2.238   0.990  0.00  0.00    +0.315 C 
BRANCH  11  12
ATOM     12  O   UNK A   1       2.052   3.455   0.886  0.00  0.00    -0.480 OA
ATOM     13  H   UNK A   1       2.045   3.911   0.067  0.00  0.00    +0.295 HD
ENDBRANCH  11  12
ENDBRANCH   9  11
ENDBRANCH   2   9
ENDBRANCH   1   2
BRANCH   1  14
ATOM     14  C   UNK A   1      -1.579   0.696  -1.682  0.00  0.00    +0.089 C 
BRANCH  14  15
ATOM     15  C   UNK A   1      -2.373   0.277  -0.443  0.00  0.00    +0.182 C 
BRANCH  15  17
ATOM     16  O   UNK A   0      -2.587  -1.425   1.900  0.00  0.00    -0.275 OA
ATOM     17  N   UNK A   1      -2.614  -1.145  -0.412  0.00  0.00    -0.296 N 
ATOM     18  C   UNK A   0      -2.701  -1.876   0.763  0.00  0.00    +0.223 C 
ATOM     19  C   UNK A   0      -2.983  -3.333   0.510  0.00  0.00    +0.095 C 
ATOM     20  H   UNK A   1      -2.723  -1.619  -1.267  0.00  0.00    +0.150 HD
ENDBRANCH  15  17
BRANCH  15  22
ATOM     21  O   UNK A   1      -3.693   2.293  -0.174  0.00  0.00    -0.248 OA
ATOM     22  C   UNK A   1      -3.658   1.073  -0.281  0.00  0.00    +0.333 C 
BRANCH  22  23
ATOM     23  O   UNK A   1      -4.768   0.298  -0.252  0.00  0.00    -0.479 OA
ATOM     24  H   UNK A   1      -4.693  -0.632  -0.338  0.00  0.00    +0.295 HD
ENDBRANCH  22  23
ENDBRANCH  15  22
ENDBRANCH  14  15
ENDBRANCH   1  14
TORSDOF 10
