REMARK  Name = 130818
REMARK  2 active torsions:
REMARK  status: ('A' for Active; 'I' for Inactive)
REMARK    1  A    between atoms: C_7  and  N_15
REMARK    2  A    between atoms: C_8  and  N_18
REMARK                            x       y       z     vdW  Elec       q    Type
REMARK                         _______ _______ _______ _____ _____    ______ ____
ROOT
ATOM      1  O   UNL     1      -4.067   0.435   0.027  0.00  0.00    -0.196 OA
ATOM      2  O   UNL     1      -3.684  -2.121  -0.022  0.00  0.00    -0.196 OA
ATOM      3  N   UNL     1      -1.828   0.917   0.005  0.00  0.00    -0.319 NA
ATOM      4  N   UNL     1      -1.402  -1.924  -0.006  0.00  0.00    -0.321 NA
ATOM      5  C   UNL     1      -0.637   0.411   0.001  0.00  0.00    +0.198 C 
ATOM      6  C   UNL     1      -0.413  -1.088  -0.001  0.00  0.00    +0.179 C 
ATOM      7  C   UNL     1       0.577   1.250  -0.003  0.00  0.00    +0.177 C 
ATOM      8  C   UNL     1       1.977  -0.684   0.002  0.00  0.00    +0.147 C 
ATOM      9  C   UNL     1       0.991  -1.585   0.002  0.00  0.00    +0.060 C 
ATOM     10  C   UNL     1       1.810   0.741  -0.002  0.00  0.00    +0.051 C 
ATOM     11  C   UNL     1      -2.899   0.065   0.009  0.00  0.00    +0.303 C 
ATOM     12  C   UNL     1      -2.676  -1.424  -0.008  0.00  0.00    +0.303 C 
ENDROOT
BRANCH   7  15
ATOM     13  O   UNL     1       1.528   3.316  -0.007  0.00  0.00    -0.126 OA
ATOM     14  O   UNL     1      -0.669   3.152  -0.006  0.00  0.00    -0.126 OA
ATOM     15  N   UNL     1       0.472   2.665  -0.006  0.00  0.00    +0.060 N 
ENDBRANCH   7  15
BRANCH   8  18
ATOM     16  O   UNL     1       4.237  -0.430   0.002  0.00  0.00    -0.126 OA
ATOM     17  O   UNL     1       3.392  -2.464   0.006  0.00  0.00    -0.126 OA
ATOM     18  N   UNL     1       3.292  -1.230   0.004  0.00  0.00    +0.058 N 
ENDBRANCH   8  18
TORSDOF 2
