REMARK  Name = 130896
REMARK  3 active torsions:
REMARK  status: ('A' for Active; 'I' for Inactive)
REMARK    1  A    between atoms: C_13  and  C_17
REMARK    2  A    between atoms: C_19  and  N_20
REMARK    3  A    between atoms: N_20  and  C_23
REMARK                            x       y       z     vdW  Elec       q    Type
REMARK                         _______ _______ _______ _____ _____    ______ ____
ROOT
ATOM      1  S   UNL     1      -1.794  -1.681   0.497  0.00  0.00    -0.038 S 
ATOM      2  F   UNL     1      -7.034   0.656  -0.494  0.00  0.00    -0.208 F 
ATOM      3  O   UNL     1       0.253   2.404  -0.233  0.00  0.00    -0.267 OA
ATOM      4  N   UNL     1      -2.192   0.798  -0.092  0.00  0.00    -0.384 NA
ATOM      5  N   UNL     1       0.089   0.119   0.264  0.00  0.00    -0.249 N 
ATOM      6  C   UNL     1      -3.437   0.186  -0.066  0.00  0.00    +0.124 C 
ATOM      7  C   UNL     1      -3.423  -1.179   0.240  0.00  0.00    +0.059 C 
ATOM      8  C   UNL     1      -1.263  -0.085   0.189  0.00  0.00    +0.217 C 
ATOM      9  C   UNL     1      -4.678   0.811  -0.317  0.00  0.00    +0.116 C 
ATOM     10  C   UNL     1      -4.603  -1.937   0.303  0.00  0.00    +0.011 C 
ATOM     11  C   UNL     1      -5.857   0.062  -0.255  0.00  0.00    +0.125 C 
ATOM     12  C   UNL     1      -5.818  -1.293   0.051  0.00  0.00    +0.026 C 
ATOM     13  C   UNL     1       0.777   1.332   0.054  0.00  0.00    +0.278 C 
ATOM     14  H   UNL     1       0.641  -0.665   0.488  0.00  0.00    +0.158 HD
ENDROOT
BRANCH  13  17
ATOM     15  S   UNL     1       4.681   1.796   0.186  0.00  0.00    -0.055 S 
ATOM     16  N   UNL     1       2.808   0.031   0.441  0.00  0.00    -0.376 NA
ATOM     17  C   UNL     1       2.244   1.239   0.159  0.00  0.00    +0.176 C 
ATOM     18  C   UNL     1       3.058   2.312  -0.015  0.00  0.00    +0.130 C 
ATOM     19  C   UNL     1       4.111   0.204   0.481  0.00  0.00    +0.244 C 
BRANCH  19  20
ATOM     20  N   UNL     1       5.032  -0.760   0.734  0.00  0.00    -0.178 NA
BRANCH  20  23
ATOM     21  N   UNL     1       6.448  -2.441  -0.274  0.00  0.00    -0.370 N 
ATOM     22  N   UNL     1       5.085  -1.147  -1.566  0.00  0.00    -0.370 N 
ATOM     23  C   UNL     1       5.513  -1.427  -0.289  0.00  0.00    +0.196 C 
ATOM     24  H   UNL     1       6.836  -2.740   0.580  0.00  0.00    +0.159 HD
ATOM     25  H   UNL     1       6.728  -2.865  -1.117  0.00  0.00    +0.159 HD
ATOM     26  H   UNL     1       4.416  -0.441  -1.717  0.00  0.00    +0.159 HD
ATOM     27  H   UNL     1       5.450  -1.651  -2.329  0.00  0.00    +0.159 HD
ENDBRANCH  20  23
ENDBRANCH  19  20
ENDBRANCH  13  17
TORSDOF 3
