REMARK  Name = 130864
REMARK  9 active torsions:
REMARK  status: ('A' for Active; 'I' for Inactive)
REMARK    1  A    between atoms: S_1  and  C_3
REMARK    2  A    between atoms: S_1  and  S_11
REMARK    3  A    between atoms: C_4  and  N_10
REMARK    4  A    between atoms: S_11  and  C_12
REMARK    5  A    between atoms: C_12  and  C_13
REMARK    6  A    between atoms: C_13  and  C_14
REMARK    7  A    between atoms: C_14  and  C_15
REMARK    8  A    between atoms: C_15  and  O_16
REMARK    9  A    between atoms: O_16  and  N_17
REMARK                            x       y       z     vdW  Elec       q    Type
REMARK                         _______ _______ _______ _____ _____    ______ ____
ROOT
ATOM      1  S   UNL     1       1.431  -0.649   1.984  0.00  0.00    -0.034 S 
ENDROOT
BRANCH   1   3
ATOM      2  N   UNL     1       2.624  -1.846  -0.063  0.00  0.00    -0.235 NA
ATOM      3  C   UNL     1       2.318  -0.624   0.436  0.00  0.00    +0.139 C 
ATOM      4  C   UNL     1       2.658   0.568  -0.192  0.00  0.00    +0.167 C 
ATOM      5  C   UNL     1       3.350   0.501  -1.396  0.00  0.00    +0.028 C 
ATOM      6  C   UNL     1       3.679  -0.738  -1.934  0.00  0.00    +0.022 C 
ATOM      7  C   UNL     1       3.297  -1.871  -1.235  0.00  0.00    +0.100 C 
BRANCH   4  10
ATOM      8  O   UNL     1       2.674   2.872  -0.285  0.00  0.00    -0.126 OA
ATOM      9  O   UNL     1       1.705   1.903   1.430  0.00  0.00    -0.126 OA
ATOM     10  N   UNL     1       2.330   1.843   0.344  0.00  0.00    +0.060 N 
ENDBRANCH   4  10
ENDBRANCH   1   3
BRANCH   1  11
ATOM     11  S   UNL     1      -0.272  -1.684   1.480  0.00  0.00    -0.076 S 
BRANCH  11  12
ATOM     12  C   UNL     1      -1.374  -0.340   0.957  0.00  0.00    +0.069 C 
BRANCH  12  13
ATOM     13  C   UNL     1      -2.729  -0.895   0.530  0.00  0.00    +0.015 C 
BRANCH  13  14
ATOM     14  C   UNL     1      -3.664   0.229   0.084  0.00  0.00    +0.035 C 
BRANCH  14  15
ATOM     15  C   UNL     1      -5.035  -0.302  -0.312  0.00  0.00    +0.166 C 
BRANCH  15  16
ATOM     16  O   UNL     1      -5.847   0.786  -0.729  0.00  0.00    -0.289 OA
BRANCH  16  17
ATOM     17  N   UNL     1      -7.146   0.246  -1.099  0.00  0.00    -0.214 NA
ATOM     18  H   UNL     1      -7.755   1.005  -1.404  0.00  0.00    +0.150 HD
ATOM     19  H   UNL     1      -7.562  -0.221  -0.293  0.00  0.00    +0.150 HD
ENDBRANCH  16  17
ENDBRANCH  15  16
ENDBRANCH  14  15
ENDBRANCH  13  14
ENDBRANCH  12  13
ENDBRANCH  11  12
ENDBRANCH   1  11
TORSDOF 9
