130818
  -OEChem-03292013323D

 20 21  0     0  0  0  0  0  0999 V2000
   -4.0675    0.4355    0.0274 O   0  0  0  0  0  0  0  0  0  0  0  0
    1.5278    3.3156   -0.0069 O   0  5  0  0  0  0  0  0  0  0  0  0
   -0.6686    3.1522   -0.0062 O   0  0  0  0  0  0  0  0  0  0  0  0
   -3.6838   -2.1214   -0.0223 O   0  0  0  0  0  0  0  0  0  0  0  0
    4.2365   -0.4302    0.0024 O   0  5  0  0  0  0  0  0  0  0  0  0
    3.3920   -2.4643    0.0063 O   0  0  0  0  0  0  0  0  0  0  0  0
   -1.8283    0.9166    0.0055 N   0  0  0  0  0  0  0  0  0  0  0  0
   -1.4018   -1.9238   -0.0057 N   0  0  0  0  0  0  0  0  0  0  0  0
    0.4719    2.6653   -0.0057 N   0  3  0  0  0  0  0  0  0  0  0  0
    3.2915   -1.2302    0.0039 N   0  3  0  0  0  0  0  0  0  0  0  0
   -0.6375    0.4106    0.0006 C   0  0  0  0  0  0  0  0  0  0  0  0
   -0.4128   -1.0882   -0.0010 C   0  0  0  0  0  0  0  0  0  0  0  0
    0.5773    1.2499   -0.0027 C   0  0  0  0  0  0  0  0  0  0  0  0
    1.9769   -0.6843    0.0021 C   0  0  0  0  0  0  0  0  0  0  0  0
    0.9906   -1.5848    0.0022 C   0  0  0  0  0  0  0  0  0  0  0  0
    1.8104    0.7407   -0.0015 C   0  0  0  0  0  0  0  0  0  0  0  0
   -2.8991    0.0645    0.0094 C   0  0  0  0  0  0  0  0  0  0  0  0
   -2.6756   -1.4237   -0.0079 C   0  0  0  0  0  0  0  0  0  0  0  0
    1.1028   -2.6634    0.0038 H   0  0  0  0  0  0  0  0  0  0  0  0
    2.7022    1.3581   -0.0034 H   0  0  0  0  0  0  0  0  0  0  0  0
  1 17  2  0  0  0  0
  2  9  1  0  0  0  0
  3  9  2  0  0  0  0
  4 18  2  0  0  0  0
  5 10  1  0  0  0  0
  6 10  2  0  0  0  0
  7 11  2  0  0  0  0
  7 17  1  0  0  0  0
  8 12  2  0  0  0  0
  8 18  1  0  0  0  0
  9 13  1  0  0  0  0
 10 14  1  0  0  0  0
 11 12  1  0  0  0  0
 11 13  1  0  0  0  0
 12 15  1  0  0  0  0
 13 16  2  0  0  0  0
 14 15  2  0  0  0  0
 14 16  1  0  0  0  0
 15 19  1  0  0  0  0
 16 20  1  0  0  0  0
 17 18  1  0  0  0  0
M  CHG  4   2  -1   5  -1   9   1  10   1
M  END
> <PUBCHEM_COMPOUND_CID>
130818

> <PUBCHEM_CONFORMER_RMSD>
0.6

> <PUBCHEM_CONFORMER_DIVERSEORDER>
1

> <PUBCHEM_MMFF94_PARTIAL_CHARGES>
20
1 -0.57
10 0.84
11 0.44
12 0.44
13 0.22
14 0.2
15 -0.14
16 -0.15
17 0.78
18 0.78
19 0.15
2 -0.52
20 0.15
3 -0.52
4 -0.57
5 -0.52
6 -0.52
7 -0.66
8 -0.66
9 0.84

> <PUBCHEM_EFFECTIVE_ROTOR_COUNT>
2

> <PUBCHEM_PHARMACOPHORE_FEATURES>
14
1 1 acceptor
1 2 acceptor
1 2 anion
1 3 acceptor
1 4 acceptor
1 5 acceptor
1 5 anion
1 6 acceptor
1 7 acceptor
1 7 donor
1 8 acceptor
1 8 donor
6 11 12 13 14 15 16 rings
6 7 8 11 12 17 18 rings

> <PUBCHEM_HEAVY_ATOM_COUNT>
18

> <PUBCHEM_ATOM_DEF_STEREO_COUNT>
0

> <PUBCHEM_ATOM_UDEF_STEREO_COUNT>
0

> <PUBCHEM_BOND_DEF_STEREO_COUNT>
0

> <PUBCHEM_BOND_UDEF_STEREO_COUNT>
0

> <PUBCHEM_ISOTOPIC_ATOM_COUNT>
0

> <PUBCHEM_COMPONENT_COUNT>
1

> <PUBCHEM_CACTVS_TAUTO_COUNT>
1

> <PUBCHEM_CONFORMER_ID>
0001FF0200000001

> <PUBCHEM_MMFF94_ENERGY>
54.2859

> <PUBCHEM_FEATURE_SELFOVERLAP>
71.386

> <PUBCHEM_SHAPE_FINGERPRINT>
10319926 262 17835492962241369074
10967382 1 18410856546786562178
11132069 177 18411413977770584650
11578080 2 17314481826170313932
11680986 33 18265897054092399905
116883 192 18125446310939757478
12032990 46 18411141316093327374
12553582 1 18410292475952541970
13027679 85 18410008802058064477
13132413 78 18413109467660714308
13140716 1 18411426141518666433
13380535 76 17759797443864106849
138480 1 14591802533831723972
14648413 74 18192432085170925211
14790565 3 17835529214942163520
15042514 8 17977104557048090082
15196674 1 18410855498788194178
15375462 189 18113899325339058635
15442244 35 18412266155422426593
15536298 74 18271245048653806840
16945 1 18338797797428792391
17990270 104 18337668745111030139
193761 8 17978229692397999778
19591789 44 16539058637565894439
20510252 161 18126280836033211912
20559304 39 18266177429499460299
20645477 70 18120079844072371047
20671657 1 18196377145713191573
21029758 11 18340197510375766677
21029758 27 18335713736016546237
21267235 1 18410866455255599682
21501502 16 18268153235226420495
21524375 3 17264136541147916989
221490 88 18191590954850422515
22213442 358 18411135848541625486
2334 1 18266741466069044975
23366157 5 17969499501433167884
23402539 116 18198893730345136439
23463225 33 18410576175738038822
23557571 272 18057329388440511590
23559900 14 18340760550227959296
2748010 2 18411691119051161212
3071541 12 18266462203127508052
3071541 158 18333730247126168548
3091708 16 9355908826677900576
335352 9 18410575042314780093
34934 24 18337945710303748450
352729 6 17401763025866490000
43471831 8 17617374425658111192
54173680 148 18194119612350203178
6992083 37 18271260317531465913
7364860 26 18195808702617865936
7832392 63 18411979148617528939
81228 2 18124330310784410216
8809292 202 18333735710556859419
9709674 26 18119526798186979267

> <PUBCHEM_SHAPE_MULTIPOLES>
315.29
5.89
3.25
0.56
0.38
2.4
0
-3.4
-0.01
-0.92
0.01
0.01
-0.02
-0.02

> <PUBCHEM_SHAPE_SELFOVERLAP>
697.141

> <PUBCHEM_SHAPE_VOLUME>
165.5

> <PUBCHEM_COORDINATE_TYPE>
2
5
10

$$$$
