130861
  -OEChem-03292013323D

 31 31  0     1  0  0  0  0  0999 V2000
    1.4012    2.5271    0.8686 Br  0  0  0  0  0  0  0  0  0  0  0  0
    0.0169   -0.5447    0.9255 S   0  0  0  0  0  0  0  0  0  0  0  0
   -3.5286   -1.7834    1.1803 O   0  0  0  0  0  0  0  0  0  0  0  0
    1.8860   -2.6992    0.0156 O   0  0  0  0  0  0  0  0  0  0  0  0
   -2.5152   -2.9349   -0.4893 O   0  0  0  0  0  0  0  0  0  0  0  0
    4.2789    2.2689   -0.1294 O   0  0  0  0  0  0  0  0  0  0  0  0
   -3.3271    2.0396   -1.5420 O   0  0  0  0  0  0  0  0  0  0  0  0
   -2.9809    0.5722    0.2324 N   0  0  0  0  0  0  0  0  0  0  0  0
   -2.3989   -0.5130   -0.5172 C   0  0  1  0  0  0  0  0  0  0  0  0
   -0.8810   -0.3669   -0.6517 C   0  0  0  0  0  0  0  0  0  0  0  0
    1.7076   -0.3203    0.3891 C   0  0  0  0  0  0  0  0  0  0  0  0
   -2.8022   -1.8681    0.0403 C   0  0  0  0  0  0  0  0  0  0  0  0
    2.4357   -1.4504   -0.0040 C   0  0  0  0  0  0  0  0  0  0  0  0
    2.3252    0.9371    0.3484 C   0  0  0  0  0  0  0  0  0  0  0  0
   -3.3967    1.7604   -0.3479 C   0  0  0  0  0  0  0  0  0  0  0  0
    3.6475    1.0612   -0.0780 C   0  0  0  0  0  0  0  0  0  0  0  0
    3.7580   -1.3265   -0.4302 C   0  0  0  0  0  0  0  0  0  0  0  0
    4.3638   -0.0706   -0.4673 C   0  0  0  0  0  0  0  0  0  0  0  0
   -3.9901    2.7115    0.6567 C   0  0  0  0  0  0  0  0  0  0  0  0
   -2.8364   -0.4687   -1.5231 H   0  0  0  0  0  0  0  0  0  0  0  0
   -0.6366    0.6096   -1.0840 H   0  0  0  0  0  0  0  0  0  0  0  0
   -0.5023   -1.1341   -1.3366 H   0  0  0  0  0  0  0  0  0  0  0  0
   -3.0761    0.4576    1.2376 H   0  0  0  0  0  0  0  0  0  0  0  0
    4.3226   -2.2035   -0.7351 H   0  0  0  0  0  0  0  0  0  0  0  0
    5.3948    0.0089   -0.8019 H   0  0  0  0  0  0  0  0  0  0  0  0
   -4.1491    3.6880    0.1910 H   0  0  0  0  0  0  0  0  0  0  0  0
   -4.9486    2.3203    1.0087 H   0  0  0  0  0  0  0  0  0  0  0  0
   -3.3117    2.8342    1.5060 H   0  0  0  0  0  0  0  0  0  0  0  0
   -3.7838   -2.6678    1.5193 H   0  0  0  0  0  0  0  0  0  0  0  0
    0.9707   -2.6248    0.3365 H   0  0  0  0  0  0  0  0  0  0  0  0
    5.1883    2.1434   -0.4505 H   0  0  0  0  0  0  0  0  0  0  0  0
  1 14  1  0  0  0  0
  2 10  1  0  0  0  0
  2 11  1  0  0  0  0
  3 12  1  0  0  0  0
  3 29  1  0  0  0  0
  4 13  1  0  0  0  0
  4 30  1  0  0  0  0
  5 12  2  0  0  0  0
  6 16  1  0  0  0  0
  6 31  1  0  0  0  0
  7 15  2  0  0  0  0
  8  9  1  0  0  0  0
  8 15  1  0  0  0  0
  8 23  1  0  0  0  0
  9 10  1  0  0  0  0
  9 12  1  0  0  0  0
  9 20  1  0  0  0  0
 10 21  1  0  0  0  0
 10 22  1  0  0  0  0
 11 13  2  0  0  0  0
 11 14  1  0  0  0  0
 13 17  1  0  0  0  0
 14 16  2  0  0  0  0
 15 19  1  0  0  0  0
 16 18  1  0  0  0  0
 17 18  2  0  0  0  0
 17 24  1  0  0  0  0
 18 25  1  0  0  0  0
 19 26  1  0  0  0  0
 19 27  1  0  0  0  0
 19 28  1  0  0  0  0
M  END
> <PUBCHEM_COMPOUND_CID>
130861

> <PUBCHEM_CONFORMER_RMSD>
0.8

> <PUBCHEM_CONFORMER_DIVERSEORDER>
1
72
35
78
37
81
56
32
28
30
71
68
6
79
34
26
51
21
61
44
69
60
70
48
23
33
36
67
77
55
7
40
38
5
75
47
65
9
64
4
50
39
59
25
73
14
76
57
22
49
63
41
46
43
10
62
45
17
19
8
15
54
27
52
31
66
20
3
2
29
80
24
42
58
13
53
16
12
11
74
18

> <PUBCHEM_MMFF94_PARTIAL_CHARGES>
25
1 -0.11
10 0.23
11 0.1
12 0.66
13 0.08
14 0.11
15 0.57
16 0.08
17 -0.15
18 -0.15
19 0.06
2 -0.33
23 0.37
24 0.15
25 0.15
29 0.5
3 -0.65
30 0.45
31 0.45
4 -0.53
5 -0.57
6 -0.53
7 -0.57
8 -0.73
9 0.36

> <PUBCHEM_EFFECTIVE_ROTOR_COUNT>
6

> <PUBCHEM_PHARMACOPHORE_FEATURES>
9
1 1 hydrophobe
1 3 acceptor
1 4 donor
1 5 acceptor
1 6 donor
1 7 acceptor
1 8 donor
3 3 5 12 anion
6 11 13 14 16 17 18 rings

> <PUBCHEM_HEAVY_ATOM_COUNT>
19

> <PUBCHEM_ATOM_DEF_STEREO_COUNT>
1

> <PUBCHEM_ATOM_UDEF_STEREO_COUNT>
0

> <PUBCHEM_BOND_DEF_STEREO_COUNT>
0

> <PUBCHEM_BOND_UDEF_STEREO_COUNT>
0

> <PUBCHEM_ISOTOPIC_ATOM_COUNT>
0

> <PUBCHEM_COMPONENT_COUNT>
1

> <PUBCHEM_CACTVS_TAUTO_COUNT>
14

> <PUBCHEM_CONFORMER_ID>
0001FF2D00000001

> <PUBCHEM_MMFF94_ENERGY>
42.8423

> <PUBCHEM_FEATURE_SELFOVERLAP>
45.73

> <PUBCHEM_SHAPE_FINGERPRINT>
10366900 7 18193272116444751227
10498660 4 17895461558173292245
10608611 8 18410007762501567554
11405975 8 18336263453481898346
11715629 250 18335416893678492518
12173636 292 18410569591816983431
12500047 106 18337386050421584279
12633257 1 18264479585993535242
14251751 93 18342453780976256486
14289901 80 18337389452025380026
18186145 218 18113615656024053142
19930381 70 17619343655547976969
20645477 56 18261115123800063685
20645477 70 17988362581322464286
21709351 56 18411134745362667926
221357 26 18342177816431822591
221490 88 18411144653783913954
22182937 141 18411423878171329489
22393880 68 18341619230813981774
23402539 116 17676202464521839318
23402655 69 18411704253641531028
23558518 356 18187368774159329707
25 1 18335983082417121658
4214541 1 18410575071788726575
5104073 3 18335417963573742912
5281201 14 18412271653054405710
543358 83 18268432339365359490
58051976 378 18196367241872132406
6049 1 18271237343556324649
6287921 2 18119534489988207340
6438718 38 16486426351953874505
7399639 24 17839731904812113408
7832392 63 18412259510818064128

> <PUBCHEM_SHAPE_MULTIPOLES>
366.48
8.95
3.37
0.98
0.06
0.17
-0.02
2.55
-1.05
-1.77
0.23
-0.57
0.19
0.57

> <PUBCHEM_SHAPE_SELFOVERLAP>
725.704

> <PUBCHEM_SHAPE_VOLUME>
221.3

> <PUBCHEM_COORDINATE_TYPE>
2
5
10

$$$$
