REMARK  Name = 130859
REMARK  4 active torsions:
REMARK  status: ('A' for Active; 'I' for Inactive)
REMARK    1  A    between atoms: N_2  and  C_16
REMARK    2  A    between atoms: C_16  and  C_17
REMARK    3  A    between atoms: C_17  and  N_19
REMARK    4  A    between atoms: C_21  and  N_25
REMARK                            x       y       z     vdW  Elec       q    Type
REMARK                         _______ _______ _______ _____ _____    ______ ____
ROOT
ATOM      1  O   UNL     1       1.335  -2.110  -0.452  0.00  0.00    -0.272 OA
ATOM      2  N   UNL     1       1.036   0.222  -0.405  0.00  0.00    -0.219 N 
ATOM      3  N   UNL     1       2.900   1.715   0.016  0.00  0.00    -0.361 NA
ATOM      4  N   UNL     1       4.210  -1.550   0.117  0.00  0.00    -0.268 NA
ATOM      5  N   UNL     1       5.027   0.507   0.363  0.00  0.00    -0.297 N 
ATOM      6  N   UNL     1       0.809   2.626  -0.338  0.00  0.00    -0.320 N 
ATOM      7  C   UNL     1       1.782  -0.975  -0.317  0.00  0.00    +0.255 C 
ATOM      8  C   UNL     1       3.156  -0.698  -0.045  0.00  0.00    +0.201 C 
ATOM      9  C   UNL     1       1.621   1.517  -0.235  0.00  0.00    +0.242 C 
ATOM     10  C   UNL     1       3.682   0.558   0.111  0.00  0.00    +0.184 C 
ATOM     11  C   UNL     1       5.315  -0.778   0.361  0.00  0.00    +0.164 C 
ATOM     12  H   UNL     1       4.182  -2.533   0.068  0.00  0.00    +0.126 HD
ATOM     13  H   UNL     1       5.642   1.262   0.513  0.00  0.00    +0.150 HD
ATOM     14  H   UNL     1      -0.151   2.517  -0.524  0.00  0.00    +0.146 HD
ATOM     15  H   UNL     1       1.189   3.527  -0.225  0.00  0.00    +0.146 HD
ENDROOT
BRANCH   2  16
ATOM     16  C   UNL     1      -0.397   0.133  -0.681  0.00  0.00    +0.124 C 
BRANCH  16  17
ATOM     17  C   UNL     1      -1.221   0.036   0.592  0.00  0.00    +0.126 C 
BRANCH  17  19
ATOM     18  O   UNL     1      -2.917   2.227   0.352  0.00  0.00    -0.206 OA
ATOM     19  N   UNL     1      -2.628  -0.071   0.316  0.00  0.00    -0.219 N 
ATOM     20  N   UNL     1      -4.775   1.000  -0.058  0.00  0.00    -0.162 NA
ATOM     21  C   UNL     1      -3.217  -1.349   0.152  0.00  0.00    +0.163 C 
ATOM     22  C   UNL     1      -3.423   1.112   0.209  0.00  0.00    +0.217 C 
ATOM     23  C   UNL     1      -4.533  -1.435  -0.107  0.00  0.00    +0.032 C 
ATOM     24  C   UNL     1      -5.278  -0.177  -0.202  0.00  0.00    +0.111 C 
BRANCH  21  25
ATOM     25  N   UNL     1      -2.483  -2.509   0.249  0.00  0.00    -0.303 NA
ATOM     26  H   UNL     1      -1.518  -2.466   0.438  0.00  0.00    +0.121 HD
ATOM     27  H   UNL     1      -2.923  -3.382   0.130  0.00  0.00    +0.121 HD
ENDBRANCH  21  25
ENDBRANCH  17  19
ENDBRANCH  16  17
ENDBRANCH   2  16
TORSDOF 4
