REMARK  Name = 130842
REMARK  9 active torsions:
REMARK  status: ('A' for Active; 'I' for Inactive)
REMARK    1  A    between atoms: CA_1  and  C_4
REMARK    2  A    between atoms: CA_1  and  N_19
REMARK    3  A    between atoms: CA_1  and  CB_28
REMARK    4  A    between atoms: N_3  and  CA_6
REMARK    5  A    between atoms: CA_6  and  C_13
REMARK    6  A    between atoms: CA_9  and  C_15
REMARK    7  A    between atoms: C_15  and  O_16
REMARK    8  A    between atoms: C_20  and  C_22
REMARK    9  A    between atoms: CB_28  and  CG_29
REMARK                            x       y       z     vdW  Elec       q    Type
REMARK                         _______ _______ _______ _____ _____    ______ ____
ROOT
ATOM      1  CA  PHE A   1       1.361   1.034  -0.405  0.00  0.00    +0.153 C 
ENDROOT
BRANCH   1   4
ATOM      2  O   PHE A   1      -0.384   0.371  -1.950  0.00  0.00    -0.273 OA
ATOM      3  N   PHE A   1      -0.916   1.879  -0.262  0.00  0.00    -0.295 N 
ATOM      4  C   PHE A   1      -0.049   1.051  -0.983  0.00  0.00    +0.241 C 
ATOM      5  H   PHE A   1      -0.549   2.384   0.499  0.00  0.00    +0.150 HD
BRANCH   3   6
ATOM      6  CA  PHE A   1      -2.301   2.036  -0.563  0.00  0.00    +0.176 C 
BRANCH   6  13
ATOM      7  O   PHE A   1      -2.371   0.208   0.960  0.00  0.00    -0.273 OA
ATOM      8  N   PHE A   1      -4.389   0.935   0.090  0.00  0.00    -0.270 N 
ATOM      9  CA  PHE A   1      -5.240   0.083   0.910  0.00  0.00    +0.175 C 
ATOM     10  CB  PHE A   1      -6.638   0.671   0.756  0.00  0.00    +0.033 C 
ATOM     11  CG  PHE A   1      -6.609   1.298  -0.635  0.00  0.00    +0.024 C 
ATOM     12  CD  PHE A   1      -5.186   1.823  -0.752  0.00  0.00    +0.094 C 
ATOM     13  C   PHE A   1      -3.011   0.975   0.239  0.00  0.00    +0.246 C 
BRANCH   9  15
ATOM     14  OXT PHE A   1      -4.952  -1.570  -0.831  0.00  0.00    -0.248 OA
ATOM     15  C   PHE A   1      -5.154  -1.303   0.345  0.00  0.00    +0.332 C 
BRANCH  15  16
ATOM     16  O   PHE A   1      -5.334  -2.229   1.318  0.00  0.00    -0.479 OA
ATOM     17  H   PHE A   1      -5.485  -1.956   2.202  0.00  0.00    +0.295 HD
ENDBRANCH  15  16
ENDBRANCH   9  15
ENDBRANCH   6  13
ENDBRANCH   3   6
ENDBRANCH   1   4
BRANCH   1  19
ATOM     18  O   UNK A   0       0.989  -1.127   1.448  0.00  0.00    -0.270 OA
ATOM     19  N   PHE A   1       1.862  -0.310  -0.540  0.00  0.00    -0.295 N 
ATOM     20  C   UNK A   0       1.629  -1.293   0.413  0.00  0.00    +0.246 C 
ATOM     21  H   PHE A   1       2.389  -0.541  -1.339  0.00  0.00    +0.150 HD
BRANCH  20  22
ATOM     22  C   UNK A   0       2.235  -2.621   0.139  0.00  0.00    +0.053 C 
ATOM     23  C   UNK A   0       2.546  -3.443   1.202  0.00  0.00    +0.005 C 
ATOM     24  C   UNK A   0       2.467  -2.990  -1.169  0.00  0.00    +0.005 C 
ATOM     25  C   UNK A   0       3.115  -4.691   0.945  0.00  0.00    +0.000 C 
ATOM     26  C   UNK A   0       3.036  -4.238  -1.427  0.00  0.00    +0.000 C 
ATOM     27  C   UNK A   0       3.360  -5.088  -0.369  0.00  0.00    +0.000 C 
ENDBRANCH  20  22
ENDBRANCH   1  19
BRANCH   1  28
ATOM     28  CB  PHE A   1       2.246   2.057  -1.128  0.00  0.00    +0.055 C 
BRANCH  28  29
ATOM     29  CG  PHE A   1       3.483   2.417  -0.343  0.00  0.00    -0.020 C 
ATOM     30  CD1 PHE A   1       3.439   3.480   0.546  0.00  0.00    -0.004 C 
ATOM     31  CD2 PHE A   1       4.643   1.679  -0.525  0.00  0.00    -0.004 C 
ATOM     32  CE1 PHE A   1       4.583   3.813   1.271  0.00  0.00    -0.000 C 
ATOM     33  CE2 PHE A   1       5.787   2.013   0.201  0.00  0.00    -0.000 C 
ATOM     34  CZ  PHE A   1       5.756   3.079   1.099  0.00  0.00    -0.000 C 
ENDBRANCH  28  29
ENDBRANCH   1  28
TORSDOF 9
