REMARK  Name = 130856
REMARK  8 active torsions:
REMARK  status: ('A' for Active; 'I' for Inactive)
REMARK    1  A    between atoms: S_1  and  C_3
REMARK    2  A    between atoms: S_1  and  C_13
REMARK    3  A    between atoms: C_4  and  O_9
REMARK    4  A    between atoms: C_6  and  O_11
REMARK    5  A    between atoms: C_13  and  C_14
REMARK    6  A    between atoms: C_14  and  N_15
REMARK    7  A    between atoms: C_14  and  C_20
REMARK    8  A    between atoms: C_20  and  O_21
REMARK                            x       y       z     vdW  Elec       q    Type
REMARK                         _______ _______ _______ _____ _____    ______ ____
ROOT
ATOM      1  S   UNK     1       0.959  -0.909  -0.545  0.00  0.00    -0.112 S 
ENDROOT
BRANCH   1   3
ATOM      2 BR   UNK     1      -5.268   0.621   0.338  0.00  0.00    -0.046 Br
ATOM      3  C   UNK     1      -0.766  -0.505  -0.299  0.00  0.00    +0.062 C 
ATOM      4  C   UNK     1      -1.714  -1.497  -0.048  0.00  0.00    +0.140 C 
ATOM      5  C   UNK     1      -1.154   0.833  -0.361  0.00  0.00    +0.046 C 
ATOM      6  C   UNK     1      -2.493   1.179  -0.173  0.00  0.00    +0.140 C 
ATOM      7  C   UNK     1      -3.052  -1.150   0.140  0.00  0.00    +0.047 C 
ATOM      8  C   UNK     1      -3.441   0.188   0.077  0.00  0.00    +0.071 C 
BRANCH   4   9
ATOM      9  O   UNK     1      -1.368  -2.814   0.019  0.00  0.00    -0.505 OA
ATOM     10  H   UNK     1      -0.476  -3.071  -0.103  0.00  0.00    +0.292 HD
ENDBRANCH   4   9
BRANCH   6  11
ATOM     11  O   UNK     1      -2.841   2.496  -0.240  0.00  0.00    -0.505 OA
ATOM     12  H   UNK     1      -2.187   3.145  -0.409  0.00  0.00    +0.292 HD
ENDBRANCH   6  11
ENDBRANCH   1   3
BRANCH   1  13
ATOM     13  C   UNK     1       1.739   0.021   0.813  0.00  0.00    +0.051 C 
BRANCH  13  14
ATOM     14  C   UNK     1       3.258  -0.159   0.830  0.00  0.00    +0.047 C 
BRANCH  14  15
ATOM     15  N   UNK     1       3.843   0.624   1.920  0.00  0.00    +0.389 N 
ATOM     16  H   UNK     1       3.427   0.337   2.806  0.00  0.00    -0.088 HD
ATOM     17  H   UNK     1       3.659   1.615   1.764  0.00  0.00    -0.088 HD
ATOM     18  H   UNK     1       4.850   0.466   1.950  0.00  0.00    -0.088 HD
ENDBRANCH  14  15
BRANCH  14  20
ATOM     19  O   UNK     1       3.786   1.438  -0.908  0.00  0.00    -0.253 OA
ATOM     20  C   UNK     1       3.906   0.303  -0.462  0.00  0.00    +0.294 C 
BRANCH  20  21
ATOM     21  O   UNK     1       4.604  -0.669  -1.102  0.00  0.00    -0.482 OA
ATOM     22  H   UNK     1       4.670  -1.524  -0.725  0.00  0.00    +0.295 HD
ENDBRANCH  20  21
ENDBRANCH  14  20
ENDBRANCH  13  14
ENDBRANCH   1  13
TORSDOF 8
