REMARK  Name = 130998
REMARK  7 active torsions:
REMARK  status: ('A' for Active; 'I' for Inactive)
REMARK    1  A    between atoms: C_1  and  S_17
REMARK    2  A    between atoms: C_2  and  N_8
REMARK    3  A    between atoms: C_9  and  C_11
REMARK    4  A    between atoms: S_17  and  N_20
REMARK    5  A    between atoms: N_20  and  C_22
REMARK    6  A    between atoms: C_22  and  C_24
REMARK    7  A    between atoms: C_24  and  O_25
REMARK                            x       y       z     vdW  Elec       q    Type
REMARK                         _______ _______ _______ _____ _____    ______ ____
ROOT
ATOM      1  C   UNL     1       2.034   1.171  -0.200  0.00  0.00    +0.122 C 
ATOM      2  C   UNL     1      -0.677   0.704   0.108  0.00  0.00    +0.051 C 
ATOM      3  C   UNL     1       1.361   0.349  -1.103  0.00  0.00    +0.021 C 
ATOM      4  C   UNL     1       1.342   1.758   0.859  0.00  0.00    +0.021 C 
ATOM      5  C   UNL     1      -0.005   0.114  -0.948  0.00  0.00    +0.016 C 
ATOM      6  C   UNL     1      -0.025   1.523   1.014  0.00  0.00    +0.016 C 
ENDROOT
BRANCH   2   8
ATOM      7  O   UNL     1      -2.556  -0.956  -1.536  0.00  0.00    -0.270 OA
ATOM      8  N   UNL     1      -2.064   0.466   0.265  0.00  0.00    -0.280 N 
ATOM      9  C   UNL     1      -2.910  -0.321  -0.530  0.00  0.00    +0.249 C 
ATOM     10  H   UNL     1      -2.491   0.911   1.033  0.00  0.00    +0.155 HD
BRANCH   9  11
ATOM     11  C   UNL     1      -4.308  -0.352  -0.130  0.00  0.00    +0.054 C 
ATOM     12  C   UNL     1      -5.098  -1.461  -0.438  0.00  0.00    +0.005 C 
ATOM     13  C   UNL     1      -4.859   0.726   0.562  0.00  0.00    +0.005 C 
ATOM     14  C   UNL     1      -6.438  -1.491  -0.053  0.00  0.00    +0.000 C 
ATOM     15  C   UNL     1      -6.200   0.696   0.947  0.00  0.00    +0.000 C 
ATOM     16  C   UNL     1      -6.989  -0.412   0.639  0.00  0.00    +0.000 C 
ENDBRANCH   9  11
ENDBRANCH   2   8
BRANCH   1  17
ATOM     17  S   UNL     1       3.745   1.465  -0.394  0.00  0.00    +0.061 S 
ATOM     18  O   UNL     1       4.098   1.275  -1.795  0.00  0.00    -0.153 OA
ATOM     19  O   UNL     1       4.054   2.733   0.254  0.00  0.00    -0.153 OA
BRANCH  17  20
ATOM     20  N   UNL     1       4.442   0.201   0.521  0.00  0.00    -0.168 NA
ATOM     21  H   UNL     1       4.129   0.326   1.484  0.00  0.00    +0.149 HD
BRANCH  20  22
ATOM     22  C   UNL     1       4.168  -1.199   0.164  0.00  0.00    +0.200 C 
BRANCH  22  24
ATOM     23  O   UNL     1       6.385  -1.632   1.064  0.00  0.00    -0.249 OA
ATOM     24  C   UNL     1       5.358  -2.030   0.535  0.00  0.00    +0.332 C 
BRANCH  24  25
ATOM     25  O   UNL     1       5.141  -3.326   0.195  0.00  0.00    -0.479 OA
ATOM     26  H   UNL     1       4.334  -3.576  -0.209  0.00  0.00    +0.295 HD
ENDBRANCH  24  25
ENDBRANCH  22  24
ENDBRANCH  20  22
ENDBRANCH  17  20
ENDBRANCH   1  17
TORSDOF 7
