130998
  -OEChem-03292013323D

 37 38  0     0  0  0  0  0  0999 V2000
    3.7448    1.4649   -0.3935 S   0  0  0  0  0  0  0  0  0  0  0  0
    4.0975    1.2750   -1.7947 O   0  0  0  0  0  0  0  0  0  0  0  0
    4.0538    2.7326    0.2542 O   0  0  0  0  0  0  0  0  0  0  0  0
   -2.5556   -0.9558   -1.5360 O   0  0  0  0  0  0  0  0  0  0  0  0
    5.1412   -3.3265    0.1951 O   0  0  0  0  0  0  0  0  0  0  0  0
    6.3853   -1.6316    1.0636 O   0  0  0  0  0  0  0  0  0  0  0  0
    4.4419    0.2007    0.5214 N   0  0  0  0  0  0  0  0  0  0  0  0
   -2.0644    0.4658    0.2649 N   0  0  0  0  0  0  0  0  0  0  0  0
    2.0345    1.1706   -0.1998 C   0  0  0  0  0  0  0  0  0  0  0  0
   -0.6769    0.7042    0.1080 C   0  0  0  0  0  0  0  0  0  0  0  0
    1.3613    0.3486   -1.1034 C   0  0  0  0  0  0  0  0  0  0  0  0
    1.3416    1.7578    0.8589 C   0  0  0  0  0  0  0  0  0  0  0  0
   -0.0048    0.1136   -0.9483 C   0  0  0  0  0  0  0  0  0  0  0  0
   -0.0245    1.5228    1.0138 C   0  0  0  0  0  0  0  0  0  0  0  0
    4.1678   -1.1987    0.1644 C   0  0  0  0  0  0  0  0  0  0  0  0
   -2.9100   -0.3207   -0.5298 C   0  0  0  0  0  0  0  0  0  0  0  0
   -4.3082   -0.3523   -0.1304 C   0  0  0  0  0  0  0  0  0  0  0  0
   -5.0975   -1.4606   -0.4377 C   0  0  0  0  0  0  0  0  0  0  0  0
   -4.8593    0.7260    0.5616 C   0  0  0  0  0  0  0  0  0  0  0  0
    5.3582   -2.0295    0.5346 C   0  0  0  0  0  0  0  0  0  0  0  0
   -6.4378   -1.4906   -0.0527 C   0  0  0  0  0  0  0  0  0  0  0  0
   -6.1997    0.6960    0.9465 C   0  0  0  0  0  0  0  0  0  0  0  0
   -6.9890   -0.4123    0.6394 C   0  0  0  0  0  0  0  0  0  0  0  0
    1.8823   -0.1209   -1.9331 H   0  0  0  0  0  0  0  0  0  0  0  0
    1.8465    2.3955    1.5789 H   0  0  0  0  0  0  0  0  0  0  0  0
   -0.4528   -0.5336   -1.6871 H   0  0  0  0  0  0  0  0  0  0  0  0
   -0.5544    1.9838    1.8427 H   0  0  0  0  0  0  0  0  0  0  0  0
    4.6484    0.3793    1.5123 H   0  0  0  0  0  0  0  0  0  0  0  0
    4.0028   -1.2990   -0.9118 H   0  0  0  0  0  0  0  0  0  0  0  0
    3.2982   -1.5503    0.7263 H   0  0  0  0  0  0  0  0  0  0  0  0
   -2.4573    0.9082    1.0912 H   0  0  0  0  0  0  0  0  0  0  0  0
   -4.6865   -2.3136   -0.9715 H   0  0  0  0  0  0  0  0  0  0  0  0
   -4.2967    1.6264    0.7894 H   0  0  0  0  0  0  0  0  0  0  0  0
   -7.0523   -2.3538   -0.2910 H   0  0  0  0  0  0  0  0  0  0  0  0
   -6.6319    1.5391    1.4776 H   0  0  0  0  0  0  0  0  0  0  0  0
   -8.0331   -0.4349    0.9375 H   0  0  0  0  0  0  0  0  0  0  0  0
    5.9049   -3.8975    0.4256 H   0  0  0  0  0  0  0  0  0  0  0  0
  1  2  2  0  0  0  0
  1  3  2  0  0  0  0
  1  7  1  0  0  0  0
  1  9  1  0  0  0  0
  4 16  2  0  0  0  0
  5 20  1  0  0  0  0
  5 37  1  0  0  0  0
  6 20  2  0  0  0  0
  7 15  1  0  0  0  0
  7 28  1  0  0  0  0
  8 10  1  0  0  0  0
  8 16  1  0  0  0  0
  8 31  1  0  0  0  0
  9 11  2  0  0  0  0
  9 12  1  0  0  0  0
 10 13  2  0  0  0  0
 10 14  1  0  0  0  0
 11 13  1  0  0  0  0
 11 24  1  0  0  0  0
 12 14  2  0  0  0  0
 12 25  1  0  0  0  0
 13 26  1  0  0  0  0
 14 27  1  0  0  0  0
 15 20  1  0  0  0  0
 15 29  1  0  0  0  0
 15 30  1  0  0  0  0
 16 17  1  0  0  0  0
 17 18  2  0  0  0  0
 17 19  1  0  0  0  0
 18 21  1  0  0  0  0
 18 32  1  0  0  0  0
 19 22  2  0  0  0  0
 19 33  1  0  0  0  0
 21 23  2  0  0  0  0
 21 34  1  0  0  0  0
 22 23  1  0  0  0  0
 22 35  1  0  0  0  0
 23 36  1  0  0  0  0
M  END
> <PUBCHEM_COMPOUND_CID>
130998

> <PUBCHEM_CONFORMER_RMSD>
0.8

> <PUBCHEM_CONFORMER_DIVERSEORDER>
1
8
15
20
12
4
21
7
13
9
6
14
19
17
16
3
11
10
5
18
2

> <PUBCHEM_MMFF94_PARTIAL_CHARGES>
35
1 1.45
10 0.12
11 -0.15
12 -0.15
13 -0.15
14 -0.15
15 0.42
16 0.54
17 0.09
18 -0.15
19 -0.15
2 -0.65
20 0.66
21 -0.15
22 -0.15
23 -0.15
24 0.15
25 0.15
26 0.15
27 0.15
28 0.42
3 -0.65
31 0.37
32 0.15
33 0.15
34 0.15
35 0.15
36 0.15
37 0.5
4 -0.57
5 -0.65
6 -0.57
7 -0.91
8 -0.55
9 -0.01

> <PUBCHEM_EFFECTIVE_ROTOR_COUNT>
7

> <PUBCHEM_PHARMACOPHORE_FEATURES>
10
1 2 acceptor
1 3 acceptor
1 4 acceptor
1 5 acceptor
1 6 acceptor
1 7 donor
1 8 donor
3 5 6 20 anion
6 17 18 19 21 22 23 rings
6 9 10 11 12 13 14 rings

> <PUBCHEM_HEAVY_ATOM_COUNT>
23

> <PUBCHEM_ATOM_DEF_STEREO_COUNT>
0

> <PUBCHEM_ATOM_UDEF_STEREO_COUNT>
0

> <PUBCHEM_BOND_DEF_STEREO_COUNT>
0

> <PUBCHEM_BOND_UDEF_STEREO_COUNT>
0

> <PUBCHEM_ISOTOPIC_ATOM_COUNT>
0

> <PUBCHEM_COMPONENT_COUNT>
1

> <PUBCHEM_CACTVS_TAUTO_COUNT>
2

> <PUBCHEM_CONFORMER_ID>
0001FFB600000001

> <PUBCHEM_MMFF94_ENERGY>
49.4304

> <PUBCHEM_FEATURE_SELFOVERLAP>
50.823

> <PUBCHEM_SHAPE_FINGERPRINT>
10 15 16845568746758703945
10554248 39 18413100663468531189
11719270 70 17632581535207359143
12107183 9 18198066880874951561
12236239 1 18410858785203203185
12616971 3 18131062749114030575
12633257 1 15410309119397673418
13073987 5 18341895225148944961
13533116 47 18408042918470156680
13668630 136 16805605919618202979
13685833 64 18187363208145360634
13782708 43 18187085070474530355
13785724 45 17985277283181488278
13955234 65 18337948000223009024
14211702 104 18042133214290671555
14251764 18 18272650177290569820
14347332 77 18261109625851937557
15183329 4 18131641092863444233
15250474 111 18058999717859262783
15475509 35 18342449344760356298
17844677 252 16805317803899483349
1979834 28 16916792851075178310
20028762 73 18341892961686011550
20567600 234 13183011930262612587
20645477 70 18040713671705823512
21267235 1 18341895148424965854
21344244 181 17530971288796588651
21344244 78 18200864120472109168
21641784 216 13623520230345161895
220451 1 18338243759901782229
22061861 79 17894905235380580839
2303208 19 17167581600931833179
23081809 10 18342740754128037717
23522609 53 18195840494478357905
23536379 177 18408887352064329633
23559900 14 16660656188530070740
23569943 247 17823130130048132643
270888 7 10159107568954739634
29717793 49 17458341957391496901
3004659 81 18130237020482856860
3014965 18 18409726257839887613
33382 64 18261108552336680946
3411729 13 16915648392973553952
34797466 226 16515688887337399029
3680242 22 18273220789302396155
3886686 26 16907232378375618234
4072396 5 17418094308239013260
4073 2 18122064466216715977
4325135 7 7925916971729594753
4340502 62 18188765175802251376
46194498 28 17095524007025833270
465052 167 18341896281784518854
5104073 3 17774726480266701995
6025842 7 18114467855425480300

> <PUBCHEM_SHAPE_MULTIPOLES>
437.87
17.98
2.4
1.14
10.95
0.97
-0.25
9.24
3.99
-4.62
0.43
-0.4
-0.11
-1.8

> <PUBCHEM_SHAPE_SELFOVERLAP>
917.72

> <PUBCHEM_SHAPE_VOLUME>
245.4

> <PUBCHEM_COORDINATE_TYPE>
2
5
10

$$$$
