REMARK  Name = 130968
REMARK  16 active torsions:
REMARK  status: ('A' for Active; 'I' for Inactive)
REMARK    1  A    between atoms: N_2  and  C_6
REMARK    2  A    between atoms: C_3  and  C_24
REMARK    3  A    between atoms: C_5  and  C_17
REMARK    4  A    between atoms: C_8  and  O_11
REMARK    5  A    between atoms: O_11  and  C_12
REMARK    6  A    between atoms: C_12  and  C_14
REMARK    7  A    between atoms: C_14  and  O_15
REMARK    8  A    between atoms: C_17  and  C_18
REMARK    9  A    between atoms: C_18  and  C_20
REMARK   10  A    between atoms: C_20  and  O_21
REMARK   11  A    between atoms: C_23  and  O_29
REMARK   12  A    between atoms: O_29  and  C_30
REMARK   13  A    between atoms: C_30  and  C_31
REMARK   14  A    between atoms: C_31  and  C_32
REMARK   15  A    between atoms: C_32  and  C_33
REMARK   16  A    between atoms: C_33  and  C_34
REMARK                            x       y       z     vdW  Elec       q    Type
REMARK                         _______ _______ _______ _____ _____    ______ ____
ROOT
ATOM      1  O   UNL     1       2.350   1.550   1.286  0.00  0.00    -0.270 OA
ATOM      2  N   UNL     1       2.668  -0.488   0.167  0.00  0.00    -0.278 N 
ATOM      3  C   UNL     1       1.912   0.471   0.855  0.00  0.00    +0.250 C 
ATOM      4  H   UNL     1       2.181  -1.296  -0.114  0.00  0.00    +0.155 HD
ENDROOT
BRANCH   2   6
ATOM      5  C   UNL     1       6.157   0.721  -0.149  0.00  0.00    -0.020 C 
ATOM      6  C   UNL     1       4.042  -0.446  -0.178  0.00  0.00    +0.085 C 
ATOM      7  C   UNL     1       4.803   0.665   0.184  0.00  0.00    +0.014 C 
ATOM      8  C   UNL     1       4.634  -1.502  -0.872  0.00  0.00    +0.153 C 
ATOM      9  C   UNL     1       6.749  -0.335  -0.842  0.00  0.00    -0.001 C 
ATOM     10  C   UNL     1       5.987  -1.446  -1.204  0.00  0.00    +0.038 C 
BRANCH   8  11
ATOM     11  O   UNL     1       3.907  -2.596  -1.234  0.00  0.00    -0.463 OA
BRANCH  11  12
ATOM     12  C   UNL     1       4.334  -3.856  -0.720  0.00  0.00    +0.314 C 
BRANCH  12  14
ATOM     13  O   UNL     1       1.991  -4.492  -0.837  0.00  0.00    -0.246 OA
ATOM     14  C   UNL     1       3.152  -4.775  -0.579  0.00  0.00    +0.359 C 
BRANCH  14  15
ATOM     15  O   UNL     1       3.553  -5.987  -0.118  0.00  0.00    -0.478 OA
ATOM     16  H   UNL     1       4.459  -6.143   0.062  0.00  0.00    +0.295 HD
ENDBRANCH  14  15
ENDBRANCH  12  14
ENDBRANCH  11  12
ENDBRANCH   8  11
BRANCH   5  17
ATOM     17  C   UNL     1       6.971   1.909   0.238  0.00  0.00    +0.038 C 
BRANCH  17  18
ATOM     18  C   UNL     1       6.983   3.019  -0.820  0.00  0.00    +0.114 C 
BRANCH  18  20
ATOM     19  O   UNL     1       8.470   4.221   0.656  0.00  0.00    -0.250 OA
ATOM     20  C   UNL     1       7.848   4.182  -0.398  0.00  0.00    +0.314 C 
BRANCH  20  21
ATOM     21  O   UNL     1       7.844   5.197  -1.297  0.00  0.00    -0.480 OA
ATOM     22  H   UNL     1       7.351   5.117  -2.090  0.00  0.00    +0.295 HD
ENDBRANCH  20  21
ENDBRANCH  18  20
ENDBRANCH  17  18
ENDBRANCH   5  17
ENDBRANCH   2   6
BRANCH   3  24
ATOM     23  C   UNL     1      -2.160  -0.517   1.529  0.00  0.00    +0.139 C 
ATOM     24  C   UNL     1       0.516   0.132   1.087  0.00  0.00    +0.054 C 
ATOM     25  C   UNL     1      -1.772   0.820   1.446  0.00  0.00    +0.037 C 
ATOM     26  C   UNL     1      -1.211  -1.530   1.391  0.00  0.00    +0.037 C 
ATOM     27  C   UNL     1      -0.433   1.144   1.224  0.00  0.00    +0.008 C 
ATOM     28  C   UNL     1       0.128  -1.205   1.170  0.00  0.00    +0.008 C 
BRANCH  23  29
ATOM     29  O   UNL     1      -3.476  -0.837   1.745  0.00  0.00    -0.475 OA
BRANCH  29  30
ATOM     30  C   UNL     1      -4.446   0.072   1.243  0.00  0.00    +0.205 C 
BRANCH  30  31
ATOM     31  C   UNL     1      -5.715  -0.699   0.908  0.00  0.00    +0.048 C 
BRANCH  31  32
ATOM     32  C   UNL     1      -6.800   0.218   0.346  0.00  0.00    +0.009 C 
BRANCH  32  33
ATOM     33  C   UNL     1      -8.056  -0.573  -0.028  0.00  0.00    +0.026 C 
BRANCH  33  34
ATOM     34  C   UNL     1      -9.146   0.327  -0.550  0.00  0.00    -0.022 C 
ATOM     35  C   UNL     1     -10.073   0.883   0.331  0.00  0.00    -0.004 C 
ATOM     36  C   UNL     1      -9.228   0.604  -1.915  0.00  0.00    -0.004 C 
ATOM     37  C   UNL     1     -11.082   1.716  -0.152  0.00  0.00    -0.000 C 
ATOM     38  C   UNL     1     -10.237   1.437  -2.398  0.00  0.00    -0.000 C 
ATOM     39  C   UNL     1     -11.164   1.993  -1.517  0.00  0.00    -0.000 C 
ENDBRANCH  33  34
ENDBRANCH  32  33
ENDBRANCH  31  32
ENDBRANCH  30  31
ENDBRANCH  29  30
ENDBRANCH  23  29
ENDBRANCH   3  24
TORSDOF 16
