130996
  -OEChem-03292013323D

 64 66  0     1  0  0  0  0  0999 V2000
   -3.1457    1.7135   -0.7408 S   0  0  0  0  0  0  0  0  0  0  0  0
   -0.0866   -1.1984    3.3320 O   0  0  0  0  0  0  0  0  0  0  0  0
    4.2537   -1.3084    2.3203 O   0  0  0  0  0  0  0  0  0  0  0  0
    0.7973   -1.8754    1.3200 O   0  0  0  0  0  0  0  0  0  0  0  0
   -4.9131    0.0252    1.9031 O   0  5  0  0  0  0  0  0  0  0  0  0
   -6.2619    0.1593    0.1763 O   0  0  0  0  0  0  0  0  0  0  0  0
    2.6998    0.1145    1.3459 N   0  0  0  0  0  0  0  0  0  0  0  0
   -1.5797    1.9107   -0.1019 N   0  0  0  0  0  0  0  0  0  0  0  0
    6.1376   -0.4651    0.5086 N   0  0  0  0  0  0  0  0  0  0  0  0
    1.1861   -2.8861   -4.4805 N   0  0  0  0  0  0  0  0  0  0  0  0
   -5.1712   -0.1753    0.6937 N   0  3  0  0  0  0  0  0  0  0  0  0
    0.9599    1.4082    2.5131 C   0  0  0  0  0  0  0  0  0  0  0  0
    1.7187    0.0769    2.4065 C   0  0  1  0  0  0  0  0  0  0  0  0
    0.1287    1.7567    1.3069 C   0  0  0  0  0  0  0  0  0  0  0  0
    4.7289   -0.3847    0.1279 C   0  0  1  0  0  0  0  0  0  0  0  0
    4.3457   -1.4479   -0.9123 C   0  0  0  0  0  0  0  0  0  0  0  0
    0.5552    2.4983    0.1700 C   0  0  0  0  0  0  0  0  0  0  0  0
    3.0768   -1.1006   -1.6978 C   0  0  0  0  0  0  0  0  0  0  0  0
   -0.5353    2.5805   -0.6985 C   0  0  0  0  0  0  0  0  0  0  0  0
   -1.1881    1.4095    1.1105 C   0  0  0  0  0  0  0  0  0  0  0  0
    3.8964   -0.5873    1.3908 C   0  0  0  0  0  0  0  0  0  0  0  0
    2.7630   -2.1724   -2.7453 C   0  0  0  0  0  0  0  0  0  0  0  0
    0.7738   -1.1110    2.2792 C   0  0  0  0  0  0  0  0  0  0  0  0
    1.7682    3.1095   -0.2049 C   0  0  0  0  0  0  0  0  0  0  0  0
   -0.4732    3.2460   -1.9281 C   0  0  0  0  0  0  0  0  0  0  0  0
    1.4775   -1.8442   -3.5031 C   0  0  0  0  0  0  0  0  0  0  0  0
    1.8450    3.7786   -1.4318 C   0  0  0  0  0  0  0  0  0  0  0  0
    0.7403    3.8446   -2.2786 C   0  0  0  0  0  0  0  0  0  0  0  0
   -3.2260   -0.0741   -0.8173 C   0  0  0  0  0  0  0  0  0  0  0  0
   -4.1891   -0.8061   -0.1224 C   0  0  0  0  0  0  0  0  0  0  0  0
   -1.0230   -2.2797    3.2809 C   0  0  0  0  0  0  0  0  0  0  0  0
   -2.2829   -0.7341   -1.6051 C   0  0  0  0  0  0  0  0  0  0  0  0
   -4.2087   -2.1977   -0.2155 C   0  0  0  0  0  0  0  0  0  0  0  0
   -2.3028   -2.1257   -1.6983 C   0  0  0  0  0  0  0  0  0  0  0  0
   -3.2656   -2.8575   -1.0034 C   0  0  0  0  0  0  0  0  0  0  0  0
    0.3031    1.3904    3.3928 H   0  0  0  0  0  0  0  0  0  0  0  0
    1.6780    2.2190    2.6933 H   0  0  0  0  0  0  0  0  0  0  0  0
    2.2701   -0.0802    3.3429 H   0  0  0  0  0  0  0  0  0  0  0  0
    4.5517    0.6189   -0.2768 H   0  0  0  0  0  0  0  0  0  0  0  0
    5.1650   -1.5544   -1.6359 H   0  0  0  0  0  0  0  0  0  0  0  0
    4.2246   -2.4271   -0.4307 H   0  0  0  0  0  0  0  0  0  0  0  0
    2.2221   -1.0177   -1.0197 H   0  0  0  0  0  0  0  0  0  0  0  0
    3.1995   -0.1282   -2.1896 H   0  0  0  0  0  0  0  0  0  0  0  0
    2.4633    0.6078    0.4923 H   0  0  0  0  0  0  0  0  0  0  0  0
   -1.8676    0.8532    1.7438 H   0  0  0  0  0  0  0  0  0  0  0  0
    2.6618   -3.1469   -2.2509 H   0  0  0  0  0  0  0  0  0  0  0  0
    3.6011   -2.2523   -3.4490 H   0  0  0  0  0  0  0  0  0  0  0  0
    2.6393    3.0720    0.4431 H   0  0  0  0  0  0  0  0  0  0  0  0
   -1.3253    3.3039   -2.5966 H   0  0  0  0  0  0  0  0  0  0  0  0
    0.6416   -1.7641   -2.8026 H   0  0  0  0  0  0  0  0  0  0  0  0
    1.5754   -0.8811   -4.0161 H   0  0  0  0  0  0  0  0  0  0  0  0
    6.3668    0.3041    1.1373 H   0  0  0  0  0  0  0  0  0  0  0  0
    6.7224   -0.3404   -0.3168 H   0  0  0  0  0  0  0  0  0  0  0  0
    2.7779    4.2521   -1.7259 H   0  0  0  0  0  0  0  0  0  0  0  0
    0.8224    4.3692   -3.2270 H   0  0  0  0  0  0  0  0  0  0  0  0
    0.3537   -2.6295   -5.0095 H   0  0  0  0  0  0  0  0  0  0  0  0
    1.9470   -2.9460   -5.1559 H   0  0  0  0  0  0  0  0  0  0  0  0
   -1.6442   -2.2342    4.1794 H   0  0  0  0  0  0  0  0  0  0  0  0
   -0.4954   -3.2381    3.2662 H   0  0  0  0  0  0  0  0  0  0  0  0
   -1.6684   -2.1791    2.4028 H   0  0  0  0  0  0  0  0  0  0  0  0
   -1.5261   -0.1891   -2.1641 H   0  0  0  0  0  0  0  0  0  0  0  0
   -4.9525   -2.7830    0.3200 H   0  0  0  0  0  0  0  0  0  0  0  0
   -1.5736   -2.6422   -2.3147 H   0  0  0  0  0  0  0  0  0  0  0  0
   -3.2814   -3.9409   -1.0768 H   0  0  0  0  0  0  0  0  0  0  0  0
  1  8  1  0  0  0  0
  1 29  1  0  0  0  0
  2 23  1  0  0  0  0
  2 31  1  0  0  0  0
  3 21  2  0  0  0  0
  4 23  2  0  0  0  0
  5 11  1  0  0  0  0
  6 11  2  0  0  0  0
  7 13  1  0  0  0  0
  7 21  1  0  0  0  0
  7 44  1  0  0  0  0
  8 19  1  0  0  0  0
  8 20  1  0  0  0  0
  9 15  1  0  0  0  0
  9 52  1  0  0  0  0
  9 53  1  0  0  0  0
 10 26  1  0  0  0  0
 10 56  1  0  0  0  0
 10 57  1  0  0  0  0
 11 30  1  0  0  0  0
 12 13  1  0  0  0  0
 12 14  1  0  0  0  0
 12 36  1  0  0  0  0
 12 37  1  0  0  0  0
 13 23  1  0  0  0  0
 13 38  1  0  0  0  0
 14 17  1  0  0  0  0
 14 20  2  0  0  0  0
 15 16  1  0  0  0  0
 15 21  1  0  0  0  0
 15 39  1  0  0  0  0
 16 18  1  0  0  0  0
 16 40  1  0  0  0  0
 16 41  1  0  0  0  0
 17 19  1  0  0  0  0
 17 24  2  0  0  0  0
 18 22  1  0  0  0  0
 18 42  1  0  0  0  0
 18 43  1  0  0  0  0
 19 25  2  0  0  0  0
 20 45  1  0  0  0  0
 22 26  1  0  0  0  0
 22 46  1  0  0  0  0
 22 47  1  0  0  0  0
 24 27  1  0  0  0  0
 24 48  1  0  0  0  0
 25 28  1  0  0  0  0
 25 49  1  0  0  0  0
 26 50  1  0  0  0  0
 26 51  1  0  0  0  0
 27 28  2  0  0  0  0
 27 54  1  0  0  0  0
 28 55  1  0  0  0  0
 29 30  1  0  0  0  0
 29 32  2  0  0  0  0
 30 33  2  0  0  0  0
 31 58  1  0  0  0  0
 31 59  1  0  0  0  0
 31 60  1  0  0  0  0
 32 34  1  0  0  0  0
 32 61  1  0  0  0  0
 33 35  1  0  0  0  0
 33 62  1  0  0  0  0
 34 35  2  0  0  0  0
 34 63  1  0  0  0  0
 35 64  1  0  0  0  0
M  CHG  2   5  -1  11   1
M  END
> <PUBCHEM_COMPOUND_CID>
130996

> <PUBCHEM_CONFORMER_RMSD>
1.2

> <PUBCHEM_CONFORMER_DIVERSEORDER>
2
48
288
34
126
19
296
164
282
106
222
66
121
122
67
219
201
223
146
84
212
297
246
249
35
127
149
61
153
60
52
202
119
47
56
193
65
88
171
217
73
267
235
142
128
253
224
206
174
91
58
98
265
81
136
254
45
103
294
100
218
135
154
221
39
208
101
109
198
83
286
251
295
140
261
151
125
133
161
247
283
105
10
234
185
216
152
78
304
269
112
32
68
93
207
120
179
260
274
62
38
72
29
43
292
225
50
293
97
237
59
51
291
74
263
138
5
9
172
169
255
245
86
194
167
64
77
276
178
226
150
170
158
240
21
79
299
102
55
252
190
137
285
183
114
231
257
69
104
49
232
116
18
189
123
229
129
87
199
238
281
12
188
42
272
41
107
298
233
30
305
203
264
16
214
250
82
147
40
184
111
290
176
143
210
131
130
7
160
1
302
134
306
287
132
243
53
20
175
266
230
156
244
301
273
96
23
258
85
33
117
8
278
70
44
90
173
262
27
241
71
46
31
181
92
187
200
259
303
118
94
191
177
227
36
186
180
248
271
108
139
22
284
168
76
17
89
63
163
75
14
289
157
209
25
124
211
256
239
3
236
155
195
80
99
309
275
204
115
192
268
215
148
145
197
300
4
308
182
279
15
196
57
228
166
24
213
141
13
280
165
26
162
144
242
37
220
159
110
277
307
113
11
205
28
54
6
270
95

> <PUBCHEM_MMFF94_PARTIAL_CHARGES>
45
1 -0.23
10 -0.99
11 0.91
12 0.18
13 0.36
14 -0.18
15 0.33
19 -0.15
2 -0.43
20 -0.3
21 0.57
23 0.66
24 -0.15
25 -0.15
26 0.27
27 -0.15
28 -0.15
29 0.1
3 -0.57
30 0.13
31 0.28
32 -0.15
33 -0.15
34 -0.15
35 -0.15
4 -0.57
44 0.37
45 0.15
48 0.15
49 0.15
5 -0.52
52 0.36
53 0.36
54 0.15
55 0.15
56 0.36
57 0.36
6 -0.52
61 0.15
62 0.15
63 0.15
64 0.15
7 -0.73
8 0.44
9 -0.99

> <PUBCHEM_EFFECTIVE_ROTOR_COUNT>
14

> <PUBCHEM_PHARMACOPHORE_FEATURES>
13
1 10 cation
1 10 donor
1 3 acceptor
1 4 acceptor
1 5 acceptor
1 5 anion
1 6 acceptor
1 7 donor
1 9 cation
1 9 donor
5 8 14 17 19 20 rings
6 17 19 24 25 27 28 rings
6 29 30 32 33 34 35 rings

> <PUBCHEM_HEAVY_ATOM_COUNT>
35

> <PUBCHEM_ATOM_DEF_STEREO_COUNT>
2

> <PUBCHEM_ATOM_UDEF_STEREO_COUNT>
0

> <PUBCHEM_BOND_DEF_STEREO_COUNT>
0

> <PUBCHEM_BOND_UDEF_STEREO_COUNT>
0

> <PUBCHEM_ISOTOPIC_ATOM_COUNT>
0

> <PUBCHEM_COMPONENT_COUNT>
1

> <PUBCHEM_CACTVS_TAUTO_COUNT>
2

> <PUBCHEM_CONFORMER_ID>
0001FFB400000002

> <PUBCHEM_MMFF94_ENERGY>
64.8504

> <PUBCHEM_FEATURE_SELFOVERLAP>
66.144

> <PUBCHEM_SHAPE_FINGERPRINT>
11421498 54 17531798048341166818
11513181 2 17468495045542678651
12128747 34 16916509121472524625
12156800 1 17974020457176382325
12422481 6 18273210906730022900
12553582 1 17824513380210750601
13149001 5 17749678518289863776
17974551 9 15623098854245487558
1813 80 18408037411926730005
20764821 26 17606687091100399946
35225 105 17118820347631107678
469060 322 17551276940831839095
6669772 16 17605844848394040220

> <PUBCHEM_SHAPE_MULTIPOLES>
669.88
9.36
4.39
3.93
3.15
3.52
1.04
-5.24
-1.04
-0.69
3.06
-2.27
-3.16
0.22

> <PUBCHEM_SHAPE_SELFOVERLAP>
1396.744

> <PUBCHEM_SHAPE_VOLUME>
382.7

> <PUBCHEM_COORDINATE_TYPE>
2
5
10

$$$$
