130935
  -OEChem-03292013323D

 32 33  0     0  0  0  0  0  0999 V2000
   -0.3152   -2.2934   -1.2966 O   0  0  0  0  0  0  0  0  0  0  0  0
    1.3899    0.4572   -2.2106 O   0  0  0  0  0  0  0  0  0  0  0  0
    0.5803   -0.5850    1.6318 O   0  0  0  0  0  0  0  0  0  0  0  0
    3.8002    0.3765   -1.7963 O   0  0  0  0  0  0  0  0  0  0  0  0
   -4.8890   -1.6048    0.2053 O   0  0  0  0  0  0  0  0  0  0  0  0
   -0.9550    3.4209    0.4069 O   0  0  0  0  0  0  0  0  0  0  0  0
   -5.1191    0.5626    0.8505 O   0  0  0  0  0  0  0  0  0  0  0  0
   -0.3239    0.0261   -0.6784 C   0  0  0  0  0  0  0  0  0  0  0  0
   -1.0179    1.1309   -0.1848 C   0  0  0  0  0  0  0  0  0  0  0  0
    2.1875   -0.1039   -0.0846 C   0  0  0  0  0  0  0  0  0  0  0  0
    1.0816    0.1435   -1.0541 C   0  0  0  0  0  0  0  0  0  0  0  0
   -0.9733   -1.2005   -0.8168 C   0  0  0  0  0  0  0  0  0  0  0  0
   -2.3613    1.0089    0.1703 C   0  0  0  0  0  0  0  0  0  0  0  0
   -3.0107   -0.2177    0.0318 C   0  0  0  0  0  0  0  0  0  0  0  0
   -2.3166   -1.3224   -0.4616 C   0  0  0  0  0  0  0  0  0  0  0  0
    1.8703   -0.4552    1.2103 C   0  0  0  0  0  0  0  0  0  0  0  0
    3.4907    0.0271   -0.5156 C   0  0  0  0  0  0  0  0  0  0  0  0
    2.9048   -0.6865    2.1170 C   0  0  0  0  0  0  0  0  0  0  0  0
    4.5251   -0.2042    0.3911 C   0  0  0  0  0  0  0  0  0  0  0  0
    4.2323   -0.5611    1.7074 C   0  0  0  0  0  0  0  0  0  0  0  0
   -0.3697    2.4265   -0.0265 C   0  0  0  0  0  0  0  0  0  0  0  0
   -4.4109   -0.3457    0.4034 C   0  0  0  0  0  0  0  0  0  0  0  0
   -2.9076    1.8664    0.5563 H   0  0  0  0  0  0  0  0  0  0  0  0
   -2.7969   -2.2903   -0.5795 H   0  0  0  0  0  0  0  0  0  0  0  0
    2.6915   -0.9654    3.1455 H   0  0  0  0  0  0  0  0  0  0  0  0
    5.5640   -0.1098    0.0863 H   0  0  0  0  0  0  0  0  0  0  0  0
    5.0378   -0.7412    2.4133 H   0  0  0  0  0  0  0  0  0  0  0  0
    0.6896    2.5144   -0.3133 H   0  0  0  0  0  0  0  0  0  0  0  0
   -0.9252   -3.0504   -1.3199 H   0  0  0  0  0  0  0  0  0  0  0  0
    0.5759   -0.8363    2.5712 H   0  0  0  0  0  0  0  0  0  0  0  0
    4.7674    0.4136   -1.8911 H   0  0  0  0  0  0  0  0  0  0  0  0
   -5.8338   -1.6803    0.4584 H   0  0  0  0  0  0  0  0  0  0  0  0
  1 12  1  0  0  0  0
  1 29  1  0  0  0  0
  2 11  2  0  0  0  0
  3 16  1  0  0  0  0
  3 30  1  0  0  0  0
  4 17  1  0  0  0  0
  4 31  1  0  0  0  0
  5 22  1  0  0  0  0
  5 32  1  0  0  0  0
  6 21  2  0  0  0  0
  7 22  2  0  0  0  0
  8  9  2  0  0  0  0
  8 11  1  0  0  0  0
  8 12  1  0  0  0  0
  9 13  1  0  0  0  0
  9 21  1  0  0  0  0
 10 11  1  0  0  0  0
 10 16  2  0  0  0  0
 10 17  1  0  0  0  0
 12 15  2  0  0  0  0
 13 14  2  0  0  0  0
 13 23  1  0  0  0  0
 14 15  1  0  0  0  0
 14 22  1  0  0  0  0
 15 24  1  0  0  0  0
 16 18  1  0  0  0  0
 17 19  2  0  0  0  0
 18 20  2  0  0  0  0
 18 25  1  0  0  0  0
 19 20  1  0  0  0  0
 19 26  1  0  0  0  0
 20 27  1  0  0  0  0
 21 28  1  0  0  0  0
M  END
> <PUBCHEM_COMPOUND_CID>
130935

> <PUBCHEM_CONFORMER_RMSD>
0.6

> <PUBCHEM_CONFORMER_DIVERSEORDER>
1
8
13
19
22
23
11
20
9
15
4
17
18
16
21
12
24
10
14
7
3
6
2
5

> <PUBCHEM_MMFF94_PARTIAL_CHARGES>
32
1 -0.53
10 0.09
11 0.4
12 0.08
13 -0.15
14 0.09
15 -0.15
16 0.08
17 0.08
18 -0.15
19 -0.15
2 -0.57
20 -0.15
21 0.42
22 0.63
23 0.15
24 0.15
25 0.15
26 0.15
27 0.15
28 0.06
29 0.45
3 -0.53
30 0.45
31 0.45
32 0.5
4 -0.53
5 -0.65
6 -0.57
7 -0.57
8 0.09
9 0.09

> <PUBCHEM_EFFECTIVE_ROTOR_COUNT>
4

> <PUBCHEM_PHARMACOPHORE_FEATURES>
10
1 1 donor
1 2 acceptor
1 3 donor
1 4 donor
1 5 acceptor
1 6 acceptor
1 7 acceptor
3 5 7 22 anion
6 10 16 17 18 19 20 rings
6 8 9 12 13 14 15 rings

> <PUBCHEM_HEAVY_ATOM_COUNT>
22

> <PUBCHEM_ATOM_DEF_STEREO_COUNT>
0

> <PUBCHEM_ATOM_UDEF_STEREO_COUNT>
0

> <PUBCHEM_BOND_DEF_STEREO_COUNT>
0

> <PUBCHEM_BOND_UDEF_STEREO_COUNT>
0

> <PUBCHEM_ISOTOPIC_ATOM_COUNT>
0

> <PUBCHEM_COMPONENT_COUNT>
1

> <PUBCHEM_CACTVS_TAUTO_COUNT>
33

> <PUBCHEM_CONFORMER_ID>
0001FF7700000001

> <PUBCHEM_MMFF94_ENERGY>
80.9684

> <PUBCHEM_FEATURE_SELFOVERLAP>
50.805

> <PUBCHEM_SHAPE_FINGERPRINT>
11132069 177 17703783734636098365
12236239 1 18113057138424127406
12553582 1 18411410743623196623
12633257 1 17631711855706022298
12788726 201 18334586710797052521
13009979 54 17897713272509215688
13140716 1 18198899391011519675
13581323 91 18411131420704584990
14341114 328 18113904844661833499
14787075 74 18041281066359812600
15342168 16 15697421356310856160
15375462 189 18113332033173336921
15375462 478 18187076226598420811
1601671 61 18342466906971182929
16945 1 18271511036205217108
18222031 100 18271801371936881759
200 152 17022899034290120456
20028762 73 17915180350600180887
20600515 1 18130226059626064245
20645477 70 15574715790057924554
21033648 29 17203328901662975771
21267235 1 17022904510859012202
21486144 27 16415186902024926930
22112679 90 18338786939751656870
23366157 5 17901947779271625221
23402539 116 18131625690846756279
23419403 2 16334913851656997045
23557571 272 18130235851951130173
23559900 14 18127702521494542734
23598288 3 18118377589001588562
3286 77 15936404520691778958
3323516 105 15140955162464869819
33382 64 16515980241297988473
350125 39 17912656704244532502
4072396 5 18410290277493366687
465052 167 18261681484253404403
474 4 17533509090820260684
5104073 3 18053961803822069291
77492 1 18040715857506580180
90316 7 18340476803287772265

> <PUBCHEM_SHAPE_MULTIPOLES>
411.66
8.52
1.95
1.65
2.78
1.43
0.09
-2.32
-2.59
1.35
-0.09
-1.64
-0.28
-1.04

> <PUBCHEM_SHAPE_SELFOVERLAP>
913.282

> <PUBCHEM_SHAPE_VOLUME>
218.1

> <PUBCHEM_COORDINATE_TYPE>
2
5
10

$$$$
