REMARK  Name = 130996
REMARK  15 active torsions:
REMARK  status: ('A' for Active; 'I' for Inactive)
REMARK    1  A    between atoms: C_1  and  N_3
REMARK    2  A    between atoms: C_1  and  C_20
REMARK    3  A    between atoms: C_1  and  C_23
REMARK    4  A    between atoms: C_4  and  C_6
REMARK    5  A    between atoms: C_6  and  N_7
REMARK    6  A    between atoms: C_6  and  C_11
REMARK    7  A    between atoms: C_11  and  C_12
REMARK    8  A    between atoms: C_12  and  C_13
REMARK    9  A    between atoms: C_13  and  C_14
REMARK   10  A    between atoms: C_14  and  N_15
REMARK   11  A    between atoms: C_20  and  O_21
REMARK   12  A    between atoms: C_23  and  C_25
REMARK   13  A    between atoms: N_24  and  S_33
REMARK   14  A    between atoms: S_33  and  C_34
REMARK   15  A    between atoms: C_35  and  N_42
REMARK                            x       y       z     vdW  Elec       q    Type
REMARK                         _______ _______ _______ _____ _____    ______ ____
ROOT
ATOM      1  C   UNL     1       1.719   0.077   2.406  0.00  0.00    +0.176 C 
ENDROOT
BRANCH   1   3
ATOM      2  O   UNL     1       4.254  -1.308   2.320  0.00  0.00    -0.277 OA
ATOM      3  N   UNL     1       2.700   0.115   1.346  0.00  0.00    -0.298 N 
ATOM      4  C   UNL     1       3.896  -0.587   1.391  0.00  0.00    +0.202 C 
ATOM      5  H   UNL     1       2.510   0.665   0.552  0.00  0.00    +0.150 HD
BRANCH   4   6
ATOM      6  C   UNL     1       4.729  -0.385   0.128  0.00  0.00    +0.013 C 
BRANCH   6   7
ATOM      7  N   UNL     1       6.138  -0.465   0.509  0.00  0.00    +0.387 N 
ATOM      8  H   UNL     1       6.721  -0.333  -0.318  0.00  0.00    -0.089 HD
ATOM      9  H   UNL     1       6.328  -1.380   0.916  0.00  0.00    -0.089 HD
ATOM     10  H   UNL     1       6.347   0.262   1.193  0.00  0.00    -0.089 HD
ENDBRANCH   6   7
BRANCH   6  11
ATOM     11  C   UNL     1       4.346  -1.448  -0.912  0.00  0.00    -0.013 C 
BRANCH  11  12
ATOM     12  C   UNL     1       3.077  -1.101  -1.698  0.00  0.00    -0.004 C 
BRANCH  12  13
ATOM     13  C   UNL     1       2.763  -2.172  -2.745  0.00  0.00    -0.024 C 
BRANCH  13  14
ATOM     14  C   UNL     1       1.478  -1.844  -3.503  0.00  0.00    -0.086 C 
BRANCH  14  15
ATOM     15  N   UNL     1       1.186  -2.886  -4.481  0.00  0.00    +0.380 N 
ATOM     16  H   UNL     1       0.327  -2.654  -4.978  0.00  0.00    -0.089 HD
ATOM     17  H   UNL     1       1.071  -3.779  -4.001  0.00  0.00    -0.089 HD
ATOM     18  H   UNL     1       1.957  -2.954  -5.145  0.00  0.00    -0.089 HD
ENDBRANCH  14  15
ENDBRANCH  13  14
ENDBRANCH  12  13
ENDBRANCH  11  12
ENDBRANCH   6  11
ENDBRANCH   4   6
ENDBRANCH   1   3
BRANCH   1  20
ATOM     19  O   UNL     1       0.797  -1.875   1.320  0.00  0.00    -0.248 OA
ATOM     20  C   UNL     1       0.774  -1.111   2.279  0.00  0.00    +0.335 C 
BRANCH  20  21
ATOM     21  O   UNL     1      -0.087  -1.198   3.332  0.00  0.00    -0.443 OA
ATOM     22  C   UNL     1      -1.023  -2.280   3.281  0.00  0.00    +0.256 C 
ENDBRANCH  20  21
ENDBRANCH   1  20
BRANCH   1  23
ATOM     23  C   UNL     1       0.960   1.408   2.513  0.00  0.00    +0.059 C 
BRANCH  23  25
ATOM     24  N   UNL     1      -1.580   1.911  -0.102  0.00  0.00    -0.236 N 
ATOM     25  C   UNL     1       0.129   1.757   1.307  0.00  0.00    -0.003 C 
ATOM     26  C   UNL     1       0.555   2.498   0.170  0.00  0.00    +0.012 C 
ATOM     27  C   UNL     1      -0.535   2.580  -0.699  0.00  0.00    +0.062 C 
ATOM     28  C   UNL     1      -1.188   1.409   1.111  0.00  0.00    +0.072 C 
ATOM     29  C   UNL     1       1.768   3.110  -0.205  0.00  0.00    +0.001 C 
ATOM     30  C   UNL     1      -0.473   3.246  -1.928  0.00  0.00    +0.016 C 
ATOM     31  C   UNL     1       1.845   3.779  -1.432  0.00  0.00    +0.000 C 
ATOM     32  C   UNL     1       0.740   3.845  -2.279  0.00  0.00    +0.001 C 
BRANCH  24  33
ATOM     33  S   UNL     1      -3.146   1.714  -0.741  0.00  0.00    -0.014 S 
BRANCH  33  34
ATOM     34  C   UNL     1      -3.226  -0.074  -0.817  0.00  0.00    +0.066 C 
ATOM     35  C   UNL     1      -4.189  -0.806  -0.122  0.00  0.00    +0.150 C 
ATOM     36  C   UNL     1      -2.283  -0.734  -1.605  0.00  0.00    +0.009 C 
ATOM     37  C   UNL     1      -4.209  -2.198  -0.215  0.00  0.00    +0.025 C 
ATOM     38  C   UNL     1      -2.303  -2.126  -1.698  0.00  0.00    +0.001 C 
ATOM     39  C   UNL     1      -3.266  -2.857  -1.003  0.00  0.00    +0.002 C 
BRANCH  35  42
ATOM     40  O   UNL     1      -4.913   0.025   1.903  0.00  0.00    -0.126 OA
ATOM     41  O   UNL     1      -6.262   0.159   0.176  0.00  0.00    -0.126 OA
ATOM     42  N   UNL     1      -5.171  -0.175   0.694  0.00  0.00    +0.058 N 
ENDBRANCH  35  42
ENDBRANCH  33  34
ENDBRANCH  24  33
ENDBRANCH  23  25
ENDBRANCH   1  23
TORSDOF 15
