REMARK  Name = 130935
REMARK  8 active torsions:
REMARK  status: ('A' for Active; 'I' for Inactive)
REMARK    1  A    between atoms: C_1  and  C_10
REMARK    2  A    between atoms: C_2  and  C_22
REMARK    3  A    between atoms: C_3  and  O_7
REMARK    4  A    between atoms: C_5  and  C_24
REMARK    5  A    between atoms: C_10  and  C_11
REMARK    6  A    between atoms: C_12  and  O_17
REMARK    7  A    between atoms: C_13  and  O_19
REMARK    8  A    between atoms: C_24  and  O_25
REMARK                            x       y       z     vdW  Elec       q    Type
REMARK                         _______ _______ _______ _____ _____    ______ ____
ROOT
ATOM      1  C   UNL     1      -0.324   0.026  -0.678  0.00  0.00    +0.076 C 
ATOM      2  C   UNL     1      -1.018   1.131  -0.185  0.00  0.00    +0.048 C 
ATOM      3  C   UNL     1      -0.973  -1.200  -0.817  0.00  0.00    +0.137 C 
ATOM      4  C   UNL     1      -2.361   1.009   0.170  0.00  0.00    +0.010 C 
ATOM      5  C   UNL     1      -3.011  -0.218   0.032  0.00  0.00    +0.079 C 
ATOM      6  C   UNL     1      -2.317  -1.322  -0.462  0.00  0.00    +0.043 C 
ENDROOT
BRANCH   3   7
ATOM      7  O   UNL     1      -0.315  -2.293  -1.297  0.00  0.00    -0.505 OA
ATOM      8  H   UNL     1       0.587  -2.228  -1.540  0.00  0.00    +0.292 HD
ENDBRANCH   3   7
BRANCH   1  10
ATOM      9  O   UNL     1       1.390   0.457  -2.211  0.00  0.00    -0.286 OA
ATOM     10  C   UNL     1       1.082   0.143  -1.054  0.00  0.00    +0.204 C 
BRANCH  10  11
ATOM     11  C   UNL     1       2.188  -0.104  -0.085  0.00  0.00    +0.106 C 
ATOM     12  C   UNL     1       1.870  -0.455   1.210  0.00  0.00    +0.140 C 
ATOM     13  C   UNL     1       3.491   0.027  -0.516  0.00  0.00    +0.140 C 
ATOM     14  C   UNL     1       2.905  -0.686   2.117  0.00  0.00    +0.037 C 
ATOM     15  C   UNL     1       4.525  -0.204   0.391  0.00  0.00    +0.037 C 
ATOM     16  C   UNL     1       4.232  -0.561   1.707  0.00  0.00    +0.006 C 
BRANCH  12  17
ATOM     17  O   UNL     1       0.580  -0.585   1.632  0.00  0.00    -0.505 OA
ATOM     18  H   UNL     1      -0.125  -0.433   1.034  0.00  0.00    +0.292 HD
ENDBRANCH  12  17
BRANCH  13  19
ATOM     19  O   UNL     1       3.800   0.377  -1.796  0.00  0.00    -0.505 OA
ATOM     20  H   UNL     1       3.116   0.535  -2.417  0.00  0.00    +0.292 HD
ENDBRANCH  13  19
ENDBRANCH  10  11
ENDBRANCH   1  10
BRANCH   2  22
ATOM     21  O   UNL     1      -0.955   3.421   0.407  0.00  0.00    -0.283 OA
ATOM     22  C   UNL     1      -0.370   2.426  -0.026  0.00  0.00    +0.234 C 
ENDBRANCH   2  22
BRANCH   5  24
ATOM     23  O   UNL     1      -5.119   0.563   0.851  0.00  0.00    -0.245 OA
ATOM     24  C   UNL     1      -4.411  -0.346   0.403  0.00  0.00    +0.338 C 
BRANCH  24  25
ATOM     25  O   UNL     1      -4.889  -1.605   0.205  0.00  0.00    -0.477 OA
ATOM     26  H   UNL     1      -4.326  -2.272  -0.135  0.00  0.00    +0.295 HD
ENDBRANCH  24  25
ENDBRANCH   5  24
TORSDOF 8
