REMARK  Name = 130905
REMARK  8 active torsions:
REMARK  status: ('A' for Active; 'I' for Inactive)
REMARK    1  A    between atoms: C_3  and  C_19
REMARK    2  A    between atoms: C_4  and  O_15
REMARK    3  A    between atoms: C_5  and  O_17
REMARK    4  A    between atoms: C_6  and  N_11
REMARK    5  A    between atoms: C_8  and  C_22
REMARK    6  A    between atoms: C_19  and  O_20
REMARK    7  A    between atoms: C_22  and  C_24
REMARK    8  A    between atoms: C_24  and  O_25
REMARK                            x       y       z     vdW  Elec       q    Type
REMARK                         _______ _______ _______ _____ _____    ______ ____
ROOT
ATOM      1  N   UNL     1       0.782   0.242  -0.222  0.00  0.00    -0.273 N 
ATOM      2  N   UNL     1      -0.138   2.253  -0.132  0.00  0.00    -0.230 NA
ATOM      3  C   UNL     1       0.879  -1.210  -0.166  0.00  0.00    +0.136 C 
ATOM      4  C   UNL     1      -0.228  -1.776   0.744  0.00  0.00    +0.160 C 
ATOM      5  C   UNL     1      -1.609  -1.226   0.360  0.00  0.00    +0.164 C 
ATOM      6  C   UNL     1      -1.653   0.311   0.394  0.00  0.00    +0.156 C 
ATOM      7  C   UNL     1      -0.368   0.959  -0.003  0.00  0.00    +0.133 C 
ATOM      8  C   UNL     1       1.790   1.118  -0.493  0.00  0.00    +0.060 C 
ATOM      9  C   UNL     1       1.195   2.356  -0.440  0.00  0.00    +0.111 C 
ENDROOT
BRANCH   6  11
ATOM     10  O   UNL     1      -4.451   0.708   1.060  0.00  0.00    -0.275 OA
ATOM     11  N   UNL     1      -2.700   0.802  -0.471  0.00  0.00    -0.298 N 
ATOM     12  C   UNL     1      -4.013   0.958  -0.060  0.00  0.00    +0.223 C 
ATOM     13  C   UNL     1      -4.892   1.510  -1.151  0.00  0.00    +0.095 C 
ATOM     14  H   UNL     1      -2.469   1.038  -1.399  0.00  0.00    +0.150 HD
ENDBRANCH   6  11
BRANCH   4  15
ATOM     15  O   UNL     1      -0.233  -3.199   0.660  0.00  0.00    -0.380 OA
ATOM     16  H   UNL     1       0.641  -3.540   0.904  0.00  0.00    +0.211 HD
ENDBRANCH   4  15
BRANCH   5  17
ATOM     17  O   UNL     1      -2.558  -1.730   1.305  0.00  0.00    -0.380 OA
ATOM     18  H   UNL     1      -2.542  -2.700   1.294  0.00  0.00    +0.211 HD
ENDBRANCH   5  17
BRANCH   3  19
ATOM     19  C   UNL     1       0.869  -1.798  -1.581  0.00  0.00    +0.160 C 
BRANCH  19  20
ATOM     20  O   UNL     1       1.067  -3.193  -1.480  0.00  0.00    -0.380 OA
ATOM     21  H   UNL     1       1.064  -3.585  -2.367  0.00  0.00    +0.211 HD
ENDBRANCH  19  20
ENDBRANCH   3  19
BRANCH   8  22
ATOM     22  C   UNL     1       3.199   0.775  -0.739  0.00  0.00    +0.152 C 
BRANCH  22  24
ATOM     23  O   UNL     1       3.663   1.036   1.637  0.00  0.00    -0.250 OA
ATOM     24  C   UNL     1       4.061   0.745   0.517  0.00  0.00    +0.320 C 
BRANCH  24  25
ATOM     25  O   UNL     1       5.338   0.358   0.263  0.00  0.00    -0.480 OA
ATOM     26  H   UNL     1       5.598   0.145  -0.612  0.00  0.00    +0.295 HD
ENDBRANCH  24  25
ENDBRANCH  22  24
ENDBRANCH   8  22
TORSDOF 8
