REMARK  Name = 130929
REMARK  8 active torsions:
REMARK  status: ('A' for Active; 'I' for Inactive)
REMARK    1  A    between atoms: S_1  and  C_3
REMARK    2  A    between atoms: S_1  and  C_13
REMARK    3  A    between atoms: C_4  and  O_9
REMARK    4  A    between atoms: C_6  and  O_11
REMARK    5  A    between atoms: C_13  and  C_14
REMARK    6  A    between atoms: C_14  and  N_15
REMARK    7  A    between atoms: C_14  and  C_20
REMARK    8  A    between atoms: C_20  and  O_21
REMARK                            x       y       z     vdW  Elec       q    Type
REMARK                         _______ _______ _______ _____ _____    ______ ____
ROOT
ATOM      1  S   UNK     1       0.810   0.786   0.604  0.00  0.00    -0.112 S 
ENDROOT
BRANCH   1   3
ATOM      2 BR   UNK     1      -4.682   1.731  -0.343  0.00  0.00    -0.046 Br
ATOM      3  C   UNK     1      -0.853   0.191   0.324  0.00  0.00    +0.062 C 
ATOM      4  C   UNK     1      -1.919   1.070   0.135  0.00  0.00    +0.146 C 
ATOM      5  C   UNK     1      -1.071  -1.186   0.296  0.00  0.00    +0.046 C 
ATOM      6  C   UNK     1      -2.356  -1.685   0.081  0.00  0.00    +0.135 C 
ATOM      7  C   UNK     1      -3.204   0.572  -0.081  0.00  0.00    +0.072 C 
ATOM      8  C   UNK     1      -3.422  -0.806  -0.108  0.00  0.00    +0.046 C 
BRANCH   4   9
ATOM      9  O   UNK     1      -1.708   2.420   0.161  0.00  0.00    -0.505 OA
ATOM     10  H   UNK     1      -0.846   2.757   0.306  0.00  0.00    +0.292 HD
ENDBRANCH   4   9
BRANCH   6  11
ATOM     11  O   UNK     1      -2.568  -3.029   0.054  0.00  0.00    -0.505 OA
ATOM     12  H   UNK     1      -1.852  -3.619   0.181  0.00  0.00    +0.292 HD
ENDBRANCH   6  11
ENDBRANCH   1   3
BRANCH   1  13
ATOM     13  C   UNK     1       1.694   0.050  -0.809  0.00  0.00    +0.051 C 
BRANCH  13  14
ATOM     14  C   UNK     1       3.179   0.414  -0.807  0.00  0.00    +0.047 C 
BRANCH  14  15
ATOM     15  N   UNK     1       3.852  -0.218  -1.944  0.00  0.00    +0.389 N 
ATOM     16  H   UNK     1       3.400   0.074  -2.811  0.00  0.00    -0.088 HD
ATOM     17  H   UNK     1       3.790  -1.232  -1.855  0.00  0.00    -0.088 HD
ATOM     18  H   UNK     1       4.832   0.064  -1.959  0.00  0.00    -0.088 HD
ENDBRANCH  14  15
BRANCH  14  20
ATOM     19  O   UNK     1       3.905  -1.218   0.824  0.00  0.00    -0.253 OA
ATOM     20  C   UNK     1       3.883  -0.049   0.455  0.00  0.00    +0.294 C 
BRANCH  20  21
ATOM     21  O   UNK     1       4.460   0.956   1.160  0.00  0.00    -0.482 OA
ATOM     22  H   UNK     1       4.420   1.836   0.841  0.00  0.00    +0.295 HD
ENDBRANCH  20  21
ENDBRANCH  14  20
ENDBRANCH  13  14
ENDBRANCH   1  13
TORSDOF 8
