REMARK  Name = 130995
REMARK  6 active torsions:
REMARK  status: ('A' for Active; 'I' for Inactive)
REMARK    1  A    between atoms: C_1  and  N_10
REMARK    2  A    between atoms: C_2  and  O_16
REMARK    3  A    between atoms: C_5  and  N_9
REMARK    4  A    between atoms: N_10  and  S_12
REMARK    5  A    between atoms: O_16  and  C_17
REMARK    6  A    between atoms: C_22  and  O_23
REMARK                            x       y       z     vdW  Elec       q    Type
REMARK                         _______ _______ _______ _____ _____    ______ ____
ROOT
ATOM      1  C   UNL     1      -1.520   0.320  -0.498  0.00  0.00    +0.099 C 
ATOM      2  C   UNL     1      -0.411  -0.043   0.267  0.00  0.00    +0.161 C 
ATOM      3  C   UNL     1      -2.361  -0.663  -1.017  0.00  0.00    +0.021 C 
ATOM      4  C   UNL     1      -0.144  -1.389   0.513  0.00  0.00    +0.063 C 
ATOM      5  C   UNL     1      -0.986  -2.373  -0.007  0.00  0.00    +0.146 C 
ATOM      6  C   UNL     1      -2.094  -2.010  -0.772  0.00  0.00    +0.026 C 
ENDROOT
BRANCH   5   9
ATOM      7  O   UNL     1      -1.486  -4.608  -0.236  0.00  0.00    -0.126 OA
ATOM      8  O   UNL     1       0.288  -4.044   0.933  0.00  0.00    -0.126 OA
ATOM      9  N   UNL     1      -0.714  -3.744   0.243  0.00  0.00    +0.058 N 
ENDBRANCH   5   9
BRANCH   1  10
ATOM     10  N   UNL     1      -1.806   1.697  -0.758  0.00  0.00    -0.216 N 
ATOM     11  H   UNL     1      -1.237   2.226  -1.362  0.00  0.00    +0.173 HD
BRANCH  10  12
ATOM     12  S   UNL     1      -3.174   2.402   0.013  0.00  0.00    +0.056 S 
ATOM     13  O   UNL     1      -3.418   3.700  -0.587  0.00  0.00    -0.154 OA
ATOM     14  O   UNL     1      -4.248   1.438   0.148  0.00  0.00    -0.154 OA
ATOM     15  C   UNL     1      -2.502   2.700   1.633  0.00  0.00    +0.200 C 
ENDBRANCH  10  12
ENDBRANCH   1  10
BRANCH   2  16
ATOM     16  O   UNL     1       0.423   0.904   0.781  0.00  0.00    -0.452 OA
BRANCH  16  17
ATOM     17  C   UNL     1       1.752   0.866   0.397  0.00  0.00    +0.146 C 
ATOM     18  C   UNL     1       2.063   0.678  -0.938  0.00  0.00    +0.041 C 
ATOM     19  C   UNL     1       2.736   1.016   1.358  0.00  0.00    +0.041 C 
ATOM     20  C   UNL     1       3.402   0.638  -1.325  0.00  0.00    +0.040 C 
ATOM     21  C   UNL     1       4.076   0.977   0.970  0.00  0.00    +0.040 C 
ATOM     22  C   UNL     1       4.409   0.788  -0.371  0.00  0.00    +0.134 C 
BRANCH  22  23
ATOM     23  O   UNL     1       5.716   0.751  -0.749  0.00  0.00    -0.506 OA
ATOM     24  H   UNL     1       5.940   0.625  -1.650  0.00  0.00    +0.292 HD
ENDBRANCH  22  23
ENDBRANCH  16  17
ENDBRANCH   2  16
TORSDOF 6
