REMARK  Name = 130979
REMARK  12 active torsions:
REMARK  status: ('A' for Active; 'I' for Inactive)
REMARK    1  A    between atoms: N_1  and  C_4
REMARK    2  A    between atoms: N_1  and  C_18
REMARK    3  A    between atoms: C_4  and  C_5
REMARK    4  A    between atoms: C_5  and  C_6
REMARK    5  A    between atoms: C_9  and  O_12
REMARK    6  A    between atoms: C_10  and  O_14
REMARK    7  A    between atoms: C_11  and  O_16
REMARK    8  A    between atoms: C_18  and  C_19
REMARK    9  A    between atoms: C_19  and  C_20
REMARK   10  A    between atoms: C_19  and  O_30
REMARK   11  A    between atoms: C_23  and  O_26
REMARK   12  A    between atoms: C_25  and  O_28
REMARK                            x       y       z     vdW  Elec       q    Type
REMARK                         _______ _______ _______ _____ _____    ______ ____
ROOT
ATOM      1  N   UNL     1      -0.989   0.739   1.456  0.00  0.00    +0.386 N 
ATOM      2  H   UNL     1      -0.994   1.732   1.691  0.00  0.00    -0.084 HD
ATOM      3  H   UNL     1      -1.050   0.174   2.303  0.00  0.00    -0.084 HD
ENDROOT
BRANCH   1   4
ATOM      4  C   UNL     1       0.252   0.418   0.768  0.00  0.00    -0.077 C 
BRANCH   4   5
ATOM      5  C   UNL     1       1.462   0.724   1.651  0.00  0.00    +0.003 C 
BRANCH   5   6
ATOM      6  C   UNL     1       2.757   0.416   0.941  0.00  0.00    -0.018 C 
ATOM      7  C   UNL     1       3.372   1.405   0.188  0.00  0.00    +0.036 C 
ATOM      8  C   UNL     1       3.310  -0.850   1.053  0.00  0.00    +0.036 C 
ATOM      9  C   UNL     1       4.507  -1.136   0.396  0.00  0.00    +0.175 C 
ATOM     10  C   UNL     1       4.568   1.119  -0.470  0.00  0.00    +0.175 C 
ATOM     11  C   UNL     1       5.136  -0.151  -0.366  0.00  0.00    +0.206 C 
BRANCH   9  12
ATOM     12  O   UNL     1       5.051  -2.379   0.506  0.00  0.00    -0.468 OA
ATOM     13  C   UNL     1       4.660  -3.347  -0.466  0.00  0.00    +0.253 C 
ENDBRANCH   9  12
BRANCH  10  14
ATOM     14  O   UNL     1       5.171   2.090  -1.212  0.00  0.00    -0.468 OA
ATOM     15  C   UNL     1       4.805   2.175  -2.587  0.00  0.00    +0.253 C 
ENDBRANCH  10  14
BRANCH  11  16
ATOM     16  O   UNL     1       6.305  -0.429  -1.009  0.00  0.00    -0.465 OA
ATOM     17  C   UNL     1       7.513  -0.187  -0.291  0.00  0.00    +0.253 C 
ENDBRANCH  11  16
ENDBRANCH   5   6
ENDBRANCH   4   5
ENDBRANCH   1   4
BRANCH   1  18
ATOM     18  C   UNL     1      -2.143   0.441   0.611  0.00  0.00    -0.047 C 
BRANCH  18  19
ATOM     19  C   UNL     1      -3.470   0.750   1.332  0.00  0.00    +0.112 C 
BRANCH  19  20
ATOM     20  C   UNL     1      -4.658   0.448   0.483  0.00  0.00    +0.005 C 
ATOM     21  C   UNL     1      -4.846  -0.840  -0.020  0.00  0.00    +0.038 C 
ATOM     22  C   UNL     1      -5.581   1.452   0.193  0.00  0.00    +0.001 C 
ATOM     23  C   UNL     1      -5.958  -1.123  -0.813  0.00  0.00    +0.167 C 
ATOM     24  C   UNL     1      -6.693   1.169  -0.602  0.00  0.00    +0.040 C 
ATOM     25  C   UNL     1      -6.881  -0.118  -1.104  0.00  0.00    +0.167 C 
BRANCH  23  26
ATOM     26  O   UNL     1      -6.131  -2.384  -1.299  0.00  0.00    -0.503 OA
ATOM     27  H   UNL     1      -5.506  -3.053  -1.098  0.00  0.00    +0.292 HD
ENDBRANCH  23  26
BRANCH  25  28
ATOM     28  O   UNL     1      -7.971  -0.382  -1.878  0.00  0.00    -0.503 OA
ATOM     29  H   UNL     1      -8.105  -1.244  -2.220  0.00  0.00    +0.292 HD
ENDBRANCH  25  28
ENDBRANCH  19  20
BRANCH  19  30
ATOM     30  O   UNL     1      -3.549  -0.021   2.539  0.00  0.00    -0.382 OA
ATOM     31  H   UNL     1      -2.778   0.172   3.096  0.00  0.00    +0.211 HD
ENDBRANCH  19  30
ENDBRANCH  18  19
ENDBRANCH   1  18
TORSDOF 12
