REMARK  Name = 131
REMARK  12 active torsions:
REMARK  status: ('A' for Active; 'I' for Inactive)
REMARK    1  A    between atoms: C_1  and  C_4
REMARK    2  A    between atoms: C_1  and  C_12
REMARK    3  A    between atoms: C_1  and  O_23
REMARK    4  A    between atoms: N_3  and  C_6
REMARK    5  A    between atoms: C_6  and  C_7
REMARK    6  A    between atoms: C_7  and  C_9
REMARK    7  A    between atoms: C_9  and  O_10
REMARK    8  A    between atoms: C_12  and  C_15
REMARK    9  A    between atoms: C_15  and  O_16
REMARK   10  A    between atoms: O_16  and  P_17
REMARK   11  A    between atoms: P_17  and  O_19
REMARK   12  A    between atoms: P_17  and  O_21
REMARK                            x       y       z     vdW  Elec       q    Type
REMARK                         _______ _______ _______ _____ _____    ______ ____
ROOT
ATOM      1  C   UNL     1       0.319   2.070   0.310  0.00  0.00    +0.189 C 
ENDROOT
BRANCH   1   4
ATOM      2  O   UNL     1       0.861   1.281  -1.911  0.00  0.00    -0.272 OA
ATOM      3  N   UNL     1       2.443   1.030  -0.233  0.00  0.00    -0.302 N 
ATOM      4  C   UNL     1       1.213   1.416  -0.741  0.00  0.00    +0.249 C 
ATOM      5  H   UNL     1       2.626   1.184   0.722  0.00  0.00    +0.150 HD
BRANCH   3   6
ATOM      6  C   UNL     1       3.470   0.413  -1.040  0.00  0.00    +0.101 C 
BRANCH   6   7
ATOM      7  C   UNL     1       3.351  -1.105  -1.055  0.00  0.00    +0.131 C 
BRANCH   7   9
ATOM      8  O   UNL     1       4.116  -1.281   1.253  0.00  0.00    -0.250 OA
ATOM      9  C   UNL     1       3.449  -1.719   0.325  0.00  0.00    +0.316 C 
BRANCH   9  10
ATOM     10  O   UNL     1       2.687  -2.839   0.424  0.00  0.00    -0.480 OA
ATOM     11  H   UNL     1       2.193  -3.136  -0.314  0.00  0.00    +0.295 HD
ENDBRANCH   9  10
ENDBRANCH   7   9
ENDBRANCH   6   7
ENDBRANCH   3   6
ENDBRANCH   1   4
BRANCH   1  12
ATOM     12  C   UNL     1      -0.671   1.090   1.006  0.00  0.00    +0.061 C 
ATOM     13  C   UNL     1       0.088  -0.011   1.774  0.00  0.00    +0.005 C 
ATOM     14  C   UNL     1      -1.507   1.884   2.038  0.00  0.00    +0.005 C 
BRANCH  12  15
ATOM     15  C   UNL     1      -1.632   0.443  -0.022  0.00  0.00    +0.156 C 
BRANCH  15  16
ATOM     16  O   UNL     1      -2.536  -0.453   0.616  0.00  0.00    -0.273 OA
BRANCH  16  17
ATOM     17  P   UNL     1      -3.621  -1.227  -0.299  0.00  0.00    +0.473 P 
ATOM     18  O   UNL     1      -4.537  -2.152   0.446  0.00  0.00    -0.227 OA
BRANCH  17  19
ATOM     19  O   UNL     1      -4.357  -0.016  -1.078  0.00  0.00    -0.303 OA
ATOM     20  H   UNL     1      -3.694   0.529  -1.529  0.00  0.00    +0.222 HD
ENDBRANCH  17  19
BRANCH  17  21
ATOM     21  O   UNL     1      -2.726  -1.921  -1.453  0.00  0.00    -0.303 OA
ATOM     22  H   UNL     1      -2.168  -1.250  -1.877  0.00  0.00    +0.222 HD
ENDBRANCH  17  21
ENDBRANCH  16  17
ENDBRANCH  15  16
ENDBRANCH  12  15
ENDBRANCH   1  12
BRANCH   1  23
ATOM     23  O   UNL     1      -0.409   3.096  -0.361  0.00  0.00    -0.376 OA
ATOM     24  H   UNL     1      -0.994   3.543   0.270  0.00  0.00    +0.211 HD
ENDBRANCH   1  23
TORSDOF 12
