REMARK  Name = 131018
REMARK  10 active torsions:
REMARK  status: ('A' for Active; 'I' for Inactive)
REMARK    1  A    between atoms: C_4  and  C_23
REMARK    2  A    between atoms: C_8  and  C_33
REMARK    3  A    between atoms: C_9  and  O_31
REMARK    4  A    between atoms: C_13  and  C_15
REMARK    5  A    between atoms: C_20  and  O_21
REMARK    6  A    between atoms: C_23  and  O_26
REMARK    7  A    between atoms: O_26  and  C_27
REMARK    8  A    between atoms: C_27  and  C_28
REMARK    9  A    between atoms: C_28  and  O_29
REMARK   10  A    between atoms: C_33  and  C_34
REMARK                            x       y       z     vdW  Elec       q    Type
REMARK                         _______ _______ _______ _____ _____    ______ ____
ROOT
ATOM      1  O   UNL     1       3.016  -0.560   0.182  0.00  0.00    -0.477 OA
ATOM      2  O   UNL     1      -1.540  -1.490  -0.982  0.00  0.00    -0.450 OA
ATOM      3  O   UNL     1      -2.747   1.852   1.028  0.00  0.00    -0.286 OA
ATOM      4  C   UNL     1       3.547   0.337   1.193  0.00  0.00    +0.195 C 
ATOM      5  C   UNL     1       2.548   1.484   1.411  0.00  0.00    +0.078 C 
ATOM      6  C   UNL     1       1.322   0.829   0.903  0.00  0.00    +0.049 A 
ATOM      7  C   UNL     1       1.667  -0.313   0.195  0.00  0.00    +0.137 A 
ATOM      8  C   UNL     1       0.723  -1.092  -0.444  0.00  0.00    +0.051 A 
ATOM      9  C   UNL     1       0.003   1.236   1.001  0.00  0.00    +0.139 A 
ATOM     10  C   UNL     1      -0.972   0.452   0.371  0.00  0.00    +0.107 A 
ATOM     11  C   UNL     1      -0.614  -0.701  -0.346  0.00  0.00    +0.151 A 
ATOM     12  C   UNL     1      -2.394   0.837   0.442  0.00  0.00    +0.204 C 
ATOM     13  C   UNL     1      -3.361  -0.062  -0.245  0.00  0.00    +0.077 C 
ATOM     14  C   UNL     1      -2.861  -1.130  -0.885  0.00  0.00    +0.183 C 
ENDROOT
BRANCH  13  15
ATOM     15  C   UNL     1      -4.812   0.186  -0.216  0.00  0.00    +0.006 C 
ATOM     16  C   UNL     1      -5.593  -0.345   0.812  0.00  0.00    +0.003 C 
ATOM     17  C   UNL     1      -5.411   0.954  -1.216  0.00  0.00    +0.003 C 
ATOM     18  C   UNL     1      -6.968  -0.110   0.839  0.00  0.00    +0.037 C 
ATOM     19  C   UNL     1      -6.785   1.189  -1.189  0.00  0.00    +0.037 C 
ATOM     20  C   UNL     1      -7.564   0.657  -0.161  0.00  0.00    +0.134 C 
BRANCH  20  21
ATOM     21  O   UNL     1      -8.905   0.886  -0.135  0.00  0.00    -0.506 OA
ATOM     22  H   UNL     1      -9.428   0.529   0.556  0.00  0.00    +0.292 HD
ENDBRANCH  20  21
ENDBRANCH  13  15
BRANCH   4  23
ATOM     23  C   UNL     1       4.913   0.830   0.746  0.00  0.00    +0.130 C 
ATOM     24  C   UNL     1       5.882  -0.338   0.539  0.00  0.00    +0.033 C 
ATOM     25  C   UNL     1       5.490   1.826   1.753  0.00  0.00    +0.033 C 
BRANCH  23  26
ATOM     26  O   UNL     1       4.771   1.520  -0.500  0.00  0.00    -0.352 OA
BRANCH  26  27
ATOM     27  C   UNL     1       6.021   2.002  -0.963  0.00  0.00    +0.174 C 
BRANCH  27  28
ATOM     28  C   UNL     1       5.815   2.724  -2.281  0.00  0.00    +0.169 C 
BRANCH  28  29
ATOM     29  O   UNL     1       4.905   3.799  -2.085  0.00  0.00    -0.379 OA
ATOM     30  H   UNL     1       4.769   4.265  -2.924  0.00  0.00    +0.211 HD
ENDBRANCH  28  29
ENDBRANCH  27  28
ENDBRANCH  26  27
ENDBRANCH  23  26
ENDBRANCH   4  23
BRANCH   9  31
ATOM     31  O   UNL     1      -0.288   2.369   1.690  0.00  0.00    -0.506 OA
ATOM     32  H   UNL     1       0.399   2.861   2.095  0.00  0.00    +0.292 HD
ENDBRANCH   9  31
BRANCH   8  33
ATOM     33  C   UNL     1       1.129  -2.308  -1.204  0.00  0.00    +0.058 C 
BRANCH  33  34
ATOM     34  C   UNL     1       1.150  -3.556  -0.354  0.00  0.00    -0.030 C 
ATOM     35  C   UNL     1       2.200  -4.348  -0.066  0.00  0.00    -0.048 C 
ATOM     36  C   UNL     1       2.149  -5.580   0.792  0.00  0.00    +0.026 C 
ATOM     37  C   UNL     1       3.564  -4.037  -0.624  0.00  0.00    +0.026 C 
ENDBRANCH  33  34
ENDBRANCH   8  33
TORSDOF 10
