REMARK  Name = 131063
REMARK  2 active torsions:
REMARK  status: ('A' for Active; 'I' for Inactive)
REMARK    1  A    between atoms: C_9  and  C_16
REMARK    2  A    between atoms: C_18  and  S_22
REMARK                            x       y       z     vdW  Elec       q    Type
REMARK                         _______ _______ _______ _____ _____    ______ ____
ROOT
ATOM      1  O   UNL     1      -3.664  -2.436  -0.684  0.00  0.00    -0.265 OA
ATOM      2  O   UNL     1      -5.123   1.946   0.165  0.00  0.00    -0.246 OA
ATOM      3  N   UNL     1      -2.845   1.496   0.315  0.00  0.00    -0.266 N 
ATOM      4  N   UNL     1      -0.921  -1.396  -0.138  0.00  0.00    -0.310 N 
ATOM      5  N   UNL     1      -4.423  -0.248  -0.264  0.00  0.00    -0.246 N 
ATOM      6  N   UNL     1      -0.508   0.728   0.398  0.00  0.00    -0.301 N 
ATOM      7  C   UNL     1      -2.131  -0.763  -0.126  0.00  0.00    +0.133 A 
ATOM      8  C   UNL     1      -1.849   0.535   0.204  0.00  0.00    +0.132 A 
ATOM      9  C   UNL     1       0.025  -0.457   0.184  0.00  0.00    +0.169 C 
ATOM     10  C   UNL     1      -3.440  -1.266  -0.389  0.00  0.00    +0.280 A 
ATOM     11  C   UNL     1      -4.195   1.133   0.081  0.00  0.00    +0.335 A 
ATOM     12  C   UNL     1      -2.504   2.869   0.668  0.00  0.00    +0.136 C 
ATOM     13  C   UNL     1      -5.806  -0.641  -0.509  0.00  0.00    +0.138 C 
ATOM     14  H   UNL     1      -0.759  -2.346  -0.339  0.00  0.00    +0.149 HD
ATOM     15  H   UNL     1      -0.047   1.563   0.642  0.00  0.00    +0.150 HD
ENDROOT
BRANCH   9  16
ATOM     16  C   UNL     1       1.428  -0.784   0.264  0.00  0.00    +0.016 C 
ATOM     17  C   UNL     1       2.388   0.184  -0.029  0.00  0.00    +0.018 C 
ATOM     18  C   UNL     1       3.744  -0.132   0.049  0.00  0.00    +0.112 C 
ATOM     19  C   UNL     1       1.824  -2.069   0.635  0.00  0.00    -0.001 C 
ATOM     20  C   UNL     1       4.140  -1.417   0.420  0.00  0.00    +0.019 C 
ATOM     21  C   UNL     1       3.180  -2.386   0.713  0.00  0.00    +0.001 C 
BRANCH  18  22
ATOM     22  S   UNL     1       4.947   1.080  -0.317  0.00  0.00    +0.042 S 
ATOM     23  O   UNL     1       5.228   0.936  -1.921  0.00  0.00    -0.065 OA
ATOM     24  O   UNL     1       4.345   2.388  -0.108  0.00  0.00    -0.065 OA
ATOM     25  O   UNL     1       6.160   0.700   0.389  0.00  0.00    -0.065 OA
ENDBRANCH  18  22
ENDBRANCH   9  16
TORSDOF 2
