REMARK  Name = 131023
REMARK  7 active torsions:
REMARK  status: ('A' for Active; 'I' for Inactive)
REMARK    1  A    between atoms: S_1  and  N_5
REMARK    2  A    between atoms: S_1  and  C_17
REMARK    3  A    between atoms: N_4  and  C_11
REMARK    4  A    between atoms: C_20  and  C_23
REMARK    5  A    between atoms: C_23  and  C_24
REMARK    6  A    between atoms: C_24  and  N_26
REMARK    7  A    between atoms: C_27  and  C_29
REMARK                            x       y       z     vdW  Elec       q    Type
REMARK                         _______ _______ _______ _____ _____    ______ ____
ROOT
ATOM      1  S   UNL     1       0.433   3.352   0.040  0.00  0.00    +0.079 S 
ATOM      2  O   UNL     1       0.720   4.199   1.188  0.00  0.00    -0.150 OA
ATOM      3  O   UNL     1       0.212   3.951  -1.268  0.00  0.00    -0.150 OA
ENDROOT
BRANCH   1   5
ATOM      4  N   UNL     1      -2.390   0.684   0.190  0.00  0.00    -0.281 N 
ATOM      5  N   UNL     1      -0.832   2.295   0.407  0.00  0.00    -0.161 N 
ATOM      6  N   UNL     1      -1.759   1.974  -1.762  0.00  0.00    -0.271 NA
ATOM      7  C   UNL     1      -2.093   0.715   1.622  0.00  0.00    +0.117 C 
ATOM      8  C   UNL     1      -0.845   1.613   1.730  0.00  0.00    +0.140 C 
ATOM      9  C   UNL     1      -1.704   1.645  -0.517  0.00  0.00    +0.200 C 
ATOM     10  H   UNL     1      -2.374   1.503  -2.369  0.00  0.00    +0.189 HD
BRANCH   4  11
ATOM     11  C   UNL     1      -3.471  -0.136  -0.312  0.00  0.00    +0.075 C 
ATOM     12  C   UNL     1      -4.803   0.584  -0.088  0.00  0.00    +0.020 C 
ATOM     13  C   UNL     1      -3.450  -1.500   0.383  0.00  0.00    +0.020 C 
ATOM     14  C   UNL     1      -5.986  -0.283  -0.513  0.00  0.00    +0.002 C 
ATOM     15  C   UNL     1      -4.634  -2.364  -0.044  0.00  0.00    +0.002 C 
ATOM     16  C   UNL     1      -5.962  -1.644   0.176  0.00  0.00    +0.000 C 
ENDBRANCH   4  11
ENDBRANCH   1   5
BRANCH   1  17
ATOM     17  C   UNL     1       1.779   2.215  -0.121  0.00  0.00    +0.125 C 
ATOM     18  C   UNL     1       2.793   2.193   0.837  0.00  0.00    +0.020 C 
ATOM     19  C   UNL     1       1.827   1.341  -1.207  0.00  0.00    +0.020 C 
ATOM     20  C   UNL     1       3.902   0.423  -0.378  0.00  0.00    -0.020 C 
ATOM     21  C   UNL     1       3.854   1.297   0.709  0.00  0.00    -0.003 C 
ATOM     22  C   UNL     1       2.888   0.445  -1.335  0.00  0.00    -0.003 C 
BRANCH  20  23
ATOM     23  C   UNL     1       5.036  -0.536  -0.514  0.00  0.00    +0.048 C 
BRANCH  23  24
ATOM     24  C   UNL     1       4.783  -1.886   0.167  0.00  0.00    +0.094 C 
BRANCH  24  26
ATOM     25  O   UNL     1       2.387  -2.693   1.569  0.00  0.00    -0.270 OA
ATOM     26  N   UNL     1       3.644  -2.571  -0.383  0.00  0.00    -0.301 N 
ATOM     27  C   UNL     1       2.532  -2.919   0.372  0.00  0.00    +0.246 C 
ATOM     28  H   UNL     1       3.654  -2.804  -1.340  0.00  0.00    +0.150 HD
BRANCH  27  29
ATOM     29  C   UNL     1       1.502  -3.622  -0.442  0.00  0.00    +0.053 C 
ATOM     30  C   UNL     1       0.359  -4.033   0.123  0.00  0.00    -0.021 C 
ATOM     31  C   UNL     1      -0.720  -4.742  -0.628  0.00  0.00    +0.031 C 
ENDBRANCH  27  29
ENDBRANCH  24  26
ENDBRANCH  23  24
ENDBRANCH  20  23
ENDBRANCH   1  17
TORSDOF 7
