REMARK  Name = 131016
REMARK  7 active torsions:
REMARK  status: ('A' for Active; 'I' for Inactive)
REMARK    1  A    between atoms: C_3  and  O_22
REMARK    2  A    between atoms: C_4  and  C_18
REMARK    3  A    between atoms: C_14  and  C_20
REMARK    4  A    between atoms: O_22  and  C_24
REMARK    5  A    between atoms: C_25  and  O_34
REMARK    6  A    between atoms: C_26  and  N_30
REMARK    7  A    between atoms: C_27  and  O_36
REMARK                            x       y       z     vdW  Elec       q    Type
REMARK                         _______ _______ _______ _____ _____    ______ ____
ROOT
ATOM      1  O   UNL     1      -2.491  -2.853   1.079  0.00  0.00    -0.275 OA
ATOM      2  N   UNL     1      -2.411  -0.583   1.569  0.00  0.00    -0.304 N 
ATOM      3  C   UNL     1       0.375   1.473   0.019  0.00  0.00    +0.118 C 
ATOM      4  C   UNL     1      -0.069   1.936   1.431  0.00  0.00    +0.027 C 
ATOM      5  C   UNL     1       0.132   2.463  -1.135  0.00  0.00    +0.030 C 
ATOM      6  C   UNL     1      -1.309   2.947  -1.342  0.00  0.00    +0.002 C 
ATOM      7  C   UNL     1       0.380   0.964   2.551  0.00  0.00    +0.004 C 
ATOM      8  C   UNL     1      -2.377   1.845  -1.487  0.00  0.00    +0.000 C 
ATOM      9  C   UNL     1      -2.143   0.954  -2.721  0.00  0.00    +0.000 C 
ATOM     10  C   UNL     1      -0.105  -0.490   2.466  0.00  0.00    +0.021 C 
ATOM     11  C   UNL     1      -2.970  -0.343  -2.757  0.00  0.00    +0.000 C 
ATOM     12  C   UNL     1      -2.596  -1.331  -1.642  0.00  0.00    +0.009 C 
ATOM     13  C   UNL     1      -3.765   2.495  -1.535  0.00  0.00    +0.000 C 
ATOM     14  C   UNL     1      -3.562  -1.309  -0.442  0.00  0.00    +0.076 C 
ATOM     15  C   UNL     1      -1.593  -0.679   2.762  0.00  0.00    +0.089 C 
ATOM     16  C   UNL     1      -2.783  -1.688   0.815  0.00  0.00    +0.222 C 
ATOM     17  H   UNL     1      -2.717   0.307   1.280  0.00  0.00    +0.149 HD
ENDROOT
BRANCH   4  18
ATOM     18  C   UNL     1       0.469   3.332   1.787  0.00  0.00    +0.002 C 
ATOM     19  C   UNL     1      -0.049   3.792   3.134  0.00  0.00    +0.000 C 
ENDBRANCH   4  18
BRANCH  14  20
ATOM     20  C   UNL     1      -4.735  -2.265  -0.646  0.00  0.00    +0.009 C 
ATOM     21  C   UNL     1      -5.707  -2.201   0.515  0.00  0.00    +0.001 C 
ENDBRANCH  14  20
BRANCH   3  22
ATOM     22  O   UNL     1       1.770   1.154   0.023  0.00  0.00    -0.331 OA
BRANCH  22  24
ATOM     23  O   UNL     1       1.899  -1.196  -0.280  0.00  0.00    -0.329 OA
ATOM     24  C   UNL     1       2.062   0.094  -0.882  0.00  0.00    +0.261 C 
ATOM     25  C   UNL     1       3.482   0.264  -1.437  0.00  0.00    +0.149 C 
ATOM     26  C   UNL     1       4.530  -0.048  -0.355  0.00  0.00    -0.003 C 
ATOM     27  C   UNL     1       4.259  -1.396   0.333  0.00  0.00    +0.120 C 
ATOM     28  C   UNL     1       2.797  -1.454   0.806  0.00  0.00    +0.143 C 
ATOM     29  C   UNL     1       2.429  -2.814   1.387  0.00  0.00    +0.035 C 
BRANCH  26  30
ATOM     30  N   UNL     1       5.887   0.005  -0.900  0.00  0.00    +0.385 N 
ATOM     31  H   UNL     1       6.038   0.908  -1.349  0.00  0.00    -0.089 HD
ATOM     32  H   UNL     1       6.007  -0.740  -1.586  0.00  0.00    -0.089 HD
ATOM     33  H   UNL     1       6.561  -0.116  -0.144  0.00  0.00    -0.089 HD
ENDBRANCH  26  30
BRANCH  25  34
ATOM     34  O   UNL     1       3.658  -0.586  -2.570  0.00  0.00    -0.381 OA
ATOM     35  H   UNL     1       2.989  -0.374  -3.240  0.00  0.00    +0.210 HD
ENDBRANCH  25  34
BRANCH  27  36
ATOM     36  O   UNL     1       4.537  -2.484  -0.547  0.00  0.00    -0.384 OA
ATOM     37  H   UNL     1       5.461  -2.436  -0.839  0.00  0.00    +0.210 HD
ENDBRANCH  27  36
ENDBRANCH  22  24
ENDBRANCH   3  22
TORSDOF 7
