REMARK  Name = 131062
REMARK  4 active torsions:
REMARK  status: ('A' for Active; 'I' for Inactive)
REMARK    1  A    between atoms: C_3  and  S_9
REMARK    2  A    between atoms: C_4  and  S_11
REMARK    3  A    between atoms: C_5  and  S_13
REMARK    4  A    between atoms: C_6  and  S_15
REMARK                            x       y       z     vdW  Elec       q    Type
REMARK                         _______ _______ _______ _____ _____    ______ ____
ROOT
ATOM      1  O   UNL     1      -0.004   2.670  -0.037  0.00  0.00    -0.285 OA
ATOM      2  O   UNL     1       0.016  -2.674   0.009  0.00  0.00    -0.285 OA
ATOM      3  C   UNL     1       1.284   0.674  -0.006  0.00  0.00    +0.074 C 
ATOM      4  C   UNL     1       1.289  -0.668   0.006  0.00  0.00    +0.074 C 
ATOM      5  C   UNL     1      -1.275   0.664  -0.007  0.00  0.00    +0.074 C 
ATOM      6  C   UNL     1      -1.270  -0.679   0.005  0.00  0.00    +0.074 C 
ATOM      7  C   UNL     1       0.001   1.440  -0.018  0.00  0.00    +0.208 C 
ATOM      8  C   UNL     1       0.013  -1.444   0.006  0.00  0.00    +0.208 C 
ENDROOT
BRANCH   3   9
ATOM      9  S   UNL     1       2.714   1.673   0.021  0.00  0.00    -0.109 S 
ATOM     10  C   UNL     1       2.909   1.855   1.804  0.00  0.00    +0.074 C 
ENDBRANCH   3   9
BRANCH   4  11
ATOM     11  S   UNL     1       2.727  -1.656  -0.009  0.00  0.00    -0.109 S 
ATOM     12  C   UNL     1       2.939  -1.836  -1.790  0.00  0.00    +0.074 C 
ENDBRANCH   4  11
BRANCH   5  13
ATOM     13  S   UNL     1      -2.716   1.648  -0.010  0.00  0.00    -0.109 S 
ATOM     14  C   UNL     1      -2.962   1.797  -1.790  0.00  0.00    +0.074 C 
ENDBRANCH   5  13
BRANCH   6  15
ATOM     15  S   UNL     1      -2.714  -1.658   0.017  0.00  0.00    -0.109 S 
ATOM     16  C   UNL     1      -2.949  -1.806   1.799  0.00  0.00    +0.074 C 
ENDBRANCH   6  15
TORSDOF 4
