REMARK  Name = 131057
REMARK  9 active torsions:
REMARK  status: ('A' for Active; 'I' for Inactive)
REMARK    1  A    between atoms: C_1  and  O_2
REMARK    2  A    between atoms: C_1  and  C_5
REMARK    3  A    between atoms: C_1  and  C_8
REMARK    4  A    between atoms: C_1  and  C_17
REMARK    5  A    between atoms: C_5  and  O_6
REMARK    6  A    between atoms: C_8  and  N_9
REMARK    7  A    between atoms: C_8  and  C_13
REMARK    8  A    between atoms: C_13  and  C_14
REMARK    9  A    between atoms: C_17  and  C_20
REMARK                            x       y       z     vdW  Elec       q    Type
REMARK                         _______ _______ _______ _____ _____    ______ ____
ROOT
ATOM      1  C   UNL     1      -0.086  -1.089   0.291  0.00  0.00    +0.164 C 
ENDROOT
BRANCH   1   2
ATOM      2  O   UNL     1       0.024  -0.972   1.710  0.00  0.00    -0.378 OA
ATOM      3  H   UNL     1       0.574  -0.203   1.929  0.00  0.00    +0.211 HD
ENDBRANCH   1   2
BRANCH   1   5
ATOM      4  O   UNL     1      -1.499  -3.004   0.860  0.00  0.00    -0.248 OA
ATOM      5  C   UNL     1      -0.960  -2.311   0.007  0.00  0.00    +0.336 C 
BRANCH   5   6
ATOM      6  O   UNL     1      -1.075  -2.546  -1.325  0.00  0.00    -0.479 OA
ATOM      7  H   UNL     1      -0.642  -1.986  -1.938  0.00  0.00    +0.295 HD
ENDBRANCH   5   6
ENDBRANCH   1   5
BRANCH   1   8
ATOM      8  C   UNL     1      -0.749   0.204  -0.292  0.00  0.00    -0.030 C 
BRANCH   8   9
ATOM      9  N   UNL     1      -0.840   0.106  -1.754  0.00  0.00    +0.384 N 
ATOM     10  H   UNL     1       0.085  -0.086  -2.140  0.00  0.00    -0.089 HD
ATOM     11  H   UNL     1      -1.191   0.985  -2.133  0.00  0.00    -0.089 HD
ATOM     12  H   UNL     1      -1.476  -0.651  -2.005  0.00  0.00    -0.089 HD
ENDBRANCH   8   9
BRANCH   8  13
ATOM     13  C   UNL     1      -2.151   0.495   0.304  0.00  0.00    -0.019 C 
BRANCH  13  14
ATOM     14  C   UNL     1      -2.860   1.766  -0.219  0.00  0.00    -0.002 C 
ATOM     15  C   UNL     1      -2.028   3.031  -0.008  0.00  0.00    -0.000 C 
ATOM     16  C   UNL     1      -4.216   1.920   0.477  0.00  0.00    -0.000 C 
ENDBRANCH  13  14
ENDBRANCH   8  13
ENDBRANCH   1   8
BRANCH   1  17
ATOM     17  C   UNL     1       1.341  -1.306  -0.281  0.00  0.00    +0.078 C 
BRANCH  17  20
ATOM     18  N   UNL     1       2.905   0.462  -1.076  0.00  0.00    -0.319 N 
ATOM     19  N   UNL     1       3.555   1.476   0.790  0.00  0.00    -0.315 N 
ATOM     20  C   UNL     1       2.290  -0.143  -0.050  0.00  0.00    +0.040 C 
ATOM     21  C   UNL     1       2.677   0.463   1.085  0.00  0.00    +0.069 C 
ATOM     22  C   UNL     1       3.671   1.448  -0.519  0.00  0.00    +0.182 C 
ATOM     23  H   UNL     1       2.822   0.242  -2.032  0.00  0.00    +0.148 HD
ATOM     24  H   UNL     1       4.000   2.088   1.420  0.00  0.00    +0.148 HD
ENDBRANCH  17  20
ENDBRANCH   1  17
TORSDOF 9
