REMARK  Name = 131021
REMARK  6 active torsions:
REMARK  status: ('A' for Active; 'I' for Inactive)
REMARK    1  A    between atoms: C_6  and  O_21
REMARK    2  A    between atoms: C_7  and  O_19
REMARK    3  A    between atoms: C_10  and  O_27
REMARK    4  A    between atoms: O_21  and  C_23
REMARK    5  A    between atoms: C_23  and  C_24
REMARK    6  A    between atoms: O_27  and  C_29
REMARK                            x       y       z     vdW  Elec       q    Type
REMARK                         _______ _______ _______ _____ _____    ______ ____
ROOT
ATOM      1  O   UNL     1       3.017   1.649   0.958  0.00  0.00    -0.446 OA
ATOM      2  O   UNL     1      -0.307  -2.351  -1.010  0.00  0.00    -0.292 OA
ATOM      3  O   UNL     1       3.276   3.700  -0.056  0.00  0.00    -0.245 OA
ATOM      4  C   UNL     1       1.107   0.838  -0.171  0.00  0.00    +0.111 C 
ATOM      5  C   UNL     1       2.336   0.404   0.632  0.00  0.00    +0.203 C 
ATOM      6  C   UNL     1      -0.120   1.171   0.710  0.00  0.00    +0.181 C 
ATOM      7  C   UNL     1       3.361  -0.500  -0.088  0.00  0.00    +0.151 C 
ATOM      8  C   UNL     1       2.818  -1.753  -0.820  0.00  0.00    +0.031 C 
ATOM      9  C   UNL     1      -0.653   0.035   1.613  0.00  0.00    +0.091 C 
ATOM     10  C   UNL     1      -1.190  -1.253   0.950  0.00  0.00    +0.190 C 
ATOM     11  C   UNL     1       2.280  -2.896   0.073  0.00  0.00    +0.010 C 
ATOM     12  C   UNL     1       1.654   2.076  -0.809  0.00  0.00    +0.060 C 
ATOM     13  C   UNL     1       1.060  -2.603   0.946  0.00  0.00    +0.068 C 
ATOM     14  C   UNL     1      -0.142  -2.069   0.180  0.00  0.00    +0.187 C 
ATOM     15  C   UNL     1       2.739   2.611   0.033  0.00  0.00    +0.337 C 
ATOM     16  C   UNL     1       3.928  -2.345  -1.713  0.00  0.00    +0.003 C 
ATOM     17  C   UNL     1      -1.833  -2.164   2.003  0.00  0.00    +0.052 C 
ATOM     18  C   UNL     1       1.317   2.633  -1.975  0.00  0.00    +0.002 C 
ENDROOT
BRANCH   7  19
ATOM     19  O   UNL     1       4.317  -0.897   0.903  0.00  0.00    -0.381 OA
ATOM     20  H   UNL     1       4.655  -0.111   1.359  0.00  0.00    +0.210 HD
ENDBRANCH   7  19
BRANCH   6  21
ATOM     21  O   UNL     1      -1.187   1.632  -0.124  0.00  0.00    -0.449 OA
BRANCH  21  23
ATOM     22  O   UNL     1      -2.375   2.490   1.651  0.00  0.00    -0.245 OA
ATOM     23  C   UNL     1      -2.320   2.016   0.525  0.00  0.00    +0.337 C 
BRANCH  23  24
ATOM     24  C   UNL     1      -3.502   1.771  -0.347  0.00  0.00    +0.054 C 
ATOM     25  C   UNL     1      -3.370   1.841  -1.838  0.00  0.00    +0.038 C 
ATOM     26  C   UNL     1      -4.666   1.490   0.258  0.00  0.00    +0.002 C 
ENDBRANCH  23  24
ENDBRANCH  21  23
ENDBRANCH   6  21
BRANCH  10  27
ATOM     27  O   UNL     1      -2.208  -0.917   0.008  0.00  0.00    -0.448 OA
BRANCH  27  29
ATOM     28  O   UNL     1      -2.615  -3.160  -0.371  0.00  0.00    -0.250 OA
ATOM     29  C   UNL     1      -2.841  -1.975  -0.579  0.00  0.00    +0.318 C 
ATOM     30  C   UNL     1      -3.878  -1.475  -1.538  0.00  0.00    +0.121 C 
ENDBRANCH  27  29
ENDBRANCH  10  27
TORSDOF 6
