REMARK  Name = 131072
REMARK  6 active torsions:
REMARK  status: ('A' for Active; 'I' for Inactive)
REMARK    1  A    between atoms: C_2  and  O_16
REMARK    2  A    between atoms: C_3  and  O_18
REMARK    3  A    between atoms: C_4  and  C_20
REMARK    4  A    between atoms: C_5  and  C_8
REMARK    5  A    between atoms: C_9  and  C_13
REMARK    6  A    between atoms: C_20  and  O_21
REMARK                            x       y       z     vdW  Elec       q    Type
REMARK                         _______ _______ _______ _____ _____    ______ ____
ROOT
ATOM      1  O   UNL     1      -1.449   0.568  -1.002  0.00  0.00    -0.341 OA
ATOM      2  C   UNL     1      -3.065  -0.294   0.519  0.00  0.00    +0.170 C 
ATOM      3  C   UNL     1      -1.732  -0.971   0.773  0.00  0.00    +0.177 C 
ATOM      4  C   UNL     1      -2.663   0.926  -0.303  0.00  0.00    +0.174 C 
ATOM      5  C   UNL     1      -0.992  -0.715  -0.531  0.00  0.00    +0.233 C 
ENDROOT
BRANCH   5   8
ATOM      6  O   UNL     1       1.159  -1.846  -0.622  0.00  0.00    -0.445 OA
ATOM      7  N   UNL     1       1.269   0.337  -0.043  0.00  0.00    -0.365 NA
ATOM      8  C   UNL     1       0.510  -0.677  -0.379  0.00  0.00    +0.283 C 
ATOM      9  C   UNL     1       2.530  -0.202  -0.065  0.00  0.00    +0.209 C 
ATOM     10  C   UNL     1       2.468  -1.528  -0.416  0.00  0.00    +0.271 C 
BRANCH   9  13
ATOM     11  O   UNL     1       4.863   0.069   0.204  0.00  0.00    -0.268 OA
ATOM     12  N   UNL     1       3.553   1.896   0.579  0.00  0.00    -0.323 N 
ATOM     13  C   UNL     1       3.707   0.548   0.242  0.00  0.00    +0.272 C 
ATOM     14  H   UNL     1       4.343   2.443   0.796  0.00  0.00    +0.145 HD
ATOM     15  H   UNL     1       2.655   2.299   0.599  0.00  0.00    +0.145 HD
ENDBRANCH   9  13
ENDBRANCH   5   8
BRANCH   2  16
ATOM     16  O   UNL     1      -3.918  -1.130  -0.263  0.00  0.00    -0.379 OA
ATOM     17  H   UNL     1      -4.175  -1.907   0.257  0.00  0.00    +0.211 HD
ENDBRANCH   2  16
BRANCH   3  18
ATOM     18  O   UNL     1      -1.859  -2.352   1.046  0.00  0.00    -0.379 OA
ATOM     19  H   UNL     1      -2.334  -2.475   1.882  0.00  0.00    +0.211 HD
ENDBRANCH   3  18
BRANCH   4  20
ATOM     20  C   UNL     1      -2.377   2.150   0.555  0.00  0.00    +0.169 C 
BRANCH  20  21
ATOM     21  O   UNL     1      -2.003   3.222  -0.293  0.00  0.00    -0.379 OA
ATOM     22  H   UNL     1      -1.818   4.009   0.243  0.00  0.00    +0.211 HD
ENDBRANCH  20  21
ENDBRANCH   4  20
TORSDOF 6
