REMARK  Name = 131004
REMARK  11 active torsions:
REMARK  status: ('A' for Active; 'I' for Inactive)
REMARK    1  A    between atoms: C_1  and  C_2
REMARK    2  A    between atoms: C_1  and  O_6
REMARK    3  A    between atoms: C_1  and  C_13
REMARK    4  A    between atoms: C_2  and  O_4
REMARK    5  A    between atoms: O_6  and  C_7
REMARK    6  A    between atoms: C_7  and  C_10
REMARK    7  A    between atoms: C_10  and  O_11
REMARK    8  A    between atoms: C_13  and  O_14
REMARK    9  A    between atoms: C_13  and  C_16
REMARK   10  A    between atoms: C_16  and  O_17
REMARK   11  A    between atoms: C_16  and  C_20
REMARK                            x       y       z     vdW  Elec       q    Type
REMARK                         _______ _______ _______ _____ _____    ______ ____
ROOT
ATOM      1  C   UNL     1      -0.204   1.050   0.309  0.00  0.00    +0.172 C 
ENDROOT
BRANCH   1   2
ATOM      2  C   UNL     1      -0.791   2.144  -0.604  0.00  0.00    +0.140 C 
ATOM      3  C   UNL     1       0.251   3.153  -1.065  0.00  0.00    +0.034 C 
BRANCH   2   4
ATOM      4  O   UNL     1      -1.836   2.863   0.045  0.00  0.00    -0.382 OA
ATOM      5  H   UNL     1      -2.515   2.241   0.350  0.00  0.00    +0.210 HD
ENDBRANCH   2   4
ENDBRANCH   1   2
BRANCH   1   6
ATOM      6  O   UNL     1       0.895   0.449  -0.379  0.00  0.00    -0.343 OA
BRANCH   6   7
ATOM      7  C   UNL     1       1.922   0.073   0.524  0.00  0.00    +0.213 C 
ATOM      8  C   UNL     1       2.881   1.242   0.658  0.00  0.00    +0.044 C 
BRANCH   7  10
ATOM      9  O   UNL     1       2.358  -1.682  -1.100  0.00  0.00    -0.248 OA
ATOM     10  C   UNL     1       2.622  -1.151  -0.029  0.00  0.00    +0.341 C 
BRANCH  10  11
ATOM     11  O   UNL     1       3.607  -1.596   0.794  0.00  0.00    -0.479 OA
ATOM     12  H   UNL     1       3.774  -1.158   1.605  0.00  0.00    +0.295 HD
ENDBRANCH  10  11
ENDBRANCH   7  10
ENDBRANCH   6   7
ENDBRANCH   1   6
BRANCH   1  13
ATOM     13  C   UNL     1      -1.194  -0.037   0.784  0.00  0.00    +0.174 C 
BRANCH  13  14
ATOM     14  O   UNL     1      -2.206   0.565   1.592  0.00  0.00    -0.379 OA
ATOM     15  H   UNL     1      -1.792   1.041   2.328  0.00  0.00    +0.211 HD
ENDBRANCH  13  14
BRANCH  13  16
ATOM     16  C   UNL     1      -1.852  -0.791  -0.383  0.00  0.00    +0.205 C 
BRANCH  16  17
ATOM     17  O   UNL     1      -0.882  -1.424  -1.194  0.00  0.00    -0.375 OA
ATOM     18  H   UNL     1      -0.256  -0.762  -1.526  0.00  0.00    +0.211 HD
ENDBRANCH  16  17
BRANCH  16  20
ATOM     19  O   UNL     1      -2.741  -3.030  -0.089  0.00  0.00    -0.286 OA
ATOM     20  C   UNL     1      -2.829  -1.827   0.135  0.00  0.00    +0.239 C 
ENDBRANCH  16  20
ENDBRANCH  13  16
ENDBRANCH   1  13
TORSDOF 11
