131047
  -OEChem-03292013323D

 40 39  0     1  0  0  0  0  0999 V2000
    1.4516    0.4731   -1.8229 O   0  0  0  0  0  0  0  0  0  0  0  0
   -1.9378    2.2332   -1.1287 O   0  0  0  0  0  0  0  0  0  0  0  0
   -0.8749    2.1807    0.8726 O   0  0  0  0  0  0  0  0  0  0  0  0
   -1.4983   -2.8374    1.0646 O   0  5  0  0  0  0  0  0  0  0  0  0
   -1.7259   -2.5747   -1.1111 O   0  0  0  0  0  0  0  0  0  0  0  0
   -5.2835    1.0885   -0.3305 O   0  0  0  0  0  0  0  0  0  0  0  0
   -4.0656    0.9757    1.5811 O   0  0  0  0  0  0  0  0  0  0  0  0
    0.2785   -0.1403    0.0845 N   0  0  0  0  0  0  0  0  0  0  0  0
    2.8524   -1.7737   -0.1229 N   0  0  0  0  0  0  0  0  0  0  0  0
   -1.7422   -2.1623    0.0560 N   0  3  0  0  0  0  0  0  0  0  0  0
    3.9346    0.4161   -0.4230 C   0  0  0  0  0  0  0  0  0  0  0  0
    2.6939   -0.3327    0.0896 C   0  0  1  0  0  0  0  0  0  0  0  0
   -1.0479    0.1273   -0.4226 C   0  0  1  0  0  0  0  0  0  0  0  0
    5.2369    0.0968    0.3425 C   0  0  0  0  0  0  0  0  0  0  0  0
   -2.1074   -0.7381    0.2633 C   0  0  1  0  0  0  0  0  0  0  0  0
    1.4282    0.0572   -0.6659 C   0  0  0  0  0  0  0  0  0  0  0  0
   -3.5449   -0.5534   -0.2234 C   0  0  0  0  0  0  0  0  0  0  0  0
    6.4517    0.8205   -0.2401 C   0  0  0  0  0  0  0  0  0  0  0  0
    5.0724    0.4713    1.8182 C   0  0  0  0  0  0  0  0  0  0  0  0
   -1.2705    1.6000   -0.1309 C   0  0  0  0  0  0  0  0  0  0  0  0
   -4.3011    0.5724    0.4494 C   0  0  0  0  0  0  0  0  0  0  0  0
    3.7411    1.4964   -0.3765 H   0  0  0  0  0  0  0  0  0  0  0  0
    4.0891    0.1903   -1.4873 H   0  0  0  0  0  0  0  0  0  0  0  0
    2.5338   -0.1284    1.1528 H   0  0  0  0  0  0  0  0  0  0  0  0
   -1.0366   -0.0186   -1.5098 H   0  0  0  0  0  0  0  0  0  0  0  0
    5.4486   -0.9768    0.2794 H   0  0  0  0  0  0  0  0  0  0  0  0
   -2.0631   -0.5762    1.3492 H   0  0  0  0  0  0  0  0  0  0  0  0
    0.3679   -0.4347    1.0530 H   0  0  0  0  0  0  0  0  0  0  0  0
   -4.1431   -1.4558   -0.0399 H   0  0  0  0  0  0  0  0  0  0  0  0
   -3.5486   -0.3763   -1.3064 H   0  0  0  0  0  0  0  0  0  0  0  0
    6.5952    0.5475   -1.2907 H   0  0  0  0  0  0  0  0  0  0  0  0
    7.3646    0.5546    0.3031 H   0  0  0  0  0  0  0  0  0  0  0  0
    6.3279    1.9075   -0.1868 H   0  0  0  0  0  0  0  0  0  0  0  0
    4.7386    1.5081    1.9343 H   0  0  0  0  0  0  0  0  0  0  0  0
    6.0244    0.3662    2.3507 H   0  0  0  0  0  0  0  0  0  0  0  0
    4.3578   -0.1827    2.3263 H   0  0  0  0  0  0  0  0  0  0  0  0
    3.6354   -2.1213    0.4281 H   0  0  0  0  0  0  0  0  0  0  0  0
    2.0303   -2.2620    0.2323 H   0  0  0  0  0  0  0  0  0  0  0  0
   -2.0652    3.1866   -0.9362 H   0  0  0  0  0  0  0  0  0  0  0  0
   -5.7664    1.8134    0.1209 H   0  0  0  0  0  0  0  0  0  0  0  0
  1 16  2  0  0  0  0
  2 20  1  0  0  0  0
  2 39  1  0  0  0  0
  3 20  2  0  0  0  0
  4 10  1  0  0  0  0
  5 10  2  0  0  0  0
  6 21  1  0  0  0  0
  6 40  1  0  0  0  0
  7 21  2  0  0  0  0
  8 13  1  0  0  0  0
  8 16  1  0  0  0  0
  8 28  1  0  0  0  0
  9 12  1  0  0  0  0
  9 37  1  0  0  0  0
  9 38  1  0  0  0  0
 10 15  1  0  0  0  0
 11 12  1  0  0  0  0
 11 14  1  0  0  0  0
 11 22  1  0  0  0  0
 11 23  1  0  0  0  0
 12 16  1  0  0  0  0
 12 24  1  0  0  0  0
 13 15  1  0  0  0  0
 13 20  1  0  0  0  0
 13 25  1  0  0  0  0
 14 18  1  0  0  0  0
 14 19  1  0  0  0  0
 14 26  1  0  0  0  0
 15 17  1  0  0  0  0
 15 27  1  0  0  0  0
 17 21  1  0  0  0  0
 17 29  1  0  0  0  0
 17 30  1  0  0  0  0
 18 31  1  0  0  0  0
 18 32  1  0  0  0  0
 18 33  1  0  0  0  0
 19 34  1  0  0  0  0
 19 35  1  0  0  0  0
 19 36  1  0  0  0  0
M  CHG  2   4  -1  10   1
M  END
> <PUBCHEM_COMPOUND_CID>
131047

> <PUBCHEM_CONFORMER_RMSD>
1

> <PUBCHEM_CONFORMER_DIVERSEORDER>
1
30
29
18
47
31
60
38
16
34
55
46
12
45
53
36
2
48
58
37
28
11
15
24
50
44
57
49
27
51
54
41
23
17
22
59
56
20
25
33
52
7
6
62
19
39
9
35
43
10
61
4
5
40
42
21
3
26
13
32
8
14

> <PUBCHEM_MMFF94_PARTIAL_CHARGES>
22
1 -0.57
10 0.8
12 0.33
13 0.36
15 0.24
16 0.57
17 0.06
2 -0.65
20 0.66
21 0.66
28 0.37
3 -0.57
37 0.36
38 0.36
39 0.5
4 -0.52
40 0.5
5 -0.52
6 -0.65
7 -0.57
8 -0.73
9 -0.99

> <PUBCHEM_EFFECTIVE_ROTOR_COUNT>
10

> <PUBCHEM_PHARMACOPHORE_FEATURES>
14
1 1 acceptor
1 2 acceptor
1 3 acceptor
1 4 acceptor
1 4 anion
1 5 acceptor
1 6 acceptor
1 7 acceptor
1 8 donor
1 9 cation
1 9 donor
3 14 18 19 hydrophobe
3 2 3 20 anion
3 6 7 21 anion

> <PUBCHEM_HEAVY_ATOM_COUNT>
21

> <PUBCHEM_ATOM_DEF_STEREO_COUNT>
2

> <PUBCHEM_ATOM_UDEF_STEREO_COUNT>
1

> <PUBCHEM_BOND_DEF_STEREO_COUNT>
0

> <PUBCHEM_BOND_UDEF_STEREO_COUNT>
0

> <PUBCHEM_ISOTOPIC_ATOM_COUNT>
0

> <PUBCHEM_COMPONENT_COUNT>
1

> <PUBCHEM_CACTVS_TAUTO_COUNT>
4

> <PUBCHEM_CONFORMER_ID>
0001FFE700000001

> <PUBCHEM_MMFF94_ENERGY>
32.8012

> <PUBCHEM_FEATURE_SELFOVERLAP>
71.248

> <PUBCHEM_SHAPE_FINGERPRINT>
10366900 7 18272923951744327306
10906281 52 18058748960361798361
11045977 3 18130503128298599976
11132069 177 18411990130912162909
12236239 1 17821446872297973216
12403814 3 17967531264045251453
12507560 40 18337671889412115388
12616971 3 17313103099066348838
12633257 1 18410285939381485496
13140716 1 18264777742602254601
13533116 47 18200309906102241902
14341114 176 18410015429820115632
15375358 24 17775573043505042862
1813 80 16443070452834498710
19050596 39 18334294314345774708
200 152 15357698586839867368
20510252 161 18269274569140312249
20600515 1 18342189885485532101
20645477 56 18409445869315978924
20645477 70 16486703455180657982
23402539 116 18412538821257676693
23557571 272 18129673014014855822
23559900 14 18343027679566044070
26918003 58 17022908955838920361
34934 24 18409164411387411394
3545911 37 18412826863751053036
5104073 3 18189897694206224848
59755656 215 18271533005480141502
59755656 520 15626218009577274540
7226269 152 18412265025725098329

> <PUBCHEM_SHAPE_MULTIPOLES>
376.14
11.83
2.21
1.23
12.27
1.07
-0.17
-3.35
-2.46
-2.19
-0.02
0.37
-0.17
-0.04

> <PUBCHEM_SHAPE_SELFOVERLAP>
738.807

> <PUBCHEM_SHAPE_VOLUME>
223.8

> <PUBCHEM_COORDINATE_TYPE>
2
5
10

$$$$
