131023
  -OEChem-03292013323D

 59 61  0     0  0  0  0  0  0999 V2000
    0.4329    3.3523    0.0401 S   0  0  0  0  0  0  0  0  0  0  0  0
    0.7202    4.1995    1.1878 O   0  0  0  0  0  0  0  0  0  0  0  0
    0.2122    3.9514   -1.2675 O   0  0  0  0  0  0  0  0  0  0  0  0
    2.3866   -2.6928    1.5686 O   0  0  0  0  0  0  0  0  0  0  0  0
   -2.3899    0.6841    0.1898 N   0  0  0  0  0  0  0  0  0  0  0  0
   -0.8323    2.2954    0.4069 N   0  0  0  0  0  0  0  0  0  0  0  0
   -1.7594    1.9744   -1.7616 N   0  0  0  0  0  0  0  0  0  0  0  0
    3.6442   -2.5711   -0.3833 N   0  0  0  0  0  0  0  0  0  0  0  0
   -3.4709   -0.1364   -0.3124 C   0  0  0  0  0  0  0  0  0  0  0  0
   -4.8025    0.5836   -0.0885 C   0  0  0  0  0  0  0  0  0  0  0  0
   -3.4500   -1.4995    0.3833 C   0  0  0  0  0  0  0  0  0  0  0  0
   -5.9858   -0.2827   -0.5133 C   0  0  0  0  0  0  0  0  0  0  0  0
   -4.6342   -2.3636   -0.0436 C   0  0  0  0  0  0  0  0  0  0  0  0
   -5.9623   -1.6444    0.1756 C   0  0  0  0  0  0  0  0  0  0  0  0
   -2.0928    0.7145    1.6221 C   0  0  0  0  0  0  0  0  0  0  0  0
   -0.8452    1.6132    1.7297 C   0  0  0  0  0  0  0  0  0  0  0  0
   -1.7044    1.6451   -0.5170 C   0  0  0  0  0  0  0  0  0  0  0  0
    1.7790    2.2149   -0.1212 C   0  0  0  0  0  0  0  0  0  0  0  0
    2.7926    2.1930    0.8368 C   0  0  0  0  0  0  0  0  0  0  0  0
    1.8268    1.3409   -1.2073 C   0  0  0  0  0  0  0  0  0  0  0  0
    3.9019    0.4232   -0.3775 C   0  0  0  0  0  0  0  0  0  0  0  0
    3.8540    1.2971    0.7086 C   0  0  0  0  0  0  0  0  0  0  0  0
    2.8882    0.4452   -1.3355 C   0  0  0  0  0  0  0  0  0  0  0  0
    5.0360   -0.5356   -0.5141 C   0  0  0  0  0  0  0  0  0  0  0  0
    4.7827   -1.8860    0.1674 C   0  0  0  0  0  0  0  0  0  0  0  0
    2.5324   -2.9194    0.3717 C   0  0  0  0  0  0  0  0  0  0  0  0
    1.5018   -3.6216   -0.4415 C   0  0  0  0  0  0  0  0  0  0  0  0
    0.3586   -4.0327    0.1235 C   0  0  0  0  0  0  0  0  0  0  0  0
   -0.7202   -4.7421   -0.6277 C   0  0  0  0  0  0  0  0  0  0  0  0
   -3.3374   -0.3118   -1.3872 H   0  0  0  0  0  0  0  0  0  0  0  0
   -4.9239    0.8526    0.9684 H   0  0  0  0  0  0  0  0  0  0  0  0
   -4.8209    1.5254   -0.6506 H   0  0  0  0  0  0  0  0  0  0  0  0
   -2.5101   -2.0208    0.1701 H   0  0  0  0  0  0  0  0  0  0  0  0
   -3.5203   -1.3973    1.4724 H   0  0  0  0  0  0  0  0  0  0  0  0
   -6.9238    0.2332   -0.2787 H   0  0  0  0  0  0  0  0  0  0  0  0
   -5.9622   -0.4236   -1.6009 H   0  0  0  0  0  0  0  0  0  0  0  0
   -4.6269   -3.3043    0.5186 H   0  0  0  0  0  0  0  0  0  0  0  0
   -4.5306   -2.6251   -1.1039 H   0  0  0  0  0  0  0  0  0  0  0  0
   -6.1320   -1.5116    1.2512 H   0  0  0  0  0  0  0  0  0  0  0  0
   -6.7835   -2.2633   -0.2032 H   0  0  0  0  0  0  0  0  0  0  0  0
   -1.8533   -0.2655    2.0442 H   0  0  0  0  0  0  0  0  0  0  0  0
   -2.9247    1.1559    2.1809 H   0  0  0  0  0  0  0  0  0  0  0  0
   -0.9360    2.3241    2.5547 H   0  0  0  0  0  0  0  0  0  0  0  0
    0.0521    0.9998    1.8537 H   0  0  0  0  0  0  0  0  0  0  0  0
   -2.4456    1.3922   -2.2496 H   0  0  0  0  0  0  0  0  0  0  0  0
    2.7790    2.8593    1.6941 H   0  0  0  0  0  0  0  0  0  0  0  0
    1.0498    1.3462   -1.9658 H   0  0  0  0  0  0  0  0  0  0  0  0
    4.6360    1.2874    1.4632 H   0  0  0  0  0  0  0  0  0  0  0  0
    2.9135   -0.2282   -2.1882 H   0  0  0  0  0  0  0  0  0  0  0  0
    5.2485   -0.6975   -1.5794 H   0  0  0  0  0  0  0  0  0  0  0  0
    5.9495   -0.0908   -0.0989 H   0  0  0  0  0  0  0  0  0  0  0  0
    4.6548   -1.7495    1.2469 H   0  0  0  0  0  0  0  0  0  0  0  0
    5.6500   -2.5374    0.0157 H   0  0  0  0  0  0  0  0  0  0  0  0
    3.6860   -2.8297   -1.3650 H   0  0  0  0  0  0  0  0  0  0  0  0
    1.6963   -3.7903   -1.4954 H   0  0  0  0  0  0  0  0  0  0  0  0
    0.1682   -3.8596    1.1791 H   0  0  0  0  0  0  0  0  0  0  0  0
   -0.4695   -4.8784   -1.6845 H   0  0  0  0  0  0  0  0  0  0  0  0
   -0.8914   -5.7296   -0.1882 H   0  0  0  0  0  0  0  0  0  0  0  0
   -1.6536   -4.1753   -0.5703 H   0  0  0  0  0  0  0  0  0  0  0  0
  1  2  2  0  0  0  0
  1  3  2  0  0  0  0
  1  6  1  0  0  0  0
  1 18  1  0  0  0  0
  4 26  2  0  0  0  0
  5  9  1  0  0  0  0
  5 15  1  0  0  0  0
  5 17  1  0  0  0  0
  6 16  1  0  0  0  0
  6 17  1  0  0  0  0
  7 17  2  0  0  0  0
  7 45  1  0  0  0  0
  8 25  1  0  0  0  0
  8 26  1  0  0  0  0
  8 54  1  0  0  0  0
  9 10  1  0  0  0  0
  9 11  1  0  0  0  0
  9 30  1  0  0  0  0
 10 12  1  0  0  0  0
 10 31  1  0  0  0  0
 10 32  1  0  0  0  0
 11 13  1  0  0  0  0
 11 33  1  0  0  0  0
 11 34  1  0  0  0  0
 12 14  1  0  0  0  0
 12 35  1  0  0  0  0
 12 36  1  0  0  0  0
 13 14  1  0  0  0  0
 13 37  1  0  0  0  0
 13 38  1  0  0  0  0
 14 39  1  0  0  0  0
 14 40  1  0  0  0  0
 15 16  1  0  0  0  0
 15 41  1  0  0  0  0
 15 42  1  0  0  0  0
 16 43  1  0  0  0  0
 16 44  1  0  0  0  0
 18 19  2  0  0  0  0
 18 20  1  0  0  0  0
 19 22  1  0  0  0  0
 19 46  1  0  0  0  0
 20 23  2  0  0  0  0
 20 47  1  0  0  0  0
 21 22  2  0  0  0  0
 21 23  1  0  0  0  0
 21 24  1  0  0  0  0
 22 48  1  0  0  0  0
 23 49  1  0  0  0  0
 24 25  1  0  0  0  0
 24 50  1  0  0  0  0
 24 51  1  0  0  0  0
 25 52  1  0  0  0  0
 25 53  1  0  0  0  0
 26 27  1  0  0  0  0
 27 28  2  3  0  0  0
 27 55  1  0  0  0  0
 28 29  1  0  0  0  0
 28 56  1  0  0  0  0
 29 57  1  0  0  0  0
 29 58  1  0  0  0  0
 29 59  1  0  0  0  0
M  END
> <PUBCHEM_COMPOUND_CID>
131023

> <PUBCHEM_CONFORMER_RMSD>
1

> <PUBCHEM_CONFORMER_DIVERSEORDER>
1
86
55
56
87
52
73
59
76
65
62
12
78
85
72
41
67
30
82
39
40
69
37
74
61
46
49
81
68
32
47
35
21
70
58
25
34
14
15
83
48
17
64
75
18
79
31
88
16
36
19
24
54
77
50
42
84
89
60
20
28
29
80
57
33
9
45
71
7
10
3
63
26
53
44
38
23
8
27
11
13
22
43
4
66
5
51
2
6

> <PUBCHEM_MMFF94_PARTIAL_CHARGES>
32
1 1.45
15 0.37
16 0.36
17 0.74
18 -0.01
19 -0.15
2 -0.65
20 -0.15
21 -0.14
22 -0.15
23 -0.15
24 0.14
25 0.3
26 0.62
27 -0.14
28 -0.29
29 0.14
3 -0.65
4 -0.57
45 0.4
46 0.15
47 0.15
48 0.15
49 0.15
5 -0.79
54 0.37
55 0.15
56 0.15
6 -0.73
7 -0.85
8 -0.73
9 0.37

> <PUBCHEM_EFFECTIVE_ROTOR_COUNT>
10

> <PUBCHEM_PHARMACOPHORE_FEATURES>
9
1 2 acceptor
1 29 hydrophobe
1 3 acceptor
1 4 acceptor
1 7 donor
1 8 donor
5 5 6 15 16 17 rings
6 18 19 20 21 22 23 rings
6 9 10 11 12 13 14 rings

> <PUBCHEM_HEAVY_ATOM_COUNT>
29

> <PUBCHEM_ATOM_DEF_STEREO_COUNT>
0

> <PUBCHEM_ATOM_UDEF_STEREO_COUNT>
0

> <PUBCHEM_BOND_DEF_STEREO_COUNT>
0

> <PUBCHEM_BOND_UDEF_STEREO_COUNT>
1

> <PUBCHEM_ISOTOPIC_ATOM_COUNT>
0

> <PUBCHEM_COMPONENT_COUNT>
1

> <PUBCHEM_CACTVS_TAUTO_COUNT>
2

> <PUBCHEM_CONFORMER_ID>
0001FFCF00000001

> <PUBCHEM_MMFF94_ENERGY>
44.9386

> <PUBCHEM_FEATURE_SELFOVERLAP>
45.689

> <PUBCHEM_SHAPE_FINGERPRINT>
1100329 8 18196372734908645510
114674 6 18338232794686881600
13122387 1 17833835971540780638
13383661 66 17916041061798035022
13402501 40 18408324401678488926
1361 2 18410571833758399771
13631057 29 18266745688955749188
14117953 113 18268424642673858319
15320467 1 18411138039075796943
15927050 60 17837492221327899934
19930381 70 18338234860566339179
20028762 73 18273496754353408062
20775530 9 18336261241320539559
22113638 7 18338796826940763702
23559900 14 18338228375661711361
3298306 158 18336263565446758731
338550 245 18263926707775807887
3882209 13 17253675336967155367
445580 102 18194398888446252302
46194498 28 17604148237258750421
463206 1 18408608071362311107
5309563 4 18411418380048538589
6433294 58 17836088140473480171
9896288 288 17769372722133632626

> <PUBCHEM_SHAPE_MULTIPOLES>
563.12
10.84
6.04
1.28
9.94
3.34
0.12
5.13
-0.71
-2.65
-0.03
-0.18
-0.65
-0.02

> <PUBCHEM_SHAPE_SELFOVERLAP>
1153.141

> <PUBCHEM_SHAPE_VOLUME>
325.2

> <PUBCHEM_COORDINATE_TYPE>
2
5
10

$$$$
