REMARK  Name = 131047
REMARK  12 active torsions:
REMARK  status: ('A' for Active; 'I' for Inactive)
REMARK    1  A    between atoms: C_1  and  N_3
REMARK    2  A    between atoms: C_1  and  C_16
REMARK    3  A    between atoms: C_1  and  C_19
REMARK    4  A    between atoms: C_4  and  CA_6
REMARK    5  A    between atoms: CA_6  and  N_7
REMARK    6  A    between atoms: CA_6  and  CB_11
REMARK    7  A    between atoms: CB_11  and  CG_12
REMARK    8  A    between atoms: C_16  and  O_17
REMARK    9  A    between atoms: C_19  and  N_22
REMARK   10  A    between atoms: C_19  and  C_23
REMARK   11  A    between atoms: C_23  and  C_25
REMARK   12  A    between atoms: C_25  and  O_26
REMARK                            x       y       z     vdW  Elec       q    Type
REMARK                         _______ _______ _______ _____ _____    ______ ____
ROOT
ATOM      1  C   UNK A   2      -1.048   0.127  -0.423  0.00  0.00    +0.199 C 
ENDROOT
BRANCH   1   3
ATOM      2  O   LEU A   1       1.452   0.473  -1.823  0.00  0.00    -0.277 OA
ATOM      3  N   UNK A   2       0.279  -0.140   0.085  0.00  0.00    -0.297 N 
ATOM      4  C   LEU A   1       1.428   0.057  -0.666  0.00  0.00    +0.202 C 
ATOM      5  H   UNK A   2       0.370  -0.478   1.005  0.00  0.00    +0.150 HD
BRANCH   4   6
ATOM      6  CA  LEU A   1       2.694  -0.333   0.090  0.00  0.00    +0.013 C 
BRANCH   6   7
ATOM      7  N   LEU A   1       2.852  -1.774  -0.123  0.00  0.00    +0.387 N 
ATOM      8  H1  LEU A   1       3.689  -2.099   0.362  0.00  0.00    -0.089 HD
ATOM      9  H2  LEU A   1       2.943  -1.962  -1.121  0.00  0.00    -0.089 HD
ATOM     10  H3  LEU A   1       2.036  -2.263   0.243  0.00  0.00    -0.089 HD
ENDBRANCH   6   7
BRANCH   6  11
ATOM     11  CB  LEU A   1       3.935   0.416  -0.423  0.00  0.00    -0.013 C 
BRANCH  11  12
ATOM     12  CG  LEU A   1       5.237   0.097   0.343  0.00  0.00    -0.002 C 
ATOM     13  CD1 LEU A   1       6.452   0.821  -0.240  0.00  0.00    -0.000 C 
ATOM     14  CD2 LEU A   1       5.072   0.471   1.818  0.00  0.00    -0.000 C 
ENDBRANCH  11  12
ENDBRANCH   6  11
ENDBRANCH   4   6
ENDBRANCH   1   3
BRANCH   1  16
ATOM     15  O   UNK A   2      -0.875   2.181   0.873  0.00  0.00    -0.248 OA
ATOM     16  C   UNK A   2      -1.270   1.600  -0.131  0.00  0.00    +0.334 C 
BRANCH  16  17
ATOM     17  O   UNK A   2      -1.938   2.233  -1.129  0.00  0.00    -0.479 OA
ATOM     18  H   UNK A   2      -2.224   1.752  -1.880  0.00  0.00    +0.295 HD
ENDBRANCH  16  17
ENDBRANCH   1  16
BRANCH   1  19
ATOM     19  C   UNK A   2      -2.107  -0.738   0.263  0.00  0.00    +0.206 C 
BRANCH  19  22
ATOM     20  O   UNK A   2      -1.498  -2.837   1.065  0.00  0.00    -0.131 OA
ATOM     21  O   UNK A   2      -1.726  -2.575  -1.111  0.00  0.00    -0.131 OA
ATOM     22  N   UNK A   2      -1.742  -2.162   0.056  0.00  0.00    +0.035 N 
ENDBRANCH  19  22
BRANCH  19  23
ATOM     23  C   UNK A   2      -3.545  -0.553  -0.223  0.00  0.00    +0.141 C 
BRANCH  23  25
ATOM     24  O   UNK A   2      -4.066   0.976   1.581  0.00  0.00    -0.250 OA
ATOM     25  C   UNK A   2      -4.301   0.572   0.449  0.00  0.00    +0.316 C 
BRANCH  25  26
ATOM     26  O   UNK A   2      -5.284   1.089  -0.331  0.00  0.00    -0.480 OA
ATOM     27  H   UNK A   2      -5.427   0.747  -1.191  0.00  0.00    +0.295 HD
ENDBRANCH  25  26
ENDBRANCH  23  25
ENDBRANCH  19  23
ENDBRANCH   1  19
TORSDOF 12
