REMARK  Name = 13116602
REMARK  8 active torsions:
REMARK  status: ('A' for Active; 'I' for Inactive)
REMARK    1  A    between atoms: CA_5  and  N_11
REMARK    2  A    between atoms: CA_7  and  C_24
REMARK    3  A    between atoms: C_8  and  C_27
REMARK    4  A    between atoms: C_12  and  C_14
REMARK    5  A    between atoms: C_14  and  C_18
REMARK    6  A    between atoms: C_24  and  O_25
REMARK    7  A    between atoms: C_27  and  O_28
REMARK    8  A    between atoms: O_28  and  C_30
REMARK                            x       y       z     vdW  Elec       q    Type
REMARK                         _______ _______ _______ _____ _____    ______ ____
ROOT
ATOM      1  S   UNL     1      -1.124  -2.269   0.137  0.00  0.00    -0.114 S 
ATOM      2  O   UNL     1       0.430   1.935  -1.099  0.00  0.00    -0.273 OA
ATOM      3  N   UNL     1      -1.165   0.233  -0.751  0.00  0.00    -0.242 N 
ATOM      4  C   UNL     1      -0.865  -1.107  -1.223  0.00  0.00    +0.155 C 
ATOM      5  CA  UNL     1       0.581  -0.606  -1.432  0.00  0.00    +0.178 C 
ATOM      6  C   UNL     1       0.005   0.803  -1.112  0.00  0.00    +0.251 C 
ATOM      7  CA  UNL     1      -2.334   0.579  -0.154  0.00  0.00    +0.127 C 
ATOM      8  C   UNL     1      -3.195  -0.358   0.311  0.00  0.00    +0.030 C 
ATOM      9  C   UNL     1      -2.893  -1.855   0.302  0.00  0.00    +0.086 C 
ENDROOT
BRANCH   5  11
ATOM     10  O   UNL     1       3.228   0.505  -1.121  0.00  0.00    -0.275 OA
ATOM     11  N   UNL     1       1.616  -1.042  -0.495  0.00  0.00    -0.296 N 
ATOM     12  C   UNL     1       2.872  -0.438  -0.419  0.00  0.00    +0.230 C 
ATOM     13  H   UNL     1       1.418  -1.793   0.109  0.00  0.00    +0.150 HD
BRANCH  12  14
ATOM     14  C   UNL     1       3.755  -1.089   0.631  0.00  0.00    +0.140 C 
BRANCH  14  18
ATOM     15  S   UNL     1       7.005   1.073   1.413  0.00  0.00    -0.060 S 
ATOM     16  N   UNL     1       6.108  -0.872  -0.034  0.00  0.00    -0.389 NA
ATOM     17  N   UNL     1       8.384  -0.332  -0.375  0.00  0.00    -0.328 N 
ATOM     18  C   UNL     1       5.084  -0.415   0.758  0.00  0.00    +0.109 C 
ATOM     19  C   UNL     1       5.361   0.623   1.604  0.00  0.00    +0.121 C 
ATOM     20  C   UNL     1       7.178  -0.155   0.228  0.00  0.00    +0.204 C 
ATOM     21  H   UNL     1       9.145   0.242  -0.130  0.00  0.00    +0.145 HD
ATOM     22  H   UNL     1       8.496  -1.034  -1.057  0.00  0.00    +0.145 HD
ENDBRANCH  14  18
ENDBRANCH  12  14
ENDBRANCH   5  11
BRANCH   7  24
ATOM     23  OXT UNL     1      -2.222   2.666   0.979  0.00  0.00    -0.244 OA
ATOM     24  C   UNL     1      -2.593   2.015   0.022  0.00  0.00    +0.352 C 
BRANCH  24  25
ATOM     25  O   UNL     1      -3.296   2.476  -1.031  0.00  0.00    -0.476 OA
ATOM     26  H   UNL     1      -3.538   1.893  -1.724  0.00  0.00    +0.295 HD
ENDBRANCH  24  25
ENDBRANCH   7  24
BRANCH   8  27
ATOM     27  C   UNL     1      -4.548  -0.056   0.911  0.00  0.00    +0.233 C 
BRANCH  27  28
ATOM     28  O   UNL     1      -5.550  -0.697   0.150  0.00  0.00    -0.444 OA
BRANCH  28  30
ATOM     29  O   UNL     1      -7.187   0.148   1.545  0.00  0.00    -0.250 OA
ATOM     30  C   UNL     1      -6.841  -0.515   0.576  0.00  0.00    +0.318 C 
ATOM     31  C   UNL     1      -7.792  -1.248  -0.322  0.00  0.00    +0.121 C 
ENDBRANCH  28  30
ENDBRANCH  27  28
ENDBRANCH   8  27
TORSDOF 8
