REMARK  Name = 13112
REMARK  7 active torsions:
REMARK  status: ('A' for Active; 'I' for Inactive)
REMARK    1  A    between atoms: P_1  and  O_3
REMARK    2  A    between atoms: P_1  and  O_5
REMARK    3  A    between atoms: P_1  and  O_15
REMARK    4  A    between atoms: O_5  and  C_6
REMARK    5  A    between atoms: C_9  and  N_14
REMARK    6  A    between atoms: O_15  and  C_16
REMARK    7  A    between atoms: C_19  and  N_24
REMARK                            x       y       z     vdW  Elec       q    Type
REMARK                         _______ _______ _______ _____ _____    ______ ____
ROOT
ATOM      1  P   UNL     1       0.003  -0.033   0.296  0.00  0.00    +0.592 P 
ATOM      2  O   UNL     1       0.003   0.863   1.504  0.00  0.00    -0.204 OA
ENDROOT
BRANCH   1   3
ATOM      3  O   UNL     1       0.002   0.737  -1.131  0.00  0.00    -0.251 OA
ATOM      4  C   UNL     1       0.002   0.000  -2.342  0.00  0.00    +0.188 C 
ENDBRANCH   1   3
BRANCH   1   5
ATOM      5  O   UNL     1      -1.264  -1.042   0.216  0.00  0.00    -0.394 OA
BRANCH   5   6
ATOM      6  C   UNL     1      -2.569  -0.662   0.164  0.00  0.00    +0.150 C 
ATOM      7  C   UNL     1      -2.902   0.693   0.177  0.00  0.00    +0.039 C 
ATOM      8  C   UNL     1      -3.575  -1.626   0.097  0.00  0.00    +0.039 C 
ATOM      9  C   UNL     1      -5.245   0.119   0.056  0.00  0.00    +0.143 C 
ATOM     10  C   UNL     1      -4.240   1.083   0.123  0.00  0.00    +0.027 C 
ATOM     11  C   UNL     1      -4.913  -1.235   0.043  0.00  0.00    +0.027 C 
BRANCH   9  14
ATOM     12  O   UNL     1      -6.886   1.739   0.016  0.00  0.00    -0.126 OA
ATOM     13  O   UNL     1      -7.496  -0.368  -0.059  0.00  0.00    -0.126 OA
ATOM     14  N   UNL     1      -6.608   0.516   0.002  0.00  0.00    +0.058 N 
ENDBRANCH   9  14
ENDBRANCH   5   6
ENDBRANCH   1   5
BRANCH   1  15
ATOM     15  O   UNL     1       1.262  -1.044   0.215  0.00  0.00    -0.394 OA
BRANCH  15  16
ATOM     16  C   UNL     1       2.576  -0.660   0.163  0.00  0.00    +0.150 C 
ATOM     17  C   UNL     1       2.900   0.692   0.178  0.00  0.00    +0.039 C 
ATOM     18  C   UNL     1       3.574  -1.627   0.095  0.00  0.00    +0.039 C 
ATOM     19  C   UNL     1       5.244   0.119   0.057  0.00  0.00    +0.143 C 
ATOM     20  C   UNL     1       4.238   1.083   0.125  0.00  0.00    +0.027 C 
ATOM     21  C   UNL     1       4.912  -1.236   0.042  0.00  0.00    +0.027 C 
BRANCH  19  24
ATOM     22  O   UNL     1       6.884   1.740   0.016  0.00  0.00    -0.126 OA
ATOM     23  O   UNL     1       7.495  -0.368  -0.058  0.00  0.00    -0.126 OA
ATOM     24  N   UNL     1       6.606   0.516   0.002  0.00  0.00    +0.058 N 
ENDBRANCH  19  24
ENDBRANCH  15  16
ENDBRANCH   1  15
TORSDOF 7
