REMARK  Name = 131160
REMARK  8 active torsions:
REMARK  status: ('A' for Active; 'I' for Inactive)
REMARK    1  A    between atoms: C_1  and  N_2
REMARK    2  A    between atoms: C_1  and  C_7
REMARK    3  A    between atoms: C_1  and  C_9
REMARK    4  A    between atoms: C_1  and  C_12
REMARK    5  A    between atoms: C_9  and  O_10
REMARK    6  A    between atoms: C_12  and  C_13
REMARK    7  A    between atoms: C_14  and  O_19
REMARK    8  A    between atoms: C_16  and  O_21
REMARK                            x       y       z     vdW  Elec       q    Type
REMARK                         _______ _______ _______ _____ _____    ______ ____
ROOT
ATOM      1  C   UNL     1      -1.820   0.294   0.384  0.00  0.00    +0.080 C 
ENDROOT
BRANCH   1   2
ATOM      2  N   UNL     1      -3.012   0.513   1.230  0.00  0.00    +0.392 N 
ATOM      3  H   UNL     1      -2.881   1.356   1.789  0.00  0.00    -0.088 HD
ATOM      4  H   UNL     1      -3.141  -0.288   1.849  0.00  0.00    -0.088 HD
ATOM      5  H   UNL     1      -3.835   0.621   0.638  0.00  0.00    -0.088 HD
ENDBRANCH   1   2
BRANCH   1   7
ATOM      6  F   UNL     1      -2.862   1.719  -1.192  0.00  0.00    -0.236 F 
ATOM      7  C   UNL     1      -1.702   1.541  -0.500  0.00  0.00    +0.184 C 
ENDBRANCH   1   7
BRANCH   1   9
ATOM      8  O   UNL     1      -2.867  -1.875  -0.050  0.00  0.00    -0.252 OA
ATOM      9  C   UNL     1      -2.103  -0.987  -0.416  0.00  0.00    +0.297 C 
BRANCH   9  10
ATOM     10  O   UNL     1      -1.399  -1.089  -1.570  0.00  0.00    -0.481 OA
ATOM     11  H   UNL     1      -0.821  -0.398  -1.829  0.00  0.00    +0.295 HD
ENDBRANCH   9  10
ENDBRANCH   1   9
BRANCH   1  12
ATOM     12  C   UNL     1      -0.626   0.103   1.350  0.00  0.00    +0.023 C 
BRANCH  12  13
ATOM     13  C   UNL     1       0.700  -0.257   0.722  0.00  0.00    +0.013 C 
ATOM     14  C   UNL     1       1.579   0.741   0.331  0.00  0.00    +0.163 C 
ATOM     15  C   UNL     1       1.010  -1.597   0.549  0.00  0.00    -0.001 C 
ATOM     16  C   UNL     1       2.799   0.390  -0.247  0.00  0.00    +0.167 C 
ATOM     17  C   UNL     1       2.230  -1.948  -0.029  0.00  0.00    +0.003 C 
ATOM     18  C   UNL     1       3.124  -0.955  -0.427  0.00  0.00    +0.040 C 
BRANCH  14  19
ATOM     19  O   UNL     1       1.265   2.056   0.505  0.00  0.00    -0.503 OA
ATOM     20  H   UNL     1       0.446   2.295   0.893  0.00  0.00    +0.292 HD
ENDBRANCH  14  19
BRANCH  16  21
ATOM     21  O   UNL     1       3.682   1.350  -0.640  0.00  0.00    -0.503 OA
ATOM     22  H   UNL     1       3.472   2.256  -0.524  0.00  0.00    +0.292 HD
ENDBRANCH  16  21
ENDBRANCH  12  13
ENDBRANCH   1  12
TORSDOF 8
