REMARK  Name = 131130
REMARK  13 active torsions:
REMARK  status: ('A' for Active; 'I' for Inactive)
REMARK    1  A    between atoms: N_2  and  CA_24
REMARK    2  A    between atoms: C_3  and  C_5
REMARK    3  A    between atoms: C_5  and  C_10
REMARK    4  A    between atoms: C_10  and  C_11
REMARK    5  A    between atoms: C_11  and  C_13
REMARK    6  A    between atoms: C_11  and  C_16
REMARK    7  A    between atoms: C_13  and  O_14
REMARK    8  A    between atoms: C_16  and  C_17
REMARK    9  A    between atoms: C_17  and  C_18
REMARK   10  A    between atoms: CA_24  and  C_26
REMARK   11  A    between atoms: CA_24  and  CB_29
REMARK   12  A    between atoms: C_26  and  O_27
REMARK   13  A    between atoms: CB_29  and  CG_31
REMARK                            x       y       z     vdW  Elec       q    Type
REMARK                         _______ _______ _______ _____ _____    ______ ____
ROOT
ATOM      1  O   UNL     1      -1.309  -0.925  -0.743  0.00  0.00    -0.275 OA
ATOM      2  N   UNL     1      -0.676  -0.068   1.327  0.00  0.00    -0.297 N 
ATOM      3  C   ACE A   0      -0.754  -1.042   0.347  0.00  0.00    +0.222 C 
ATOM      4  H   UNL     1      -0.203  -0.282   2.164  0.00  0.00    +0.150 HD
ENDROOT
BRANCH   3   5
ATOM      5  C   UNL     1      -0.044  -2.311   0.745  0.00  0.00    +0.069 C 
ATOM      6  C   UNL     1      -0.705  -2.880   2.017  0.00  0.00    +0.009 C 
ATOM      7  C   UNL     1      -0.247  -3.382  -0.339  0.00  0.00    +0.009 C 
ATOM      8  C   UNL     1      -1.275  -4.242   1.625  0.00  0.00    +0.000 C 
ATOM      9  C   UNL     1      -1.473  -4.158   0.123  0.00  0.00    +0.000 C 
BRANCH   5  10
ATOM     10  C   UNL     1       1.434  -1.990   0.952  0.00  0.00    +0.020 C 
BRANCH  10  11
ATOM     11  C   UNL     1       2.093  -1.413  -0.313  0.00  0.00    +0.100 C 
BRANCH  11  13
ATOM     12  O   UNL     1       3.268  -3.404  -1.097  0.00  0.00    -0.250 OA
ATOM     13  C   UNL     1       2.465  -2.505  -1.308  0.00  0.00    +0.313 C 
BRANCH  13  14
ATOM     14  O   UNL     1       1.786  -2.385  -2.479  0.00  0.00    -0.480 OA
ATOM     15  H   UNL     1       1.180  -1.680  -2.599  0.00  0.00    +0.295 HD
ENDBRANCH  13  14
ENDBRANCH  11  13
BRANCH  11  16
ATOM     16  C   UNL     1       3.331  -0.555   0.012  0.00  0.00    +0.016 C 
BRANCH  16  17
ATOM     17  C   UNL     1       3.917   0.204  -1.185  0.00  0.00    +0.027 C 
BRANCH  17  18
ATOM     18  C   UNL     1       5.081   1.070  -0.773  0.00  0.00    -0.022 C 
ATOM     19  C   UNL     1       4.862   2.388  -0.371  0.00  0.00    -0.004 C 
ATOM     20  C   UNL     1       6.377   0.553  -0.794  0.00  0.00    -0.004 C 
ATOM     21  C   UNL     1       5.939   3.188   0.010  0.00  0.00    -0.000 C 
ATOM     22  C   UNL     1       7.453   1.354  -0.413  0.00  0.00    -0.000 C 
ATOM     23  C   UNL     1       7.234   2.672  -0.011  0.00  0.00    -0.000 C 
ENDBRANCH  17  18
ENDBRANCH  16  17
ENDBRANCH  11  16
ENDBRANCH  10  11
ENDBRANCH   5  10
ENDBRANCH   3   5
BRANCH   2  24
ATOM     24  CA  UNL     1      -1.256   1.248   1.182  0.00  0.00    +0.176 C 
BRANCH  24  26
ATOM     25  OXT UNL     1      -0.647   3.499   1.824  0.00  0.00    -0.248 OA
ATOM     26  C   UNL     1      -0.404   2.298   1.881  0.00  0.00    +0.332 C 
BRANCH  26  27
ATOM     27  O   UNL     1       0.654   1.808   2.569  0.00  0.00    -0.479 OA
ATOM     28  H   UNL     1       0.811   0.884   2.591  0.00  0.00    +0.295 HD
ENDBRANCH  26  27
ENDBRANCH  24  26
BRANCH  24  29
ATOM     29  CB  UNL     1      -2.692   1.290   1.723  0.00  0.00    +0.059 C 
BRANCH  29  31
ATOM     30  NE1 UNL     1      -5.014  -0.776  -0.240  0.00  0.00    -0.312 N 
ATOM     31  CG  UNL     1      -3.698   0.690   0.782  0.00  0.00    -0.004 C 
ATOM     32  CD2 UNL     1      -4.419   1.374  -0.237  0.00  0.00    +0.011 C 
ATOM     33  CD1 UNL     1      -4.086  -0.630   0.756  0.00  0.00    +0.058 C 
ATOM     34  CE2 UNL     1      -5.237   0.431  -0.863  0.00  0.00    +0.048 C 
ATOM     35  CE3 UNL     1      -4.453   2.708  -0.689  0.00  0.00    +0.001 C 
ATOM     36  CZ2 UNL     1      -6.092   0.757  -1.922  0.00  0.00    +0.015 C 
ATOM     37  CZ3 UNL     1      -5.303   3.049  -1.747  0.00  0.00    +0.000 C 
ATOM     38  CH2 UNL     1      -6.109   2.087  -2.353  0.00  0.00    +0.001 C 
ATOM     39  HE1 UNL     1      -5.459  -1.623  -0.476  0.00  0.00    +0.152 HD
ENDBRANCH  29  31
ENDBRANCH  24  29
ENDBRANCH   2  24
TORSDOF 13
