REMARK  Name = 131197
REMARK  7 active torsions:
REMARK  status: ('A' for Active; 'I' for Inactive)
REMARK    1  A    between atoms: N_1  and  C_13
REMARK    2  A    between atoms: C_11  and  O_15
REMARK    3  A    between atoms: C_12  and  C_17
REMARK    4  A    between atoms: C_17  and  O_18
REMARK    5  A    between atoms: O_18  and  C_19
REMARK    6  A    between atoms: C_19  and  C_20
REMARK    7  A    between atoms: C_28  and  C_30
REMARK                            x       y       z     vdW  Elec       q    Type
REMARK                         _______ _______ _______ _____ _____    ______ ____
ROOT
ATOM      1  N   UNL     1      -0.416   2.569   0.507  0.00  0.00    -0.249 N 
ATOM      2  N   UNL     1       1.801   2.471   0.753  0.00  0.00    -0.242 NA
ATOM      3  N   UNL     1      -0.821   0.375  -0.456  0.00  0.00    -0.228 NA
ATOM      4  N   UNL     1       1.255  -0.882  -0.708  0.00  0.00    -0.228 NA
ATOM      5  C   UNL     1      -0.034   1.339   0.046  0.00  0.00    +0.152 C 
ATOM      6  C   UNL     1       0.724   3.211   0.920  0.00  0.00    +0.223 C 
ATOM      7  C   UNL     1       1.341   1.299   0.208  0.00  0.00    +0.141 C 
ATOM      8  C   UNL     1       1.988   0.133  -0.191  0.00  0.00    +0.152 C 
ATOM      9  C   UNL     1      -0.084  -0.701  -0.807  0.00  0.00    +0.253 C 
ATOM     10  O   UNL     1       3.810  -2.140  -0.898  0.00  0.00    -0.270 OA
ATOM     11  N   UNL     1       3.372   0.014  -0.063  0.00  0.00    -0.265 N 
ATOM     12  C   UNL     1       4.179  -1.077  -0.411  0.00  0.00    +0.251 C 
ATOM     13  H   UNL     1       3.839   0.792   0.319  0.00  0.00    +0.157 HD
ENDROOT
BRANCH  12  14
ATOM     14  C   UNL     1       5.629  -0.914  -0.125  0.00  0.00    +0.054 C 
ATOM     15  C   UNL     1       6.540  -1.610  -0.891  0.00  0.00    +0.005 C 
ATOM     16  C   UNL     1       6.015  -0.071   0.896  0.00  0.00    +0.005 C 
ATOM     17  C   UNL     1       7.901  -1.456  -0.623  0.00  0.00    +0.000 C 
ATOM     18  C   UNL     1       7.375   0.083   1.163  0.00  0.00    +0.000 C 
ATOM     19  C   UNL     1       8.318  -0.610   0.403  0.00  0.00    +0.000 C 
ENDBRANCH  12  14
BRANCH   1  23
ATOM     20  O   UNL     1      -2.712   2.049   0.805  0.00  0.00    -0.335 OA
ATOM     21  C   UNL     1      -3.719   3.646  -0.649  0.00  0.00    +0.144 C 
ATOM     22  C   UNL     1      -3.900   2.289   0.022  0.00  0.00    +0.173 C 
ATOM     23  C   UNL     1      -1.771   3.107   0.552  0.00  0.00    +0.197 C 
ATOM     24  C   UNL     1      -2.217   3.792  -0.732  0.00  0.00    +0.083 C 
BRANCH  21  25
ATOM     25  O   UNL     1      -4.226   4.671   0.202  0.00  0.00    -0.382 OA
ATOM     26  H   UNL     1      -5.190   4.591   0.266  0.00  0.00    +0.210 HD
ENDBRANCH  21  25
BRANCH  22  27
ATOM     27  C   UNL     1      -4.041   1.152  -0.982  0.00  0.00    +0.175 C 
BRANCH  27  28
ATOM     28  O   UNL     1      -4.193  -0.064  -0.271  0.00  0.00    -0.346 OA
BRANCH  28  29
ATOM     29  C   UNL     1      -4.330  -1.174  -1.150  0.00  0.00    +0.169 C 
BRANCH  29  30
ATOM     30  C   UNL     1      -4.487  -2.426  -0.338  0.00  0.00    +0.007 C 
ATOM     31  C   UNL     1      -3.360  -3.149   0.036  0.00  0.00    -0.002 C 
ATOM     32  C   UNL     1      -5.757  -2.851   0.033  0.00  0.00    -0.002 C 
ATOM     33  C   UNL     1      -3.505  -4.313   0.791  0.00  0.00    -0.000 C 
ATOM     34  C   UNL     1      -5.902  -4.015   0.788  0.00  0.00    -0.000 C 
ATOM     35  C   UNL     1      -4.776  -4.746   1.167  0.00  0.00    -0.000 C 
ENDBRANCH  29  30
ENDBRANCH  28  29
ENDBRANCH  27  28
ENDBRANCH  22  27
ENDBRANCH   1  23
TORSDOF 7
