131160
  -OEChem-03292013323D

 28 28  0     1  0  0  0  0  0999 V2000
   -2.8619    1.7190   -1.1919 F   0  0  0  0  0  0  0  0  0  0  0  0
   -1.3987   -1.0887   -1.5701 O   0  0  0  0  0  0  0  0  0  0  0  0
    1.2651    2.0564    0.5047 O   0  0  0  0  0  0  0  0  0  0  0  0
   -2.8667   -1.8745   -0.0502 O   0  0  0  0  0  0  0  0  0  0  0  0
    3.6820    1.3498   -0.6405 O   0  0  0  0  0  0  0  0  0  0  0  0
   -3.0116    0.5126    1.2305 N   0  0  0  0  0  0  0  0  0  0  0  0
   -1.8203    0.2938    0.3841 C   0  0  2  0  0  0  0  0  0  0  0  0
   -0.6261    0.1032    1.3496 C   0  0  0  0  0  0  0  0  0  0  0  0
    0.7004   -0.2569    0.7217 C   0  0  0  0  0  0  0  0  0  0  0  0
   -1.7017    1.5407   -0.4999 C   0  0  0  0  0  0  0  0  0  0  0  0
   -2.1034   -0.9865   -0.4157 C   0  0  0  0  0  0  0  0  0  0  0  0
    1.5791    0.7408    0.3309 C   0  0  0  0  0  0  0  0  0  0  0  0
    1.0100   -1.5970    0.5494 C   0  0  0  0  0  0  0  0  0  0  0  0
    2.7991    0.3899   -0.2471 C   0  0  0  0  0  0  0  0  0  0  0  0
    2.2301   -1.9480   -0.0286 C   0  0  0  0  0  0  0  0  0  0  0  0
    3.1245   -0.9545   -0.4269 C   0  0  0  0  0  0  0  0  0  0  0  0
   -0.8675   -0.6913    2.0727 H   0  0  0  0  0  0  0  0  0  0  0  0
   -0.4997    1.0007    1.9718 H   0  0  0  0  0  0  0  0  0  0  0  0
   -0.9000    1.4497   -1.2382 H   0  0  0  0  0  0  0  0  0  0  0  0
   -1.5293    2.4469    0.0904 H   0  0  0  0  0  0  0  0  0  0  0  0
   -3.1744   -0.2997    1.8244 H   0  0  0  0  0  0  0  0  0  0  0  0
   -3.8396    0.6181    0.6451 H   0  0  0  0  0  0  0  0  0  0  0  0
    0.3233   -2.3806    0.8567 H   0  0  0  0  0  0  0  0  0  0  0  0
    2.4835   -2.9948   -0.1683 H   0  0  0  0  0  0  0  0  0  0  0  0
    4.0732   -1.2347   -0.8765 H   0  0  0  0  0  0  0  0  0  0  0  0
   -1.5888   -1.9272   -2.0423 H   0  0  0  0  0  0  0  0  0  0  0  0
    1.7593    2.5965   -0.1330 H   0  0  0  0  0  0  0  0  0  0  0  0
    3.5053    2.1733   -0.1578 H   0  0  0  0  0  0  0  0  0  0  0  0
  1 10  1  0  0  0  0
  2 11  1  0  0  0  0
  2 26  1  0  0  0  0
  3 12  1  0  0  0  0
  3 27  1  0  0  0  0
  4 11  2  0  0  0  0
  5 14  1  0  0  0  0
  5 28  1  0  0  0  0
  6  7  1  0  0  0  0
  6 21  1  0  0  0  0
  6 22  1  0  0  0  0
  7  8  1  0  0  0  0
  7 10  1  0  0  0  0
  7 11  1  0  0  0  0
  8  9  1  0  0  0  0
  8 17  1  0  0  0  0
  8 18  1  0  0  0  0
  9 12  2  0  0  0  0
  9 13  1  0  0  0  0
 10 19  1  0  0  0  0
 10 20  1  0  0  0  0
 12 14  1  0  0  0  0
 13 15  2  0  0  0  0
 13 23  1  0  0  0  0
 14 16  2  0  0  0  0
 15 16  1  0  0  0  0
 15 24  1  0  0  0  0
 16 25  1  0  0  0  0
M  END
> <PUBCHEM_COMPOUND_CID>
131160

> <PUBCHEM_CONFORMER_RMSD>
0.6

> <PUBCHEM_CONFORMER_DIVERSEORDER>
2
9
14
20
11
19
5
24
15
12
18
21
6
17
8
10
22
7
23
13
16
3
1
4

> <PUBCHEM_MMFF94_PARTIAL_CHARGES>
24
1 -0.34
10 0.34
11 0.66
12 0.08
13 -0.15
14 0.08
15 -0.15
16 -0.15
2 -0.65
21 0.36
22 0.36
23 0.15
24 0.15
25 0.15
26 0.5
27 0.45
28 0.45
3 -0.53
4 -0.57
5 -0.53
6 -0.99
7 0.33
8 0.14
9 -0.14

> <PUBCHEM_EFFECTIVE_ROTOR_COUNT>
4

> <PUBCHEM_PHARMACOPHORE_FEATURES>
8
1 2 acceptor
1 3 donor
1 4 acceptor
1 5 donor
1 6 cation
1 6 donor
3 2 4 11 anion
6 9 12 13 14 15 16 rings

> <PUBCHEM_HEAVY_ATOM_COUNT>
16

> <PUBCHEM_ATOM_DEF_STEREO_COUNT>
1

> <PUBCHEM_ATOM_UDEF_STEREO_COUNT>
0

> <PUBCHEM_BOND_DEF_STEREO_COUNT>
0

> <PUBCHEM_BOND_UDEF_STEREO_COUNT>
0

> <PUBCHEM_ISOTOPIC_ATOM_COUNT>
0

> <PUBCHEM_COMPONENT_COUNT>
1

> <PUBCHEM_CACTVS_TAUTO_COUNT>
19

> <PUBCHEM_CONFORMER_ID>
0002005800000002

> <PUBCHEM_MMFF94_ENERGY>
36.9756

> <PUBCHEM_FEATURE_SELFOVERLAP>
40.662

> <PUBCHEM_SHAPE_FINGERPRINT>
10922523 26 18189058603245522876
11031198 65 18261970582269050960
12173636 292 17845941740638585305
12897270 3 18337381768260114171
12932764 1 18335144154733957290
13299463 15 18340767134444375114
13380535 21 18411706469433095211
15775835 57 18340780298556138436
16945 1 18195528078028777858
17844478 74 17895776027040992545
18186145 218 18341059557814956116
18619055 16 18268988691911352058
19422 9 18272942621439947474
20361792 2 15913319208714227049
21501502 16 18409730659796523490
21524375 3 18192713577981723632
22802520 49 18410565184927141345
23402539 116 17749384922873082810
23532345 88 18334016060552617446
23559900 14 18199748056219598162
25 1 18043253439906541866
2748010 2 18413105056892786114
2871803 45 18337948012538185503
353137 74 18267577086400934530
549884 4 18116142268977573836
63268167 104 18413111636856445792
74978 22 18201995499912714753
7832392 63 18341898446031473512
90525 40 17916028962404890087

> <PUBCHEM_SHAPE_MULTIPOLES>
293.54
5.33
2.06
1.13
0.71
0.02
0.03
-0.37
1.01
0.11
0.28
-0.59
-0.04
-0.04

> <PUBCHEM_SHAPE_SELFOVERLAP>
614.776

> <PUBCHEM_SHAPE_VOLUME>
165

> <PUBCHEM_COORDINATE_TYPE>
2
5
10

$$$$
