REMARK  Name = 13116
REMARK  5 active torsions:
REMARK  status: ('A' for Active; 'I' for Inactive)
REMARK    1  A    between atoms: C_7  and  O_22
REMARK    2  A    between atoms: C_9  and  C_24
REMARK    3  A    between atoms: C_16  and  N_19
REMARK    4  A    between atoms: C_24  and  O_25
REMARK    5  A    between atoms: O_25  and  C_28
REMARK                            x       y       z     vdW  Elec       q    Type
REMARK                         _______ _______ _______ _____ _____    ______ ____
ROOT
ATOM      1  O   UNL     1      -3.216  -2.103   0.295  0.00  0.00    -0.286 OA
ATOM      2  O   UNL     1      -1.415   2.878  -0.449  0.00  0.00    -0.286 OA
ATOM      3  N   UNL     1       1.785  -1.726   1.376  0.00  0.00    +0.389 N 
ATOM      4  N   UNL     1      -0.448  -1.601  -0.450  0.00  0.00    -0.290 N 
ATOM      5  C   UNL     1       1.870  -1.598  -0.077  0.00  0.00    -0.031 C 
ATOM      6  C   UNL     1       1.262  -2.809   0.561  0.00  0.00    -0.053 C 
ATOM      7  C   UNL     1       0.801  -0.946  -0.900  0.00  0.00    +0.141 C 
ATOM      8  C   UNL     1      -0.208  -2.853   0.256  0.00  0.00    +0.070 C 
ATOM      9  C   UNL     1       0.504   0.580  -0.735  0.00  0.00    +0.111 C 
ATOM     10  C   UNL     1      -1.428  -0.664  -0.224  0.00  0.00    +0.088 C 
ATOM     11  C   UNL     1      -0.973   0.577  -0.393  0.00  0.00    +0.042 C 
ATOM     12  C   UNL     1       2.944  -2.086   2.159  0.00  0.00    -0.100 C 
ATOM     13  C   UNL     1      -2.811  -0.953   0.161  0.00  0.00    +0.206 C 
ATOM     14  C   UNL     1      -1.840   1.746  -0.240  0.00  0.00    +0.206 C 
ATOM     15  C   UNL     1      -3.705   0.234   0.370  0.00  0.00    +0.034 C 
ATOM     16  C   UNL     1      -3.260   1.496   0.182  0.00  0.00    +0.080 C 
ATOM     17  C   UNL     1      -5.106  -0.122   0.791  0.00  0.00    +0.036 C 
ATOM     18  H   UNL     1       1.432  -1.087   2.089  0.00  0.00    -0.080 HD
ENDROOT
BRANCH  16  19
ATOM     19  N   UNL     1      -3.996   2.639   0.341  0.00  0.00    -0.355 N 
ATOM     20  H   UNL     1      -3.582   3.517   0.180  0.00  0.00    +0.142 HD
ATOM     21  H   UNL     1      -4.940   2.582   0.616  0.00  0.00    +0.142 HD
ENDBRANCH  16  19
BRANCH   7  22
ATOM     22  O   UNL     1       1.025  -1.243  -2.279  0.00  0.00    -0.341 OA
ATOM     23  C   UNL     1       2.127  -0.512  -2.792  0.00  0.00    +0.176 C 
ENDBRANCH   7  22
BRANCH   9  24
ATOM     24  C   UNL     1       1.382   1.387   0.212  0.00  0.00    +0.218 C 
BRANCH  24  25
ATOM     25  O   UNL     1       2.727   1.290  -0.223  0.00  0.00    -0.434 OA
BRANCH  25  28
ATOM     26  O   UNL     1       3.403   2.629   1.523  0.00  0.00    -0.227 OA
ATOM     27  N   UNL     1       4.918   1.796   0.008  0.00  0.00    -0.295 N 
ATOM     28  C   UNL     1       3.658   1.964   0.525  0.00  0.00    +0.398 C 
ATOM     29  H   UNL     1       5.051   1.248  -0.799  0.00  0.00    +0.148 HD
ATOM     30  H   UNL     1       5.690   2.225   0.444  0.00  0.00    +0.148 HD
ENDBRANCH  25  28
ENDBRANCH  24  25
ENDBRANCH   9  24
TORSDOF 5
