REMARK  Name = 131124
REMARK  4 active torsions:
REMARK  status: ('A' for Active; 'I' for Inactive)
REMARK    1  A    between atoms: C_15  and  O_20
REMARK    2  A    between atoms: C_16  and  O_26
REMARK    3  A    between atoms: O_20  and  C_23
REMARK    4  A    between atoms: O_26  and  C_29
REMARK                            x       y       z     vdW  Elec       q    Type
REMARK                         _______ _______ _______ _____ _____    ______ ____
ROOT
ATOM      1  O   UNL     1       0.837   0.628  -0.738  0.00  0.00    -0.453 OA
ATOM      2  O   UNL     1       0.040  -3.650   0.792  0.00  0.00    -0.267 OA
ATOM      3  N   UNL     1      -1.786  -2.312   0.312  0.00  0.00    -0.321 N 
ATOM      4  C   UNL     1       0.448  -1.471   0.013  0.00  0.00    +0.093 A 
ATOM      5  C   UNL     1      -0.102  -0.286  -0.411  0.00  0.00    +0.151 A 
ATOM      6  C   UNL     1       1.853  -1.289  -0.052  0.00  0.00    +0.042 A 
ATOM      7  C   UNL     1      -1.510  -0.009  -0.512  0.00  0.00    +0.051 A 
ATOM      8  C   UNL     1       2.041   0.015  -0.518  0.00  0.00    +0.149 A 
ATOM      9  C   UNL     1      -2.349  -1.078  -0.130  0.00  0.00    +0.065 A 
ATOM     10  C   UNL     1      -0.410  -2.574   0.407  0.00  0.00    +0.261 A 
ATOM     11  C   UNL     1       2.990  -2.069   0.227  0.00  0.00    +0.006 C 
ATOM     12  C   UNL     1      -2.057   1.197  -0.944  0.00  0.00    +0.008 C 
ATOM     13  C   UNL     1       3.291   0.596  -0.725  0.00  0.00    +0.075 C 
ATOM     14  C   UNL     1      -3.735  -0.930  -0.185  0.00  0.00    +0.055 C 
ATOM     15  C   UNL     1       4.404  -0.200  -0.440  0.00  0.00    +0.153 C 
ATOM     16  C   UNL     1      -4.279   0.280  -0.620  0.00  0.00    +0.151 C 
ATOM     17  C   UNL     1       4.259  -1.508   0.027  0.00  0.00    +0.038 C 
ATOM     18  C   UNL     1      -3.445   1.337  -0.997  0.00  0.00    +0.038 C 
ATOM     19  H   UNL     1      -2.407  -3.031   0.569  0.00  0.00    +0.169 HD
ENDROOT
BRANCH  15  20
ATOM     20  O   UNL     1       5.655   0.311  -0.623  0.00  0.00    -0.410 OA
BRANCH  20  23
ATOM     21  O   UNL     1       5.607   1.069   1.563  0.00  0.00    -0.226 OA
ATOM     22  N   UNL     1       7.495   1.478   0.269  0.00  0.00    -0.242 N 
ATOM     23  C   UNL     1       6.213   0.968   0.496  0.00  0.00    +0.410 C 
ATOM     24  C   UNL     1       8.202   2.183   1.329  0.00  0.00    +0.118 C 
ATOM     25  C   UNL     1       8.207   1.350  -0.999  0.00  0.00    +0.118 C 
ENDBRANCH  20  23
ENDBRANCH  15  20
BRANCH  16  26
ATOM     26  O   UNL     1      -5.631   0.432  -0.676  0.00  0.00    -0.410 OA
BRANCH  26  29
ATOM     27  O   UNL     1      -5.584   1.207   1.503  0.00  0.00    -0.226 OA
ATOM     28  N   UNL     1      -7.627   1.073   0.400  0.00  0.00    -0.242 N 
ATOM     29  C   UNL     1      -6.238   0.931   0.498  0.00  0.00    +0.410 C 
ATOM     30  C   UNL     1      -8.393   1.576   1.531  0.00  0.00    +0.118 C 
ATOM     31  C   UNL     1      -8.393   0.745  -0.798  0.00  0.00    +0.118 C 
ENDBRANCH  26  29
ENDBRANCH  16  26
TORSDOF 4
