REMARK  Name = 13118277
REMARK  8 active torsions:
REMARK  status: ('A' for Active; 'I' for Inactive)
REMARK    1  A    between atoms: C_4  and  C_9
REMARK    2  A    between atoms: C_7  and  C_24
REMARK    3  A    between atoms: C_8  and  S_14
REMARK    4  A    between atoms: C_9  and  O_12
REMARK    5  A    between atoms: S_14  and  C_16
REMARK    6  A    between atoms: C_16  and  C_17
REMARK    7  A    between atoms: C_17  and  N_19
REMARK    8  A    between atoms: C_24  and  O_25
REMARK                            x       y       z     vdW  Elec       q    Type
REMARK                         _______ _______ _______ _____ _____    ______ ____
ROOT
ATOM      1  O   UNL     1       2.521  -1.843  -1.542  0.00  0.00    -0.274 OA
ATOM      2  N   UNL     1       1.927  -1.247   0.664  0.00  0.00    -0.254 N 
ATOM      3  C   UNL     1       2.573  -0.056   1.261  0.00  0.00    +0.096 C 
ATOM      4  C   UNL     1       3.411   0.028  -0.044  0.00  0.00    +0.120 C 
ATOM      5  C   UNL     1       1.408   0.881   1.594  0.00  0.00    +0.057 C 
ATOM      6  C   UNL     1       2.614  -1.210  -0.514  0.00  0.00    +0.233 C 
ATOM      7  C   UNL     1       0.570  -1.154   0.791  0.00  0.00    +0.134 C 
ATOM      8  C   UNL     1       0.205   0.016   1.329  0.00  0.00    +0.056 C 
ENDROOT
BRANCH   4   9
ATOM      9  C   UNL     1       3.237   1.252  -0.910  0.00  0.00    +0.098 C 
ATOM     10  C   UNL     1       4.011   2.437  -0.324  0.00  0.00    +0.030 C 
ATOM     11  C   UNL     1       3.694   0.973  -2.345  0.00  0.00    +0.030 C 
BRANCH   9  12
ATOM     12  O   UNL     1       1.853   1.619  -0.938  0.00  0.00    -0.386 OA
ATOM     13  H   UNL     1       1.548   1.799  -0.035  0.00  0.00    +0.210 HD
ENDBRANCH   9  12
ENDBRANCH   4   9
BRANCH   8  14
ATOM     14  S   UNL     1      -1.456   0.527   1.623  0.00  0.00    +0.064 S 
ATOM     15  O   UNL     1      -1.392   1.606   2.672  0.00  0.00    -0.252 OA
BRANCH  14  16
ATOM     16  C   UNL     1      -1.746   1.329   0.027  0.00  0.00    +0.117 C 
BRANCH  16  17
ATOM     17  C   UNL     1      -3.151   1.902  -0.064  0.00  0.00    +0.104 C 
BRANCH  17  19
ATOM     18  O   UNL     1      -4.364   0.383  -2.220  0.00  0.00    -0.275 OA
ATOM     19  N   UNL     1      -4.168   0.892   0.044  0.00  0.00    -0.303 N 
ATOM     20  C   UNL     1      -4.692   0.214  -1.049  0.00  0.00    +0.223 C 
ATOM     21  C   UNL     1      -5.724  -0.808  -0.652  0.00  0.00    +0.095 C 
ATOM     22  H   UNL     1      -4.512   0.669   0.939  0.00  0.00    +0.149 HD
ENDBRANCH  17  19
ENDBRANCH  16  17
ENDBRANCH  14  16
ENDBRANCH   8  14
BRANCH   7  24
ATOM     23  O   UNL     1      -1.398  -2.084  -0.166  0.00  0.00    -0.244 OA
ATOM     24  C   UNL     1      -0.282  -2.236   0.305  0.00  0.00    +0.352 C 
BRANCH  24  25
ATOM     25  O   UNL     1       0.351  -3.420   0.457  0.00  0.00    -0.476 OA
ATOM     26  H   UNL     1       1.211  -3.448   0.829  0.00  0.00    +0.295 HD
ENDBRANCH  24  25
ENDBRANCH   7  24
TORSDOF 8
