REMARK  Name = 13118
REMARK  9 active torsions:
REMARK  status: ('A' for Active; 'I' for Inactive)
REMARK    1  A    between atoms: N_1  and  C_2
REMARK    2  A    between atoms: N_1  and  N_3
REMARK    3  A    between atoms: C_2  and  C_22
REMARK    4  A    between atoms: N_3  and  C_6
REMARK    5  A    between atoms: C_11  and  C_12
REMARK    6  A    between atoms: C_11  and  C_14
REMARK    7  A    between atoms: C_16  and  N_20
REMARK    8  A    between atoms: C_21  and  C_24
REMARK    9  A    between atoms: C_26  and  N_30
REMARK                            x       y       z     vdW  Elec       q    Type
REMARK                         _______ _______ _______ _____ _____    ______ ____
ROOT
ATOM      1  C   UNL     1      -0.043   1.388  -0.224  0.00  0.00    +0.088 C 
ATOM      2  C   UNL     1      -1.289   0.557  -0.174  0.00  0.00    +0.000 C 
ENDROOT
BRANCH   1   4
ATOM      3  C   UNL     1       1.813   0.201   0.846  0.00  0.00    +0.039 C 
ATOM      4  C   UNL     1       1.177   0.525  -0.289  0.00  0.00    +0.021 C 
BRANCH   3   6
ATOM      5  O   UNL     1       3.507  -1.164  -0.229  0.00  0.00    -0.433 OA
ATOM      6  C   UNL     1       2.987  -0.619   0.890  0.00  0.00    +0.148 C 
ATOM      7  C   UNL     1       3.709  -0.949   2.000  0.00  0.00    +0.043 C 
ATOM      8  C   UNL     1       4.598  -1.868   0.172  0.00  0.00    +0.289 C 
ATOM      9  C   UNL     1       4.766  -1.767   1.533  0.00  0.00    +0.066 C 
BRANCH   8  12
ATOM     10  O   UNL     1       6.328  -3.204  -0.565  0.00  0.00    -0.123 OA
ATOM     11  O   UNL     1       4.899  -2.435  -2.043  0.00  0.00    -0.123 OA
ATOM     12  N   UNL     1       5.297  -2.523  -0.844  0.00  0.00    +0.093 N 
ENDBRANCH   8  12
ENDBRANCH   3   6
ENDBRANCH   1   4
BRANCH   1  13
ATOM     13  N   UNL     1      -0.088   2.684  -0.178  0.00  0.00    -0.115 NA
BRANCH  13  14
ATOM     14  N   UNL     1       1.156   3.300  -0.235  0.00  0.00    -0.124 NA
BRANCH  14  17
ATOM     15  N   UNL     1       2.114   5.497  -0.222  0.00  0.00    -0.369 N 
ATOM     16  N   UNL     1      -0.152   5.227  -0.090  0.00  0.00    -0.369 N 
ATOM     17  C   UNL     1       1.068   4.603  -0.187  0.00  0.00    +0.210 C 
ATOM     18  H   UNL     1       3.039   5.170  -0.291  0.00  0.00    +0.159 HD
ATOM     19  H   UNL     1       1.936   6.465  -0.179  0.00  0.00    +0.159 HD
ATOM     20  H   UNL     1      -0.977   4.691  -0.057  0.00  0.00    +0.159 HD
ATOM     21  H   UNL     1      -0.201   6.209  -0.055  0.00  0.00    +0.159 HD
ENDBRANCH  14  17
ENDBRANCH  13  14
ENDBRANCH   1  13
BRANCH   2  22
ATOM     22  C   UNL     1      -2.499   1.132  -0.098  0.00  0.00    +0.092 C 
BRANCH  22  24
ATOM     23  O   UNL     1      -3.730  -0.960  -0.086  0.00  0.00    -0.437 OA
ATOM     24  C   UNL     1      -3.723   0.388  -0.033  0.00  0.00    +0.129 C 
ATOM     25  C   UNL     1      -4.981   0.899   0.087  0.00  0.00    +0.038 C 
ATOM     26  C   UNL     1      -5.034  -1.330   0.001  0.00  0.00    +0.289 C 
ATOM     27  C   UNL     1      -5.844  -0.223   0.109  0.00  0.00    +0.066 C 
BRANCH  26  30
ATOM     28  O   UNL     1      -6.460  -3.142   0.039  0.00  0.00    -0.123 OA
ATOM     29  O   UNL     1      -4.303  -3.512  -0.145  0.00  0.00    -0.123 OA
ATOM     30  N   UNL     1      -5.273  -2.705  -0.036  0.00  0.00    +0.093 N 
ENDBRANCH  26  30
ENDBRANCH  22  24
ENDBRANCH   2  22
TORSDOF 9
