REMARK  Name = 131158
REMARK  2 active torsions:
REMARK  status: ('A' for Active; 'I' for Inactive)
REMARK    1  A    between atoms: C_3  and  S_9
REMARK    2  A    between atoms: C_8  and  N_14
REMARK                            x       y       z     vdW  Elec       q    Type
REMARK                         _______ _______ _______ _____ _____    ______ ____
ROOT
ATOM      1  I   UNL     1       1.649   3.062  -0.510  0.00  0.00    -0.041 I 
ATOM      2  I   UNL     1       1.645  -3.065  -0.504  0.00  0.00    -0.041 I 
ATOM      3  C   UNL     1      -1.375   0.001   0.026  0.00  0.00    +0.113 C 
ATOM      4  C   UNL     1      -0.689  -1.207  -0.093  0.00  0.00    +0.026 C 
ATOM      5  C   UNL     1      -0.687   1.208  -0.096  0.00  0.00    +0.026 C 
ATOM      6  C   UNL     1       0.687   1.207  -0.338  0.00  0.00    +0.050 C 
ATOM      7  C   UNL     1       0.685  -1.209  -0.335  0.00  0.00    +0.050 C 
ATOM      8  C   UNL     1       1.373  -0.001  -0.457  0.00  0.00    +0.102 C 
ENDROOT
BRANCH   3   9
ATOM      9  S   UNL     1      -3.095   0.003   0.328  0.00  0.00    +0.042 S 
ATOM     10  O   UNL     1      -3.790   0.001  -1.151  0.00  0.00    -0.065 OA
ATOM     11  O   UNL     1      -3.441  -1.262   0.961  0.00  0.00    -0.065 OA
ATOM     12  O   UNL     1      -3.410   1.267   0.975  0.00  0.00    -0.065 OA
ENDBRANCH   3   9
BRANCH   8  14
ATOM     13  S   UNL     1       4.295   0.000   1.606  0.00  0.00    +0.021 S 
ATOM     14  N   UNL     1       2.757  -0.003  -0.700  0.00  0.00    -0.195 NA
ATOM     15  C   UNL     1       3.397  -0.002   0.288  0.00  0.00    +0.042 C 
ENDBRANCH   8  14
TORSDOF 2
