REMARK  Name = 131196
REMARK  12 active torsions:
REMARK  status: ('A' for Active; 'I' for Inactive)
REMARK    1  A    between atoms: C_1  and  C_2
REMARK    2  A    between atoms: C_1  and  C_18
REMARK    3  A    between atoms: C_2  and  C_3
REMARK    4  A    between atoms: C_3  and  O_4
REMARK    5  A    between atoms: O_4  and  C_5
REMARK    6  A    between atoms: C_8  and  C_13
REMARK    7  A    between atoms: N_12  and  C_13
REMARK    8  A    between atoms: N_12  and  O_16
REMARK    9  A    between atoms: C_18  and  C_19
REMARK   10  A    between atoms: C_19  and  O_20
REMARK   11  A    between atoms: O_20  and  C_21
REMARK   12  A    between atoms: C_24  and  C_29
REMARK                            x       y       z     vdW  Elec       q    Type
REMARK                         _______ _______ _______ _____ _____    ______ ____
ROOT
ATOM      1  C   UNL     1      -0.421   1.204  -0.649  0.00  0.00    +0.008 C 
ENDROOT
BRANCH   1   2
ATOM      2  C   UNL     1       0.829   1.771   0.030  0.00  0.00    +0.047 C 
BRANCH   2   3
ATOM      3  C   UNL     1       2.113   1.296  -0.638  0.00  0.00    +0.205 C 
BRANCH   3   4
ATOM      4  O   UNL     1       3.240   1.834   0.040  0.00  0.00    -0.475 OA
BRANCH   4   5
ATOM      5  C   UNL     1       4.388   1.085   0.022  0.00  0.00    +0.139 C 
ATOM      6  C   UNL     1       4.660   0.251  -1.063  0.00  0.00    +0.037 C 
ATOM      7  C   UNL     1       5.286   1.159   1.087  0.00  0.00    +0.037 C 
ATOM      8  C   UNL     1       6.727  -0.435  -0.017  0.00  0.00    +0.036 C 
ATOM      9  C   UNL     1       5.830  -0.509  -1.083  0.00  0.00    +0.006 C 
ATOM     10  C   UNL     1       6.455   0.399   1.067  0.00  0.00    +0.006 C 
BRANCH   8  12
ATOM     11  N   UNL     1       8.549  -1.541  -1.262  0.00  0.00    -0.381 N 
ATOM     12  C   UNL     1       7.947  -1.227  -0.038  0.00  0.00    +0.160 C 
ATOM     13  H   UNL     1       9.375  -2.076  -1.282  0.00  0.00    +0.157 HD
ATOM     14  H   UNL     1       8.147  -1.226  -2.104  0.00  0.00    +0.157 HD
BRANCH  12  15
ATOM     15  N   UNL     1       8.458  -1.627   1.117  0.00  0.00    -0.118 NA
BRANCH  15  16
ATOM     16  O   UNL     1       9.628  -2.375   0.946  0.00  0.00    -0.264 OA
ATOM     17  H   UNL     1      10.081  -2.713   1.694  0.00  0.00    +0.247 HD
ENDBRANCH  15  16
ENDBRANCH  12  15
ENDBRANCH   8  12
ENDBRANCH   4   5
ENDBRANCH   3   4
ENDBRANCH   2   3
ENDBRANCH   1   2
BRANCH   1  18
ATOM     18  C   UNL     1      -1.696   1.720   0.017  0.00  0.00    +0.047 C 
BRANCH  18  19
ATOM     19  C   UNL     1      -2.943   1.128  -0.625  0.00  0.00    +0.205 C 
BRANCH  19  20
ATOM     20  O   UNL     1      -4.089   1.634   0.047  0.00  0.00    -0.475 OA
BRANCH  20  21
ATOM     21  C   UNL     1      -5.197   0.827   0.072  0.00  0.00    +0.139 C 
ATOM     22  C   UNL     1      -5.436  -0.063  -0.975  0.00  0.00    +0.037 C 
ATOM     23  C   UNL     1      -6.087   0.898   1.144  0.00  0.00    +0.037 C 
ATOM     24  C   UNL     1      -7.455  -0.811   0.121  0.00  0.00    +0.031 C 
ATOM     25  C   UNL     1      -6.565  -0.881  -0.951  0.00  0.00    +0.006 C 
ATOM     26  C   UNL     1      -7.216   0.079   1.169  0.00  0.00    +0.006 C 
BRANCH  24  29
ATOM     27  N   UNL     1      -8.898  -2.562  -0.885  0.00  0.00    -0.343 N 
ATOM     28  N   UNL     1      -9.476  -1.592   1.161  0.00  0.00    -0.285 NA
ATOM     29  C   UNL     1      -8.632  -1.664   0.146  0.00  0.00    +0.117 C 
ATOM     30  H   UNL     1      -9.701  -3.131  -0.848  0.00  0.00    +0.144 HD
ATOM     31  H   UNL     1      -8.283  -2.629  -1.651  0.00  0.00    +0.144 HD
ATOM     32  H   UNL     1     -10.273  -2.169   1.180  0.00  0.00    +0.188 HD
ENDBRANCH  24  29
ENDBRANCH  20  21
ENDBRANCH  19  20
ENDBRANCH  18  19
ENDBRANCH   1  18
TORSDOF 12
