REMARK  Name = 131109
REMARK  9 active torsions:
REMARK  status: ('A' for Active; 'I' for Inactive)
REMARK    1  A    between atoms: N_2  and  C_7
REMARK    2  A    between atoms: C_3  and  C_23
REMARK    3  A    between atoms: C_6  and  C_13
REMARK    4  A    between atoms: N_12  and  C_15
REMARK    5  A    between atoms: C_15  and  C_16
REMARK    6  A    between atoms: C_16  and  C_17
REMARK    7  A    between atoms: C_17  and  N_18
REMARK    8  A    between atoms: C_24  and  N_29
REMARK    9  A    between atoms: C_30  and  C_34
REMARK                            x       y       z     vdW  Elec       q    Type
REMARK                         _______ _______ _______ _____ _____    ______ ____
ROOT
ATOM      1  O   UNL     1       0.694   1.626  -1.272  0.00  0.00    -0.268 OA
ATOM      2  N   UNL     1       0.147  -0.599  -0.837  0.00  0.00    -0.278 N 
ATOM      3  C   UNL     1      -0.156   0.758  -1.084  0.00  0.00    +0.263 C 
ATOM      4  H   UNL     1      -0.625  -1.194  -0.702  0.00  0.00    +0.155 HD
ENDROOT
BRANCH   2   7
ATOM      5  N   UNL     1       2.966  -2.732  -0.511  0.00  0.00    -0.280 N 
ATOM      6  C   UNL     1       3.571  -1.550  -0.752  0.00  0.00    +0.107 C 
ATOM      7  C   UNL     1       1.385  -1.193  -0.759  0.00  0.00    +0.067 C 
ATOM      8  C   UNL     1       2.649  -0.571  -0.912  0.00  0.00    +0.035 C 
ATOM      9  C   UNL     1       1.611  -2.529  -0.512  0.00  0.00    +0.080 C 
ATOM     10  C   UNL     1       3.605  -4.010  -0.283  0.00  0.00    +0.117 C 
BRANCH   6  13
ATOM     11  O   UNL     1       5.775  -2.307  -1.179  0.00  0.00    -0.269 OA
ATOM     12  N   UNL     1       5.530  -0.146  -0.438  0.00  0.00    -0.300 N 
ATOM     13  C   UNL     1       5.030  -1.391  -0.825  0.00  0.00    +0.260 C 
ATOM     14  H   UNL     1       4.896   0.555  -0.163  0.00  0.00    +0.150 HD
BRANCH  12  15
ATOM     15  C   UNL     1       6.937   0.150  -0.426  0.00  0.00    +0.088 C 
BRANCH  15  16
ATOM     16  C   UNL     1       7.593  -0.178   0.914  0.00  0.00    -0.002 C 
BRANCH  16  17
ATOM     17  C   UNL     1       7.036   0.612   2.101  0.00  0.00    -0.076 C 
BRANCH  17  18
ATOM     18  N   UNL     1       7.191   2.050   1.920  0.00  0.00    +0.384 N 
ATOM     19  C   UNL     1       8.606   2.404   1.794  0.00  0.00    -0.101 C 
ATOM     20  C   UNL     1       6.583   2.779   3.035  0.00  0.00    -0.101 C 
ATOM     21  H   UNL     1       6.712   2.316   1.060  0.00  0.00    -0.080 HD
ENDBRANCH  17  18
ENDBRANCH  16  17
ENDBRANCH  15  16
ENDBRANCH  12  15
ENDBRANCH   6  13
ENDBRANCH   2   7
BRANCH   3  23
ATOM     22  N   UNL     1      -2.091   2.076  -1.903  0.00  0.00    -0.280 N 
ATOM     23  C   UNL     1      -1.593   1.078  -1.148  0.00  0.00    +0.107 C 
ATOM     24  C   UNL     1      -3.784   1.094  -0.852  0.00  0.00    +0.067 C 
ATOM     25  C   UNL     1      -2.582   0.441  -0.482  0.00  0.00    +0.035 C 
ATOM     26  C   UNL     1      -3.451   2.100  -1.732  0.00  0.00    +0.080 C 
ATOM     27  C   UNL     1      -1.355   2.980  -2.759  0.00  0.00    +0.117 C 
BRANCH  24  29
ATOM     28  O   UNL     1      -4.699  -1.002   1.007  0.00  0.00    -0.267 OA
ATOM     29  N   UNL     1      -5.059   0.799  -0.430  0.00  0.00    -0.277 N 
ATOM     30  C   UNL     1      -5.470  -0.214   0.464  0.00  0.00    +0.282 C 
ATOM     31  H   UNL     1      -5.776   1.365  -0.797  0.00  0.00    +0.155 HD
BRANCH  30  34
ATOM     32  N   UNL     1      -7.447  -0.671   1.907  0.00  0.00    -0.265 N 
ATOM     33  N   UNL     1      -7.766   0.143  -0.135  0.00  0.00    -0.223 NA
ATOM     34  C   UNL     1      -6.914  -0.248   0.752  0.00  0.00    +0.190 C 
ATOM     35  C   UNL     1      -8.800  -0.543   1.762  0.00  0.00    +0.088 C 
ATOM     36  C   UNL     1      -6.768  -1.166   3.081  0.00  0.00    +0.119 C 
ATOM     37  C   UNL     1      -8.973  -0.038   0.495  0.00  0.00    +0.117 C 
ENDBRANCH  30  34
ENDBRANCH  24  29
ENDBRANCH   3  23
TORSDOF 9
