13118277
  -OEChem-03292013303D

 43 44  0     1  0  0  0  0  0999 V2000
   -1.4561    0.5270    1.6235 S   0  0  2  0  0  0  0  0  0  0  0  0
    1.8528    1.6186   -0.9378 O   0  0  0  0  0  0  0  0  0  0  0  0
    2.5208   -1.8430   -1.5415 O   0  0  0  0  0  0  0  0  0  0  0  0
    0.3512   -3.4199    0.4568 O   0  0  0  0  0  0  0  0  0  0  0  0
   -1.3923    1.6056    2.6723 O   0  0  0  0  0  0  0  0  0  0  0  0
   -1.3978   -2.0843   -0.1657 O   0  0  0  0  0  0  0  0  0  0  0  0
   -4.3639    0.3827   -2.2202 O   0  0  0  0  0  0  0  0  0  0  0  0
    1.9271   -1.2467    0.6637 N   0  0  0  0  0  0  0  0  0  0  0  0
   -4.1684    0.8917    0.0439 N   0  0  0  0  0  0  0  0  0  0  0  0
    2.5730   -0.0561    1.2610 C   0  0  1  0  0  0  0  0  0  0  0  0
    3.4107    0.0276   -0.0438 C   0  0  2  0  0  0  0  0  0  0  0  0
    1.4076    0.8809    1.5937 C   0  0  0  0  0  0  0  0  0  0  0  0
    3.2367    1.2523   -0.9096 C   0  0  0  0  0  0  0  0  0  0  0  0
    2.6140   -1.2098   -0.5139 C   0  0  0  0  0  0  0  0  0  0  0  0
    0.5696   -1.1541    0.7906 C   0  0  0  0  0  0  0  0  0  0  0  0
    0.2048    0.0159    1.3289 C   0  0  0  0  0  0  0  0  0  0  0  0
    4.0106    2.4371   -0.3241 C   0  0  0  0  0  0  0  0  0  0  0  0
    3.6936    0.9725   -2.3453 C   0  0  0  0  0  0  0  0  0  0  0  0
   -0.2816   -2.2355    0.3053 C   0  0  0  0  0  0  0  0  0  0  0  0
   -1.7465    1.3292    0.0270 C   0  0  0  0  0  0  0  0  0  0  0  0
   -3.1506    1.9021   -0.0644 C   0  0  0  0  0  0  0  0  0  0  0  0
   -4.6917    0.2139   -1.0486 C   0  0  0  0  0  0  0  0  0  0  0  0
   -5.7236   -0.8076   -0.6518 C   0  0  0  0  0  0  0  0  0  0  0  0
    3.1689   -0.3271    2.1425 H   0  0  0  0  0  0  0  0  0  0  0  0
    4.4680   -0.2284    0.1143 H   0  0  0  0  0  0  0  0  0  0  0  0
    1.4382    1.0938    2.6710 H   0  0  0  0  0  0  0  0  0  0  0  0
    1.3845    1.8562    1.1157 H   0  0  0  0  0  0  0  0  0  0  0  0
    3.6795    2.6637    0.6952 H   0  0  0  0  0  0  0  0  0  0  0  0
    3.8433    3.3444   -0.9153 H   0  0  0  0  0  0  0  0  0  0  0  0
    5.0863    2.2347   -0.2902 H   0  0  0  0  0  0  0  0  0  0  0  0
    3.6410    1.8862   -2.9490 H   0  0  0  0  0  0  0  0  0  0  0  0
    4.7226    0.5991   -2.3741 H   0  0  0  0  0  0  0  0  0  0  0  0
    3.0479    0.2478   -2.8506 H   0  0  0  0  0  0  0  0  0  0  0  0
    1.3664    0.9406   -1.4368 H   0  0  0  0  0  0  0  0  0  0  0  0
   -1.5861    0.5927   -0.7669 H   0  0  0  0  0  0  0  0  0  0  0  0
   -1.0128    2.1327   -0.0955 H   0  0  0  0  0  0  0  0  0  0  0  0
   -3.3302    2.6272    0.7368 H   0  0  0  0  0  0  0  0  0  0  0  0
   -3.2706    2.4241   -1.0201 H   0  0  0  0  0  0  0  0  0  0  0  0
   -0.1937   -4.1714    0.1396 H   0  0  0  0  0  0  0  0  0  0  0  0
   -4.5090    0.6625    0.9733 H   0  0  0  0  0  0  0  0  0  0  0  0
   -6.2673   -1.1453   -1.5384 H   0  0  0  0  0  0  0  0  0  0  0  0
   -5.2271   -1.6630   -0.1853 H   0  0  0  0  0  0  0  0  0  0  0  0
   -6.4387   -0.3726    0.0522 H   0  0  0  0  0  0  0  0  0  0  0  0
  1  5  2  0  0  0  0
  1 16  1  0  0  0  0
  1 20  1  0  0  0  0
  2 13  1  0  0  0  0
  2 34  1  0  0  0  0
  3 14  2  0  0  0  0
  4 19  1  0  0  0  0
  4 39  1  0  0  0  0
  6 19  2  0  0  0  0
  7 22  2  0  0  0  0
  8 10  1  0  0  0  0
  8 14  1  0  0  0  0
  8 15  1  0  0  0  0
  9 21  1  0  0  0  0
  9 22  1  0  0  0  0
  9 40  1  0  0  0  0
 10 11  1  0  0  0  0
 10 12  1  0  0  0  0
 10 24  1  0  0  0  0
 11 13  1  0  0  0  0
 11 14  1  0  0  0  0
 11 25  1  0  0  0  0
 12 16  1  0  0  0  0
 12 26  1  0  0  0  0
 12 27  1  0  0  0  0
 13 17  1  0  0  0  0
 13 18  1  0  0  0  0
 15 16  2  0  0  0  0
 15 19  1  0  0  0  0
 17 28  1  0  0  0  0
 17 29  1  0  0  0  0
 17 30  1  0  0  0  0
 18 31  1  0  0  0  0
 18 32  1  0  0  0  0
 18 33  1  0  0  0  0
 20 21  1  0  0  0  0
 20 35  1  0  0  0  0
 20 36  1  0  0  0  0
 21 37  1  0  0  0  0
 21 38  1  0  0  0  0
 22 23  1  0  0  0  0
 23 41  1  0  0  0  0
 23 42  1  0  0  0  0
 23 43  1  0  0  0  0
M  END
> <PUBCHEM_COMPOUND_CID>
13118277

> <PUBCHEM_CONFORMER_RMSD>
0.8

> <PUBCHEM_CONFORMER_DIVERSEORDER>
1
31
40
55
18
34
49
38
41
52
44
32
3
19
11
35
23
54
39
12
47
29
45
26
24
13
20
28
25
5
42
51
9
50
48
2
43
33
15
46
27
53
8
6
22
4
36
14
17
21
10
7
37
16
30

> <PUBCHEM_MMFF94_PARTIAL_CHARGES>
24
1 0.25
10 0.22
11 0.05
12 0.14
13 0.28
14 0.58
15 0.12
16 -0.08
19 0.71
2 -0.68
20 0.19
21 0.3
22 0.57
23 0.06
3 -0.57
34 0.4
39 0.5
4 -0.65
40 0.37
5 -0.5
6 -0.57
7 -0.57
8 -0.39
9 -0.73

> <PUBCHEM_EFFECTIVE_ROTOR_COUNT>
7.4

> <PUBCHEM_PHARMACOPHORE_FEATURES>
11
1 2 acceptor
1 2 donor
1 3 acceptor
1 4 acceptor
1 5 acceptor
1 6 acceptor
1 7 acceptor
1 9 donor
3 13 17 18 hydrophobe
3 4 6 19 anion
7 8 10 11 12 14 15 16 rings

> <PUBCHEM_HEAVY_ATOM_COUNT>
23

> <PUBCHEM_ATOM_DEF_STEREO_COUNT>
2

> <PUBCHEM_ATOM_UDEF_STEREO_COUNT>
1

> <PUBCHEM_BOND_DEF_STEREO_COUNT>
0

> <PUBCHEM_BOND_UDEF_STEREO_COUNT>
0

> <PUBCHEM_ISOTOPIC_ATOM_COUNT>
0

> <PUBCHEM_COMPONENT_COUNT>
1

> <PUBCHEM_CACTVS_TAUTO_COUNT>
2

> <PUBCHEM_CONFORMER_ID>
00C82B4500000001

> <PUBCHEM_MMFF94_ENERGY>
71.9436

> <PUBCHEM_FEATURE_SELFOVERLAP>
55.878

> <PUBCHEM_SHAPE_FINGERPRINT>
10498660 4 18334015025222581119
11725454 13 16950277399693543531
11796584 16 14189571940823189479
11961588 58 18266739258909944724
12633257 1 13190336915460676660
12670546 177 18341896290126462061
12824470 246 13470423144603094540
12892183 10 9438815306468901781
13103583 49 9079116678532651349
13134695 92 17388820778028893346
13583140 156 17095248011984170179
14251764 30 15267346240829544093
14251764 38 16660915587496544485
15848702 105 18261388996547653355
16945 1 17913806897403980922
173720 79 18042669754072672296
17492 54 18186803625309331413
20775530 9 13756697412318351844
21033648 29 14345798210613776173
21475661 188 16081091510342906501
21756936 100 16011307801742398316
22892500 29 16008744667526814344
22907989 373 17915485953874062209
238 59 18261115187771457524
2838139 119 17603867831807991588
3060560 45 18188772738954699366
3323516 105 17917422121294788355
341906 21 14634878552145201493
474 4 17167864205094819068

> <PUBCHEM_SHAPE_MULTIPOLES>
432
9.04
2.63
1.99
10.45
1.39
0.09
-3.31
-5.57
-0.92
-0.12
-0.02
-0.66
-0.6

> <PUBCHEM_SHAPE_SELFOVERLAP>
888.932

> <PUBCHEM_SHAPE_VOLUME>
251.2

> <PUBCHEM_COORDINATE_TYPE>
2
5
10

$$$$
