REMARK  Name = 131173
REMARK  4 active torsions:
REMARK  status: ('A' for Active; 'I' for Inactive)
REMARK    1  A    between atoms: C_2  and  C_10
REMARK    2  A    between atoms: C_3  and  C_17
REMARK    3  A    between atoms: C_11  and  O_13
REMARK    4  A    between atoms: C_18  and  O_20
REMARK                            x       y       z     vdW  Elec       q    Type
REMARK                         _______ _______ _______ _____ _____    ______ ____
ROOT
ATOM      1  N   UNL     1       0.000   0.246  -0.375  0.00  0.00    +0.389 N 
ATOM      2  C   UNL     1       1.160  -0.609  -0.033  0.00  0.00    -0.045 C 
ATOM      3  C   UNL     1      -1.160  -0.609  -0.034  0.00  0.00    -0.045 C 
ATOM      4  C   UNL     1       0.763  -2.017  -0.478  0.00  0.00    -0.022 C 
ATOM      5  C   UNL     1      -0.762  -2.017  -0.478  0.00  0.00    -0.022 C 
ATOM      6  C   UNL     1       0.001   0.710  -1.762  0.00  0.00    -0.100 C 
ATOM      7  H   UNL     1       0.000   1.127   0.138  0.00  0.00    -0.080 HD
ENDROOT
BRANCH   2  10
ATOM      8  S   UNL     1       3.798  -1.367  -0.014  0.00  0.00    -0.083 S 
ATOM      9  S   UNL     1       4.428  -0.334   1.641  0.00  0.00    -0.080 S 
ATOM     10  C   UNL     1       2.525  -0.184  -0.565  0.00  0.00    +0.067 C 
ATOM     11  C   UNL     1       2.962   1.194  -0.049  0.00  0.00    +0.131 C 
ATOM     12  C   UNL     1       3.391   1.138   1.416  0.00  0.00    +0.099 C 
BRANCH  11  13
ATOM     13  O   UNL     1       4.032   1.702  -0.850  0.00  0.00    -0.383 OA
ATOM     14  H   UNL     1       3.753   1.735  -1.779  0.00  0.00    +0.210 HD
ENDBRANCH  11  13
ENDBRANCH   2  10
BRANCH   3  17
ATOM     15  S   UNL     1      -3.798  -1.367  -0.016  0.00  0.00    -0.083 S 
ATOM     16  S   UNL     1      -4.425  -0.336   1.641  0.00  0.00    -0.080 S 
ATOM     17  C   UNL     1      -2.525  -0.184  -0.567  0.00  0.00    +0.067 C 
ATOM     18  C   UNL     1      -2.960   1.195  -0.052  0.00  0.00    +0.131 C 
ATOM     19  C   UNL     1      -3.388   1.136   1.413  0.00  0.00    +0.099 C 
BRANCH  18  20
ATOM     20  O   UNL     1      -4.042   1.702  -0.837  0.00  0.00    -0.383 OA
ATOM     21  H   UNL     1      -3.775   1.742  -1.769  0.00  0.00    +0.210 HD
ENDBRANCH  18  20
ENDBRANCH   3  17
TORSDOF 4
