131287
  -OEChem-03292013323D

 47 50  0     1  0  0  0  0  0999 V2000
    2.1509   -1.1052    0.9784 S   0  0  0  0  0  0  0  0  0  0  0  0
    2.0729   -1.6084    2.3359 O   0  0  0  0  0  0  0  0  0  0  0  0
    1.1238   -1.4402    0.0096 O   0  0  0  0  0  0  0  0  0  0  0  0
    2.4502    2.0083   -2.0105 O   0  0  0  0  0  0  0  0  0  0  0  0
    5.9858   -0.5049   -1.9907 O   0  0  0  0  0  0  0  0  0  0  0  0
    6.0247    0.8806   -0.1811 O   0  0  0  0  0  0  0  0  0  0  0  0
   -0.7304    1.1455    2.1374 O   0  0  0  0  0  0  0  0  0  0  0  0
   -4.1644    3.4112   -0.2884 O   0  0  0  0  0  0  0  0  0  0  0  0
   -2.0347    3.3761    0.5053 O   0  0  0  0  0  0  0  0  0  0  0  0
    3.2790    0.7707   -0.1818 N   0  0  0  0  0  0  0  0  0  0  0  0
    0.1068    1.1345   -0.0247 N   0  0  0  0  0  0  0  0  0  0  0  0
   -2.3303   -0.8694    0.4030 N   0  0  0  0  0  0  0  0  0  0  0  0
   -4.3664    0.8613   -0.3580 N   0  0  0  0  0  0  0  0  0  0  0  0
    2.4178    0.6606    1.0057 C   0  0  1  0  0  0  0  0  0  0  0  0
    3.8046   -1.5245    0.2616 C   0  0  0  0  0  0  0  0  0  0  0  0
    4.0216   -0.3544   -0.7173 C   0  0  2  0  0  0  0  0  0  0  0  0
    1.4510    1.6234    0.3064 C   0  0  1  0  0  0  0  0  0  0  0  0
    2.4413    1.5926   -0.8741 C   0  0  0  0  0  0  0  0  0  0  0  0
    3.7361   -2.8709   -0.4604 C   0  0  0  0  0  0  0  0  0  0  0  0
    4.8414   -1.5908    1.3937 C   0  0  0  0  0  0  0  0  0  0  0  0
    5.4367    0.0895   -0.9033 C   0  0  0  0  0  0  0  0  0  0  0  0
   -0.8877    0.9336    0.9379 C   0  0  0  0  0  0  0  0  0  0  0  0
   -2.2053    0.4558    0.4476 C   0  0  0  0  0  0  0  0  0  0  0  0
   -3.1809    1.3190    0.0830 C   0  0  0  0  0  0  0  0  0  0  0  0
   -3.5082   -1.3470   -0.0354 C   0  0  0  0  0  0  0  0  0  0  0  0
   -4.5394   -0.4707   -0.4207 C   0  0  0  0  0  0  0  0  0  0  0  0
   -3.0419    2.7646    0.1319 C   0  0  0  0  0  0  0  0  0  0  0  0
   -3.7227   -2.7212   -0.1135 C   0  0  0  0  0  0  0  0  0  0  0  0
   -5.7467   -1.0008   -0.8696 C   0  0  0  0  0  0  0  0  0  0  0  0
   -4.9346   -3.2414   -0.5643 C   0  0  0  0  0  0  0  0  0  0  0  0
   -5.9510   -2.3775   -0.9438 C   0  0  0  0  0  0  0  0  0  0  0  0
    2.9020    1.0263    1.9155 H   0  0  0  0  0  0  0  0  0  0  0  0
    3.5835   -0.5692   -1.7008 H   0  0  0  0  0  0  0  0  0  0  0  0
    1.4045    2.6156    0.7721 H   0  0  0  0  0  0  0  0  0  0  0  0
    4.7052   -3.1295   -0.9005 H   0  0  0  0  0  0  0  0  0  0  0  0
    3.4510   -3.6725    0.2299 H   0  0  0  0  0  0  0  0  0  0  0  0
    2.9968   -2.8611   -1.2685 H   0  0  0  0  0  0  0  0  0  0  0  0
    4.5933   -2.3830    2.1090 H   0  0  0  0  0  0  0  0  0  0  0  0
    5.8421   -1.8104    1.0063 H   0  0  0  0  0  0  0  0  0  0  0  0
    4.8916   -0.6523    1.9559 H   0  0  0  0  0  0  0  0  0  0  0  0
   -0.1312    0.9326   -0.9932 H   0  0  0  0  0  0  0  0  0  0  0  0
    6.9158   -0.2260   -2.1301 H   0  0  0  0  0  0  0  0  0  0  0  0
   -2.9337   -3.4104    0.1812 H   0  0  0  0  0  0  0  0  0  0  0  0
   -6.5526   -0.3345   -1.1707 H   0  0  0  0  0  0  0  0  0  0  0  0
   -5.0808   -4.3159   -0.6174 H   0  0  0  0  0  0  0  0  0  0  0  0
   -6.8999   -2.7697   -1.2967 H   0  0  0  0  0  0  0  0  0  0  0  0
   -4.0590    4.3859   -0.2518 H   0  0  0  0  0  0  0  0  0  0  0  0
  1  2  2  0  0  0  0
  1  3  2  0  0  0  0
  1 14  1  0  0  0  0
  1 15  1  0  0  0  0
  4 18  2  0  0  0  0
  5 21  1  0  0  0  0
  5 42  1  0  0  0  0
  6 21  2  0  0  0  0
  7 22  2  0  0  0  0
  8 27  1  0  0  0  0
  8 47  1  0  0  0  0
  9 27  2  0  0  0  0
 10 14  1  0  0  0  0
 10 16  1  0  0  0  0
 10 18  1  0  0  0  0
 11 17  1  0  0  0  0
 11 22  1  0  0  0  0
 11 41  1  0  0  0  0
 12 23  2  0  0  0  0
 12 25  1  0  0  0  0
 13 24  2  0  0  0  0
 13 26  1  0  0  0  0
 14 17  1  0  0  0  0
 14 32  1  0  0  0  0
 15 16  1  0  0  0  0
 15 19  1  0  0  0  0
 15 20  1  0  0  0  0
 16 21  1  0  0  0  0
 16 33  1  0  0  0  0
 17 18  1  0  0  0  0
 17 34  1  0  0  0  0
 19 35  1  0  0  0  0
 19 36  1  0  0  0  0
 19 37  1  0  0  0  0
 20 38  1  0  0  0  0
 20 39  1  0  0  0  0
 20 40  1  0  0  0  0
 22 23  1  0  0  0  0
 23 24  1  0  0  0  0
 24 27  1  0  0  0  0
 25 26  1  0  0  0  0
 25 28  2  0  0  0  0
 26 29  2  0  0  0  0
 28 30  1  0  0  0  0
 28 43  1  0  0  0  0
 29 31  1  0  0  0  0
 29 44  1  0  0  0  0
 30 31  2  0  0  0  0
 30 45  1  0  0  0  0
 31 46  1  0  0  0  0
M  END
> <PUBCHEM_COMPOUND_CID>
131287

> <PUBCHEM_CONFORMER_RMSD>
0.8

> <PUBCHEM_CONFORMER_DIVERSEORDER>
1
17
8
10
11
18
3
5
14
2
16
15
6
12
9
4
13
7

> <PUBCHEM_MMFF94_PARTIAL_CHARGES>
36
1 1.1
10 -0.59
11 -0.65
12 -0.62
13 -0.62
14 0.32
15 0.11
16 0.36
17 0.28
18 0.58
2 -0.65
21 0.66
22 0.54
23 0.4
24 0.4
25 0.31
26 0.31
27 0.63
28 -0.15
29 -0.15
3 -0.65
30 -0.15
31 -0.15
4 -0.57
41 0.37
42 0.5
43 0.15
44 0.15
45 0.15
46 0.15
47 0.5
5 -0.65
6 -0.57
7 -0.57
8 -0.65
9 -0.57

> <PUBCHEM_EFFECTIVE_ROTOR_COUNT>
5.6

> <PUBCHEM_PHARMACOPHORE_FEATURES>
18
1 11 donor
1 12 acceptor
1 13 acceptor
1 2 acceptor
1 3 acceptor
1 4 acceptor
1 5 acceptor
1 6 acceptor
1 7 acceptor
1 8 acceptor
1 9 acceptor
3 15 19 20 hydrophobe
3 5 6 21 anion
3 8 9 27 anion
4 10 14 17 18 rings
6 12 13 23 24 25 26 rings
6 25 26 28 29 30 31 rings
7 1 10 14 15 16 17 18 rings

> <PUBCHEM_HEAVY_ATOM_COUNT>
31

> <PUBCHEM_ATOM_DEF_STEREO_COUNT>
3

> <PUBCHEM_ATOM_UDEF_STEREO_COUNT>
0

> <PUBCHEM_BOND_DEF_STEREO_COUNT>
0

> <PUBCHEM_BOND_UDEF_STEREO_COUNT>
0

> <PUBCHEM_ISOTOPIC_ATOM_COUNT>
0

> <PUBCHEM_COMPONENT_COUNT>
1

> <PUBCHEM_CACTVS_TAUTO_COUNT>
2

> <PUBCHEM_CONFORMER_ID>
000200D700000001

> <PUBCHEM_MMFF94_ENERGY>
91.0469

> <PUBCHEM_FEATURE_SELFOVERLAP>
95.228

> <PUBCHEM_SHAPE_FINGERPRINT>
10595046 47 18408041827458890116
10622 236 18190441814522607387
11796584 16 18201443515206050420
12107183 9 17831293904656424531
12788726 201 18408880733720005083
13631057 29 18343303699311809368
13690498 29 18342181076459544295
13782708 43 17060339625783044830
14347332 77 18410005542594241359
14790565 3 17549548410027625345
14866123 147 18343021065717289345
14931854 50 18260826020682490767
15183329 4 18409726262425037799
15250474 111 18335413530666911107
15968369 26 17471275727770980697
17492 89 18412260623251945799
17857418 61 18411416232839385527
17909252 39 18343302608295352962
18681886 176 18342174518508687088
20511986 3 18187351104637149128
21054139 6 18333730243374357474
21703447 108 18270109261595748720
22393880 68 18411417302196597376
23559900 14 18342166808821403513
24771293 8 18261396676772767756
3004659 81 18262230122990446063
32027 91 17768531582506089318
439807 62 18262234543018767419
44062 13 18342457002654986773
46194498 28 17845940731653534604
463206 1 18194398029595646327
6669772 16 17485358208365178504
6823239 73 18130211722982818714

> <PUBCHEM_SHAPE_MULTIPOLES>
574.94
14.32
3.59
1.41
0.26
0.55
-0.19
-7.16
5.16
4.15
0.21
-1.62
-0.05
-1.56

> <PUBCHEM_SHAPE_SELFOVERLAP>
1256.303

> <PUBCHEM_SHAPE_VOLUME>
312.7

> <PUBCHEM_COORDINATE_TYPE>
2
5
10

$$$$
