131200
  -OEChem-03292013323D

 63 64  0     1  0  0  0  0  0999 V2000
    4.6233    0.3495    0.2700 P   0  0  1  0  0  0  0  0  0  0  0  0
   -0.9992    1.0179   -1.1437 O   0  0  0  0  0  0  0  0  0  0  0  0
    0.4577    0.1043    2.0029 O   0  0  0  0  0  0  0  0  0  0  0  0
    5.3929    1.7688    0.1057 O   0  0  0  0  0  0  0  0  0  0  0  0
    5.2327   -0.5072    1.3466 O   0  0  0  0  0  0  0  0  0  0  0  0
   -4.4768    0.1416   -2.9150 O   0  0  0  0  0  0  0  0  0  0  0  0
   -4.9055    1.7821   -1.4082 O   0  0  0  0  0  0  0  0  0  0  0  0
    0.2899    2.1389    0.9127 N   0  0  0  0  0  0  0  0  0  0  0  0
   -2.9112    0.7548    0.1585 N   0  0  0  0  0  0  0  0  0  0  0  0
    3.0039    0.6850    0.3719 N   0  0  0  0  0  0  0  0  0  0  0  0
   -1.1653    2.2108    0.9173 C   0  0  1  0  0  0  0  0  0  0  0  0
   -1.4825    3.6610    0.5709 C   0  0  0  0  0  0  0  0  0  0  0  0
   -0.2960    4.0879   -0.2898 C   0  0  0  0  0  0  0  0  0  0  0  0
    0.8753    3.3472    0.3376 C   0  0  0  0  0  0  0  0  0  0  0  0
   -1.6579    1.2660   -0.1371 C   0  0  0  0  0  0  0  0  0  0  0  0
    0.9867    1.1107    1.5283 C   0  0  0  0  0  0  0  0  0  0  0  0
   -3.6167   -0.1593   -0.7070 C   0  0  1  0  0  0  0  0  0  0  0  0
    2.4839    1.2819    1.5825 C   0  0  0  0  0  0  0  0  0  0  0  0
   -4.5421   -1.0671    0.1027 C   0  0  0  0  0  0  0  0  0  0  0  0
   -3.7802   -1.9708    1.0763 C   0  0  0  0  0  0  0  0  0  0  0  0
    4.8785   -0.3704   -1.3527 C   0  0  0  0  0  0  0  0  0  0  0  0
   -4.3861    0.7079   -1.6839 C   0  0  0  0  0  0  0  0  0  0  0  0
   -4.7339   -2.8850    1.8463 C   0  0  0  0  0  0  0  0  0  0  0  0
    4.5012   -1.8449   -1.4292 C   0  0  0  0  0  0  0  0  0  0  0  0
   -3.9865   -3.7580    2.8417 C   0  0  0  0  0  0  0  0  0  0  0  0
    3.0476   -2.0861   -1.1116 C   0  0  0  0  0  0  0  0  0  0  0  0
    2.6520   -2.3288    0.2038 C   0  0  0  0  0  0  0  0  0  0  0  0
    2.0977   -2.0661   -2.1331 C   0  0  0  0  0  0  0  0  0  0  0  0
    1.3069   -2.5517    0.4979 C   0  0  0  0  0  0  0  0  0  0  0  0
    0.7525   -2.2890   -1.8389 C   0  0  0  0  0  0  0  0  0  0  0  0
    0.3571   -2.5317   -0.5234 C   0  0  0  0  0  0  0  0  0  0  0  0
   -1.5476    1.9228    1.9028 H   0  0  0  0  0  0  0  0  0  0  0  0
   -2.4374    3.7926    0.0530 H   0  0  0  0  0  0  0  0  0  0  0  0
   -1.5012    4.2655    1.4859 H   0  0  0  0  0  0  0  0  0  0  0  0
   -0.1488    5.1714   -0.3034 H   0  0  0  0  0  0  0  0  0  0  0  0
   -0.4443    3.7535   -1.3233 H   0  0  0  0  0  0  0  0  0  0  0  0
    1.3107    3.9346    1.1533 H   0  0  0  0  0  0  0  0  0  0  0  0
    1.6542    3.1094   -0.3905 H   0  0  0  0  0  0  0  0  0  0  0  0
   -3.3975    1.0975    0.9824 H   0  0  0  0  0  0  0  0  0  0  0  0
   -2.8785   -0.7477   -1.2649 H   0  0  0  0  0  0  0  0  0  0  0  0
    2.8483    0.7442    2.4649 H   0  0  0  0  0  0  0  0  0  0  0  0
    2.7929    2.3233    1.6900 H   0  0  0  0  0  0  0  0  0  0  0  0
   -5.2673   -0.4601    0.6611 H   0  0  0  0  0  0  0  0  0  0  0  0
   -5.1280   -1.6880   -0.5871 H   0  0  0  0  0  0  0  0  0  0  0  0
    2.5926    1.1414   -0.4410 H   0  0  0  0  0  0  0  0  0  0  0  0
   -3.0586   -2.5811    0.5206 H   0  0  0  0  0  0  0  0  0  0  0  0
   -3.2100   -1.3623    1.7880 H   0  0  0  0  0  0  0  0  0  0  0  0
    5.9416   -0.2757   -1.6028 H   0  0  0  0  0  0  0  0  0  0  0  0
    4.3246    0.2099   -2.0999 H   0  0  0  0  0  0  0  0  0  0  0  0
   -5.4746   -2.2821    2.3845 H   0  0  0  0  0  0  0  0  0  0  0  0
   -5.2831   -3.5249    1.1459 H   0  0  0  0  0  0  0  0  0  0  0  0
    4.7285   -2.2316   -2.4303 H   0  0  0  0  0  0  0  0  0  0  0  0
    5.1232   -2.4246   -0.7360 H   0  0  0  0  0  0  0  0  0  0  0  0
   -3.2564   -4.3956    2.3330 H   0  0  0  0  0  0  0  0  0  0  0  0
   -4.6868   -4.4051    3.3792 H   0  0  0  0  0  0  0  0  0  0  0  0
   -3.4550   -3.1468    3.5781 H   0  0  0  0  0  0  0  0  0  0  0  0
    5.3737    2.4050    0.8521 H   0  0  0  0  0  0  0  0  0  0  0  0
   -4.9909    0.6994   -3.5370 H   0  0  0  0  0  0  0  0  0  0  0  0
    3.3784   -2.3709    1.0096 H   0  0  0  0  0  0  0  0  0  0  0  0
    2.3931   -1.8753   -3.1612 H   0  0  0  0  0  0  0  0  0  0  0  0
    0.9997   -2.7479    1.5210 H   0  0  0  0  0  0  0  0  0  0  0  0
    0.0122   -2.2716   -2.6334 H   0  0  0  0  0  0  0  0  0  0  0  0
   -0.6898   -2.7052   -0.2948 H   0  0  0  0  0  0  0  0  0  0  0  0
  1  4  1  0  0  0  0
  1  5  2  0  0  0  0
  1 10  1  0  0  0  0
  1 21  1  0  0  0  0
  2 15  2  0  0  0  0
  3 16  2  0  0  0  0
  4 57  1  0  0  0  0
  6 22  1  0  0  0  0
  6 58  1  0  0  0  0
  7 22  2  0  0  0  0
  8 11  1  0  0  0  0
  8 14  1  0  0  0  0
  8 16  1  0  0  0  0
  9 15  1  0  0  0  0
  9 17  1  0  0  0  0
  9 39  1  0  0  0  0
 10 18  1  0  0  0  0
 10 45  1  0  0  0  0
 11 12  1  0  0  0  0
 11 15  1  0  0  0  0
 11 32  1  0  0  0  0
 12 13  1  0  0  0  0
 12 33  1  0  0  0  0
 12 34  1  0  0  0  0
 13 14  1  0  0  0  0
 13 35  1  0  0  0  0
 13 36  1  0  0  0  0
 14 37  1  0  0  0  0
 14 38  1  0  0  0  0
 16 18  1  0  0  0  0
 17 19  1  0  0  0  0
 17 22  1  0  0  0  0
 17 40  1  0  0  0  0
 18 41  1  0  0  0  0
 18 42  1  0  0  0  0
 19 20  1  0  0  0  0
 19 43  1  0  0  0  0
 19 44  1  0  0  0  0
 20 23  1  0  0  0  0
 20 46  1  0  0  0  0
 20 47  1  0  0  0  0
 21 24  1  0  0  0  0
 21 48  1  0  0  0  0
 21 49  1  0  0  0  0
 23 25  1  0  0  0  0
 23 50  1  0  0  0  0
 23 51  1  0  0  0  0
 24 26  1  0  0  0  0
 24 52  1  0  0  0  0
 24 53  1  0  0  0  0
 25 54  1  0  0  0  0
 25 55  1  0  0  0  0
 25 56  1  0  0  0  0
 26 27  2  0  0  0  0
 26 28  1  0  0  0  0
 27 29  1  0  0  0  0
 27 59  1  0  0  0  0
 28 30  2  0  0  0  0
 28 60  1  0  0  0  0
 29 31  2  0  0  0  0
 29 61  1  0  0  0  0
 30 31  1  0  0  0  0
 30 62  1  0  0  0  0
 31 63  1  0  0  0  0
M  END
> <PUBCHEM_COMPOUND_CID>
131200

> <PUBCHEM_CONFORMER_RMSD>
1.2

> <PUBCHEM_CONFORMER_DIVERSEORDER>
2
102
80
5
58
90
84
69
100
77
92
27
38
101
39
75
94
16
49
12
41
47
99
60
98
68
67
95
8
17
56
3
57
96
70
74
31
29
14
54
37
65
1
55
79
72
78
85
88
25
15
59
76
6
20
93
81
63
82
30
45
64
83
42
34
89
43
91
48
19
11
10
23
32
73
86
61
87
71
18
36
21
40
13
51
33
28
53
46
62
24
7
9
44
50
66
26
35
22
52
97
4

> <PUBCHEM_MMFF94_PARTIAL_CHARGES>
33
1 1.24
10 -0.9
11 0.36
14 0.3
15 0.57
16 0.57
17 0.36
18 0.33
2 -0.57
22 0.66
24 0.14
26 -0.14
27 -0.15
28 -0.15
29 -0.15
3 -0.57
30 -0.15
31 -0.15
39 0.37
4 -0.77
45 0.36
5 -0.7
57 0.5
58 0.5
59 0.15
6 -0.65
60 0.15
61 0.15
62 0.15
63 0.15
7 -0.57
8 -0.66
9 -0.73

> <PUBCHEM_EFFECTIVE_ROTOR_COUNT>
15

> <PUBCHEM_PHARMACOPHORE_FEATURES>
9
1 2 acceptor
1 25 hydrophobe
1 3 acceptor
1 6 acceptor
1 7 acceptor
1 9 donor
3 6 7 22 anion
5 8 11 12 13 14 rings
6 26 27 28 29 30 31 rings

> <PUBCHEM_HEAVY_ATOM_COUNT>
31

> <PUBCHEM_ATOM_DEF_STEREO_COUNT>
2

> <PUBCHEM_ATOM_UDEF_STEREO_COUNT>
0

> <PUBCHEM_BOND_DEF_STEREO_COUNT>
0

> <PUBCHEM_BOND_UDEF_STEREO_COUNT>
0

> <PUBCHEM_ISOTOPIC_ATOM_COUNT>
0

> <PUBCHEM_COMPONENT_COUNT>
1

> <PUBCHEM_CACTVS_TAUTO_COUNT>
4

> <PUBCHEM_CONFORMER_ID>
0002008000000002

> <PUBCHEM_MMFF94_ENERGY>
43.6492

> <PUBCHEM_FEATURE_SELFOVERLAP>
45.73

> <PUBCHEM_SHAPE_FINGERPRINT>
10675989 125 17614547152347216277
11828532 37 17172659317676678435
12156800 1 15367576900051718459
12623949 98 17685793710557034747
12788726 201 17909543965942175869
13402501 40 18338525243432140907
13751561 76 16164430347476161179
14363568 33 18126577944258538736
14840074 17 17775283859383815813
15664445 248 18339629084397851184
16067689 68 16445001281331587544
17492 54 18342455946251391668
22393880 68 17911521991861188876
255183 313 16464743308550221889
463206 1 18131057251798692589
508706 21 18268154154191146826
5309563 4 18342459278908610229

> <PUBCHEM_SHAPE_MULTIPOLES>
591.66
10.98
4.91
2.3
0.25
1.65
0.24
-5.01
0.94
2.25
-1.4
1.97
-1.41
4.26

> <PUBCHEM_SHAPE_SELFOVERLAP>
1191.816

> <PUBCHEM_SHAPE_VOLUME>
345.9

> <PUBCHEM_COORDINATE_TYPE>
2
5
10

$$$$
