REMARK  Name = 131271
REMARK  3 active torsions:
REMARK  status: ('A' for Active; 'I' for Inactive)
REMARK    1  A    between atoms: C_5  and  C_13
REMARK    2  A    between atoms: C_13  and  N_14
REMARK    3  A    between atoms: N_14  and  C_17
REMARK                            x       y       z     vdW  Elec       q    Type
REMARK                         _______ _______ _______ _____ _____    ______ ____
ROOT
ATOM      1 CL   UNL     1       2.316  -2.673  -0.552  0.00  0.00    -0.045 Cl
ATOM      2 CL   UNL     1       4.189  -0.293   0.742  0.00  0.00    -0.045 Cl
ATOM      3  N   UNL     1       0.486  -0.858  -0.619  0.00  0.00    -0.378 NA
ATOM      4  N   UNL     1       2.079   1.168   0.488  0.00  0.00    -0.370 NA
ATOM      5  C   UNL     1       0.048   0.382  -0.401  0.00  0.00    +0.231 C 
ATOM      6  C   UNL     1       0.796   1.382   0.133  0.00  0.00    +0.213 C 
ATOM      7  C   UNL     1       1.769  -1.072  -0.265  0.00  0.00    +0.230 C 
ATOM      8  C   UNL     1       2.551  -0.077   0.279  0.00  0.00    +0.231 C 
ATOM      9  N   UNL     1       0.243   2.667   0.330  0.00  0.00    -0.331 N 
ATOM     10  H   UNL     1       0.793   3.386   0.718  0.00  0.00    +0.145 HD
ATOM     11  H   UNL     1      -0.692   2.844   0.079  0.00  0.00    +0.145 HD
ENDROOT
BRANCH   5  13
ATOM     12  O   UNL     1      -1.719   1.701  -1.207  0.00  0.00    -0.265 OA
ATOM     13  C   UNL     1      -1.372   0.597  -0.798  0.00  0.00    +0.305 C 
BRANCH  13  14
ATOM     14  N   UNL     1      -2.188  -0.509  -0.707  0.00  0.00    -0.141 NA
BRANCH  14  17
ATOM     15  N   UNL     1      -3.678  -1.787   0.687  0.00  0.00    -0.372 N 
ATOM     16  N   UNL     1      -2.696   0.114   1.478  0.00  0.00    -0.372 N 
ATOM     17  C   UNL     1      -2.825  -0.742   0.410  0.00  0.00    +0.185 C 
ATOM     18  H   UNL     1      -3.856  -2.471   0.003  0.00  0.00    +0.159 HD
ATOM     19  H   UNL     1      -4.110  -1.849   1.570  0.00  0.00    +0.159 HD
ATOM     20  H   UNL     1      -2.112   0.904   1.408  0.00  0.00    +0.159 HD
ATOM     21  H   UNL     1      -3.187  -0.063   2.313  0.00  0.00    +0.159 HD
ENDBRANCH  14  17
ENDBRANCH  13  14
ENDBRANCH   5  13
TORSDOF 3
