REMARK  Name = 131281
REMARK  11 active torsions:
REMARK  status: ('A' for Active; 'I' for Inactive)
REMARK    1  A    between atoms: C_2  and  C_3
REMARK    2  A    between atoms: C_2  and  O_19
REMARK    3  A    between atoms: C_3  and  C_5
REMARK    4  A    between atoms: C_8  and  C_12
REMARK    5  A    between atoms: C_12  and  C_13
REMARK    6  A    between atoms: O_19  and  C_24
REMARK    7  A    between atoms: C_21  and  O_26
REMARK    8  A    between atoms: C_22  and  O_28
REMARK    9  A    between atoms: C_23  and  O_30
REMARK   10  A    between atoms: C_25  and  C_33
REMARK   11  A    between atoms: C_33  and  O_34
REMARK                            x       y       z     vdW  Elec       q    Type
REMARK                         _______ _______ _______ _____ _____    ______ ____
ROOT
ATOM      1  O   UNL     1       1.192   1.780   1.766  0.00  0.00    -0.250 OA
ATOM      2  C   UNL     1       0.790   1.923   0.619  0.00  0.00    +0.322 C 
ENDROOT
BRANCH   2   3
ATOM      3  C   UNL     1      -0.172   3.010   0.154  0.00  0.00    +0.121 C 
ATOM      4  C   UNL     1      -0.512   3.960   1.306  0.00  0.00    +0.016 C 
BRANCH   3   5
ATOM      5  C   UNL     1      -1.415   2.423  -0.494  0.00  0.00    -0.012 C 
ATOM      6  C   UNL     1      -2.262   1.642   0.267  0.00  0.00    -0.001 C 
ATOM      7  C   UNL     1      -1.661   2.687  -1.827  0.00  0.00    -0.004 C 
ATOM      8  C   UNL     1      -3.402   1.103  -0.329  0.00  0.00    +0.039 C 
ATOM      9  C   UNL     1      -2.802   2.148  -2.423  0.00  0.00    -0.000 C 
ATOM     10  C   UNL     1      -3.672   1.356  -1.674  0.00  0.00    +0.003 C 
BRANCH   8  12
ATOM     11  O   UNL     1      -5.257   0.794   1.062  0.00  0.00    -0.287 OA
ATOM     12  C   UNL     1      -4.310   0.277   0.451  0.00  0.00    +0.196 C 
BRANCH  12  13
ATOM     13  C   UNL     1      -4.154  -1.205   0.556  0.00  0.00    +0.039 C 
ATOM     14  C   UNL     1      -3.111  -1.805  -0.111  0.00  0.00    +0.003 C 
ATOM     15  C   UNL     1      -5.058  -1.910   1.315  0.00  0.00    +0.003 C 
ATOM     16  C   UNL     1      -2.965  -3.189  -0.014  0.00  0.00    +0.000 C 
ATOM     17  C   UNL     1      -4.912  -3.294   1.413  0.00  0.00    +0.000 C 
ATOM     18  C   UNL     1      -3.866  -3.933   0.749  0.00  0.00    +0.000 C 
ENDBRANCH  12  13
ENDBRANCH   8  12
ENDBRANCH   3   5
ENDBRANCH   2   3
BRANCH   2  19
ATOM     19  O   UNL     1       1.116   1.114  -0.437  0.00  0.00    -0.421 OA
BRANCH  19  24
ATOM     20  O   UNL     1       3.222   0.533   0.383  0.00  0.00    -0.307 OA
ATOM     21  C   UNL     1       3.287  -1.844  -1.229  0.00  0.00    +0.173 C 
ATOM     22  C   UNL     1       2.245  -0.744  -1.434  0.00  0.00    +0.211 C 
ATOM     23  C   UNL     1       4.527  -1.311  -0.511  0.00  0.00    +0.178 C 
ATOM     24  C   UNL     1       1.995   0.029  -0.139  0.00  0.00    +0.321 C 
ATOM     25  C   UNL     1       4.134  -0.505   0.721  0.00  0.00    +0.246 C 
BRANCH  21  26
ATOM     26  O   UNL     1       3.697  -2.355  -2.498  0.00  0.00    -0.379 OA
ATOM     27  H   UNL     1       2.924  -2.700  -2.973  0.00  0.00    +0.211 HD
ENDBRANCH  21  26
BRANCH  22  28
ATOM     28  O   UNL     1       1.013  -1.331  -1.851  0.00  0.00    -0.377 OA
ATOM     29  H   UNL     1       1.152  -1.827  -2.673  0.00  0.00    +0.211 HD
ENDBRANCH  22  28
BRANCH  23  30
ATOM     30  O   UNL     1       5.337  -2.411  -0.099  0.00  0.00    -0.379 OA
ATOM     31  H   UNL     1       5.594  -2.932  -0.876  0.00  0.00    +0.211 HD
ENDBRANCH  23  30
BRANCH  25  33
ATOM     32  O   UNL     1       5.407   1.452   1.332  0.00  0.00    -0.247 OA
ATOM     33  C   UNL     1       5.309   0.235   1.273  0.00  0.00    +0.344 C 
BRANCH  33  34
ATOM     34  O   UNL     1       6.261  -0.629   1.702  0.00  0.00    -0.478 OA
ATOM     35  H   UNL     1       6.122  -1.553   1.628  0.00  0.00    +0.295 HD
ENDBRANCH  33  34
ENDBRANCH  25  33
ENDBRANCH  19  24
ENDBRANCH   2  19
TORSDOF 11
