131299
  -OEChem-03292013323D

 41 41  0     1  0  0  0  0  0999 V2000
    1.1848    2.5864   -0.5361 S   0  0  0  0  0  0  0  0  0  0  0  0
    1.3545    0.7206   -1.3787 S   0  0  0  0  0  0  0  0  0  0  0  0
   -2.4763   -1.0847   -0.6709 O   0  0  0  0  0  0  0  0  0  0  0  0
   -2.9270   -0.2159    1.4069 O   0  0  0  0  0  0  0  0  0  0  0  0
   -2.4918    3.1387   -1.1263 O   0  0  0  0  0  0  0  0  0  0  0  0
   -1.8734    4.4359    0.6272 O   0  0  0  0  0  0  0  0  0  0  0  0
    0.9770   -1.5386    1.3994 O   0  5  0  0  0  0  0  0  0  0  0  0
    1.3898   -2.7412   -0.3902 O   0  0  0  0  0  0  0  0  0  0  0  0
   -1.5998    0.9123   -0.1254 N   0  0  0  0  0  0  0  0  0  0  0  0
    3.9494    0.8553   -0.8702 N   0  0  0  0  0  0  0  0  0  0  0  0
    1.6819   -1.8115    0.3989 N   0  3  0  0  0  0  0  0  0  0  0  0
   -3.2644   -2.2338   -0.3576 C   0  0  0  0  0  0  0  0  0  0  0  0
   -2.6477   -2.9308    0.8542 C   0  0  0  0  0  0  0  0  0  0  0  0
   -3.2408   -3.1538   -1.5762 C   0  0  0  0  0  0  0  0  0  0  0  0
   -4.6911   -1.7773   -0.0560 C   0  0  0  0  0  0  0  0  0  0  0  0
   -1.3046    2.0792    0.6737 C   0  0  1  0  0  0  0  0  0  0  0  0
   -2.3851   -0.1345    0.3095 C   0  0  0  0  0  0  0  0  0  0  0  0
    0.1942    2.2196    0.9506 C   0  0  0  0  0  0  0  0  0  0  0  0
   -1.9032    3.3421    0.0765 C   0  0  0  0  0  0  0  0  0  0  0  0
    2.8495    0.1092   -0.6221 C   0  0  0  0  0  0  0  0  0  0  0  0
    2.8506   -1.0408    0.1507 C   0  0  0  0  0  0  0  0  0  0  0  0
    4.0580   -1.4515    0.7048 C   0  0  0  0  0  0  0  0  0  0  0  0
    5.2112   -0.7101    0.4722 C   0  0  0  0  0  0  0  0  0  0  0  0
    5.1045    0.4252   -0.3150 C   0  0  0  0  0  0  0  0  0  0  0  0
   -1.5620   -3.0263    0.7394 H   0  0  0  0  0  0  0  0  0  0  0  0
   -2.8266   -2.4313    1.8093 H   0  0  0  0  0  0  0  0  0  0  0  0
   -3.0621   -3.9399    0.9658 H   0  0  0  0  0  0  0  0  0  0  0  0
   -2.2129   -3.4426   -1.8246 H   0  0  0  0  0  0  0  0  0  0  0  0
   -3.6396   -2.6401   -2.4584 H   0  0  0  0  0  0  0  0  0  0  0  0
   -3.8260   -4.0644   -1.4115 H   0  0  0  0  0  0  0  0  0  0  0  0
   -4.8274   -1.3345    0.9338 H   0  0  0  0  0  0  0  0  0  0  0  0
   -5.0311   -1.0386   -0.7911 H   0  0  0  0  0  0  0  0  0  0  0  0
   -5.3806   -2.6293   -0.0936 H   0  0  0  0  0  0  0  0  0  0  0  0
   -1.8122    1.9521    1.6382 H   0  0  0  0  0  0  0  0  0  0  0  0
   -1.2313    0.8713   -1.0708 H   0  0  0  0  0  0  0  0  0  0  0  0
    0.3527    3.0606    1.6353 H   0  0  0  0  0  0  0  0  0  0  0  0
    0.5913    1.3304    1.4517 H   0  0  0  0  0  0  0  0  0  0  0  0
   -2.8771    3.9640   -1.4904 H   0  0  0  0  0  0  0  0  0  0  0  0
    4.1164   -2.3463    1.3194 H   0  0  0  0  0  0  0  0  0  0  0  0
    6.1632   -1.0111    0.8939 H   0  0  0  0  0  0  0  0  0  0  0  0
    5.9744    1.0382   -0.5262 H   0  0  0  0  0  0  0  0  0  0  0  0
  1  2  1  0  0  0  0
  1 18  1  0  0  0  0
  2 20  1  0  0  0  0
  3 12  1  0  0  0  0
  3 17  1  0  0  0  0
  4 17  2  0  0  0  0
  5 19  1  0  0  0  0
  5 38  1  0  0  0  0
  6 19  2  0  0  0  0
  7 11  1  0  0  0  0
  8 11  2  0  0  0  0
  9 16  1  0  0  0  0
  9 17  1  0  0  0  0
  9 35  1  0  0  0  0
 10 20  1  0  0  0  0
 10 24  2  0  0  0  0
 11 21  1  0  0  0  0
 12 13  1  0  0  0  0
 12 14  1  0  0  0  0
 12 15  1  0  0  0  0
 13 25  1  0  0  0  0
 13 26  1  0  0  0  0
 13 27  1  0  0  0  0
 14 28  1  0  0  0  0
 14 29  1  0  0  0  0
 14 30  1  0  0  0  0
 15 31  1  0  0  0  0
 15 32  1  0  0  0  0
 15 33  1  0  0  0  0
 16 18  1  0  0  0  0
 16 19  1  0  0  0  0
 16 34  1  0  0  0  0
 18 36  1  0  0  0  0
 18 37  1  0  0  0  0
 20 21  2  0  0  0  0
 21 22  1  0  0  0  0
 22 23  2  0  0  0  0
 22 39  1  0  0  0  0
 23 24  1  0  0  0  0
 23 40  1  0  0  0  0
 24 41  1  0  0  0  0
M  CHG  2   7  -1  11   1
M  END
> <PUBCHEM_COMPOUND_CID>
131299

> <PUBCHEM_CONFORMER_RMSD>
1

> <PUBCHEM_CONFORMER_DIVERSEORDER>
1
133
177
64
186
209
101
205
170
191
228
123
226
36
266
135
147
127
130
57
282
84
90
128
267
40
89
172
188
190
285
283
93
150
256
125
19
233
143
73
14
159
239
220
97
241
117
158
284
86
8
251
162
231
214
169
213
153
109
134
192
165
235
216
148
280
164
33
121
193
95
75
185
215
181
173
221
273
142
13
244
270
96
98
166
156
258
271
245
67
46
20
9
279
234
206
184
163
124
99
276
168
29
210
10
63
49
114
217
69
83
275
197
196
55
51
229
178
72
247
274
249
175
77
102
157
107
120
26
105
22
60
254
246
155
138
183
227
87
78
262
174
47
179
66
286
116
272
94
100
201
161
278
59
41
223
242
62
265
27
252
115
88
113
287
126
68
92
54
30
39
238
3
42
151
34
167
194
146
154
160
81
189
171
281
24
208
79
264
145
137
268
32
103
38
71
198
248
52
106
131
112
85
182
141
44
199
263
65
207
176
74
219
144
23
236
203
259
180
28
108
6
255
80
31
43
136
25
45
202
119
243
18
225
222
4
260
15
224
212
237
132
91
253
250
129
187
35
12
58
204
110
122
7
37
2
82
257
269
21
50
16
140
118
104
200
218
232
5
111
261
56
195
211
230
53
240
139
277
152
61
48
17
76
11
149
70

> <PUBCHEM_MMFF94_PARTIAL_CHARGES>
26
1 -0.23
10 -0.62
11 0.91
12 0.28
16 0.36
17 0.78
18 0.23
19 0.66
2 -0.1
20 0.41
21 0.13
22 -0.15
23 -0.15
24 0.16
3 -0.43
35 0.37
38 0.5
39 0.15
4 -0.57
40 0.15
41 0.15
5 -0.65
6 -0.57
7 -0.52
8 -0.52
9 -0.73

> <PUBCHEM_EFFECTIVE_ROTOR_COUNT>
10

> <PUBCHEM_PHARMACOPHORE_FEATURES>
11
1 10 acceptor
1 4 acceptor
1 5 acceptor
1 6 acceptor
1 7 acceptor
1 7 anion
1 8 acceptor
1 9 donor
3 5 6 19 anion
4 12 13 14 15 hydrophobe
6 10 20 21 22 23 24 rings

> <PUBCHEM_HEAVY_ATOM_COUNT>
24

> <PUBCHEM_ATOM_DEF_STEREO_COUNT>
1

> <PUBCHEM_ATOM_UDEF_STEREO_COUNT>
0

> <PUBCHEM_BOND_DEF_STEREO_COUNT>
0

> <PUBCHEM_BOND_UDEF_STEREO_COUNT>
0

> <PUBCHEM_ISOTOPIC_ATOM_COUNT>
0

> <PUBCHEM_COMPONENT_COUNT>
1

> <PUBCHEM_CACTVS_TAUTO_COUNT>
2

> <PUBCHEM_CONFORMER_ID>
000200E300000001

> <PUBCHEM_MMFF94_ENERGY>
55.1065

> <PUBCHEM_FEATURE_SELFOVERLAP>
55.964

> <PUBCHEM_SHAPE_FINGERPRINT>
10616163 171 18338801104859578470
11370993 70 17977099059585052456
11552529 35 18340482266886872028
12553582 1 18338528524675852267
12596599 1 17773057416703740963
12788726 201 18337093576476857163
13004483 165 18411132563202763581
13140716 1 18339371884485788985
13583140 156 17631712886904289826
13631057 29 18411420639834650956
138480 1 15817064267120525921
14081887 123 18342730789461000280
14178342 30 18337107848516122436
14787075 74 18196377137835705868
17492 89 18337110047455670818
192875 21 18113903801111335270
20600515 1 17845390988677004223
23402539 116 18408601474756839458
23557571 272 18202003188157401602
23598288 3 18339073766294807627
392239 28 18341045315877768832
463206 1 18192714668476480011

> <PUBCHEM_SHAPE_MULTIPOLES>
451.45
9.1
4.78
1.22
5.49
3.89
-0.11
-6.31
-0.43
-4.7
0.06
-0.32
-0.17
-1.16

> <PUBCHEM_SHAPE_SELFOVERLAP>
896.286

> <PUBCHEM_SHAPE_VOLUME>
271.1

> <PUBCHEM_COORDINATE_TYPE>
2
5
10

$$$$
