131265
  -OEChem-03292013323D

 49 50  0     1  0  0  0  0  0999 V2000
    4.8733    2.3219   -1.2961 O   0  0  0  0  0  0  0  0  0  0  0  0
    3.8724   -3.2931   -1.2239 O   0  0  0  0  0  0  0  0  0  0  0  0
    4.9103   -3.3240    1.3539 O   0  0  0  0  0  0  0  0  0  0  0  0
   -6.7841   -2.4821    0.1352 O   0  0  0  0  0  0  0  0  0  0  0  0
    1.4103    1.6479   -0.1516 N   0  0  0  0  0  0  0  0  0  0  0  0
   -7.7845   -0.4360    0.2252 N   0  0  0  0  0  0  0  0  0  0  0  0
    0.4478    2.4187    0.6359 C   0  0  1  0  0  0  0  0  0  0  0  0
   -0.8833    1.6569    0.7754 C   0  0  0  0  0  0  0  0  0  0  0  0
   -1.6050    1.3647   -0.5488 C   0  0  0  0  0  0  0  0  0  0  0  0
    2.6514    2.3883   -0.3148 C   0  0  0  0  0  0  0  0  0  0  0  0
    3.6629    1.5825   -1.1390 C   0  0  2  0  0  0  0  0  0  0  0  0
    1.0382    2.7186    2.0141 C   0  0  0  0  0  0  0  0  0  0  0  0
   -2.9363    0.6771   -0.3796 C   0  0  0  0  0  0  0  0  0  0  0  0
    3.9964    0.2654   -0.4734 C   0  0  0  0  0  0  0  0  0  0  0  0
   -4.0853    1.4418   -0.2430 C   0  0  0  0  0  0  0  0  0  0  0  0
   -2.9904   -0.7086   -0.3643 C   0  0  0  0  0  0  0  0  0  0  0  0
    3.7778   -0.9146   -1.1632 C   0  0  0  0  0  0  0  0  0  0  0  0
    4.5123    0.2688    0.8110 C   0  0  0  0  0  0  0  0  0  0  0  0
   -5.3170    0.8059   -0.0872 C   0  0  0  0  0  0  0  0  0  0  0  0
   -4.2222   -1.3443   -0.2087 C   0  0  0  0  0  0  0  0  0  0  0  0
   -5.3853   -0.5870   -0.0700 C   0  0  0  0  0  0  0  0  0  0  0  0
    4.0847   -2.1290   -0.5493 C   0  0  0  0  0  0  0  0  0  0  0  0
    4.8192   -0.9454    1.4249 C   0  0  0  0  0  0  0  0  0  0  0  0
    4.6056   -2.1443    0.7447 C   0  0  0  0  0  0  0  0  0  0  0  0
   -6.6695   -1.2502    0.0926 C   0  0  0  0  0  0  0  0  0  0  0  0
    0.2331    3.3701    0.1317 H   0  0  0  0  0  0  0  0  0  0  0  0
   -0.7096    0.7103    1.3059 H   0  0  0  0  0  0  0  0  0  0  0  0
   -1.5568    2.2409    1.4173 H   0  0  0  0  0  0  0  0  0  0  0  0
    1.0242    1.4381   -1.0706 H   0  0  0  0  0  0  0  0  0  0  0  0
   -1.7511    2.3031   -1.0998 H   0  0  0  0  0  0  0  0  0  0  0  0
   -0.9777    0.7413   -1.1975 H   0  0  0  0  0  0  0  0  0  0  0  0
    3.1238    2.6563    0.6347 H   0  0  0  0  0  0  0  0  0  0  0  0
    2.4624    3.3384   -0.8322 H   0  0  0  0  0  0  0  0  0  0  0  0
    3.2629    1.4105   -2.1462 H   0  0  0  0  0  0  0  0  0  0  0  0
    1.4680    1.8234    2.4781 H   0  0  0  0  0  0  0  0  0  0  0  0
    1.8014    3.5023    1.9830 H   0  0  0  0  0  0  0  0  0  0  0  0
    0.2584    3.0890    2.6901 H   0  0  0  0  0  0  0  0  0  0  0  0
   -4.0405    2.5272   -0.2532 H   0  0  0  0  0  0  0  0  0  0  0  0
   -2.0897   -1.3068   -0.4693 H   0  0  0  0  0  0  0  0  0  0  0  0
    3.3717   -0.9008   -2.1710 H   0  0  0  0  0  0  0  0  0  0  0  0
    4.6994    1.1912    1.3522 H   0  0  0  0  0  0  0  0  0  0  0  0
    4.6466    3.1673   -1.7198 H   0  0  0  0  0  0  0  0  0  0  0  0
   -6.1741    1.4600    0.0156 H   0  0  0  0  0  0  0  0  0  0  0  0
   -4.2512   -2.4307   -0.1979 H   0  0  0  0  0  0  0  0  0  0  0  0
    5.2273   -0.9429    2.4320 H   0  0  0  0  0  0  0  0  0  0  0  0
    3.5089   -3.0889   -2.1026 H   0  0  0  0  0  0  0  0  0  0  0  0
    5.2585   -3.1403    2.2434 H   0  0  0  0  0  0  0  0  0  0  0  0
   -8.6966   -0.8644    0.3495 H   0  0  0  0  0  0  0  0  0  0  0  0
   -7.7961    0.5752    0.2089 H   0  0  0  0  0  0  0  0  0  0  0  0
  1 11  1  0  0  0  0
  1 42  1  0  0  0  0
  2 22  1  0  0  0  0
  2 46  1  0  0  0  0
  3 24  1  0  0  0  0
  3 47  1  0  0  0  0
  4 25  2  0  0  0  0
  5  7  1  0  0  0  0
  5 10  1  0  0  0  0
  5 29  1  0  0  0  0
  6 25  1  0  0  0  0
  6 48  1  0  0  0  0
  6 49  1  0  0  0  0
  7  8  1  0  0  0  0
  7 12  1  0  0  0  0
  7 26  1  0  0  0  0
  8  9  1  0  0  0  0
  8 27  1  0  0  0  0
  8 28  1  0  0  0  0
  9 13  1  0  0  0  0
  9 30  1  0  0  0  0
  9 31  1  0  0  0  0
 10 11  1  0  0  0  0
 10 32  1  0  0  0  0
 10 33  1  0  0  0  0
 11 14  1  0  0  0  0
 11 34  1  0  0  0  0
 12 35  1  0  0  0  0
 12 36  1  0  0  0  0
 12 37  1  0  0  0  0
 13 15  2  0  0  0  0
 13 16  1  0  0  0  0
 14 17  2  0  0  0  0
 14 18  1  0  0  0  0
 15 19  1  0  0  0  0
 15 38  1  0  0  0  0
 16 20  2  0  0  0  0
 16 39  1  0  0  0  0
 17 22  1  0  0  0  0
 17 40  1  0  0  0  0
 18 23  2  0  0  0  0
 18 41  1  0  0  0  0
 19 21  2  0  0  0  0
 19 43  1  0  0  0  0
 20 21  1  0  0  0  0
 20 44  1  0  0  0  0
 21 25  1  0  0  0  0
 22 24  2  0  0  0  0
 23 24  1  0  0  0  0
 23 45  1  0  0  0  0
M  END
> <PUBCHEM_COMPOUND_CID>
131265

> <PUBCHEM_CONFORMER_RMSD>
1

> <PUBCHEM_CONFORMER_DIVERSEORDER>
11
353
96
1
487
113
22
269
27
243
274
361
335
379
519
437
356
284
556
123
459
209
14
195
31
51
23
467
104
260
319
163
339
458
15
161
107
206
525
462
32
201
16
20
213
220
78
184
504
362
3
66
7
540
407
37
306
61
385
24
254
325
110
112
368
298
221
132
384
219
351
279
133
265
86
105
137
235
285
187
386
94
67
46
33
136
26
412
354
343
387
428
40
316
29
21
474
102
247
259
367
518
294
103
48
4
73
54
510
454
232
19
527
36
403
336
25
45
196
455
57
83
289
345
10
268
8
30
101
176
426
155
498
450
329
6
303
463
43
200
134
307
562
5
409
292
199
146
9
135
128
2
44
181
419
375
34
182
205
376
13
275
273
12
377

> <PUBCHEM_MMFF94_PARTIAL_CHARGES>
36
1 -0.68
10 0.27
11 0.42
13 -0.14
14 -0.14
15 -0.15
16 -0.15
17 -0.15
18 -0.15
19 -0.15
2 -0.53
20 -0.15
21 0.09
22 0.08
23 -0.15
24 0.08
25 0.54
29 0.36
3 -0.53
38 0.15
39 0.15
4 -0.57
40 0.15
41 0.15
42 0.4
43 0.15
44 0.15
45 0.15
46 0.45
47 0.45
48 0.37
49 0.37
5 -0.9
6 -0.8
7 0.27
9 0.14

> <PUBCHEM_EFFECTIVE_ROTOR_COUNT>
8

> <PUBCHEM_PHARMACOPHORE_FEATURES>
10
1 1 acceptor
1 1 donor
1 2 donor
1 3 donor
1 4 acceptor
1 5 cation
1 5 donor
1 6 donor
6 13 15 16 19 20 21 rings
6 14 17 18 22 23 24 rings

> <PUBCHEM_HEAVY_ATOM_COUNT>
25

> <PUBCHEM_ATOM_DEF_STEREO_COUNT>
0

> <PUBCHEM_ATOM_UDEF_STEREO_COUNT>
2

> <PUBCHEM_BOND_DEF_STEREO_COUNT>
0

> <PUBCHEM_BOND_UDEF_STEREO_COUNT>
0

> <PUBCHEM_ISOTOPIC_ATOM_COUNT>
0

> <PUBCHEM_COMPONENT_COUNT>
1

> <PUBCHEM_CACTVS_TAUTO_COUNT>
20

> <PUBCHEM_CONFORMER_ID>
000200C10000000B

> <PUBCHEM_MMFF94_ENERGY>
60.2677

> <PUBCHEM_FEATURE_SELFOVERLAP>
50.752

> <PUBCHEM_SHAPE_FINGERPRINT>
10670039 82 12685361912617658622
11315621 136 18339653248362841622
11796584 16 18191013521818951025
11991303 11 13695879138288481713
12047536 79 16988838380740077689
12107183 9 18122068602571733873
12166972 35 17968380039972549998
12596602 18 12895071834303494061
13073987 5 18342175574776028969
13533116 47 18335702766722904237
13551218 46 18413108373076998191
1361 4 18334579096316025667
13782708 43 18335137614237217547
13955234 65 18127125505471525289
14216079 64 18409447012610729367
14251740 57 18202006478281880614
14251751 18 18334850572234038956
14347332 77 18410571795520431781
14429115 67 18271525295665438360
14848178 5 18341044112748855144
15019793 15 18122342647455813747
15183329 4 18272660064949064897
15250474 111 18199176472432333783
15352257 5 18262238928127122627
15419008 42 18053656976564741125
15475509 35 18271239525373493257
15537594 2 17988646340973778820
15575132 122 7853558128944365097
17134984 74 18261116330575142886
17492 89 18269558226471813478
17857418 61 18342173397364077797
19026451 147 18335419037532130218
1979834 28 17275388677027325526
20567600 234 10735878370361559017
20567600 247 18410009974720987561
21033648 29 14692574265071519713
21304303 94 18040433338768473112
21641784 216 14418120800060005421
21859007 373 13541646184326407507
23522609 53 18194713490949633945
25222932 49 18129099094672516316
2838139 119 8862671157790232497
3004659 81 18335424556306506108
328310 630 10809331236508565271
33382 64 18411422838404381689
345986 75 17489594449913606505
34797466 226 16588024666887370693
3680242 22 18411142394103621723
394071 54 16056590002120122328
404807 78 18044946911737490850
4073 2 18120376720543121505
439807 62 18333731308410169915
44062 13 18044090151086512124
46194498 28 17531245105804496644
5104073 3 18060702784382984345
9841814 1 17489585701450684048

> <PUBCHEM_SHAPE_MULTIPOLES>
481.05
18.39
3.61
1.27
25.33
1.08
0.29
12.57
0.39
-4.3
0.47
-1.99
-0.23
-0.79

> <PUBCHEM_SHAPE_SELFOVERLAP>
1010.031

> <PUBCHEM_SHAPE_VOLUME>
271.5

> <PUBCHEM_COORDINATE_TYPE>
2
5
10

$$$$
