REMARK  Name = 131211
REMARK  10 active torsions:
REMARK  status: ('A' for Active; 'I' for Inactive)
REMARK    1  A    between atoms: N_2  and  C_13
REMARK    2  A    between atoms: C_3  and  C_5
REMARK    3  A    between atoms: C_5  and  C_8
REMARK    4  A    between atoms: C_8  and  O_9
REMARK    5  A    between atoms: O_9  and  N_12
REMARK    6  A    between atoms: C_13  and  C_15
REMARK    7  A    between atoms: C_13  and  C_19
REMARK    8  A    between atoms: C_15  and  O_16
REMARK    9  A    between atoms: O_16  and  C_17
REMARK   10  A    between atoms: C_19  and  S_20
REMARK                            x       y       z     vdW  Elec       q    Type
REMARK                         _______ _______ _______ _____ _____    ______ ____
ROOT
ATOM      1  O   UNL     1      -0.600  -1.015  -2.354  0.00  0.00    -0.275 OA
ATOM      2  N   UNL     1       0.540  -0.268  -0.491  0.00  0.00    -0.296 N 
ATOM      3  C   UNL     1      -0.471  -0.969  -1.130  0.00  0.00    +0.226 C 
ATOM      4  H   UNL     1       0.576  -0.280   0.493  0.00  0.00    +0.150 HD
ENDROOT
BRANCH   3   5
ATOM      5  C   UNL     1      -1.444  -1.696  -0.174  0.00  0.00    +0.112 C 
ATOM      6  C   UNL     1      -0.672  -2.744   0.648  0.00  0.00    +0.013 C 
ATOM      7  C   UNL     1      -2.517  -2.428  -1.004  0.00  0.00    +0.013 C 
BRANCH   5   8
ATOM      8  C   UNL     1      -2.120  -0.689   0.778  0.00  0.00    +0.251 C 
BRANCH   8   9
ATOM      9  O   UNL     1      -2.870   0.269   0.040  0.00  0.00    -0.335 OA
BRANCH   9  12
ATOM     10  O   UNL     1      -3.315   1.054   2.060  0.00  0.00    -0.090 OA
ATOM     11  O   UNL     1      -4.194   2.099   0.298  0.00  0.00    -0.090 OA
ATOM     12  N   UNL     1      -3.522   1.231   0.859  0.00  0.00    +0.218 N 
ENDBRANCH   9  12
ENDBRANCH   8   9
ENDBRANCH   5   8
ENDBRANCH   3   5
BRANCH   2  13
ATOM     13  C   UNL     1       1.542   0.480  -1.214  0.00  0.00    +0.182 C 
BRANCH  13  15
ATOM     14  O   UNL     1       3.914   0.919  -1.034  0.00  0.00    -0.248 OA
ATOM     15  C   UNL     1       2.905   0.435  -0.532  0.00  0.00    +0.336 C 
BRANCH  15  16
ATOM     16  O   UNL     1       2.854  -0.202   0.671  0.00  0.00    -0.447 OA
BRANCH  16  17
ATOM     17  C   UNL     1       4.096  -0.296   1.378  0.00  0.00    +0.209 C 
ATOM     18  C   UNL     1       3.866  -1.027   2.683  0.00  0.00    +0.051 C 
ENDBRANCH  16  17
ENDBRANCH  15  16
ENDBRANCH  13  15
BRANCH  13  19
ATOM     19  C   UNL     1       1.091   1.916  -1.495  0.00  0.00    +0.084 C 
BRANCH  19  20
ATOM     20  S   UNL     1       0.916   2.930   0.010  0.00  0.00    -0.166 S 
ATOM     21  H   UNL     1       0.515   4.183  -0.332  0.00  0.00    +0.102 HD
ENDBRANCH  19  20
ENDBRANCH  13  19
ENDBRANCH   2  13
TORSDOF 10
