REMARK  Name = 131235
REMARK  4 active torsions:
REMARK  status: ('A' for Active; 'I' for Inactive)
REMARK    1  A    between atoms: C_4  and  C_15
REMARK    2  A    between atoms: C_9  and  O_20
REMARK    3  A    between atoms: C_13  and  C_17
REMARK    4  A    between atoms: C_17  and  O_18
REMARK                            x       y       z     vdW  Elec       q    Type
REMARK                         _______ _______ _______ _____ _____    ______ ____
ROOT
ATOM      1  S   UNK     1      -0.401  -1.470   0.265  0.00  0.00    -0.069 S 
ATOM      2  N   UNK     1      -0.746   1.076   0.035  0.00  0.00    -0.397 NA
ATOM      3  C   UNK     1      -2.005   0.495  -0.001  0.00  0.00    +0.120 C 
ATOM      4  C   UNK     1       0.166   0.141   0.172  0.00  0.00    +0.180 C 
ATOM      5  C   UNK     1      -2.021  -0.899   0.111  0.00  0.00    +0.131 C 
ATOM      6  C   UNK     1      -3.234   1.177  -0.138  0.00  0.00    +0.008 C 
ATOM      7  C   UNK     1      -3.218  -1.631   0.091  0.00  0.00    +0.028 C 
ATOM      8  C   UNK     1      -4.430   0.454  -0.159  0.00  0.00    +0.034 C 
ATOM      9  C   UNK     1      -4.420  -0.932  -0.045  0.00  0.00    +0.130 C 
ATOM     10  C   UNK     1      -3.302   2.666  -0.264  0.00  0.00    +0.034 C 
ENDROOT
BRANCH   4  15
ATOM     11  S   UNK     1       2.170   2.076   0.097  0.00  0.00    -0.090 S 
ATOM     12  N   UNK     1       2.496  -0.488   0.377  0.00  0.00    -0.251 NA
ATOM     13  C   UNK     1       3.831   0.129   0.478  0.00  0.00    +0.213 C 
ATOM     14  C   UNK     1       3.836   1.474  -0.225  0.00  0.00    +0.099 C 
ATOM     15  C   UNK     1       1.593   0.430   0.242  0.00  0.00    +0.137 C 
BRANCH  13  17
ATOM     16  O   UNK     1       4.454  -1.873  -0.715  0.00  0.00    -0.248 OA
ATOM     17  C   UNK     1       4.776  -0.826  -0.173  0.00  0.00    +0.337 C 
BRANCH  17  18
ATOM     18  O   UNK     1       6.051  -0.376  -0.079  0.00  0.00    -0.479 OA
ATOM     19  H   UNK     1       6.231   0.437   0.350  0.00  0.00    +0.295 HD
ENDBRANCH  17  18
ENDBRANCH  13  17
ENDBRANCH   4  15
BRANCH   9  20
ATOM     20  O   UNK     1      -5.597  -1.619  -0.068  0.00  0.00    -0.506 OA
ATOM     21  H   UNK     1      -5.595  -2.553   0.008  0.00  0.00    +0.292 HD
ENDBRANCH   9  20
TORSDOF 4
