REMARK  Name = 131299
REMARK  10 active torsions:
REMARK  status: ('A' for Active; 'I' for Inactive)
REMARK    1  A    between atoms: C_1  and  N_3
REMARK    2  A    between atoms: C_1  and  C_12
REMARK    3  A    between atoms: C_1  and  C_15
REMARK    4  A    between atoms: C_4  and  O_6
REMARK    5  A    between atoms: O_6  and  C_7
REMARK    6  A    between atoms: C_12  and  O_13
REMARK    7  A    between atoms: C_15  and  S_16
REMARK    8  A    between atoms: S_16  and  S_17
REMARK    9  A    between atoms: S_17  and  C_19
REMARK   10  A    between atoms: C_20  and  N_26
REMARK                            x       y       z     vdW  Elec       q    Type
REMARK                         _______ _______ _______ _____ _____    ______ ____
ROOT
ATOM      1  C   UNK A   1      -1.305   2.079   0.674  0.00  0.00    +0.185 C 
ENDROOT
BRANCH   1   3
ATOM      2  O   UNK A   0      -2.927  -0.216   1.407  0.00  0.00    -0.226 OA
ATOM      3  N   UNK A   1      -1.600   0.912  -0.125  0.00  0.00    -0.262 N 
ATOM      4  C   UNK A   0      -2.385  -0.135   0.309  0.00  0.00    +0.402 C 
ATOM      5  H   UNK A   1      -1.219   0.862  -1.032  0.00  0.00    +0.153 HD
BRANCH   4   6
ATOM      6  O   UNK A   0      -2.476  -1.085  -0.671  0.00  0.00    -0.442 OA
BRANCH   6   7
ATOM      7  C   UNK A   0      -3.264  -2.234  -0.358  0.00  0.00    +0.138 C 
ATOM      8  C   UNK A   0      -2.648  -2.931   0.854  0.00  0.00    +0.044 C 
ATOM      9  C   UNK A   0      -3.241  -3.154  -1.576  0.00  0.00    +0.044 C 
ATOM     10  C   UNK A   0      -4.691  -1.777  -0.056  0.00  0.00    +0.044 C 
ENDBRANCH   6   7
ENDBRANCH   4   6
ENDBRANCH   1   3
BRANCH   1  12
ATOM     11  O   UNK A   1      -1.873   4.436   0.627  0.00  0.00    -0.248 OA
ATOM     12  C   UNK A   1      -1.903   3.342   0.076  0.00  0.00    +0.333 C 
BRANCH  12  13
ATOM     13  O   UNK A   1      -2.492   3.139  -1.126  0.00  0.00    -0.479 OA
ATOM     14  H   UNK A   1      -2.490   2.284  -1.510  0.00  0.00    +0.295 HD
ENDBRANCH  12  13
ENDBRANCH   1  12
BRANCH   1  15
ATOM     15  C   UNK A   1       0.194   2.220   0.951  0.00  0.00    +0.100 C 
BRANCH  15  16
ATOM     16  S   UNK A   1       1.185   2.586  -0.536  0.00  0.00    -0.074 S 
BRANCH  16  17
ATOM     17  S   UNK A   1       1.355   0.721  -1.379  0.00  0.00    -0.034 S 
BRANCH  17  19
ATOM     18  N   UNK A   1       3.949   0.855  -0.870  0.00  0.00    -0.235 NA
ATOM     19  C   UNK A   1       2.849   0.109  -0.622  0.00  0.00    +0.139 C 
ATOM     20  C   UNK A   1       2.851  -1.041   0.151  0.00  0.00    +0.167 C 
ATOM     21  C   UNK A   1       4.058  -1.452   0.705  0.00  0.00    +0.028 C 
ATOM     22  C   UNK A   1       5.211  -0.710   0.472  0.00  0.00    +0.022 C 
ATOM     23  C   UNK A   1       5.104   0.425  -0.315  0.00  0.00    +0.100 C 
BRANCH  20  26
ATOM     24  O   UNK A   1       0.977  -1.539   1.399  0.00  0.00    -0.126 OA
ATOM     25  O   UNK A   1       1.390  -2.741  -0.390  0.00  0.00    -0.126 OA
ATOM     26  N   UNK A   1       1.682  -1.812   0.399  0.00  0.00    +0.060 N 
ENDBRANCH  20  26
ENDBRANCH  17  19
ENDBRANCH  16  17
ENDBRANCH  15  16
ENDBRANCH   1  15
TORSDOF 10
