REMARK  Name = 131265
REMARK  11 active torsions:
REMARK  status: ('A' for Active; 'I' for Inactive)
REMARK    1  A    between atoms: N_1  and  C_4
REMARK    2  A    between atoms: N_1  and  C_19
REMARK    3  A    between atoms: C_4  and  C_6
REMARK    4  A    between atoms: C_6  and  C_7
REMARK    5  A    between atoms: C_7  and  C_8
REMARK    6  A    between atoms: C_13  and  C_16
REMARK    7  A    between atoms: C_19  and  C_20
REMARK    8  A    between atoms: C_20  and  C_21
REMARK    9  A    between atoms: C_20  and  O_31
REMARK   10  A    between atoms: C_24  and  O_27
REMARK   11  A    between atoms: C_26  and  O_29
REMARK                            x       y       z     vdW  Elec       q    Type
REMARK                         _______ _______ _______ _____ _____    ______ ____
ROOT
ATOM      1  N   UNL     1       1.410   1.648  -0.152  0.00  0.00    +0.387 N 
ATOM      2  H   UNL     1       1.012   1.455  -1.071  0.00  0.00    -0.084 HD
ATOM      3  H   UNL     1       1.611   0.776   0.338  0.00  0.00    -0.084 HD
ENDROOT
BRANCH   1   4
ATOM      4  C   UNL     1       0.448   2.419   0.636  0.00  0.00    -0.062 C 
ATOM      5  C   UNL     1       1.038   2.719   2.014  0.00  0.00    -0.023 C 
BRANCH   4   6
ATOM      6  C   UNL     1      -0.883   1.657   0.775  0.00  0.00    -0.017 C 
BRANCH   6   7
ATOM      7  C   UNL     1      -1.605   1.365  -0.549  0.00  0.00    +0.024 C 
BRANCH   7   8
ATOM      8  C   UNL     1      -2.936   0.677  -0.380  0.00  0.00    -0.022 C 
ATOM      9  C   UNL     1      -4.085   1.442  -0.243  0.00  0.00    -0.004 C 
ATOM     10  C   UNL     1      -2.990  -0.709  -0.364  0.00  0.00    -0.004 C 
ATOM     11  C   UNL     1      -5.317   0.806  -0.087  0.00  0.00    +0.004 C 
ATOM     12  C   UNL     1      -4.222  -1.344  -0.209  0.00  0.00    +0.004 C 
ATOM     13  C   UNL     1      -5.385  -0.587  -0.070  0.00  0.00    +0.053 C 
BRANCH  13  16
ATOM     14  O   UNL     1      -6.784  -2.482   0.135  0.00  0.00    -0.270 OA
ATOM     15  N   UNL     1      -7.785  -0.436   0.225  0.00  0.00    -0.325 N 
ATOM     16  C   UNL     1      -6.670  -1.250   0.093  0.00  0.00    +0.243 C 
ATOM     17  H   UNL     1      -8.676  -0.837   0.338  0.00  0.00    +0.145 HD
ATOM     18  H   UNL     1      -7.684   0.543   0.207  0.00  0.00    +0.145 HD
ENDBRANCH  13  16
ENDBRANCH   7   8
ENDBRANCH   6   7
ENDBRANCH   4   6
ENDBRANCH   1   4
BRANCH   1  19
ATOM     19  C   UNL     1       2.651   2.388  -0.315  0.00  0.00    -0.047 C 
BRANCH  19  20
ATOM     20  C   UNL     1       3.663   1.583  -1.139  0.00  0.00    +0.112 C 
BRANCH  20  21
ATOM     21  C   UNL     1       3.996   0.265  -0.473  0.00  0.00    +0.005 C 
ATOM     22  C   UNL     1       3.778  -0.915  -1.163  0.00  0.00    +0.038 C 
ATOM     23  C   UNL     1       4.512   0.269   0.811  0.00  0.00    +0.001 C 
ATOM     24  C   UNL     1       4.085  -2.129  -0.549  0.00  0.00    +0.167 C 
ATOM     25  C   UNL     1       4.819  -0.945   1.425  0.00  0.00    +0.040 C 
ATOM     26  C   UNL     1       4.606  -2.144   0.745  0.00  0.00    +0.167 C 
BRANCH  24  27
ATOM     27  O   UNL     1       3.872  -3.293  -1.224  0.00  0.00    -0.503 OA
ATOM     28  H   UNL     1       3.522  -3.274  -2.093  0.00  0.00    +0.292 HD
ENDBRANCH  24  27
BRANCH  26  29
ATOM     29  O   UNL     1       4.910  -3.324   1.354  0.00  0.00    -0.503 OA
ATOM     30  H   UNL     1       4.770  -4.134   0.904  0.00  0.00    +0.292 HD
ENDBRANCH  26  29
ENDBRANCH  20  21
BRANCH  20  31
ATOM     31  O   UNL     1       4.873   2.322  -1.296  0.00  0.00    -0.382 OA
ATOM     32  H   UNL     1       4.680   3.172  -1.722  0.00  0.00    +0.211 HD
ENDBRANCH  20  31
ENDBRANCH  19  20
ENDBRANCH   1  19
TORSDOF 11
