REMARK  Name = 131207
REMARK  8 active torsions:
REMARK  status: ('A' for Active; 'I' for Inactive)
REMARK    1  A    between atoms: C_6  and  C_24
REMARK    2  A    between atoms: C_6  and  O_30
REMARK    3  A    between atoms: C_9  and  O_21
REMARK    4  A    between atoms: C_24  and  C_25
REMARK    5  A    between atoms: C_25  and  O_26
REMARK    6  A    between atoms: C_25  and  O_28
REMARK    7  A    between atoms: O_30  and  C_32
REMARK    8  A    between atoms: C_32  and  C_33
REMARK                            x       y       z     vdW  Elec       q    Type
REMARK                         _______ _______ _______ _____ _____    ______ ____
ROOT
ATOM      1  O   UNL     1       6.618   2.890  -0.440  0.00  0.00    -0.287 OA
ATOM      2  C   UNL     1      -0.384  -1.470   0.124  0.00  0.00    +0.043 C 
ATOM      3  C   UNL     1       0.351  -0.703   1.244  0.00  0.00    +0.004 C 
ATOM      4  C   UNL     1       1.877  -0.828   1.155  0.00  0.00    +0.003 C 
ATOM      5  C   UNL     1       2.380  -0.259  -0.221  0.00  0.00    +0.034 C 
ATOM      6  C   UNL     1      -1.852  -1.243   0.571  0.00  0.00    +0.191 C 
ATOM      7  C   UNL     1       0.042  -0.835  -1.203  0.00  0.00    +0.033 C 
ATOM      8  C   UNL     1      -0.340  -1.185   2.518  0.00  0.00    +0.004 C 
ATOM      9  C   UNL     1       1.570  -0.865  -1.415  0.00  0.00    +0.111 C 
ATOM     10  C   UNL     1       3.961  -0.359  -0.337  0.00  0.00    +0.036 C 
ATOM     11  C   UNL     1      -1.808  -1.400   2.106  0.00  0.00    +0.048 C 
ATOM     12  C   UNL     1       2.560  -0.113   2.332  0.00  0.00    +0.004 C 
ATOM     13  C   UNL     1      -0.063  -2.991   0.100  0.00  0.00    +0.004 C 
ATOM     14  C   UNL     1       4.078  -0.206   2.243  0.00  0.00    +0.022 C 
ATOM     15  C   UNL     1       4.555   0.312   0.911  0.00  0.00    -0.038 C 
ATOM     16  C   UNL     1       4.447  -1.826  -0.407  0.00  0.00    +0.009 C 
ATOM     17  C   UNL     1       4.488   0.300  -1.605  0.00  0.00    -0.020 C 
ATOM     18  C   UNL     1       5.406   1.349   0.869  0.00  0.00    +0.034 C 
ATOM     19  C   UNL     1       5.334   1.333  -1.652  0.00  0.00    +0.038 C 
ATOM     20  C   UNL     1       5.848   1.936  -0.411  0.00  0.00    +0.195 C 
ENDROOT
BRANCH   9  21
ATOM     21  O   UNL     1       1.815  -0.145  -2.623  0.00  0.00    -0.384 OA
ATOM     22  H   UNL     1       2.768  -0.133  -2.805  0.00  0.00    +0.210 HD
ENDBRANCH   9  21
BRANCH   6  24
ATOM     23  O   UNL     1      -3.536  -2.927   0.578  0.00  0.00    -0.287 OA
ATOM     24  C   UNL     1      -2.855  -2.144  -0.084  0.00  0.00    +0.242 C 
BRANCH  24  25
ATOM     25  C   UNL     1      -2.970  -2.059  -1.601  0.00  0.00    +0.293 C 
BRANCH  25  26
ATOM     26  O   UNL     1      -4.290  -2.310  -2.034  0.00  0.00    -0.355 OA
ATOM     27  H   UNL     1      -4.901  -1.714  -1.574  0.00  0.00    +0.213 HD
ENDBRANCH  25  26
BRANCH  25  28
ATOM     28  O   UNL     1      -2.045  -2.909  -2.249  0.00  0.00    -0.355 OA
ATOM     29  H   UNL     1      -1.150  -2.714  -1.932  0.00  0.00    +0.213 HD
ENDBRANCH  25  28
ENDBRANCH  24  25
ENDBRANCH   6  24
BRANCH   6  30
ATOM     30  O   UNL     1      -2.288   0.073   0.241  0.00  0.00    -0.445 OA
BRANCH  30  32
ATOM     31  O   UNL     1      -4.298  -0.305   1.299  0.00  0.00    -0.245 OA
ATOM     32  C   UNL     1      -3.535   0.411   0.668  0.00  0.00    +0.341 C 
BRANCH  32  33
ATOM     33  C   UNL     1      -3.869   1.799   0.262  0.00  0.00    +0.076 C 
ATOM     34  C   UNL     1      -5.188   2.124   0.020  0.00  0.00    +0.006 C 
ATOM     35  C   UNL     1      -2.850   2.721   0.139  0.00  0.00    +0.006 C 
ATOM     36  C   UNL     1      -5.502   3.429  -0.361  0.00  0.00    +0.000 C 
ATOM     37  C   UNL     1      -3.164   4.026  -0.243  0.00  0.00    +0.000 C 
ATOM     38  C   UNL     1      -4.490   4.379  -0.493  0.00  0.00    +0.000 C 
ENDBRANCH  32  33
ENDBRANCH  30  32
ENDBRANCH   6  30
TORSDOF 8
