REMARK  Name = 13120881
REMARK  6 active torsions:
REMARK  status: ('A' for Active; 'I' for Inactive)
REMARK    1  A    between atoms: C_4  and  C_13
REMARK    2  A    between atoms: C_7  and  C_10
REMARK    3  A    between atoms: C_8  and  S_17
REMARK    4  A    between atoms: C_10  and  O_11
REMARK    5  A    between atoms: C_13  and  O_15
REMARK    6  A    between atoms: S_17  and  C_18
REMARK                            x       y       z     vdW  Elec       q    Type
REMARK                         _______ _______ _______ _____ _____    ______ ____
ROOT
ATOM      1  S   UNL     1       0.178  -1.980  -0.498  0.00  0.00    -0.086 S 
ATOM      2  O   UNL     1      -1.764   2.060  -0.837  0.00  0.00    -0.274 OA
ATOM      3  N   UNL     1      -0.554   0.401   0.334  0.00  0.00    -0.244 N 
ATOM      4  C   UNL     1      -2.251  -0.434  -0.530  0.00  0.00    +0.133 C 
ATOM      5  C   UNL     1      -1.097  -0.967   0.338  0.00  0.00    +0.143 C 
ATOM      6  C   UNL     1      -1.574   0.951  -0.389  0.00  0.00    +0.235 C 
ATOM      7  C   UNL     1       0.777   0.480   0.009  0.00  0.00    +0.142 C 
ATOM      8  C   UNL     1       1.339  -0.668  -0.409  0.00  0.00    +0.072 C 
ENDROOT
BRANCH   7  10
ATOM      9  O   UNL     1       2.344   2.145  -0.641  0.00  0.00    -0.244 OA
ATOM     10  C   UNL     1       1.439   1.783   0.089  0.00  0.00    +0.353 C 
BRANCH  10  11
ATOM     11  O   UNL     1       0.893   2.508   1.089  0.00  0.00    -0.476 OA
ATOM     12  H   UNL     1       0.197   2.147   1.603  0.00  0.00    +0.295 HD
ENDBRANCH  10  11
ENDBRANCH   7  10
BRANCH   4  13
ATOM     13  C   UNL     1      -3.675  -0.488  -0.026  0.00  0.00    +0.122 C 
ATOM     14  C   UNL     1      -4.255  -1.890  -0.163  0.00  0.00    +0.032 C 
BRANCH  13  15
ATOM     15  O   UNL     1      -3.707  -0.102   1.347  0.00  0.00    -0.384 OA
ATOM     16  H   UNL     1      -3.339   0.791   1.440  0.00  0.00    +0.210 HD
ENDBRANCH  13  15
ENDBRANCH   4  13
BRANCH   8  17
ATOM     17  S   UNL     1       2.973  -0.888  -0.904  0.00  0.00    -0.106 S 
BRANCH  17  18
ATOM     18  C   UNL     1       3.727  -1.315   0.682  0.00  0.00    +0.063 C 
ATOM     19  C   UNL     1       5.207  -1.596   0.510  0.00  0.00    +0.013 C 
ENDBRANCH  17  18
ENDBRANCH   8  17
TORSDOF 6
