REMARK  Name = 131287
REMARK  6 active torsions:
REMARK  status: ('A' for Active; 'I' for Inactive)
REMARK    1  A    between atoms: N_2  and  CA_13
REMARK    2  A    between atoms: C_3  and  CA_23
REMARK    3  A    between atoms: CA_12  and  C_18
REMARK    4  A    between atoms: C_18  and  O_19
REMARK    5  A    between atoms: C_24  and  C_32
REMARK    6  A    between atoms: C_32  and  O_33
REMARK                            x       y       z     vdW  Elec       q    Type
REMARK                         _______ _______ _______ _____ _____    ______ ____
ROOT
ATOM      1  O   UNL     1      -0.730   1.145   2.137  0.00  0.00    -0.267 OA
ATOM      2  N   UNL     1       0.107   1.135  -0.025  0.00  0.00    -0.290 N 
ATOM      3  C   UNL     1      -0.888   0.934   0.938  0.00  0.00    +0.279 C 
ATOM      4  H   UNL     1      -0.104   0.939  -0.966  0.00  0.00    +0.150 HD
ENDROOT
BRANCH   2  13
ATOM      5  S   UNL     1       2.151  -1.105   0.978  0.00  0.00    +0.007 S 
ATOM      6  O   UNL     1       2.073  -1.608   2.336  0.00  0.00    -0.171 OA
ATOM      7  O   UNL     1       1.124  -1.440   0.010  0.00  0.00    -0.171 OA
ATOM      8  O   UNL     1       2.450   2.008  -2.010  0.00  0.00    -0.273 OA
ATOM      9  N   UNL     1       3.279   0.771  -0.182  0.00  0.00    -0.249 N 
ATOM     10  C   UNL     1       2.418   0.661   1.006  0.00  0.00    +0.233 C 
ATOM     11  C   UNL     1       3.805  -1.524   0.262  0.00  0.00    +0.139 C 
ATOM     12  CA  UNL     1       4.022  -0.354  -0.717  0.00  0.00    +0.196 C 
ATOM     13  CA  UNL     1       1.451   1.623   0.306  0.00  0.00    +0.191 C 
ATOM     14  C   UNL     1       2.441   1.593  -0.874  0.00  0.00    +0.249 C 
ATOM     15  C   UNL     1       3.736  -2.871  -0.460  0.00  0.00    +0.026 C 
ATOM     16  C   UNL     1       4.841  -1.591   1.394  0.00  0.00    +0.026 C 
BRANCH  12  18
ATOM     17  OXT UNL     1       6.025   0.881  -0.181  0.00  0.00    -0.248 OA
ATOM     18  C   UNL     1       5.437   0.089  -0.903  0.00  0.00    +0.334 C 
BRANCH  18  19
ATOM     19  O   UNL     1       5.986  -0.505  -1.991  0.00  0.00    -0.479 OA
ATOM     20  H   UNL     1       5.479  -1.104  -2.503  0.00  0.00    +0.295 HD
ENDBRANCH  18  19
ENDBRANCH  12  18
ENDBRANCH   2  13
BRANCH   3  23
ATOM     21  N   UNL     1      -2.330  -0.869   0.403  0.00  0.00    -0.392 NA
ATOM     22  N   UNL     1      -4.366   0.861  -0.358  0.00  0.00    -0.390 NA
ATOM     23  CA  UNL     1      -2.205   0.456   0.448  0.00  0.00    +0.220 C 
ATOM     24  C   UNL     1      -3.181   1.319   0.083  0.00  0.00    +0.240 C 
ATOM     25  C   UNL     1      -3.508  -1.347  -0.035  0.00  0.00    +0.161 C 
ATOM     26  C   UNL     1      -4.539  -0.471  -0.421  0.00  0.00    +0.161 C 
ATOM     27  C   UNL     1      -3.723  -2.721  -0.114  0.00  0.00    +0.035 C 
ATOM     28  C   UNL     1      -5.747  -1.001  -0.870  0.00  0.00    +0.035 C 
ATOM     29  C   UNL     1      -4.935  -3.241  -0.564  0.00  0.00    +0.003 C 
ATOM     30  C   UNL     1      -5.951  -2.377  -0.944  0.00  0.00    +0.003 C 
BRANCH  24  32
ATOM     31  O   UNL     1      -2.035   3.376   0.505  0.00  0.00    -0.242 OA
ATOM     32  C   UNL     1      -3.042   2.765   0.132  0.00  0.00    +0.371 C 
BRANCH  32  33
ATOM     33  O   UNL     1      -4.164   3.411  -0.288  0.00  0.00    -0.475 OA
ATOM     34  H   UNL     1      -4.912   2.919  -0.566  0.00  0.00    +0.295 HD
ENDBRANCH  32  33
ENDBRANCH  24  32
ENDBRANCH   3  23
TORSDOF 6
