REMARK  Name = 131200
REMARK  14 active torsions:
REMARK  status: ('A' for Active; 'I' for Inactive)
REMARK    1  A    between atoms: C_3  and  C_10
REMARK    2  A    between atoms: C_7  and  C_21
REMARK    3  A    between atoms: N_9  and  CA_12
REMARK    4  A    between atoms: CA_12  and  C_14
REMARK    5  A    between atoms: CA_12  and  C_17
REMARK    6  A    between atoms: C_14  and  O_15
REMARK    7  A    between atoms: C_17  and  C_18
REMARK    8  A    between atoms: C_18  and  C_19
REMARK    9  A    between atoms: C_21  and  N_22
REMARK   10  A    between atoms: N_22  and  P_24
REMARK   11  A    between atoms: P_24  and  O_26
REMARK   12  A    between atoms: P_24  and  C_28
REMARK   13  A    between atoms: C_28  and  C_29
REMARK   14  A    between atoms: C_29  and  C_30
REMARK                            x       y       z     vdW  Elec       q    Type
REMARK                         _______ _______ _______ _____ _____    ______ ____
ROOT
ATOM      1  O   UNL     1       0.458   0.104   2.003  0.00  0.00    -0.273 OA
ATOM      2  N   UNL     1       0.290   2.139   0.913  0.00  0.00    -0.272 N 
ATOM      3  C   UNL     1      -1.165   2.211   0.917  0.00  0.00    +0.152 C 
ATOM      4  C   UNL     1      -1.482   3.661   0.571  0.00  0.00    +0.031 C 
ATOM      5  C   UNL     1      -0.296   4.088  -0.290  0.00  0.00    +0.024 C 
ATOM      6  C   UNL     1       0.875   3.347   0.338  0.00  0.00    +0.094 C 
ATOM      7  C   UNL     1       0.987   1.111   1.528  0.00  0.00    +0.242 C 
ENDROOT
BRANCH   3  10
ATOM      8  O   UNL     1      -0.999   1.018  -1.144  0.00  0.00    -0.273 OA
ATOM      9  N   UNL     1      -2.911   0.755   0.159  0.00  0.00    -0.295 N 
ATOM     10  C   UNL     1      -1.658   1.266  -0.137  0.00  0.00    +0.241 C 
ATOM     11  H   UNL     1      -3.342   1.029   1.000  0.00  0.00    +0.150 HD
BRANCH   9  12
ATOM     12  CA  UNL     1      -3.617  -0.159  -0.707  0.00  0.00    +0.171 C 
BRANCH  12  14
ATOM     13  OXT UNL     1      -4.905   1.782  -1.408  0.00  0.00    -0.248 OA
ATOM     14  C   UNL     1      -4.386   0.708  -1.684  0.00  0.00    +0.332 C 
BRANCH  14  15
ATOM     15  O   UNL     1      -4.477   0.142  -2.915  0.00  0.00    -0.479 OA
ATOM     16  H   UNL     1      -4.064  -0.682  -3.083  0.00  0.00    +0.295 HD
ENDBRANCH  14  15
ENDBRANCH  12  14
BRANCH  12  17
ATOM     17  C   UNL     1      -4.542  -1.067   0.103  0.00  0.00    +0.031 C 
BRANCH  17  18
ATOM     18  C   UNL     1      -3.780  -1.971   1.076  0.00  0.00    +0.002 C 
BRANCH  18  19
ATOM     19  C   UNL     1      -4.734  -2.885   1.846  0.00  0.00    +0.000 C 
ATOM     20  C   UNL     1      -3.986  -3.758   2.842  0.00  0.00    +0.000 C 
ENDBRANCH  18  19
ENDBRANCH  17  18
ENDBRANCH  12  17
ENDBRANCH   9  12
ENDBRANCH   3  10
BRANCH   7  21
ATOM     21  C   UNL     1       2.484   1.282   1.583  0.00  0.00    +0.162 C 
BRANCH  21  22
ATOM     22  N   UNL     1       3.004   0.685   0.372  0.00  0.00    -0.226 NA
ATOM     23  H   UNL     1       2.508  -0.196   0.236  0.00  0.00    +0.133 HD
BRANCH  22  24
ATOM     24  P   UNL     1       4.623   0.349   0.270  0.00  0.00    +0.279 P 
ATOM     25  O   UNL     1       5.233  -0.507   1.347  0.00  0.00    -0.273 OA
BRANCH  24  26
ATOM     26  O   UNL     1       5.393   1.769   0.106  0.00  0.00    -0.332 OA
ATOM     27  H   UNL     1       5.329   2.269   0.934  0.00  0.00    +0.219 HD
ENDBRANCH  24  26
BRANCH  24  28
ATOM     28  C   UNL     1       4.878  -0.370  -1.353  0.00  0.00    +0.107 C 
BRANCH  28  29
ATOM     29  C   UNL     1       4.501  -1.845  -1.429  0.00  0.00    +0.038 C 
BRANCH  29  30
ATOM     30  C   UNL     1       3.048  -2.086  -1.112  0.00  0.00    -0.022 C 
ATOM     31  C   UNL     1       2.652  -2.329   0.204  0.00  0.00    -0.004 C 
ATOM     32  C   UNL     1       2.098  -2.066  -2.133  0.00  0.00    -0.004 C 
ATOM     33  C   UNL     1       1.307  -2.552   0.498  0.00  0.00    -0.000 C 
ATOM     34  C   UNL     1       0.752  -2.289  -1.839  0.00  0.00    -0.000 C 
ATOM     35  C   UNL     1       0.357  -2.532  -0.523  0.00  0.00    -0.000 C 
ENDBRANCH  29  30
ENDBRANCH  28  29
ENDBRANCH  24  28
ENDBRANCH  22  24
ENDBRANCH  21  22
ENDBRANCH   7  21
TORSDOF 14
