REMARK  Name = 131366
REMARK  7 active torsions:
REMARK  status: ('A' for Active; 'I' for Inactive)
REMARK    1  A    between atoms: C_1  and  C_3
REMARK    2  A    between atoms: C_1  and  C_14
REMARK    3  A    between atoms: C_1  and  N_23
REMARK    4  A    between atoms: C_4  and  C_11
REMARK    5  A    between atoms: C_5  and  O_9
REMARK    6  A    between atoms: C_11  and  O_12
REMARK    7  A    between atoms: C_15  and  N_22
REMARK                            x       y       z     vdW  Elec       q    Type
REMARK                         _______ _______ _______ _____ _____    ______ ____
ROOT
ATOM      1  C   UNL     1      -0.768   0.965  -0.681  0.00  0.00    -0.015 C 
ENDROOT
BRANCH   1   3
ATOM      2  N   UNL     1      -3.933  -1.302   1.119  0.00  0.00    -0.245 NA
ATOM      3  C   UNL     1      -1.898   0.156  -0.036  0.00  0.00    -0.004 C 
ATOM      4  C   UNL     1      -2.180   0.353   1.292  0.00  0.00    +0.023 C 
ATOM      5  C   UNL     1      -2.591  -0.740  -0.811  0.00  0.00    +0.141 C 
ATOM      6  C   UNL     1      -3.603  -1.448  -0.183  0.00  0.00    +0.092 C 
ATOM      7  C   UNL     1      -3.211  -0.403   1.825  0.00  0.00    +0.096 C 
ATOM      8  C   UNL     1      -4.407  -2.444  -0.952  0.00  0.00    +0.055 C 
BRANCH   5   9
ATOM      9  O   UNL     1      -2.309  -0.934  -2.126  0.00  0.00    -0.505 OA
ATOM     10  H   UNL     1      -1.621  -0.447  -2.535  0.00  0.00    +0.292 HD
ENDBRANCH   5   9
BRANCH   4  11
ATOM     11  C   UNL     1      -1.442   1.320   2.152  0.00  0.00    +0.165 C 
BRANCH  11  12
ATOM     12  O   UNL     1      -2.083   2.589   2.097  0.00  0.00    -0.377 OA
ATOM     13  H   UNL     1      -1.602   3.219   2.657  0.00  0.00    +0.211 HD
ENDBRANCH  11  12
ENDBRANCH   4  11
ENDBRANCH   1   3
BRANCH   1  14
ATOM     14  C   UNL     1       0.561   0.289  -0.576  0.00  0.00    -0.016 C 
ATOM     15  C   UNL     1       1.742   1.023  -0.466  0.00  0.00    +0.137 C 
ATOM     16  C   UNL     1       0.605  -1.105  -0.587  0.00  0.00    -0.004 C 
ATOM     17  C   UNL     1       2.967   0.364  -0.369  0.00  0.00    +0.024 C 
ATOM     18  C   UNL     1       1.831  -1.765  -0.490  0.00  0.00    -0.000 C 
ATOM     19  C   UNL     1       3.011  -1.031  -0.381  0.00  0.00    +0.002 C 
BRANCH  15  22
ATOM     20  O   UNL     1       2.807   3.062  -0.355  0.00  0.00    -0.126 OA
ATOM     21  O   UNL     1       0.615   3.030  -0.542  0.00  0.00    -0.126 OA
ATOM     22  N   UNL     1       1.720   2.445  -0.454  0.00  0.00    +0.057 N 
ENDBRANCH  15  22
ENDBRANCH   1  14
BRANCH   1  23
ATOM     23  N   UNL     1      -1.116   1.363  -2.066  0.00  0.00    +0.387 N 
ATOM     24  H   UNL     1      -2.030   1.817  -2.070  0.00  0.00    -0.088 HD
ATOM     25  H   UNL     1      -1.145   0.535  -2.661  0.00  0.00    -0.088 HD
ATOM     26  H   UNL     1      -0.413   2.012  -2.420  0.00  0.00    -0.088 HD
ENDBRANCH   1  23
TORSDOF 7
REMARK  Name = 131366
REMARK  7 active torsions:
REMARK  status: ('A' for Active; 'I' for Inactive)
REMARK    1  A    between atoms: C_1  and  C_3
REMARK    2  A    between atoms: C_1  and  C_14
REMARK    3  A    between atoms: C_1  and  N_23
REMARK    4  A    between atoms: C_4  and  C_11
REMARK    5  A    between atoms: C_5  and  O_9
REMARK    6  A    between atoms: C_11  and  O_12
REMARK    7  A    between atoms: C_15  and  N_22
REMARK                            x       y       z     vdW  Elec       q    Type
REMARK                         _______ _______ _______ _____ _____    ______ ____
ROOT
ATOM      1  N   UNL     1       4.568  -1.935   0.898  0.00  0.00    +0.000 NA
ATOM      2  N   UNL     1       4.874  -2.159   1.975  0.00  0.00    +0.000 NA
ENDROOT
TORSDOF 0
