REMARK  Name = 131363
REMARK  4 active torsions:
REMARK  status: ('A' for Active; 'I' for Inactive)
REMARK    1  A    between atoms: C_6  and  C_16
REMARK    2  A    between atoms: C_7  and  C_23
REMARK    3  A    between atoms: C_23  and  O_24
REMARK    4  A    between atoms: O_24  and  C_25
REMARK                            x       y       z     vdW  Elec       q    Type
REMARK                         _______ _______ _______ _____ _____    ______ ____
ROOT
ATOM      1  O   UNL     1       3.929   0.742  -1.024  0.00  0.00    -0.252 OA
ATOM      2  O   UNL     1       2.325  -1.569   2.053  0.00  0.00    -0.252 OA
ATOM      3  N   UNL     1       2.172   0.092   0.392  0.00  0.00    -0.192 N 
ATOM      4  N   UNL     1       2.031   1.988  -1.034  0.00  0.00    -0.271 N 
ATOM      5  N   UNL     1       4.228  -0.927   0.991  0.00  0.00    -0.313 N 
ATOM      6  C   UNL     1       0.696   0.121   0.562  0.00  0.00    +0.138 C 
ATOM      7  C   UNL     1       0.105   1.454   0.177  0.00  0.00    +0.085 C 
ATOM      8  C   UNL     1       0.762   2.314  -0.617  0.00  0.00    +0.033 C 
ATOM      9  C   UNL     1       2.789   0.917  -0.583  0.00  0.00    +0.315 C 
ATOM     10  C   UNL     1       0.256   3.624  -1.149  0.00  0.00    +0.047 C 
ATOM     11  C   UNL     1       2.866  -0.854   1.206  0.00  0.00    +0.308 C 
ATOM     12  H   UNL     1       2.439   2.567  -1.717  0.00  0.00    +0.156 HD
ATOM     13  H   UNL     1       4.776  -1.556   1.514  0.00  0.00    +0.146 HD
ATOM     14  H   UNL     1       4.652  -0.349   0.316  0.00  0.00    +0.146 HD
ENDROOT
BRANCH   6  16
ATOM     15 CL   UNL     1      -2.122  -4.271   0.752  0.00  0.00    -0.082 Cl
ATOM     16  C   UNL     1       0.024  -1.035  -0.176  0.00  0.00    +0.001 C 
ATOM     17  C   UNL     1      -0.660  -2.007   0.544  0.00  0.00    +0.009 C 
ATOM     18  C   UNL     1       0.104  -1.103  -1.562  0.00  0.00    -0.002 C 
ATOM     19  C   UNL     1      -1.273  -3.062  -0.131  0.00  0.00    +0.057 C 
ATOM     20  C   UNL     1      -0.510  -2.159  -2.237  0.00  0.00    +0.001 C 
ATOM     21  C   UNL     1      -1.198  -3.138  -1.521  0.00  0.00    +0.011 C 
ENDBRANCH   6  16
BRANCH   7  23
ATOM     22  O   UNL     1      -1.395   2.328   1.790  0.00  0.00    -0.245 OA
ATOM     23  C   UNL     1      -1.225   1.764   0.725  0.00  0.00    +0.340 C 
BRANCH  23  24
ATOM     24  O   UNL     1      -2.162   1.321  -0.149  0.00  0.00    -0.449 OA
BRANCH  24  25
ATOM     25  C   UNL     1      -3.518   1.552   0.246  0.00  0.00    +0.169 C 
ATOM     26  C   UNL     1      -4.450   1.035  -0.839  0.00  0.00    +0.047 C 
ATOM     27  C   UNL     1      -3.773   0.874   1.583  0.00  0.00    +0.047 C 
ENDBRANCH  24  25
ENDBRANCH  23  24
ENDBRANCH   7  23
TORSDOF 4
