REMARK  Name = 131379
REMARK  5 active torsions:
REMARK  status: ('A' for Active; 'I' for Inactive)
REMARK    1  A    between atoms: C_9  and  O_24
REMARK    2  A    between atoms: C_10  and  C_22
REMARK    3  A    between atoms: C_12  and  C_18
REMARK    4  A    between atoms: C_13  and  O_26
REMARK    5  A    between atoms: C_15  and  O_28
REMARK                            x       y       z     vdW  Elec       q    Type
REMARK                         _______ _______ _______ _____ _____    ______ ____
ROOT
ATOM      1  O   UNL     1      -0.900  -1.574   0.369  0.00  0.00    -0.457 OA
ATOM      2  O   UNL     1       1.812   1.804  -0.714  0.00  0.00    -0.290 OA
ATOM      3  C   UNL     1       0.616   0.261   0.724  0.00  0.00    +0.131 C 
ATOM      4  C   UNL     1      -0.750   0.727   0.321  0.00  0.00    +0.059 C 
ATOM      5  C   UNL     1       0.442  -1.228   0.510  0.00  0.00    +0.136 C 
ATOM      6  C   UNL     1       1.785   0.718  -0.142  0.00  0.00    +0.189 C 
ATOM      7  C   UNL     1      -1.582  -0.392   0.179  0.00  0.00    +0.152 C 
ATOM      8  C   UNL     1       0.894   0.596   2.195  0.00  0.00    +0.020 C 
ATOM      9  C   UNL     1      -1.262   2.001   0.158  0.00  0.00    +0.136 C 
ATOM     10  C   UNL     1       2.987  -0.198  -0.210  0.00  0.00    +0.104 C 
ATOM     11  C   UNL     1       1.452  -2.054   0.217  0.00  0.00    +0.070 C 
ATOM     12  C   UNL     1      -2.921  -0.286  -0.134  0.00  0.00    +0.121 C 
ATOM     13  C   UNL     1       2.784  -1.513   0.028  0.00  0.00    +0.142 C 
ATOM     14  C   UNL     1      -2.616   2.132  -0.166  0.00  0.00    +0.073 C 
ATOM     15  C   UNL     1      -3.438   0.999  -0.309  0.00  0.00    +0.144 C 
ENDROOT
BRANCH  12  18
ATOM     16  O   UNL     1      -4.957  -1.383  -0.578  0.00  0.00    -0.270 OA
ATOM     17  N   UNL     1      -3.151  -2.711  -0.092  0.00  0.00    -0.325 N 
ATOM     18  C   UNL     1      -3.753  -1.470  -0.280  0.00  0.00    +0.249 C 
ATOM     19  H   UNL     1      -3.683  -3.534  -0.183  0.00  0.00    +0.145 HD
ATOM     20  H   UNL     1      -2.194  -2.765   0.131  0.00  0.00    +0.145 HD
ENDBRANCH  12  18
BRANCH  10  22
ATOM     21  O   UNL     1       5.137  -0.339  -1.139  0.00  0.00    -0.291 OA
ATOM     22  C   UNL     1       4.311   0.348  -0.539  0.00  0.00    +0.179 C 
ATOM     23  C   UNL     1       4.612   1.764  -0.126  0.00  0.00    +0.077 C 
ENDBRANCH  10  22
BRANCH   9  24
ATOM     24  O   UNL     1      -0.500   3.111   0.333  0.00  0.00    -0.506 OA
ATOM     25  H   UNL     1       0.407   3.026   0.549  0.00  0.00    +0.292 HD
ENDBRANCH   9  24
BRANCH  13  26
ATOM     26  O   UNL     1       3.753  -2.491   0.018  0.00  0.00    -0.505 OA
ATOM     27  H   UNL     1       4.653  -2.257  -0.097  0.00  0.00    +0.292 HD
ENDBRANCH  13  26
BRANCH  15  28
ATOM     28  O   UNL     1      -4.754   1.180  -0.622  0.00  0.00    -0.505 OA
ATOM     29  H   UNL     1      -5.318   0.438  -0.722  0.00  0.00    +0.292 HD
ENDBRANCH  15  28
TORSDOF 5
