REMARK  Name = 13135337
REMARK  12 active torsions:
REMARK  status: ('A' for Active; 'I' for Inactive)
REMARK    1  A    between atoms: C_1  and  C_5
REMARK    2  A    between atoms: C_1  and  N_20
REMARK    3  A    between atoms: N_4  and  C_6
REMARK    4  A    between atoms: N_4  and  C_15
REMARK    5  A    between atoms: C_15  and  C_17
REMARK    6  A    between atoms: C_17  and  O_18
REMARK    7  A    between atoms: N_20  and  CA_23
REMARK    8  A    between atoms: CA_23  and  C_25
REMARK    9  A    between atoms: CA_23  and  C_28
REMARK   10  A    between atoms: C_25  and  O_26
REMARK   11  A    between atoms: C_28  and  C_29
REMARK   12  A    between atoms: C_29  and  C_30
REMARK                            x       y       z     vdW  Elec       q    Type
REMARK                         _______ _______ _______ _____ _____    ______ ____
ROOT
ATOM      1  C   UNL     1       0.369  -1.196  -1.198  0.00  0.00    +0.018 C 
ATOM      2  C   UNL     1       0.364  -1.873  -2.568  0.00  0.00    -0.014 C 
ENDROOT
BRANCH   1   5
ATOM      3  O   UNL     1      -1.708  -1.636  -0.089  0.00  0.00    -0.277 OA
ATOM      4  N   UNL     1      -1.534   0.438  -1.108  0.00  0.00    -0.272 N 
ATOM      5  C   UNL     1      -1.044  -0.827  -0.746  0.00  0.00    +0.206 C 
BRANCH   4   6
ATOM      6  C   UNL     1      -2.858   0.828  -0.709  0.00  0.00    +0.084 C 
ATOM      7  C   UNL     1      -3.941  -0.109  -1.274  0.00  0.00    +0.046 C 
ATOM      8  C   UNL     1      -3.037   0.842   0.822  0.00  0.00    +0.046 C 
ATOM      9  C   UNL     1      -5.014   0.028  -0.240  0.00  0.00    -0.024 C 
ATOM     10  C   UNL     1      -4.502   0.566   0.946  0.00  0.00    -0.024 C 
ATOM     11  C   UNL     1      -6.344  -0.344  -0.339  0.00  0.00    -0.005 C 
ATOM     12  C   UNL     1      -5.310   0.744   2.057  0.00  0.00    -0.005 C 
ATOM     13  C   UNL     1      -7.169  -0.157   0.772  0.00  0.00    -0.000 C 
ATOM     14  C   UNL     1      -6.656   0.383   1.962  0.00  0.00    -0.000 C 
ENDBRANCH   4   6
BRANCH   4  15
ATOM     15  C   UNL     1      -0.766   1.460  -1.823  0.00  0.00    +0.204 C 
BRANCH  15  17
ATOM     16  O   UNL     1       0.677   3.313  -1.296  0.00  0.00    -0.248 OA
ATOM     17  C   UNL     1      -0.018   2.385  -0.899  0.00  0.00    +0.334 C 
BRANCH  17  18
ATOM     18  O   UNL     1      -0.186   2.094   0.411  0.00  0.00    -0.479 OA
ATOM     19  H   UNL     1      -0.728   1.373   0.665  0.00  0.00    +0.295 HD
ENDBRANCH  17  18
ENDBRANCH  15  17
ENDBRANCH   4  15
ENDBRANCH   1   5
BRANCH   1  20
ATOM     20  N   UNL     1       0.906  -2.118  -0.199  0.00  0.00    +0.399 N 
ATOM     21  H1  UNL     1       0.313  -2.947  -0.156  0.00  0.00    -0.083 HD
ATOM     22  H2  UNL     1       0.924  -1.647   0.705  0.00  0.00    -0.083 HD
BRANCH  20  23
ATOM     23  CA  UNL     1       2.262  -2.519  -0.543  0.00  0.00    +0.041 C 
BRANCH  23  25
ATOM     24  OXT UNL     1       2.090  -3.755   1.547  0.00  0.00    -0.253 OA
ATOM     25  C   UNL     1       2.733  -3.466   0.546  0.00  0.00    +0.293 C 
BRANCH  25  26
ATOM     26  O   UNL     1       3.956  -3.994   0.283  0.00  0.00    -0.482 OA
ATOM     27  H   UNL     1       4.416  -3.746  -0.495  0.00  0.00    +0.295 HD
ENDBRANCH  25  26
ENDBRANCH  23  25
BRANCH  23  28
ATOM     28  C   UNL     1       3.155  -1.272  -0.617  0.00  0.00    -0.006 C 
BRANCH  28  29
ATOM     29  C   UNL     1       3.258  -0.484   0.698  0.00  0.00    +0.025 C 
BRANCH  29  30
ATOM     30  C   UNL     1       4.195   0.698   0.647  0.00  0.00    -0.022 C 
ATOM     31  C   UNL     1       5.530   0.521   0.978  0.00  0.00    -0.004 C 
ATOM     32  C   UNL     1       3.705   1.939   0.271  0.00  0.00    -0.004 C 
ATOM     33  C   UNL     1       6.396   1.613   0.931  0.00  0.00    -0.000 C 
ATOM     34  C   UNL     1       4.572   3.031   0.225  0.00  0.00    -0.000 C 
ATOM     35  C   UNL     1       5.918   2.868   0.555  0.00  0.00    -0.000 C 
ENDBRANCH  29  30
ENDBRANCH  28  29
ENDBRANCH  23  28
ENDBRANCH  20  23
ENDBRANCH   1  20
TORSDOF 12
