131351
  -OEChem-03292013323D

 38 37  0     1  0  0  0  0  0999 V2000
   -1.9076    0.6146    0.8222 S   0  0  1  0  0  0  0  0  0  0  0  0
   -2.4073    1.9543    1.0941 O   0  0  0  0  0  0  0  0  0  0  0  0
    2.8554   -0.4859    0.4891 O   0  0  0  0  0  0  0  0  0  0  0  0
    2.7883    0.0169   -1.7584 O   0  0  0  0  0  0  0  0  0  0  0  0
   -1.6262   -0.4607    1.8999 N   0  0  0  0  0  0  0  0  0  0  0  0
    1.7864    2.4910   -1.2623 N   0  0  0  0  0  0  0  0  0  0  0  0
   -3.0501   -0.1209   -0.3280 C   0  0  1  0  0  0  0  0  0  0  0  0
   -0.4387    0.7870   -0.1432 C   0  0  0  0  0  0  0  0  0  0  0  0
    0.6871    1.4122    0.6753 C   0  0  0  0  0  0  0  0  0  0  0  0
   -2.5097   -1.4403   -0.8904 C   0  0  0  0  0  0  0  0  0  0  0  0
   -4.3929   -0.3396    0.3616 C   0  0  0  0  0  0  0  0  0  0  0  0
    1.9928    1.6244   -0.1026 C   0  0  1  0  0  0  0  0  0  0  0  0
   -3.4275   -2.0746   -1.9267 C   0  0  0  0  0  0  0  0  0  0  0  0
    2.5886    0.3137   -0.5874 C   0  0  0  0  0  0  0  0  0  0  0  0
    3.4133   -1.7679    0.1833 C   0  0  0  0  0  0  0  0  0  0  0  0
    3.6481   -2.5241    1.4734 C   0  0  0  0  0  0  0  0  0  0  0  0
   -3.1785    0.6065   -1.1385 H   0  0  0  0  0  0  0  0  0  0  0  0
   -0.7019    1.3991   -1.0104 H   0  0  0  0  0  0  0  0  0  0  0  0
   -0.1176   -0.1992   -0.4803 H   0  0  0  0  0  0  0  0  0  0  0  0
    0.3514    2.3810    1.0688 H   0  0  0  0  0  0  0  0  0  0  0  0
    0.8880    0.7902    1.5566 H   0  0  0  0  0  0  0  0  0  0  0  0
   -2.3259   -2.1676   -0.0913 H   0  0  0  0  0  0  0  0  0  0  0  0
   -1.5537   -1.2798   -1.3944 H   0  0  0  0  0  0  0  0  0  0  0  0
   -5.1710   -0.6057   -0.3609 H   0  0  0  0  0  0  0  0  0  0  0  0
   -4.7316    0.5699    0.8696 H   0  0  0  0  0  0  0  0  0  0  0  0
   -4.3441   -1.1366    1.1111 H   0  0  0  0  0  0  0  0  0  0  0  0
    2.7367    2.1026    0.5451 H   0  0  0  0  0  0  0  0  0  0  0  0
   -4.3566   -2.4361   -1.4767 H   0  0  0  0  0  0  0  0  0  0  0  0
   -3.6765   -1.3639   -2.7210 H   0  0  0  0  0  0  0  0  0  0  0  0
   -2.9325   -2.9359   -2.3877 H   0  0  0  0  0  0  0  0  0  0  0  0
   -2.4589   -0.7820    2.4013 H   0  0  0  0  0  0  0  0  0  0  0  0
    1.1568    2.0495   -1.9303 H   0  0  0  0  0  0  0  0  0  0  0  0
    1.3297    3.3537   -0.9689 H   0  0  0  0  0  0  0  0  0  0  0  0
    4.3631   -1.6359   -0.3467 H   0  0  0  0  0  0  0  0  0  0  0  0
    2.7165   -2.3266   -0.4515 H   0  0  0  0  0  0  0  0  0  0  0  0
    4.0744   -3.5115    1.2761 H   0  0  0  0  0  0  0  0  0  0  0  0
    4.3289   -1.9689    2.1270 H   0  0  0  0  0  0  0  0  0  0  0  0
    2.7094   -2.6475    2.0237 H   0  0  0  0  0  0  0  0  0  0  0  0
  1  2  2  0  0  0  0
  1  5  2  0  0  0  0
  1  7  1  0  0  0  0
  1  8  1  0  0  0  0
  3 14  1  0  0  0  0
  3 15  1  0  0  0  0
  4 14  2  0  0  0  0
  5 31  1  0  0  0  0
  6 12  1  0  0  0  0
  6 32  1  0  0  0  0
  6 33  1  0  0  0  0
  7 10  1  0  0  0  0
  7 11  1  0  0  0  0
  7 17  1  0  0  0  0
  8  9  1  0  0  0  0
  8 18  1  0  0  0  0
  8 19  1  0  0  0  0
  9 12  1  0  0  0  0
  9 20  1  0  0  0  0
  9 21  1  0  0  0  0
 10 13  1  0  0  0  0
 10 22  1  0  0  0  0
 10 23  1  0  0  0  0
 11 24  1  0  0  0  0
 11 25  1  0  0  0  0
 11 26  1  0  0  0  0
 12 14  1  0  0  0  0
 12 27  1  0  0  0  0
 13 28  1  0  0  0  0
 13 29  1  0  0  0  0
 13 30  1  0  0  0  0
 15 16  1  0  0  0  0
 15 34  1  0  0  0  0
 15 35  1  0  0  0  0
 16 36  1  0  0  0  0
 16 37  1  0  0  0  0
 16 38  1  0  0  0  0
M  END
> <PUBCHEM_COMPOUND_CID>
131351

> <PUBCHEM_CONFORMER_RMSD>
0.8

> <PUBCHEM_CONFORMER_DIVERSEORDER>
1
150
122
186
204
6
198
195
157
8
115
139
49
220
31
94
216
84
33
93
58
76
89
21
218
12
55
113
100
177
149
155
71
116
114
117
214
212
121
30
11
34
175
148
169
70
41
167
168
184
72
156
154
209
193
108
90
166
144
44
185
4
102
128
133
32
217
53
62
137
178
188
16
161
47
171
9
124
165
125
219
191
213
151
205
123
50
225
135
201
99
61
189
162
77
63
200
10
25
170
17
68
65
35
27
64
120
203
174
134
210
152
119
179
153
7
140
43
105
146
15
107
28
197
109
80
29
92
79
37
40
14
18
221
158
42
81
159
112
215
172
145
211
129
88
126
180
3
96
66
38
164
56
86
206
208
142
48
54
181
97
182
73
202
110
67
196
5
22
143
127
24
223
163
132
45
207
104
2
52
187
101
147
78
130
83
26
106
82
173
91
51
103
183
19
226
95
192
74
57
141
224
59
36
39
60
190
13
160
118
111
136
98
131
69
176
20
75
85
199
194
87
222
138
23
46

> <PUBCHEM_MMFF94_PARTIAL_CHARGES>
14
1 1.03
12 0.33
14 0.66
15 0.28
2 -0.65
3 -0.43
31 0.4
32 0.36
33 0.36
4 -0.57
5 -0.99
6 -0.99
7 0.11
8 0.11

> <PUBCHEM_EFFECTIVE_ROTOR_COUNT>
8

> <PUBCHEM_PHARMACOPHORE_FEATURES>
5
1 13 hydrophobe
1 2 acceptor
1 4 acceptor
1 6 cation
1 6 donor

> <PUBCHEM_HEAVY_ATOM_COUNT>
16

> <PUBCHEM_ATOM_DEF_STEREO_COUNT>
1

> <PUBCHEM_ATOM_UDEF_STEREO_COUNT>
1

> <PUBCHEM_BOND_DEF_STEREO_COUNT>
0

> <PUBCHEM_BOND_UDEF_STEREO_COUNT>
0

> <PUBCHEM_ISOTOPIC_ATOM_COUNT>
0

> <PUBCHEM_COMPONENT_COUNT>
1

> <PUBCHEM_CACTVS_TAUTO_COUNT>
1

> <PUBCHEM_CONFORMER_ID>
0002011700000001

> <PUBCHEM_MMFF94_ENERGY>
11.4869

> <PUBCHEM_FEATURE_SELFOVERLAP>
25.372

> <PUBCHEM_SHAPE_FINGERPRINT>
10062212 137 18339074883307830875
11615756 256 8142090896051672887
12670545 2 18341894056933404879
12824470 246 17843678009775218191
14123260 362 10665232527261887687
15342816 4 17629194090205757173
18186145 218 16443333278746438637
19107657 9 11025788773946375167
20442098 301 17917716824290800967
20626108 58 17916567869247692967
20645477 70 18335709368034923182
20671657 53 18113899312722817968
212916 134 17058098684079064337
2255824 54 18335991977305168740
22959321 94 18060700602380776447
23532345 88 18334570282615450852
23557571 272 16630532799459507072
23559900 14 17060347339533621792
23598291 2 18191323601478157176
5161694 15 16877654660742044351
5902787 121 17274537754006710073
603831 33 18270691994173543612
633830 44 17530952610521445773
81228 2 15409519643994115241
85463 6 17702923916411601351

> <PUBCHEM_SHAPE_MULTIPOLES>
305.55
7.81
2.58
1.65
0.96
0.35
-0.13
4.69
-0.13
-1.39
-0.15
0.11
0.46
-2.61

> <PUBCHEM_SHAPE_SELFOVERLAP>
564.128

> <PUBCHEM_SHAPE_VOLUME>
193.5

> <PUBCHEM_COORDINATE_TYPE>
2
5
10

$$$$
