REMARK  Name = 131333
REMARK  10 active torsions:
REMARK  status: ('A' for Active; 'I' for Inactive)
REMARK    1  A    between atoms: N_2  and  N_6
REMARK    2  A    between atoms: N_2  and  C_11
REMARK    3  A    between atoms: C_3  and  C_21
REMARK    4  A    between atoms: C_11  and  S_12
REMARK    5  A    between atoms: C_11  and  C_16
REMARK    6  A    between atoms: C_16  and  C_18
REMARK    7  A    between atoms: C_18  and  O_19
REMARK    8  A    between atoms: C_21  and  C_22
REMARK    9  A    between atoms: C_22  and  S_25
REMARK   10  A    between atoms: S_25  and  C_27
REMARK                            x       y       z     vdW  Elec       q    Type
REMARK                         _______ _______ _______ _____ _____    ______ ____
ROOT
ATOM      1  O   UNL     1      -0.585   0.787  -1.781  0.00  0.00    -0.273 OA
ATOM      2  N   UNL     1       0.649  -0.016  -0.011  0.00  0.00    -0.177 N 
ATOM      3  C   UNL     1      -0.486   0.035  -0.809  0.00  0.00    +0.244 C 
ENDROOT
BRANCH   2   6
ATOM      4  O   UNL     1      -0.231   0.766   2.612  0.00  0.00    -0.268 OA
ATOM      5  O   UNL     1       1.360  -2.798   0.118  0.00  0.00    -0.268 OA
ATOM      6  N   UNL     1       0.580  -0.827   1.105  0.00  0.00    -0.142 N 
ATOM      7  C   UNL     1       0.208  -1.518   3.274  0.00  0.00    +0.065 C 
ATOM      8  C   UNL     1       0.737  -2.693   2.452  0.00  0.00    +0.065 C 
ATOM      9  C   UNL     1       0.145  -0.359   2.317  0.00  0.00    +0.272 C 
ATOM     10  C   UNL     1       0.944  -2.148   1.065  0.00  0.00    +0.272 C 
ENDBRANCH   2   6
BRANCH   2  11
ATOM     11  C   UNL     1       1.909   0.743  -0.111  0.00  0.00    +0.241 C 
BRANCH  11  12
ATOM     12  S   UNL     1       1.682   2.521   0.168  0.00  0.00    +0.041 S 
ATOM     13  O   UNL     1       3.206   2.997  -0.159  0.00  0.00    -0.068 OA
ATOM     14  O   UNL     1       1.432   2.736   1.579  0.00  0.00    -0.068 OA
ATOM     15  O   UNL     1       0.801   3.060  -0.848  0.00  0.00    -0.068 OA
ENDBRANCH  11  12
BRANCH  11  16
ATOM     16  C   UNL     1       2.653   0.521  -1.443  0.00  0.00    +0.156 C 
BRANCH  16  18
ATOM     17  O   UNL     1       2.694  -1.613  -2.620  0.00  0.00    -0.250 OA
ATOM     18  C   UNL     1       3.044  -0.923  -1.674  0.00  0.00    +0.317 C 
BRANCH  18  19
ATOM     19  O   UNL     1       3.867  -1.376  -0.692  0.00  0.00    -0.480 OA
ATOM     20  H   UNL     1       4.109  -0.811   0.015  0.00  0.00    +0.295 HD
ENDBRANCH  18  19
ENDBRANCH  16  18
ENDBRANCH  11  16
ENDBRANCH   2  11
BRANCH   3  21
ATOM     21  C   UNL     1      -1.620  -0.906  -0.396  0.00  0.00    +0.097 C 
BRANCH  21  22
ATOM     22  C   UNL     1      -2.897  -0.931  -1.267  0.00  0.00    +0.055 C 
ATOM     23  C   UNL     1      -2.508  -1.354  -2.696  0.00  0.00    +0.012 C 
ATOM     24  C   UNL     1      -3.948  -1.914  -0.732  0.00  0.00    +0.012 C 
BRANCH  22  25
ATOM     25  S   UNL     1      -3.638   0.748  -1.387  0.00  0.00    -0.078 S 
BRANCH  25  27
ATOM     26  O   UNL     1      -3.946   0.694   1.243  0.00  0.00    -0.285 OA
ATOM     27  C   UNL     1      -3.448   1.266   0.282  0.00  0.00    +0.199 C 
ATOM     28  C   UNL     1      -2.602   2.501   0.412  0.00  0.00    +0.085 C 
ENDBRANCH  25  27
ENDBRANCH  22  25
ENDBRANCH  21  22
ENDBRANCH   3  21
TORSDOF 10
