REMARK  Name = 131303
REMARK  10 active torsions:
REMARK  status: ('A' for Active; 'I' for Inactive)
REMARK    1  A    between atoms: C_1  and  O_2
REMARK    2  A    between atoms: C_1  and  C_7
REMARK    3  A    between atoms: C_1  and  C_12
REMARK    4  A    between atoms: O_2  and  C_4
REMARK    5  A    between atoms: C_4  and  C_5
REMARK    6  A    between atoms: C_7  and  N_8
REMARK    7  A    between atoms: C_12  and  C_15
REMARK    8  A    between atoms: N_14  and  C_17
REMARK    9  A    between atoms: C_17  and  C_18
REMARK   10  A    between atoms: C_18  and  S_19
REMARK                            x       y       z     vdW  Elec       q    Type
REMARK                         _______ _______ _______ _____ _____    ______ ____
ROOT
ATOM      1  C   UNL     1       1.871   0.296   0.753  0.00  0.00    +0.158 C 
ENDROOT
BRANCH   1   2
ATOM      2  O   UNL     1       1.317  -0.722  -0.081  0.00  0.00    -0.454 OA
BRANCH   2   4
ATOM      3  O   UNL     1       2.569  -2.315   1.024  0.00  0.00    -0.250 OA
ATOM      4  C   UNL     1       1.758  -1.993   0.166  0.00  0.00    +0.317 C 
BRANCH   4   5
ATOM      5  C   UNL     1       1.081  -2.944  -0.793  0.00  0.00    +0.110 C 
ATOM      6  C   UNL     1       1.536  -4.379  -0.592  0.00  0.00    +0.012 C 
ENDBRANCH   4   5
ENDBRANCH   2   4
ENDBRANCH   1   2
BRANCH   1   7
ATOM      7  C   UNL     1       1.994   1.592  -0.047  0.00  0.00    -0.028 C 
BRANCH   7   8
ATOM      8  N   UNL     1       3.212   1.578  -0.896  0.00  0.00    +0.388 N 
ATOM      9  C   UNL     1       3.320   2.871  -1.716  0.00  0.00    -0.096 C 
ATOM     10  C   UNL     1       3.180   0.395  -1.873  0.00  0.00    -0.096 C 
ATOM     11  C   UNL     1       4.476   1.452  -0.035  0.00  0.00    -0.096 C 
ENDBRANCH   7   8
ENDBRANCH   1   7
BRANCH   1  12
ATOM     12  C   UNL     1       1.000   0.433   2.005  0.00  0.00    +0.126 C 
BRANCH  12  15
ATOM     13  O   UNL     1      -0.769   2.061   1.687  0.00  0.00    -0.275 OA
ATOM     14  N   UNL     1      -1.248  -0.196   1.422  0.00  0.00    -0.302 N 
ATOM     15  C   UNL     1      -0.420   0.884   1.691  0.00  0.00    +0.226 C 
ATOM     16  H   UNL     1      -0.863  -1.102   1.453  0.00  0.00    +0.149 HD
BRANCH  14  17
ATOM     17  C   UNL     1      -2.649  -0.055   1.099  0.00  0.00    +0.115 C 
BRANCH  17  18
ATOM     18  C   UNL     1      -2.880   0.092  -0.393  0.00  0.00    +0.179 C 
BRANCH  18  19
ATOM     19  S   UNL     1      -4.594   0.219  -0.798  0.00  0.00    +0.024 S 
ATOM     20  O   UNL     1      -5.020   1.416  -0.073  0.00  0.00    -0.069 OA
ATOM     21  O   UNL     1      -4.584   0.350  -2.254  0.00  0.00    -0.069 OA
ATOM     22  O   UNL     1      -5.149  -1.037  -0.295  0.00  0.00    -0.069 OA
ENDBRANCH  18  19
ENDBRANCH  17  18
ENDBRANCH  14  17
ENDBRANCH  12  15
ENDBRANCH   1  12
TORSDOF 10
