REMARK  Name = 131350
REMARK  5 active torsions:
REMARK  status: ('A' for Active; 'I' for Inactive)
REMARK    1  A    between atoms: C_9  and  O_21
REMARK    2  A    between atoms: C_13  and  O_23
REMARK    3  A    between atoms: C_14  and  O_25
REMARK    4  A    between atoms: C_17  and  O_27
REMARK    5  A    between atoms: C_19  and  O_29
REMARK                            x       y       z     vdW  Elec       q    Type
REMARK                         _______ _______ _______ _____ _____    ______ ____
ROOT
ATOM      1  O   UNL     1      -1.155   2.469   0.008  0.00  0.00    -0.286 OA
ATOM      2  O   UNL     1      -1.231  -2.873   0.013  0.00  0.00    -0.287 OA
ATOM      3  C   UNL     1       0.098   0.474   0.004  0.00  0.00    +0.076 C 
ATOM      4  C   UNL     1       0.075  -0.919   0.004  0.00  0.00    +0.045 C 
ATOM      5  C   UNL     1       2.535   0.445   0.001  0.00  0.00    +0.068 C 
ATOM      6  C   UNL     1       2.513  -0.969   0.000  0.00  0.00    +0.009 C 
ATOM      7  C   UNL     1      -2.449   0.516   0.000  0.00  0.00    +0.076 C 
ATOM      8  C   UNL     1      -2.471  -0.879   0.001  0.00  0.00    +0.048 C 
ATOM      9  C   UNL     1       1.322   1.153   0.002  0.00  0.00    +0.140 C 
ATOM     10  C   UNL     1      -1.164   1.244   0.004  0.00  0.00    +0.202 C 
ATOM     11  C   UNL     1       1.277  -1.638   0.002  0.00  0.00    +0.004 C 
ATOM     12  C   UNL     1      -1.210  -1.648   0.006  0.00  0.00    +0.196 C 
ATOM     13  C   UNL     1       3.772   1.112  -0.001  0.00  0.00    +0.140 C 
ATOM     14  C   UNL     1      -3.651   1.235  -0.003  0.00  0.00    +0.140 C 
ATOM     15  C   UNL     1       3.727  -1.675  -0.003  0.00  0.00    +0.037 C 
ATOM     16  C   UNL     1      -3.696  -1.558  -0.001  0.00  0.00    +0.040 C 
ATOM     17  C   UNL     1       4.946  -0.996  -0.005  0.00  0.00    +0.137 C 
ATOM     18  C   UNL     1       4.968   0.395  -0.004  0.00  0.00    +0.073 C 
ATOM     19  C   UNL     1      -4.891  -0.839  -0.005  0.00  0.00    +0.137 C 
ATOM     20  C   UNL     1      -4.869   0.554  -0.006  0.00  0.00    +0.073 C 
ENDROOT
BRANCH   9  21
ATOM     21  O   UNL     1       1.339   2.522   0.001  0.00  0.00    -0.505 OA
ATOM     22  H   UNL     1       0.533   3.000   0.002  0.00  0.00    +0.292 HD
ENDBRANCH   9  21
BRANCH  13  23
ATOM     23  O   UNL     1       3.887   2.473   0.002  0.00  0.00    -0.505 OA
ATOM     24  H   UNL     1       3.118   3.008   0.003  0.00  0.00    +0.292 HD
ENDBRANCH  13  23
BRANCH  14  25
ATOM     25  O   UNL     1      -3.704   2.597  -0.004  0.00  0.00    -0.505 OA
ATOM     26  H   UNL     1      -2.911   3.097  -0.002  0.00  0.00    +0.292 HD
ENDBRANCH  14  25
BRANCH  17  27
ATOM     27  O   UNL     1       6.114  -1.696  -0.008  0.00  0.00    -0.505 OA
ATOM     28  H   UNL     1       6.099  -2.633  -0.008  0.00  0.00    +0.292 HD
ENDBRANCH  17  27
BRANCH  19  29
ATOM     29  O   UNL     1      -6.082  -1.499  -0.008  0.00  0.00    -0.505 OA
ATOM     30  H   UNL     1      -6.098  -2.436  -0.007  0.00  0.00    +0.292 HD
ENDBRANCH  19  29
TORSDOF 5
