131382
  -OEChem-03292013323D

 28 29  0     0  0  0  0  0  0999 V2000
    2.2903   -0.3340    0.7559 S   0  0  0  0  0  0  0  0  0  0  0  0
    2.6456    0.9544    1.3451 O   0  0  0  0  0  0  0  0  0  0  0  0
    2.6250   -1.5477    1.4963 O   0  0  0  0  0  0  0  0  0  0  0  0
   -0.9833    2.8211   -0.0495 O   0  0  0  0  0  0  0  0  0  0  0  0
    2.9984   -0.4347   -0.8210 N   0  0  0  0  0  0  0  0  0  0  0  0
    0.1691    2.0992    0.2101 N   0  0  0  0  0  0  0  0  0  0  0  0
   -3.7074   -0.5797   -0.3483 N   0  0  0  0  0  0  0  0  0  0  0  0
   -2.0846    1.9965   -0.2044 N   0  0  0  0  0  0  0  0  0  0  0  0
   -4.4043   -1.7485   -0.1200 N   0  0  0  0  0  0  0  0  0  0  0  0
    0.5792   -0.3395    0.4370 C   0  0  0  0  0  0  0  0  0  0  0  0
   -0.1996    0.8121    0.2205 C   0  0  0  0  0  0  0  0  0  0  0  0
   -1.6320    0.7468   -0.0429 C   0  0  0  0  0  0  0  0  0  0  0  0
   -0.1402   -1.5469    0.3769 C   0  0  0  0  0  0  0  0  0  0  0  0
   -2.3323   -0.4723   -0.0986 C   0  0  0  0  0  0  0  0  0  0  0  0
   -1.5352   -1.6104    0.1204 C   0  0  0  0  0  0  0  0  0  0  0  0
    2.6685   -1.6248   -1.6456 C   0  0  0  0  0  0  0  0  0  0  0  0
    3.0427    0.8084   -1.6321 C   0  0  0  0  0  0  0  0  0  0  0  0
    0.3798   -2.4925    0.5262 H   0  0  0  0  0  0  0  0  0  0  0  0
   -1.9772   -2.6060    0.0913 H   0  0  0  0  0  0  0  0  0  0  0  0
    3.4339   -1.7574   -2.4169 H   0  0  0  0  0  0  0  0  0  0  0  0
    1.6955   -1.5074   -2.1306 H   0  0  0  0  0  0  0  0  0  0  0  0
    2.6671   -2.5307   -1.0333 H   0  0  0  0  0  0  0  0  0  0  0  0
    3.4215    1.6440   -1.0378 H   0  0  0  0  0  0  0  0  0  0  0  0
    2.0510    1.0527   -2.0221 H   0  0  0  0  0  0  0  0  0  0  0  0
    3.7291    0.6747   -2.4744 H   0  0  0  0  0  0  0  0  0  0  0  0
   -4.2341    0.2770   -0.4733 H   0  0  0  0  0  0  0  0  0  0  0  0
   -5.2247   -1.7587   -0.7242 H   0  0  0  0  0  0  0  0  0  0  0  0
   -4.7590   -1.7329    0.8354 H   0  0  0  0  0  0  0  0  0  0  0  0
  1  2  2  0  0  0  0
  1  3  2  0  0  0  0
  1  5  1  0  0  0  0
  1 10  1  0  0  0  0
  4  6  1  0  0  0  0
  4  8  1  0  0  0  0
  5 16  1  0  0  0  0
  5 17  1  0  0  0  0
  6 11  2  0  0  0  0
  7  9  1  0  0  0  0
  7 14  1  0  0  0  0
  7 26  1  0  0  0  0
  8 12  2  0  0  0  0
  9 27  1  0  0  0  0
  9 28  1  0  0  0  0
 10 11  1  0  0  0  0
 10 13  2  0  0  0  0
 11 12  1  0  0  0  0
 12 14  1  0  0  0  0
 13 15  1  0  0  0  0
 13 18  1  0  0  0  0
 14 15  2  0  0  0  0
 15 19  1  0  0  0  0
 16 20  1  0  0  0  0
 16 21  1  0  0  0  0
 16 22  1  0  0  0  0
 17 23  1  0  0  0  0
 17 24  1  0  0  0  0
 17 25  1  0  0  0  0
M  END
> <PUBCHEM_COMPOUND_CID>
131382

> <PUBCHEM_CONFORMER_RMSD>
0.6

> <PUBCHEM_CONFORMER_DIVERSEORDER>
1
4
7
8
3
9
5
2
6

> <PUBCHEM_MMFF94_PARTIAL_CHARGES>
22
1 1.45
10 -0.01
11 0.29
12 0.29
13 -0.15
14 0.1
15 -0.15
16 0.36
17 0.36
18 0.15
19 0.15
2 -0.65
26 0.4
27 0.36
28 0.36
3 -0.65
4 0.24
5 -0.85
6 -0.41
7 -0.51
8 -0.41
9 -0.71

> <PUBCHEM_EFFECTIVE_ROTOR_COUNT>
3

> <PUBCHEM_PHARMACOPHORE_FEATURES>
8
1 2 acceptor
1 3 acceptor
1 6 acceptor
1 7 donor
1 8 acceptor
1 9 donor
5 4 6 8 11 12 rings
6 10 11 12 13 14 15 rings

> <PUBCHEM_HEAVY_ATOM_COUNT>
17

> <PUBCHEM_ATOM_DEF_STEREO_COUNT>
0

> <PUBCHEM_ATOM_UDEF_STEREO_COUNT>
0

> <PUBCHEM_BOND_DEF_STEREO_COUNT>
0

> <PUBCHEM_BOND_UDEF_STEREO_COUNT>
0

> <PUBCHEM_ISOTOPIC_ATOM_COUNT>
0

> <PUBCHEM_COMPONENT_COUNT>
1

> <PUBCHEM_CACTVS_TAUTO_COUNT>
2

> <PUBCHEM_CONFORMER_ID>
0002013600000001

> <PUBCHEM_MMFF94_ENERGY>
37.0618

> <PUBCHEM_FEATURE_SELFOVERLAP>
42.302

> <PUBCHEM_SHAPE_FINGERPRINT>
10353120 184 18408601483066854823
11206711 2 18335696118493364405
11543360 7 15647050512624162571
12032990 46 18411702123269433739
12202030 40 17417812781965359590
12524768 44 18200307844069137818
13538477 17 18115869594420319320
14252887 29 18200878494999355667
15219456 202 17846491505073848290
15775835 57 17460050499861377468
15848700 24 18272645792376893631
16945 1 18334294305254732355
19765921 60 17024600125229184020
19786989 88 17059475457220075026
19868273 325 18410299094391481165
20510252 161 18343013367985960233
20559304 39 18187074053645753642
20645476 183 17895767174865507690
20645477 70 17980472679614287127
20871998 22 18342738550540678807
20871999 31 18339653269041404741
22802520 49 17987236633928108518
2334 1 18410005516397280161
23402539 116 18269535252159172398
23557571 272 18343017783607732242
23559900 14 18198905816894576534
23598291 2 17678460758110051538
2748010 2 18340190939038938977
353137 74 18115041791245803124
5262128 65 18194712348149710420
537710 114 18187363272400883031
6049 1 17845934031013968360
6992083 37 17392465598802867442
7364860 26 17911521209660487817
77492 1 17604433981432400394
8030462 33 18040721337827035474
81228 2 18410580560968194153

> <PUBCHEM_SHAPE_MULTIPOLES>
311.19
5.82
2.37
1.24
2.31
1.08
0.14
-2.3
1.32
0.89
0.07
-1.62
-0.25
0.02

> <PUBCHEM_SHAPE_SELFOVERLAP>
639.789

> <PUBCHEM_SHAPE_VOLUME>
180.7

> <PUBCHEM_COORDINATE_TYPE>
2
5
10

$$$$
