131387
  -OEChem-03292013323D

 51 54  0     1  0  0  0  0  0999 V2000
    0.8242   -1.9107   -1.4865 O   0  0  0  0  0  0  0  0  0  0  0  0
    3.3552   -0.7415   -1.8542 O   0  0  0  0  0  0  0  0  0  0  0  0
   -1.1721   -2.1318    0.3477 N   0  0  3  0  0  0  0  0  0  0  0  0
    2.3211   -1.2340    0.1758 N   0  0  0  0  0  0  0  0  0  0  0  0
    5.6867   -1.1043   -0.1051 N   0  0  0  0  0  0  0  0  0  0  0  0
    3.5145    3.2512   -0.5745 N   0  0  0  0  0  0  0  0  0  0  0  0
    1.9892    3.2226    1.0395 N   0  0  0  0  0  0  0  0  0  0  0  0
    0.2164   -2.1896    0.8050 C   0  0  1  0  0  0  0  0  0  0  0  0
    0.4327   -3.6640    1.1530 C   0  0  0  0  0  0  0  0  0  0  0  0
   -0.5158   -4.3949    0.2145 C   0  0  0  0  0  0  0  0  0  0  0  0
   -1.7279   -3.4706    0.1470 C   0  0  0  0  0  0  0  0  0  0  0  0
   -1.9254   -0.9770    0.2591 C   0  0  0  0  0  0  0  0  0  0  0  0
    1.1323   -1.7780   -0.3055 C   0  0  0  0  0  0  0  0  0  0  0  0
   -3.3119   -1.0145   -0.0394 C   0  0  0  0  0  0  0  0  0  0  0  0
   -1.3503    0.3004    0.4601 C   0  0  0  0  0  0  0  0  0  0  0  0
   -4.0907    0.1502   -0.1350 C   0  0  0  0  0  0  0  0  0  0  0  0
   -3.4803    1.4100    0.0726 C   0  0  0  0  0  0  0  0  0  0  0  0
   -2.1088    1.4678    0.3694 C   0  0  0  0  0  0  0  0  0  0  0  0
    3.3578   -0.7499   -0.6247 C   0  0  0  0  0  0  0  0  0  0  0  0
    4.5403   -0.2473    0.2020 C   0  0  2  0  0  0  0  0  0  0  0  0
    4.8768    1.2110   -0.1450 C   0  0  0  0  0  0  0  0  0  0  0  0
   -5.4623    0.0922   -0.4314 C   0  0  0  0  0  0  0  0  0  0  0  0
   -4.2592    2.5747   -0.0230 C   0  0  0  0  0  0  0  0  0  0  0  0
    3.7436    2.1597    0.1757 C   0  0  0  0  0  0  0  0  0  0  0  0
   -6.2209    1.2595   -0.5226 C   0  0  0  0  0  0  0  0  0  0  0  0
   -5.6205    2.4983   -0.3189 C   0  0  0  0  0  0  0  0  0  0  0  0
    2.8210    2.1374    1.1572 C   0  0  0  0  0  0  0  0  0  0  0  0
    2.4342    3.8731   -0.0127 C   0  0  0  0  0  0  0  0  0  0  0  0
    0.3729   -1.5780    1.7014 H   0  0  0  0  0  0  0  0  0  0  0  0
    1.4678   -3.9994    1.0353 H   0  0  0  0  0  0  0  0  0  0  0  0
    0.1301   -3.8480    2.1913 H   0  0  0  0  0  0  0  0  0  0  0  0
   -0.7750   -5.3963    0.5699 H   0  0  0  0  0  0  0  0  0  0  0  0
   -0.0615   -4.4959   -0.7782 H   0  0  0  0  0  0  0  0  0  0  0  0
   -2.2289   -3.5758   -0.8213 H   0  0  0  0  0  0  0  0  0  0  0  0
   -2.4328   -3.7117    0.9511 H   0  0  0  0  0  0  0  0  0  0  0  0
   -3.8038   -1.9730   -0.1995 H   0  0  0  0  0  0  0  0  0  0  0  0
   -0.2944    0.4115    0.6924 H   0  0  0  0  0  0  0  0  0  0  0  0
    2.4437   -1.1941    1.1843 H   0  0  0  0  0  0  0  0  0  0  0  0
   -1.6185    2.4255    0.5324 H   0  0  0  0  0  0  0  0  0  0  0  0
    4.3342   -0.3363    1.2742 H   0  0  0  0  0  0  0  0  0  0  0  0
    5.7613    1.5342    0.4194 H   0  0  0  0  0  0  0  0  0  0  0  0
    5.1262    1.2995   -1.2113 H   0  0  0  0  0  0  0  0  0  0  0  0
   -5.9533   -0.8650   -0.5947 H   0  0  0  0  0  0  0  0  0  0  0  0
   -3.8108    3.5538    0.1325 H   0  0  0  0  0  0  0  0  0  0  0  0
    5.4540   -2.0770    0.0905 H   0  0  0  0  0  0  0  0  0  0  0  0
    5.9085   -1.0508   -1.0985 H   0  0  0  0  0  0  0  0  0  0  0  0
   -7.2808    1.2008   -0.7527 H   0  0  0  0  0  0  0  0  0  0  0  0
   -6.2115    3.4067   -0.3901 H   0  0  0  0  0  0  0  0  0  0  0  0
    4.0280    3.5610   -1.3895 H   0  0  0  0  0  0  0  0  0  0  0  0
    2.6867    1.4199    1.9533 H   0  0  0  0  0  0  0  0  0  0  0  0
    2.0244    4.7882   -0.4157 H   0  0  0  0  0  0  0  0  0  0  0  0
  1 13  2  0  0  0  0
  2 19  2  0  0  0  0
  3  8  1  0  0  0  0
  3 11  1  0  0  0  0
  3 12  1  0  0  0  0
  4 13  1  0  0  0  0
  4 19  1  0  0  0  0
  4 38  1  0  0  0  0
  5 20  1  0  0  0  0
  5 45  1  0  0  0  0
  5 46  1  0  0  0  0
  6 24  1  0  0  0  0
  6 28  1  0  0  0  0
  6 49  1  0  0  0  0
  7 27  1  0  0  0  0
  7 28  2  0  0  0  0
  8  9  1  0  0  0  0
  8 13  1  0  0  0  0
  8 29  1  0  0  0  0
  9 10  1  0  0  0  0
  9 30  1  0  0  0  0
  9 31  1  0  0  0  0
 10 11  1  0  0  0  0
 10 32  1  0  0  0  0
 10 33  1  0  0  0  0
 11 34  1  0  0  0  0
 11 35  1  0  0  0  0
 12 14  2  0  0  0  0
 12 15  1  0  0  0  0
 14 16  1  0  0  0  0
 14 36  1  0  0  0  0
 15 18  2  0  0  0  0
 15 37  1  0  0  0  0
 16 17  1  0  0  0  0
 16 22  2  0  0  0  0
 17 18  1  0  0  0  0
 17 23  2  0  0  0  0
 18 39  1  0  0  0  0
 19 20  1  0  0  0  0
 20 21  1  0  0  0  0
 20 40  1  0  0  0  0
 21 24  1  0  0  0  0
 21 41  1  0  0  0  0
 21 42  1  0  0  0  0
 22 25  1  0  0  0  0
 22 43  1  0  0  0  0
 23 26  1  0  0  0  0
 23 44  1  0  0  0  0
 24 27  2  0  0  0  0
 25 26  2  0  0  0  0
 25 47  1  0  0  0  0
 26 48  1  0  0  0  0
 27 50  1  0  0  0  0
 28 51  1  0  0  0  0
M  END
> <PUBCHEM_COMPOUND_CID>
131387

> <PUBCHEM_CONFORMER_RMSD>
1

> <PUBCHEM_CONFORMER_DIVERSEORDER>
1
87
146
48
161
217
190
138
34
38
54
95
199
109
137
28
84
144
168
162
56
170
225
65
136
152
191
112
187
158
167
204
177
80
12
40
134
155
192
178
42
75
209
45
29
127
186
125
208
139
219
25
92
135
214
180
35
131
153
72
143
81
124
210
159
111
22
130
122
52
117
220
142
53
188
163
157
113
184
174
91
98
18
133
120
14
123
198
82
31
164
212
183
151
74
215
49
154
114
96
128
197
55
64
206
194
116
121
58
182
97
103
79
201
76
88
156
61
205
104
47
26
63
71
149
140
171
150
68
222
99
39
165
105
70
5
102
37
118
11
106
101
10
93
41
83
196
6
43
175
200
69
7
62
132
94
141
185
36
224
23
195
90
85
179
86
169
160
27
17
16
173
24
44
9
100
108
148
59
176
193
30
207
126
15
32
129
202
119
172
73
166
147
19
89
203
211
181
218
223
221
216
77
46
213
21
67
66
189
8
110
20
60
50
51
3
78
4
57
2
115
145
33
107
13

> <PUBCHEM_MMFF94_PARTIAL_CHARGES>
37
1 -0.57
11 0.37
12 0.1
13 0.57
14 -0.15
15 -0.15
18 -0.15
19 0.57
2 -0.57
20 0.33
21 0.18
22 -0.15
23 -0.15
24 -0.33
25 -0.15
26 -0.15
27 0.08
28 0.04
3 -0.84
36 0.15
37 0.15
38 0.37
39 0.15
4 -0.49
43 0.15
44 0.15
45 0.36
46 0.36
47 0.15
48 0.15
49 0.27
5 -0.99
50 0.15
51 0.15
6 0.03
7 -0.57
8 0.43

> <PUBCHEM_EFFECTIVE_ROTOR_COUNT>
8

> <PUBCHEM_PHARMACOPHORE_FEATURES>
12
1 1 acceptor
1 2 acceptor
1 3 cation
1 4 donor
1 5 cation
1 5 donor
1 6 donor
3 6 7 28 cation
5 3 8 9 10 11 rings
5 6 7 24 27 28 rings
6 12 14 15 16 17 18 rings
6 16 17 22 23 25 26 rings

> <PUBCHEM_HEAVY_ATOM_COUNT>
28

> <PUBCHEM_ATOM_DEF_STEREO_COUNT>
2

> <PUBCHEM_ATOM_UDEF_STEREO_COUNT>
0

> <PUBCHEM_BOND_DEF_STEREO_COUNT>
0

> <PUBCHEM_BOND_UDEF_STEREO_COUNT>
0

> <PUBCHEM_ISOTOPIC_ATOM_COUNT>
0

> <PUBCHEM_COMPONENT_COUNT>
1

> <PUBCHEM_CACTVS_TAUTO_COUNT>
6

> <PUBCHEM_CONFORMER_ID>
0002013B00000001

> <PUBCHEM_MMFF94_ENERGY>
71.1311

> <PUBCHEM_FEATURE_SELFOVERLAP>
60.925

> <PUBCHEM_SHAPE_FINGERPRINT>
1100329 8 18410572890356842506
12107183 9 18261940900446602618
12596602 18 14274036414967772021
12633257 1 18262222418119771592
12769317 202 18265885878735402981
13402501 40 18411136918252642148
13590594 115 17185323041084884531
1361 2 18408600379487671689
138480 1 17905885873318298139
13944108 23 17975975363065400965
14251764 38 18267864071831073308
14466204 15 18337103446169135754
14725015 67 18340477855924200544
14790565 3 18410293614683241537
14931854 50 18342746174055499268
15082195 135 18050543194379816997
15238133 3 18334859433679641270
15320467 1 18337952290146627817
15322687 12 18411135831309301512
15664445 248 17912370823269829359
16728300 4 17173463812300380546
18681886 176 18051684452362437371
20715895 44 18411978057337347640
21133410 127 17899971930696135453
21475661 188 18410572907357396092
21860390 5 18201727219444783660
23227448 37 18341894142648192903
23559900 14 18272084989516684640
245318 6 17895772788583287533
24893992 56 18409166572346480489
27425 322 17168985758400241225
2838139 119 18411695474348765007
3298306 158 18271238426083697081
338550 245 18335702788171938861
3680242 22 18336543794576563784
474 4 18411417276532035569
508706 21 18267587003765023852
53794403 172 18336270157646948172
6036956 94 17326048954693254029
6371009 1 18338220601143034737
67856867 119 18046059359754358883
8509985 295 18334568006952515088
9981440 41 18260835865090554971

> <PUBCHEM_SHAPE_MULTIPOLES>
539.58
12.28
5.33
0.98
5.46
1.57
-0.14
-9.71
-2.26
-1.51
0.94
-0.6
0.17
0.74

> <PUBCHEM_SHAPE_SELFOVERLAP>
1175.633

> <PUBCHEM_SHAPE_VOLUME>
295.5

> <PUBCHEM_COORDINATE_TYPE>
2
5
10

$$$$
