REMARK  Name = 131382
REMARK  4 active torsions:
REMARK  status: ('A' for Active; 'I' for Inactive)
REMARK    1  A    between atoms: C_4  and  S_10
REMARK    2  A    between atoms: C_8  and  N_16
REMARK    3  A    between atoms: S_10  and  N_13
REMARK    4  A    between atoms: N_16  and  N_18
REMARK                            x       y       z     vdW  Elec       q    Type
REMARK                         _______ _______ _______ _____ _____    ______ ____
ROOT
ATOM      1  O   UNL     1      -0.983   2.821  -0.050  0.00  0.00    -0.241 OA
ATOM      2  N   UNL     1       0.169   2.099   0.210  0.00  0.00    -0.047 NA
ATOM      3  N   UNL     1      -2.085   1.996  -0.204  0.00  0.00    -0.047 NA
ATOM      4  C   UNL     1       0.579  -0.340   0.437  0.00  0.00    +0.145 C 
ATOM      5  C   UNL     1      -0.200   0.812   0.221  0.00  0.00    +0.163 A 
ATOM      6  C   UNL     1      -1.632   0.747  -0.043  0.00  0.00    +0.159 A 
ATOM      7  C   UNL     1      -0.140  -1.547   0.377  0.00  0.00    +0.023 C 
ATOM      8  C   UNL     1      -2.332  -0.472  -0.099  0.00  0.00    +0.081 C 
ATOM      9  C   UNL     1      -1.535  -1.610   0.120  0.00  0.00    +0.019 C 
ENDROOT
BRANCH   4  10
ATOM     10  S   UNL     1       2.290  -0.334   0.756  0.00  0.00    +0.065 S 
ATOM     11  O   UNL     1       2.646   0.954   1.345  0.00  0.00    -0.153 OA
ATOM     12  O   UNL     1       2.625  -1.548   1.496  0.00  0.00    -0.153 OA
BRANCH  10  13
ATOM     13  N   UNL     1       2.998  -0.435  -0.821  0.00  0.00    -0.153 NA
ATOM     14  C   UNL     1       2.668  -1.625  -1.646  0.00  0.00    +0.115 C 
ATOM     15  C   UNL     1       3.043   0.808  -1.632  0.00  0.00    +0.115 C 
ENDBRANCH  10  13
ENDBRANCH   4  10
BRANCH   8  16
ATOM     16  N   UNL     1      -3.707  -0.580  -0.348  0.00  0.00    -0.280 N 
ATOM     17  H   UNL     1      -4.191   0.203  -0.698  0.00  0.00    +0.166 HD
BRANCH  16  18
ATOM     18  N   UNL     1      -4.404  -1.748  -0.120  0.00  0.00    -0.256 NA
ATOM     19  H   UNL     1      -3.767  -2.460   0.238  0.00  0.00    +0.140 HD
ATOM     20  H   UNL     1      -4.820  -2.073  -0.993  0.00  0.00    +0.140 HD
ENDBRANCH  16  18
ENDBRANCH   8  16
TORSDOF 4
