REMARK  Name = 131342
REMARK  2 active torsions:
REMARK  status: ('A' for Active; 'I' for Inactive)
REMARK    1  A    between atoms: S_1  and  C_5
REMARK    2  A    between atoms: S_1  and  C_14
REMARK                            x       y       z     vdW  Elec       q    Type
REMARK                         _______ _______ _______ _____ _____    ______ ____
ROOT
ATOM      1  S   UNL     1       0.110   0.140   1.218  0.00  0.00    +0.029 S 
ATOM      2  O   UNL     1      -0.363  -1.070   1.860  0.00  0.00    -0.167 OA
ATOM      3  O   UNL     1       0.371   1.352   1.970  0.00  0.00    -0.167 OA
ENDROOT
BRANCH   1   6
ATOM      4  N   UNL     1      -0.967   1.671  -0.801  0.00  0.00    -0.226 NA
ATOM      5  N   UNL     1      -2.986   0.849  -1.222  0.00  0.00    -0.231 NA
ATOM      6  C   UNL     1      -1.148   0.628   0.040  0.00  0.00    +0.258 C 
ATOM      7  C   UNL     1      -2.383   0.129  -0.221  0.00  0.00    +0.236 C 
ATOM      8  C   UNL     1      -2.107   1.770  -1.549  0.00  0.00    +0.204 C 
ATOM      9  C   UNL     1       0.188   2.530  -0.918  0.00  0.00    +0.093 C 
ATOM     10  O   UNL     1      -2.504  -1.603   1.296  0.00  0.00    -0.125 OA
ATOM     11  O   UNL     1      -4.221  -1.250  -0.026  0.00  0.00    -0.125 OA
ATOM     12  N   UNL     1      -3.059  -0.946   0.370  0.00  0.00    +0.074 N 
ENDBRANCH   1   6
BRANCH   1  14
ATOM     13 CL   UNL     1       2.898   1.687   1.614  0.00  0.00    -0.081 Cl
ATOM     14  C   UNL     1       1.539  -0.284   0.288  0.00  0.00    +0.114 C 
ATOM     15  C   UNL     1       1.461  -1.318  -0.645  0.00  0.00    -0.004 C 
ATOM     16  C   UNL     1       2.741   0.398   0.474  0.00  0.00    +0.074 C 
ATOM     17  C   UNL     1       2.585  -1.669  -1.392  0.00  0.00    -0.003 C 
ATOM     18  C   UNL     1       0.192  -2.074  -0.875  0.00  0.00    +0.032 C 
ATOM     19  C   UNL     1       3.865   0.046  -0.273  0.00  0.00    +0.013 C 
ATOM     20  C   UNL     1       3.787  -0.987  -1.206  0.00  0.00    +0.001 C 
ENDBRANCH   1  14
TORSDOF 2
