13135337
  -OEChem-03292013303D

 59 61  0     1  0  0  0  0  0999 V2000
   -1.7079   -1.6356   -0.0888 O   0  0  0  0  0  0  0  0  0  0  0  0
   -0.1859    2.0937    0.4115 O   0  0  0  0  0  0  0  0  0  0  0  0
    0.6768    3.3129   -1.2964 O   0  0  0  0  0  0  0  0  0  0  0  0
    3.9564   -3.9935    0.2827 O   0  0  0  0  0  0  0  0  0  0  0  0
    2.0899   -3.7553    1.5471 O   0  0  0  0  0  0  0  0  0  0  0  0
   -1.5344    0.4379   -1.1078 N   0  0  0  0  0  0  0  0  0  0  0  0
    0.9064   -2.1182   -0.1994 N   0  0  0  0  0  0  0  0  0  0  0  0
   -2.8576    0.8284   -0.7087 C   0  0  0  0  0  0  0  0  0  0  0  0
   -3.9414   -0.1089   -1.2738 C   0  0  0  0  0  0  0  0  0  0  0  0
   -3.0369    0.8421    0.8215 C   0  0  0  0  0  0  0  0  0  0  0  0
   -5.0141    0.0276   -0.2397 C   0  0  0  0  0  0  0  0  0  0  0  0
   -4.5022    0.5660    0.9462 C   0  0  0  0  0  0  0  0  0  0  0  0
   -1.0435   -0.8272   -0.7462 C   0  0  0  0  0  0  0  0  0  0  0  0
    0.3691   -1.1964   -1.1983 C   0  0  2  0  0  0  0  0  0  0  0  0
   -0.7659    1.4595   -1.8233 C   0  0  0  0  0  0  0  0  0  0  0  0
   -6.3444   -0.3442   -0.3394 C   0  0  0  0  0  0  0  0  0  0  0  0
   -5.3100    0.7438    2.0569 C   0  0  0  0  0  0  0  0  0  0  0  0
    2.2620   -2.5188   -0.5435 C   0  0  1  0  0  0  0  0  0  0  0  0
   -7.1691   -0.1574    0.7719 C   0  0  0  0  0  0  0  0  0  0  0  0
   -6.6557    0.3827    1.9615 C   0  0  0  0  0  0  0  0  0  0  0  0
    0.3643   -1.8730   -2.5681 C   0  0  0  0  0  0  0  0  0  0  0  0
    3.1547   -1.2721   -0.6173 C   0  0  0  0  0  0  0  0  0  0  0  0
   -0.0180    2.3855   -0.8992 C   0  0  0  0  0  0  0  0  0  0  0  0
    3.2578   -0.4838    0.6977 C   0  0  0  0  0  0  0  0  0  0  0  0
    2.7335   -3.4661    0.5458 C   0  0  0  0  0  0  0  0  0  0  0  0
    4.1951    0.6977    0.6472 C   0  0  0  0  0  0  0  0  0  0  0  0
    5.5297    0.5214    0.9781 C   0  0  0  0  0  0  0  0  0  0  0  0
    3.7055    1.9388    0.2711 C   0  0  0  0  0  0  0  0  0  0  0  0
    6.3963    1.6134    0.9314 C   0  0  0  0  0  0  0  0  0  0  0  0
    4.5721    3.0308    0.2246 C   0  0  0  0  0  0  0  0  0  0  0  0
    5.9175    2.8682    0.5547 C   0  0  0  0  0  0  0  0  0  0  0  0
   -3.0719    1.8437   -1.0748 H   0  0  0  0  0  0  0  0  0  0  0  0
   -4.2801    0.2466   -2.2529 H   0  0  0  0  0  0  0  0  0  0  0  0
   -3.6491   -1.1571   -1.3702 H   0  0  0  0  0  0  0  0  0  0  0  0
   -2.4667    0.0858    1.3659 H   0  0  0  0  0  0  0  0  0  0  0  0
   -2.7865    1.8270    1.2294 H   0  0  0  0  0  0  0  0  0  0  0  0
    0.9482   -0.2754   -1.2114 H   0  0  0  0  0  0  0  0  0  0  0  0
   -1.4478    2.0523   -2.4423 H   0  0  0  0  0  0  0  0  0  0  0  0
   -0.0436    0.9907   -2.4947 H   0  0  0  0  0  0  0  0  0  0  0  0
   -6.7408   -0.7717   -1.2541 H   0  0  0  0  0  0  0  0  0  0  0  0
   -4.9129    1.1509    2.9805 H   0  0  0  0  0  0  0  0  0  0  0  0
    0.3146   -2.9482   -0.1490 H   0  0  0  0  0  0  0  0  0  0  0  0
    2.3003   -3.0940   -1.4748 H   0  0  0  0  0  0  0  0  0  0  0  0
   -8.2177   -0.4378    0.7185 H   0  0  0  0  0  0  0  0  0  0  0  0
   -7.3116    0.5152    2.8178 H   0  0  0  0  0  0  0  0  0  0  0  0
   -0.2797   -1.3223   -3.2636 H   0  0  0  0  0  0  0  0  0  0  0  0
   -0.0386   -2.8917   -2.5202 H   0  0  0  0  0  0  0  0  0  0  0  0
    1.3591   -1.9083   -3.0224 H   0  0  0  0  0  0  0  0  0  0  0  0
    4.1704   -1.6133   -0.8670 H   0  0  0  0  0  0  0  0  0  0  0  0
    2.9004   -0.6106   -1.4525 H   0  0  0  0  0  0  0  0  0  0  0  0
    3.5832   -1.1438    1.5120 H   0  0  0  0  0  0  0  0  0  0  0  0
    2.2663   -0.1237    1.0014 H   0  0  0  0  0  0  0  0  0  0  0  0
    0.3112    2.7087    0.9919 H   0  0  0  0  0  0  0  0  0  0  0  0
    5.9124   -0.4524    1.2703 H   0  0  0  0  0  0  0  0  0  0  0  0
    2.6623    2.0722    0.0128 H   0  0  0  0  0  0  0  0  0  0  0  0
    4.2474   -4.6111    0.9870 H   0  0  0  0  0  0  0  0  0  0  0  0
    7.4441    1.4866    1.1878 H   0  0  0  0  0  0  0  0  0  0  0  0
    4.1990    4.0076   -0.0691 H   0  0  0  0  0  0  0  0  0  0  0  0
    6.5923    3.7184    0.5182 H   0  0  0  0  0  0  0  0  0  0  0  0
  1 13  2  0  0  0  0
  2 23  1  0  0  0  0
  2 53  1  0  0  0  0
  3 23  2  0  0  0  0
  4 25  1  0  0  0  0
  4 56  1  0  0  0  0
  5 25  2  0  0  0  0
  6  8  1  0  0  0  0
  6 13  1  0  0  0  0
  6 15  1  0  0  0  0
  7 14  1  0  0  0  0
  7 18  1  0  0  0  0
  7 42  1  0  0  0  0
  8  9  1  0  0  0  0
  8 10  1  0  0  0  0
  8 32  1  0  0  0  0
  9 11  1  0  0  0  0
  9 33  1  0  0  0  0
  9 34  1  0  0  0  0
 10 12  1  0  0  0  0
 10 35  1  0  0  0  0
 10 36  1  0  0  0  0
 11 12  1  0  0  0  0
 11 16  2  0  0  0  0
 12 17  2  0  0  0  0
 13 14  1  0  0  0  0
 14 21  1  0  0  0  0
 14 37  1  0  0  0  0
 15 23  1  0  0  0  0
 15 38  1  0  0  0  0
 15 39  1  0  0  0  0
 16 19  1  0  0  0  0
 16 40  1  0  0  0  0
 17 20  1  0  0  0  0
 17 41  1  0  0  0  0
 18 22  1  0  0  0  0
 18 25  1  0  0  0  0
 18 43  1  0  0  0  0
 19 20  2  0  0  0  0
 19 44  1  0  0  0  0
 20 45  1  0  0  0  0
 21 46  1  0  0  0  0
 21 47  1  0  0  0  0
 21 48  1  0  0  0  0
 22 24  1  0  0  0  0
 22 49  1  0  0  0  0
 22 50  1  0  0  0  0
 24 26  1  0  0  0  0
 24 51  1  0  0  0  0
 24 52  1  0  0  0  0
 26 27  2  0  0  0  0
 26 28  1  0  0  0  0
 27 29  1  0  0  0  0
 27 54  1  0  0  0  0
 28 30  2  0  0  0  0
 28 55  1  0  0  0  0
 29 31  2  0  0  0  0
 29 57  1  0  0  0  0
 30 31  1  0  0  0  0
 30 58  1  0  0  0  0
 31 59  1  0  0  0  0
M  END
> <PUBCHEM_COMPOUND_CID>
13135337

> <PUBCHEM_CONFORMER_RMSD>
1

> <PUBCHEM_CONFORMER_DIVERSEORDER>
6
92
3
68
21
80
90
96
10
40
46
7
66
98
61
32
28
38
15
45
87
53
73
83
75
22
74
34
20
70
85
25
76
11
72
41
47
30
63
78
79
44
93
16
54
13
14
56
82
84
69
33
43
42
97
23
81
48
86
65
26
5
55
39
58
35
67
62
8
57
17
49
94
4
37
91
12
88
9
52
64
50
77
89
51
36
95
60
18
59
29
27
71
24
1
19
2
31

> <PUBCHEM_MMFF94_PARTIAL_CHARGES>
41
1 -0.57
10 0.14
11 -0.14
12 -0.14
13 0.57
14 0.33
15 0.36
16 -0.15
17 -0.15
18 0.33
19 -0.15
2 -0.65
20 -0.15
23 0.66
24 0.14
25 0.66
26 -0.14
27 -0.15
28 -0.15
29 -0.15
3 -0.57
30 -0.15
31 -0.15
4 -0.65
40 0.15
41 0.15
42 0.36
44 0.15
45 0.15
5 -0.57
53 0.5
54 0.15
55 0.15
56 0.5
57 0.15
58 0.15
59 0.15
6 -0.66
7 -0.9
8 0.3
9 0.14

> <PUBCHEM_EFFECTIVE_ROTOR_COUNT>
11.6

> <PUBCHEM_PHARMACOPHORE_FEATURES>
12
1 1 acceptor
1 2 acceptor
1 3 acceptor
1 4 acceptor
1 5 acceptor
1 7 cation
1 7 donor
3 2 3 23 anion
3 4 5 25 anion
5 8 9 10 11 12 rings
6 11 12 16 17 19 20 rings
6 26 27 28 29 30 31 rings

> <PUBCHEM_HEAVY_ATOM_COUNT>
31

> <PUBCHEM_ATOM_DEF_STEREO_COUNT>
1

> <PUBCHEM_ATOM_UDEF_STEREO_COUNT>
1

> <PUBCHEM_BOND_DEF_STEREO_COUNT>
0

> <PUBCHEM_BOND_UDEF_STEREO_COUNT>
0

> <PUBCHEM_ISOTOPIC_ATOM_COUNT>
0

> <PUBCHEM_COMPONENT_COUNT>
1

> <PUBCHEM_CACTVS_TAUTO_COUNT>
1

> <PUBCHEM_CONFORMER_ID>
00C86DE900000006

> <PUBCHEM_MMFF94_ENERGY>
82.5194

> <PUBCHEM_FEATURE_SELFOVERLAP>
61.097

> <PUBCHEM_SHAPE_FINGERPRINT>
10670039 82 14045475418406488899
10674148 151 17346323726530571352
10693767 8 11025803153993014481
12035758 1 18041005072352072417
12596602 18 17775010093789024561
12977781 61 14781480740934183954
13140716 1 18193839481740798821
13540713 4 17970616398972397412
14028597 1 17917721209748296929
14114211 68 18336563689514003116
14114211 80 18196937888812974172
14341114 328 17917709102087276005
14565420 104 18412261761802862434
14765038 42 18198058278351401992
14790565 3 18266454498410113212
14840074 17 18410292557657485412
14849402 71 18411139092133795994
15183329 4 12895085019251581908
15297060 5 16845294976922225870
15328829 1 17774708879575346741
15420108 30 18060418049251373639
15840311 113 17916319264273000497
19319366 153 18342448262534014498
1979834 28 18259990387782151948
21033648 29 17676764276087557023
21623969 137 18260546740301913553
21716022 299 14331754105805655532
23559900 14 15502957306686494895
3178227 256 18408037408628541976
3411729 13 18273220789307307181
38570 142 18201446904315029230
392239 28 18335413573748244850
394071 54 18411141341942096585
4093350 32 17417824923727096871
5104073 3 18190741925746614689
5252454 2 18129924772349929848
5385378 56 18342451535647292714
57527293 21 18201712908819962351
6523845 18 18260553321214710756

> <PUBCHEM_SHAPE_MULTIPOLES>
598.66
16.26
3.99
1.74
11.5
2.52
-0.27
-7.3
9.19
-7.97
0.23
1.43
0.16
-0.49

> <PUBCHEM_SHAPE_SELFOVERLAP>
1269.683

> <PUBCHEM_SHAPE_VOLUME>
334.1

> <PUBCHEM_COORDINATE_TYPE>
2
5
10

$$$$
