REMARK  Name = 131387
REMARK  6 active torsions:
REMARK  status: ('A' for Active; 'I' for Inactive)
REMARK    1  A    between atoms: C_4  and  C_8
REMARK    2  A    between atoms: C_5  and  C_22
REMARK    3  A    between atoms: N_7  and  C_12
REMARK    4  A    between atoms: C_22  and  N_23
REMARK    5  A    between atoms: C_22  and  C_27
REMARK    6  A    between atoms: C_27  and  C_30
REMARK                            x       y       z     vdW  Elec       q    Type
REMARK                         _______ _______ _______ _____ _____    ______ ____
ROOT
ATOM      1  O   UNL     1       0.824  -1.911  -1.486  0.00  0.00    -0.273 OA
ATOM      2  O   UNL     1       3.355  -0.742  -1.854  0.00  0.00    -0.277 OA
ATOM      3  N   UNL     1       2.321  -1.234   0.176  0.00  0.00    -0.256 N 
ATOM      4  C   UNL     1       1.132  -1.778  -0.305  0.00  0.00    +0.246 C 
ATOM      5  C   UNL     1       3.358  -0.750  -0.625  0.00  0.00    +0.208 C 
ATOM      6  H   UNL     1       2.439  -1.187   1.152  0.00  0.00    +0.157 HD
ENDROOT
BRANCH   4   8
ATOM      7  N   UNL     1      -1.172  -2.132   0.348  0.00  0.00    -0.302 N 
ATOM      8  C   UNL     1       0.216  -2.190   0.805  0.00  0.00    +0.150 C 
ATOM      9  C   UNL     1       0.433  -3.664   1.153  0.00  0.00    +0.031 C 
ATOM     10  C   UNL     1      -0.516  -4.395   0.214  0.00  0.00    +0.024 C 
ATOM     11  C   UNL     1      -1.728  -3.471   0.147  0.00  0.00    +0.091 C 
BRANCH   7  12
ATOM     12  C   UNL     1      -1.925  -0.977   0.259  0.00  0.00    +0.048 C 
ATOM     13  C   UNL     1      -3.312  -1.014  -0.039  0.00  0.00    +0.015 C 
ATOM     14  C   UNL     1      -1.350   0.300   0.460  0.00  0.00    +0.015 C 
ATOM     15  C   UNL     1      -4.091   0.150  -0.135  0.00  0.00    +0.001 C 
ATOM     16  C   UNL     1      -3.480   1.410   0.073  0.00  0.00    +0.000 C 
ATOM     17  C   UNL     1      -2.109   1.468   0.369  0.00  0.00    +0.001 C 
ATOM     18  C   UNL     1      -5.462   0.092  -0.431  0.00  0.00    +0.000 C 
ATOM     19  C   UNL     1      -4.259   2.575  -0.023  0.00  0.00    +0.000 C 
ATOM     20  C   UNL     1      -6.221   1.260  -0.523  0.00  0.00    +0.000 C 
ATOM     21  C   UNL     1      -5.620   2.498  -0.319  0.00  0.00    +0.000 C 
ENDBRANCH   7  12
ENDBRANCH   4   8
BRANCH   5  22
ATOM     22  C   UNL     1       4.540  -0.247   0.202  0.00  0.00    +0.019 C 
BRANCH  22  23
ATOM     23  N   UNL     1       5.687  -1.104  -0.105  0.00  0.00    +0.388 N 
ATOM     24  H   UNL     1       5.460  -2.071   0.126  0.00  0.00    -0.089 HD
ATOM     25  H   UNL     1       6.493  -0.803   0.443  0.00  0.00    -0.089 HD
ATOM     26  H   UNL     1       5.906  -1.035  -1.099  0.00  0.00    -0.089 HD
ENDBRANCH  22  23
BRANCH  22  27
ATOM     27  C   UNL     1       4.877   1.211  -0.145  0.00  0.00    +0.029 C 
BRANCH  27  30
ATOM     28  N   UNL     1       3.514   3.251  -0.575  0.00  0.00    -0.319 N 
ATOM     29  N   UNL     1       1.989   3.223   1.040  0.00  0.00    -0.315 N 
ATOM     30  C   UNL     1       3.744   2.160   0.176  0.00  0.00    +0.036 C 
ATOM     31  C   UNL     1       2.821   2.137   1.157  0.00  0.00    +0.069 C 
ATOM     32  C   UNL     1       2.434   3.873  -0.013  0.00  0.00    +0.182 C 
ATOM     33  H   UNL     1       4.021   3.543  -1.367  0.00  0.00    +0.148 HD
ATOM     34  H   UNL     1       1.227   3.461   1.616  0.00  0.00    +0.148 HD
ENDBRANCH  27  30
ENDBRANCH  22  27
ENDBRANCH   5  22
TORSDOF 6
