131363
  -OEChem-03292013323D

 42 43  0     1  0  0  0  0  0999 V2000
   -2.1220   -4.2712    0.7522 Cl  0  0  0  0  0  0  0  0  0  0  0  0
   -2.1615    1.3209   -0.1486 O   0  0  0  0  0  0  0  0  0  0  0  0
    3.9285    0.7415   -1.0241 O   0  0  0  0  0  0  0  0  0  0  0  0
   -1.3955    2.3277    1.7901 O   0  0  0  0  0  0  0  0  0  0  0  0
    2.3246   -1.5695    2.0527 O   0  0  0  0  0  0  0  0  0  0  0  0
    2.1717    0.0923    0.3924 N   0  0  0  0  0  0  0  0  0  0  0  0
    2.0310    1.9875   -1.0345 N   0  0  0  0  0  0  0  0  0  0  0  0
    4.2283   -0.9266    0.9912 N   0  0  0  0  0  0  0  0  0  0  0  0
    0.6955    0.1209    0.5617 C   0  0  1  0  0  0  0  0  0  0  0  0
    0.1052    1.4538    0.1771 C   0  0  0  0  0  0  0  0  0  0  0  0
    0.0244   -1.0348   -0.1762 C   0  0  0  0  0  0  0  0  0  0  0  0
    0.7616    2.3137   -0.6172 C   0  0  0  0  0  0  0  0  0  0  0  0
    2.7895    0.9169   -0.5826 C   0  0  0  0  0  0  0  0  0  0  0  0
   -1.2253    1.7642    0.7247 C   0  0  0  0  0  0  0  0  0  0  0  0
   -0.6598   -2.0066    0.5445 C   0  0  0  0  0  0  0  0  0  0  0  0
    0.1039   -1.1033   -1.5623 C   0  0  0  0  0  0  0  0  0  0  0  0
    0.2557    3.6242   -1.1489 C   0  0  0  0  0  0  0  0  0  0  0  0
    2.8659   -0.8538    1.2055 C   0  0  0  0  0  0  0  0  0  0  0  0
   -3.5178    1.5521    0.2463 C   0  0  0  0  0  0  0  0  0  0  0  0
   -1.2733   -3.0620   -0.1305 C   0  0  0  0  0  0  0  0  0  0  0  0
   -0.5096   -2.1585   -2.2372 C   0  0  0  0  0  0  0  0  0  0  0  0
   -1.1983   -3.1378   -1.5214 C   0  0  0  0  0  0  0  0  0  0  0  0
   -4.4502    1.0351   -0.8386 C   0  0  0  0  0  0  0  0  0  0  0  0
   -3.7727    0.8735    1.5835 C   0  0  0  0  0  0  0  0  0  0  0  0
    0.5149   -0.0031    1.6390 H   0  0  0  0  0  0  0  0  0  0  0  0
    2.4747    2.6187   -1.6966 H   0  0  0  0  0  0  0  0  0  0  0  0
   -0.7200   -1.9463    1.6284 H   0  0  0  0  0  0  0  0  0  0  0  0
    0.6345   -0.3554   -2.1427 H   0  0  0  0  0  0  0  0  0  0  0  0
   -0.7610    3.8500   -0.8140 H   0  0  0  0  0  0  0  0  0  0  0  0
    0.2457    3.6129   -2.2441 H   0  0  0  0  0  0  0  0  0  0  0  0
    0.9017    4.4440   -0.8168 H   0  0  0  0  0  0  0  0  0  0  0  0
   -3.6782    2.6336    0.3406 H   0  0  0  0  0  0  0  0  0  0  0  0
   -0.4510   -2.2178   -3.3201 H   0  0  0  0  0  0  0  0  0  0  0  0
   -1.6714   -3.9543   -2.0607 H   0  0  0  0  0  0  0  0  0  0  0  0
   -5.4990    1.2201   -0.5878 H   0  0  0  0  0  0  0  0  0  0  0  0
   -4.2280    1.5209   -1.7949 H   0  0  0  0  0  0  0  0  0  0  0  0
   -4.3090   -0.0405   -0.9928 H   0  0  0  0  0  0  0  0  0  0  0  0
   -4.8487    0.7699    1.7637 H   0  0  0  0  0  0  0  0  0  0  0  0
   -3.3845    1.4377    2.4348 H   0  0  0  0  0  0  0  0  0  0  0  0
   -3.3239   -0.1255    1.6165 H   0  0  0  0  0  0  0  0  0  0  0  0
    4.8002   -1.5727    1.5253 H   0  0  0  0  0  0  0  0  0  0  0  0
    4.7162   -0.3490    0.3171 H   0  0  0  0  0  0  0  0  0  0  0  0
  1 20  1  0  0  0  0
  2 14  1  0  0  0  0
  2 19  1  0  0  0  0
  3 13  2  0  0  0  0
  4 14  2  0  0  0  0
  5 18  2  0  0  0  0
  6  9  1  0  0  0  0
  6 13  1  0  0  0  0
  6 18  1  0  0  0  0
  7 12  1  0  0  0  0
  7 13  1  0  0  0  0
  7 26  1  0  0  0  0
  8 18  1  0  0  0  0
  8 41  1  0  0  0  0
  8 42  1  0  0  0  0
  9 10  1  0  0  0  0
  9 11  1  0  0  0  0
  9 25  1  0  0  0  0
 10 12  2  0  0  0  0
 10 14  1  0  0  0  0
 11 15  2  0  0  0  0
 11 16  1  0  0  0  0
 12 17  1  0  0  0  0
 15 20  1  0  0  0  0
 15 27  1  0  0  0  0
 16 21  2  0  0  0  0
 16 28  1  0  0  0  0
 17 29  1  0  0  0  0
 17 30  1  0  0  0  0
 17 31  1  0  0  0  0
 19 23  1  0  0  0  0
 19 24  1  0  0  0  0
 19 32  1  0  0  0  0
 20 22  2  0  0  0  0
 21 22  1  0  0  0  0
 21 33  1  0  0  0  0
 22 34  1  0  0  0  0
 23 35  1  0  0  0  0
 23 36  1  0  0  0  0
 23 37  1  0  0  0  0
 24 38  1  0  0  0  0
 24 39  1  0  0  0  0
 24 40  1  0  0  0  0
M  END
> <PUBCHEM_COMPOUND_CID>
131363

> <PUBCHEM_CONFORMER_RMSD>
0.8

> <PUBCHEM_CONFORMER_DIVERSEORDER>
7
26
52
33
16
31
29
58
51
23
14
2
40
55
32
56
19
10
15
34
36
9
53
37
49
6
44
41
42
22
20
18
45
54
13
46
24
43
27
30
4
50
35
17
47
57
11
21
48
39
12
8
25
5
28
3
38
1

> <PUBCHEM_MMFF94_PARTIAL_CHARGES>
29
1 -0.18
10 -0.12
11 -0.14
12 -0.03
13 0.69
14 0.71
15 -0.15
16 -0.15
17 0.14
18 0.69
19 0.28
2 -0.43
20 0.18
21 -0.15
22 -0.15
26 0.37
27 0.15
28 0.15
3 -0.57
33 0.15
34 0.15
4 -0.57
41 0.37
42 0.37
5 -0.57
6 -0.42
7 -0.54
8 -0.8
9 0.58

> <PUBCHEM_EFFECTIVE_ROTOR_COUNT>
5.6

> <PUBCHEM_PHARMACOPHORE_FEATURES>
8
1 3 acceptor
1 4 acceptor
1 5 acceptor
1 7 donor
1 8 donor
3 19 23 24 hydrophobe
6 11 15 16 20 21 22 rings
6 6 7 9 10 12 13 rings

> <PUBCHEM_HEAVY_ATOM_COUNT>
24

> <PUBCHEM_ATOM_DEF_STEREO_COUNT>
0

> <PUBCHEM_ATOM_UDEF_STEREO_COUNT>
1

> <PUBCHEM_BOND_DEF_STEREO_COUNT>
0

> <PUBCHEM_BOND_UDEF_STEREO_COUNT>
0

> <PUBCHEM_ISOTOPIC_ATOM_COUNT>
0

> <PUBCHEM_COMPONENT_COUNT>
1

> <PUBCHEM_CACTVS_TAUTO_COUNT>
6

> <PUBCHEM_CONFORMER_ID>
0002012300000007

> <PUBCHEM_MMFF94_ENERGY>
64.8613

> <PUBCHEM_FEATURE_SELFOVERLAP>
40.596

> <PUBCHEM_SHAPE_FINGERPRINT>
104564 63 17765169645103728957
10759866 29 18044100283230367621
12788726 201 18198058290471023143
13083527 12 17472957529458082291
13140716 1 18337946913443276200
13538477 17 18408884070566559336
13583140 156 17604439595197444473
14178342 30 18120359115509306528
14863182 85 17988360356814001037
15210252 30 16817401694856148085
16752209 62 18199744902658542271
16945 1 18189333635623888645
17492 54 18407757049684218133
17980427 26 16370989841423655601
19591789 44 17762332514357657442
20691752 17 18123489184341714965
20739085 24 17976007304584161569
20905425 154 17764602301361730101
21041028 32 17762904667955936982
22112679 90 18336813282568550056
229495 10 17095509674266363342
22956985 138 17618221711422565163
23419403 2 16193460452150872895
23558518 356 17758408747814910116
23598288 3 18126572442553164622
3060560 45 18411143493826408765
34934 24 18334859450416950868
352729 6 18272384099871744717
5845 1 14389117512685197670
81228 2 18053625236392549354

> <PUBCHEM_SHAPE_MULTIPOLES>
457.36
5.7
4.65
1.76
0.47
1.78
0.11
-0.96
-1.05
-3.28
0.42
-0.02
0.55
-1.44

> <PUBCHEM_SHAPE_SELFOVERLAP>
959.197

> <PUBCHEM_SHAPE_VOLUME>
257.7

> <PUBCHEM_COORDINATE_TYPE>
2
5
10

$$$$
