REMARK  Name = 131351
REMARK  10 active torsions:
REMARK  status: ('A' for Active; 'I' for Inactive)
REMARK    1  A    between atoms: C_1  and  C_2
REMARK    2  A    between atoms: C_1  and  C_11
REMARK    3  A    between atoms: C_2  and  S_3
REMARK    4  A    between atoms: S_3  and  N_5
REMARK    5  A    between atoms: S_3  and  C_7
REMARK    6  A    between atoms: C_7  and  C_9
REMARK    7  A    between atoms: C_11  and  N_12
REMARK    8  A    between atoms: C_11  and  C_17
REMARK    9  A    between atoms: C_17  and  O_18
REMARK   10  A    between atoms: O_18  and  C_19
REMARK                            x       y       z     vdW  Elec       q    Type
REMARK                         _______ _______ _______ _____ _____    ______ ____
ROOT
ATOM      1  C   UNL     1       0.687   1.412   0.675  0.00  0.00    +0.003 C 
ENDROOT
BRANCH   1   2
ATOM      2  C   UNL     1      -0.439   0.787  -0.143  0.00  0.00    +0.081 C 
BRANCH   2   3
ATOM      3  S   UNL     1      -1.908   0.615   0.822  0.00  0.00    -0.013 S 
ATOM      4  O   UNL     1      -2.407   1.954   1.094  0.00  0.00    -0.156 OA
BRANCH   3   5
ATOM      5  N   UNL     1      -1.626  -0.461   1.900  0.00  0.00    -0.183 NA
ATOM      6  H   UNL     1      -2.328  -0.705   2.546  0.00  0.00    +0.156 HD
ENDBRANCH   3   5
BRANCH   3   7
ATOM      7  C   UNL     1      -3.050  -0.121  -0.328  0.00  0.00    +0.071 C 
ATOM      8  C   UNL     1      -4.393  -0.340   0.362  0.00  0.00    +0.014 C 
BRANCH   7   9
ATOM      9  C   UNL     1      -2.510  -1.440  -0.890  0.00  0.00    +0.013 C 
ATOM     10  C   UNL     1      -3.428  -2.075  -1.927  0.00  0.00    +0.001 C 
ENDBRANCH   7   9
ENDBRANCH   3   7
ENDBRANCH   2   3
ENDBRANCH   1   2
BRANCH   1  11
ATOM     11  C   UNL     1       1.993   1.624  -0.103  0.00  0.00    +0.037 C 
BRANCH  11  12
ATOM     12  N   UNL     1       1.786   2.491  -1.262  0.00  0.00    +0.389 N 
ATOM     13  H   UNL     1       1.386   3.378  -0.957  0.00  0.00    -0.088 HD
ATOM     14  H   UNL     1       1.149   2.037  -1.916  0.00  0.00    -0.088 HD
ATOM     15  H   UNL     1       2.681   2.662  -1.722  0.00  0.00    -0.088 HD
ENDBRANCH  11  12
BRANCH  11  17
ATOM     16  O   UNL     1       2.788   0.017  -1.758  0.00  0.00    -0.252 OA
ATOM     17  C   UNL     1       2.589   0.314  -0.587  0.00  0.00    +0.296 C 
BRANCH  17  18
ATOM     18  O   UNL     1       2.855  -0.486   0.489  0.00  0.00    -0.450 OA
BRANCH  18  19
ATOM     19  C   UNL     1       3.413  -1.768   0.183  0.00  0.00    +0.208 C 
ATOM     20  C   UNL     1       3.648  -2.524   1.473  0.00  0.00    +0.051 C 
ENDBRANCH  18  19
ENDBRANCH  17  18
ENDBRANCH  11  17
ENDBRANCH   1  11
TORSDOF 10
