REMARK  Name = 131450
REMARK  9 active torsions:
REMARK  status: ('A' for Active; 'I' for Inactive)
REMARK    1  A    between atoms: N_1  and  C1*_12
REMARK    2  A    between atoms: C_8  and  O_25
REMARK    3  A    between atoms: C2*_11  and  O2*_15
REMARK    4  A    between atoms: C3*_13  and  O3*_17
REMARK    5  A    between atoms: C4*_14  and  C5*_19
REMARK    6  A    between atoms: C5*_19  and  O5*_20
REMARK    7  A    between atoms: O_25  and  C_26
REMARK    8  A    between atoms: C_26  and  C_27
REMARK    9  A    between atoms: C_27  and  C_28
REMARK                            x       y       z     vdW  Elec       q    Type
REMARK                         _______ _______ _______ _____ _____    ______ ____
ROOT
ATOM      1  N   UNL     1       2.368   0.611   0.186  0.00  0.00    -0.236 N 
ATOM      2  N   UNL     1       2.204   2.834   0.223  0.00  0.00    -0.240 NA
ATOM      3  N   UNL     1       0.052   0.029  -0.257  0.00  0.00    -0.294 NA
ATOM      4  N   UNL     1      -1.341   2.024  -0.453  0.00  0.00    -0.295 NA
ATOM      5  C   UNL     1       1.053   0.897  -0.047  0.00  0.00    +0.223 C 
ATOM      6  C   UNL     1       3.019   1.807   0.342  0.00  0.00    +0.224 C 
ATOM      7  C   UNL     1       0.972   2.280  -0.021  0.00  0.00    +0.167 C 
ATOM      8  C   UNL     1      -1.117   0.684  -0.452  0.00  0.00    +0.313 C 
ATOM      9  C   UNL     1      -0.283   2.841  -0.235  0.00  0.00    +0.214 C 
ATOM     10  N   UNL     1      -0.457   4.236  -0.224  0.00  0.00    -0.331 N 
ATOM     11  H   UNL     1      -1.350   4.621  -0.377  0.00  0.00    +0.145 HD
ATOM     12  H   UNL     1       0.314   4.827  -0.064  0.00  0.00    +0.145 HD
ENDROOT
BRANCH   1  15
ATOM     13  O4* UNL     1       4.054  -0.700   1.219  0.00  0.00    -0.333 OA
ATOM     14  C2* UNL     1       3.577  -1.201  -1.046  0.00  0.00    +0.187 C 
ATOM     15  C1* UNL     1       2.976  -0.715   0.264  0.00  0.00    +0.226 C 
ATOM     16  C3* UNL     1       4.618  -2.186  -0.553  0.00  0.00    +0.171 C 
ATOM     17  C4* UNL     1       5.143  -1.503   0.706  0.00  0.00    +0.175 C 
BRANCH  14  18
ATOM     18  O2* UNL     1       2.606  -1.794  -1.883  0.00  0.00    -0.378 OA
ATOM     19  H2* UNL     1       1.968  -1.120  -2.167  0.00  0.00    +0.211 HD
ENDBRANCH  14  18
BRANCH  16  20
ATOM     20  O3* UNL     1       3.979  -3.408  -0.182  0.00  0.00    -0.379 OA
ATOM     21  H3* UNL     1       3.642  -3.850  -0.976  0.00  0.00    +0.211 HD
ENDBRANCH  16  20
BRANCH  17  22
ATOM     22  C5* UNL     1       6.328  -0.587   0.434  0.00  0.00    +0.169 C 
BRANCH  22  23
ATOM     23  O5* UNL     1       6.733   0.005   1.655  0.00  0.00    -0.379 OA
ATOM     24  H5* UNL     1       7.488   0.592   1.495  0.00  0.00    +0.211 HD
ENDBRANCH  22  23
ENDBRANCH  17  22
ENDBRANCH   1  15
BRANCH   8  25
ATOM     25  O   UNL     1      -2.214  -0.105  -0.682  0.00  0.00    -0.400 OA
BRANCH  25  26
ATOM     26  C   UNL     1      -3.238   0.444  -1.499  0.00  0.00    +0.223 C 
BRANCH  26  27
ATOM     27  C   UNL     1      -4.361  -0.571  -1.611  0.00  0.00    +0.049 C 
BRANCH  27  28
ATOM     28  C   UNL     1      -4.959  -0.898  -0.245  0.00  0.00    +0.004 C 
ATOM     29  C   UNL     1      -6.001  -2.019  -0.363  0.00  0.00    +0.000 C 
ATOM     30  C   UNL     1      -5.575   0.355   0.392  0.00  0.00    +0.000 C 
ATOM     31  C   UNL     1      -6.653  -2.327   0.983  0.00  0.00    +0.000 C 
ATOM     32  C   UNL     1      -6.227   0.043   1.736  0.00  0.00    +0.000 C 
ATOM     33  C   UNL     1      -7.256  -1.077   1.616  0.00  0.00    +0.000 C 
ENDBRANCH  27  28
ENDBRANCH  26  27
ENDBRANCH  25  26
ENDBRANCH   8  25
TORSDOF 9
