REMARK  Name = 131499
REMARK  11 active torsions:
REMARK  status: ('A' for Active; 'I' for Inactive)
REMARK    1  A    between atoms: N_2  and  C_17
REMARK    2  A    between atoms: C_3  and  C_5
REMARK    3  A    between atoms: C_5  and  C_6
REMARK    4  A    between atoms: C_5  and  C_10
REMARK    5  A    between atoms: C_6  and  C_7
REMARK    6  A    between atoms: C_10  and  C_13
REMARK    7  A    between atoms: N_12  and  O_15
REMARK    8  A    between atoms: C_17  and  C_20
REMARK    9  A    between atoms: C_17  and  C_29
REMARK   10  A    between atoms: N_19  and  C_22
REMARK   11  A    between atoms: C_22  and  C_23
REMARK                            x       y       z     vdW  Elec       q    Type
REMARK                         _______ _______ _______ _____ _____    ______ ____
ROOT
ATOM      1  O   UNL     1       0.339  -0.382  -1.621  0.00  0.00    -0.275 OA
ATOM      2  N   UNL     1       0.956   1.246  -0.090  0.00  0.00    -0.298 N 
ATOM      3  C   UNL     1       1.104   0.040  -0.755  0.00  0.00    +0.223 C 
ATOM      4  H   UNL     1       1.623   1.497   0.589  0.00  0.00    +0.150 HD
ENDROOT
BRANCH   3   5
ATOM      5  C   UNL     1       2.331  -0.763  -0.327  0.00  0.00    +0.086 C 
BRANCH   5   6
ATOM      6  C   UNL     1       2.100  -2.285  -0.431  0.00  0.00    +0.010 C 
BRANCH   6   7
ATOM      7  C   UNL     1       1.363  -2.917   0.769  0.00  0.00    +0.000 C 
ATOM      8  C   UNL     1       1.213  -4.433   0.632  0.00  0.00    +0.000 C 
ATOM      9  C   UNL     1      -0.019  -2.275   0.920  0.00  0.00    +0.000 C 
ENDBRANCH   6   7
ENDBRANCH   5   6
BRANCH   5  10
ATOM     10  C   UNL     1       3.559  -0.329  -1.148  0.00  0.00    +0.096 C 
BRANCH  10  13
ATOM     11  O   UNL     1       5.436  -1.696  -0.540  0.00  0.00    -0.273 OA
ATOM     12  N   UNL     1       5.266   0.420   0.378  0.00  0.00    -0.197 N 
ATOM     13  C   UNL     1       4.855  -0.620  -0.417  0.00  0.00    +0.245 C 
ATOM     14  H   UNL     1       4.760   1.262   0.439  0.00  0.00    +0.182 HD
BRANCH  12  15
ATOM     15  O   UNL     1       6.450   0.208   1.096  0.00  0.00    -0.295 OA
ATOM     16  H   UNL     1       6.653   0.996   1.623  0.00  0.00    +0.241 HD
ENDBRANCH  12  15
ENDBRANCH  10  13
ENDBRANCH   5  10
ENDBRANCH   3   5
BRANCH   2  17
ATOM     17  C   UNL     1      -0.139   2.149  -0.355  0.00  0.00    +0.148 C 
BRANCH  17  20
ATOM     18  O   UNL     1      -1.213   1.246   1.624  0.00  0.00    -0.273 OA
ATOM     19  N   UNL     1      -2.541   1.923  -0.155  0.00  0.00    -0.299 N 
ATOM     20  C   UNL     1      -1.332   1.706   0.490  0.00  0.00    +0.241 C 
ATOM     21  H   UNL     1      -2.527   2.297  -1.066  0.00  0.00    +0.150 HD
BRANCH  19  22
ATOM     22  C   UNL     1      -3.819   1.624   0.448  0.00  0.00    +0.116 C 
BRANCH  22  23
ATOM     23  C   UNL     1      -4.265   0.221   0.155  0.00  0.00    -0.003 C 
ATOM     24  C   UNL     1      -5.033  -0.044  -0.980  0.00  0.00    -0.003 C 
ATOM     25  C   UNL     1      -3.912  -0.818   1.016  0.00  0.00    -0.003 C 
ATOM     26  C   UNL     1      -5.447  -1.348  -1.252  0.00  0.00    -0.000 C 
ATOM     27  C   UNL     1      -4.326  -2.122   0.743  0.00  0.00    -0.000 C 
ATOM     28  C   UNL     1      -5.094  -2.387  -0.392  0.00  0.00    -0.000 C 
ENDBRANCH  22  23
ENDBRANCH  19  22
ENDBRANCH  17  20
BRANCH  17  29
ATOM     29  C   UNL     1       0.224   3.630  -0.120  0.00  0.00    +0.027 C 
ATOM     30  C   UNL     1       0.565   3.942   1.341  0.00  0.00    +0.002 C 
ATOM     31  C   UNL     1       1.379   4.064  -1.028  0.00  0.00    +0.002 C 
ENDBRANCH  17  29
ENDBRANCH   2  17
TORSDOF 11
