REMARK  Name = 131477
REMARK  8 active torsions:
REMARK  status: ('A' for Active; 'I' for Inactive)
REMARK    1  A    between atoms: C_1  and  N_3
REMARK    2  A    between atoms: C_1  and  C_15
REMARK    3  A    between atoms: C_1  and  C_23
REMARK    4  A    between atoms: C_4  and  C_7
REMARK    5  A    between atoms: N_14  and  C_17
REMARK    6  A    between atoms: C_17  and  C_20
REMARK    7  A    between atoms: C_23  and  C_24
REMARK    8  A    between atoms: C_29  and  O_30
REMARK                            x       y       z     vdW  Elec       q    Type
REMARK                         _______ _______ _______ _____ _____    ______ ____
ROOT
ATOM      1  C   UNL     1       0.963  -0.019  -0.068  0.00  0.00    +0.153 C 
ENDROOT
BRANCH   1   3
ATOM      2  O   UNL     1      -0.974  -1.512  -1.633  0.00  0.00    -0.277 OA
ATOM      3  N   UNL     1      -0.017  -0.959   0.416  0.00  0.00    -0.300 N 
ATOM      4  C   UNL     1      -0.905  -1.627  -0.412  0.00  0.00    +0.203 C 
ATOM      5  H   UNL     1      -0.057  -1.134   1.384  0.00  0.00    +0.150 HD
BRANCH   4   7
ATOM      6  N   UNL     1      -2.992  -1.807   0.720  0.00  0.00    +0.391 N 
ATOM      7  C   UNL     1      -1.795  -2.559   0.343  0.00  0.00    +0.017 C 
ATOM      8  C   UNL     1      -2.281  -3.730  -0.507  0.00  0.00    -0.015 C 
ATOM      9  C   UNL     1      -3.795  -3.578  -0.546  0.00  0.00    -0.025 C 
ATOM     10  C   UNL     1      -4.099  -2.758   0.690  0.00  0.00    -0.081 C 
ATOM     11  H   UNL     1      -3.158  -1.051   0.055  0.00  0.00    -0.084 HD
ATOM     12  H   UNL     1      -2.890  -1.386   1.643  0.00  0.00    -0.084 HD
ENDBRANCH   4   7
ENDBRANCH   1   3
BRANCH   1  15
ATOM     13  O   UNL     1       2.569  -1.248   1.269  0.00  0.00    -0.273 OA
ATOM     14  N   UNL     1       3.258  -0.337  -0.754  0.00  0.00    -0.295 N 
ATOM     15  C   UNL     1       2.338  -0.596   0.253  0.00  0.00    +0.241 C 
ATOM     16  H   UNL     1       2.966   0.198  -1.527  0.00  0.00    +0.150 HD
BRANCH  14  17
ATOM     17  C   UNL     1       4.622  -0.813  -0.723  0.00  0.00    +0.175 C 
BRANCH  17  20
ATOM     18  O   UNL     1       5.105   1.297   0.362  0.00  0.00    -0.273 OA
ATOM     19  N   UNL     1       6.818  -0.201   0.031  0.00  0.00    -0.327 N 
ATOM     20  C   UNL     1       5.503   0.208  -0.041  0.00  0.00    +0.239 C 
ATOM     21  H   UNL     1       7.491   0.380   0.455  0.00  0.00    +0.145 HD
ATOM     22  H   UNL     1       7.084  -1.072  -0.341  0.00  0.00    +0.145 HD
ENDBRANCH  17  20
ENDBRANCH  14  17
ENDBRANCH   1  15
BRANCH   1  23
ATOM     23  C   UNL     1       0.804   1.365   0.570  0.00  0.00    +0.055 C 
BRANCH  23  24
ATOM     24  C   UNL     1      -0.553   1.975   0.311  0.00  0.00    -0.020 C 
ATOM     25  C   UNL     1      -0.757   2.770  -0.817  0.00  0.00    -0.001 C 
ATOM     26  C   UNL     1      -1.602   1.742   1.200  0.00  0.00    -0.001 C 
ATOM     27  C   UNL     1      -2.010   3.332  -1.056  0.00  0.00    +0.036 C 
ATOM     28  C   UNL     1      -2.856   2.305   0.961  0.00  0.00    +0.036 C 
ATOM     29  C   UNL     1      -3.060   3.100  -0.167  0.00  0.00    +0.134 C 
BRANCH  29  30
ATOM     30  O   UNL     1      -4.284   3.648  -0.401  0.00  0.00    -0.506 OA
ATOM     31  H   UNL     1      -4.421   4.183  -1.158  0.00  0.00    +0.292 HD
ENDBRANCH  29  30
ENDBRANCH  23  24
ENDBRANCH   1  23
TORSDOF 8
