REMARK  Name = 131432
REMARK  9 active torsions:
REMARK  status: ('A' for Active; 'I' for Inactive)
REMARK    1  A    between atoms: N_1  and  C1*_12
REMARK    2  A    between atoms: C_9  and  O_25
REMARK    3  A    between atoms: C2*_11  and  O2*_15
REMARK    4  A    between atoms: C3*_13  and  O3*_17
REMARK    5  A    between atoms: C4*_14  and  C5*_19
REMARK    6  A    between atoms: C5*_19  and  O5*_20
REMARK    7  A    between atoms: O_25  and  C_26
REMARK    8  A    between atoms: C_26  and  C_27
REMARK    9  A    between atoms: C_27  and  C_28
REMARK                            x       y       z     vdW  Elec       q    Type
REMARK                         _______ _______ _______ _____ _____    ______ ____
ROOT
ATOM      1  N   UNL     1      -2.915  -0.645  -0.674  0.00  0.00    -0.236 N 
ATOM      2  N   UNL     1      -3.138  -2.860  -0.823  0.00  0.00    -0.240 NA
ATOM      3  N   UNL     1      -0.629  -0.512   0.138  0.00  0.00    -0.294 NA
ATOM      4  N   UNL     1       0.347  -2.732   0.411  0.00  0.00    -0.295 NA
ATOM      5  C   UNL     1      -1.721  -1.175  -0.269  0.00  0.00    +0.223 C 
ATOM      6  C   UNL     1      -3.732  -1.697  -0.995  0.00  0.00    +0.224 C 
ATOM      7  C   UNL     1      -1.880  -2.548  -0.369  0.00  0.00    +0.167 C 
ATOM      8  C   UNL     1      -0.791  -3.335  -0.010  0.00  0.00    +0.214 C 
ATOM      9  C   UNL     1       0.357  -1.378   0.459  0.00  0.00    +0.313 C 
ATOM     10  N   UNL     1      -0.864  -4.737  -0.080  0.00  0.00    -0.331 N 
ATOM     11  H   UNL     1      -0.087  -5.284   0.177  0.00  0.00    +0.145 HD
ATOM     12  H   UNL     1      -1.693  -5.172  -0.385  0.00  0.00    +0.145 HD
ENDROOT
BRANCH   1  15
ATOM     13  O4* UNL     1      -2.100   1.541  -1.116  0.00  0.00    -0.333 OA
ATOM     14  C2* UNL     1      -3.793   1.343   0.574  0.00  0.00    +0.187 C 
ATOM     15  C1* UNL     1      -3.266   0.775  -0.745  0.00  0.00    +0.226 C 
ATOM     16  C3* UNL     1      -2.604   2.124   1.103  0.00  0.00    +0.171 C 
ATOM     17  C4* UNL     1      -1.947   2.616  -0.175  0.00  0.00    +0.175 C 
BRANCH  14  18
ATOM     18  O2* UNL     1      -4.898   2.204   0.306  0.00  0.00    -0.378 OA
ATOM     19  H2* UNL     1      -5.642   1.680  -0.030  0.00  0.00    +0.211 HD
ENDBRANCH  14  18
BRANCH  16  20
ATOM     20  O3* UNL     1      -2.965   3.187   1.958  0.00  0.00    -0.379 OA
ATOM     21  H3* UNL     1      -3.380   2.830   2.759  0.00  0.00    +0.211 HD
ENDBRANCH  16  20
BRANCH  17  22
ATOM     22  C5* UNL     1      -0.475   2.948  -0.009  0.00  0.00    +0.169 C 
BRANCH  22  23
ATOM     23  O5* UNL     1       0.035   3.384  -1.258  0.00  0.00    -0.379 OA
ATOM     24  H5* UNL     1       0.976   3.599  -1.165  0.00  0.00    +0.211 HD
ENDBRANCH  22  23
ENDBRANCH  17  22
ENDBRANCH   1  15
BRANCH   9  25
ATOM     25  O   UNL     1       1.535  -0.807   0.888  0.00  0.00    -0.399 OA
BRANCH  25  26
ATOM     26  C   UNL     1       2.584  -1.701   1.230  0.00  0.00    +0.227 C 
BRANCH  26  27
ATOM     27  C   UNL     1       3.803  -0.912   1.694  0.00  0.00    +0.075 C 
BRANCH  27  28
ATOM     28  C   UNL     1       4.346  -0.007   0.614  0.00  0.00    -0.018 C 
ATOM     29  C   UNL     1       5.312  -0.490  -0.254  0.00  0.00    -0.004 C 
ATOM     30  C   UNL     1       3.869   1.290   0.511  0.00  0.00    -0.004 C 
ATOM     31  C   UNL     1       5.814   0.346  -1.252  0.00  0.00    -0.000 C 
ATOM     32  C   UNL     1       4.371   2.126  -0.487  0.00  0.00    -0.000 C 
ATOM     33  C   UNL     1       5.343   1.654  -1.368  0.00  0.00    -0.000 C 
ENDBRANCH  27  28
ENDBRANCH  26  27
ENDBRANCH  25  26
ENDBRANCH   9  25
TORSDOF 9
