REMARK  Name = 131409
REMARK  12 active torsions:
REMARK  status: ('A' for Active; 'I' for Inactive)
REMARK    1  A    between atoms: N_1  and  CA_4
REMARK    2  A    between atoms: N_1  and  CA_14
REMARK    3  A    between atoms: CA_4  and  C_6
REMARK    4  A    between atoms: CA_4  and  CB_9
REMARK    5  A    between atoms: C_6  and  O_7
REMARK    6  A    between atoms: CB_9  and  CG_11
REMARK    7  A    between atoms: CG_11  and  OD1_12
REMARK    8  A    between atoms: CA_14  and  C_16
REMARK    9  A    between atoms: CA_14  and  CB_19
REMARK   10  A    between atoms: C_16  and  O_17
REMARK   11  A    between atoms: CB_19  and  CG_21
REMARK   12  A    between atoms: CG_21  and  OD1_22
REMARK                            x       y       z     vdW  Elec       q    Type
REMARK                         _______ _______ _______ _____ _____    ______ ____
ROOT
ATOM      1  N   ASP A   1      -0.004   0.002   1.097  0.00  0.00    +0.401 N 
ATOM      2  H1  ASP A   1       0.087   0.831   1.684  0.00  0.00    -0.083 HD
ATOM      3  H2  ASP A   1      -0.097  -0.833   1.676  0.00  0.00    -0.083 HD
ENDROOT
BRANCH   1   4
ATOM      4  CA  ASP A   1       1.194  -0.133   0.268  0.00  0.00    +0.052 C 
BRANCH   4   6
ATOM      5  OXT ASP A   1       1.387   2.263  -0.159  0.00  0.00    -0.253 OA
ATOM      6  C   ASP A   1       1.266   1.123  -0.587  0.00  0.00    +0.294 C 
BRANCH   6   7
ATOM      7  O   ASP A   1       1.205   0.841  -1.917  0.00  0.00    -0.482 OA
ATOM      8  H   ASP A   1       1.112  -0.046  -2.204  0.00  0.00    +0.295 HD
ENDBRANCH   6   7
ENDBRANCH   4   6
BRANCH   4   9
ATOM      9  CB  ASP A   1       2.430  -0.305   1.158  0.00  0.00    +0.099 C 
BRANCH   9  11
ATOM     10  OD2 ASP A   1       3.820  -0.896  -0.762  0.00  0.00    -0.250 OA
ATOM     11  CG  ASP A   1       3.708  -0.423   0.358  0.00  0.00    +0.312 C 
BRANCH  11  12
ATOM     12  OD1 ASP A   1       4.750   0.077   1.072  0.00  0.00    -0.480 OA
ATOM     13  HD1 ASP A   1       4.605   0.428   1.929  0.00  0.00    +0.295 HD
ENDBRANCH  11  12
ENDBRANCH   9  11
ENDBRANCH   4   9
ENDBRANCH   1   4
BRANCH   1  14
ATOM     14  CA  ASP A   1      -1.192   0.131   0.269  0.00  0.00    +0.052 C 
BRANCH  14  16
ATOM     15  OXT ASP A   1      -1.396  -2.269  -0.128  0.00  0.00    -0.253 OA
ATOM     16  C   ASP A   1      -1.268  -1.135  -0.570  0.00  0.00    +0.294 C 
BRANCH  16  17
ATOM     17  O   ASP A   1      -1.204  -0.870  -1.903  0.00  0.00    -0.482 OA
ATOM     18  H   ASP A   1      -1.106   0.013  -2.201  0.00  0.00    +0.295 HD
ENDBRANCH  16  17
ENDBRANCH  14  16
BRANCH  14  19
ATOM     19  CB  ASP A   1      -2.429   0.320   1.155  0.00  0.00    +0.099 C 
BRANCH  19  21
ATOM     20  OD2 ASP A   1      -3.812   0.893  -0.775  0.00  0.00    -0.250 OA
ATOM     21  CG  ASP A   1      -3.704   0.434   0.352  0.00  0.00    +0.312 C 
BRANCH  21  22
ATOM     22  OD1 ASP A   1      -4.750  -0.052   1.070  0.00  0.00    -0.480 OA
ATOM     23  HD1 ASP A   1      -4.609  -0.392   1.932  0.00  0.00    +0.295 HD
ENDBRANCH  21  22
ENDBRANCH  19  21
ENDBRANCH  14  19
ENDBRANCH   1  14
TORSDOF 12
