REMARK  Name = 131433
REMARK  9 active torsions:
REMARK  status: ('A' for Active; 'I' for Inactive)
REMARK    1  A    between atoms: N_1  and  C1*_12
REMARK    2  A    between atoms: C_9  and  O_25
REMARK    3  A    between atoms: C2*_11  and  O2*_15
REMARK    4  A    between atoms: C3*_13  and  O3*_17
REMARK    5  A    between atoms: C4*_14  and  C5*_19
REMARK    6  A    between atoms: C5*_19  and  O5*_20
REMARK    7  A    between atoms: O_25  and  C_26
REMARK    8  A    between atoms: C_26  and  C_27
REMARK    9  A    between atoms: C_27  and  C_28
REMARK                            x       y       z     vdW  Elec       q    Type
REMARK                         _______ _______ _______ _____ _____    ______ ____
ROOT
ATOM      1  N   UNL     1      -3.125   0.015  -0.662  0.00  0.00    -0.236 N 
ATOM      2  N   UNL     1      -4.059  -2.004  -0.843  0.00  0.00    -0.240 NA
ATOM      3  N   UNL     1      -0.923  -0.619   0.147  0.00  0.00    -0.294 NA
ATOM      4  N   UNL     1      -0.727  -3.040   0.385  0.00  0.00    -0.295 NA
ATOM      5  C   UNL     1      -2.171  -0.882  -0.268  0.00  0.00    +0.223 C 
ATOM      6  C   UNL     1      -4.240  -0.709  -0.997  0.00  0.00    +0.224 C 
ATOM      7  C   UNL     1      -2.770  -2.126  -0.388  0.00  0.00    +0.167 C 
ATOM      8  C   UNL     1      -1.998  -3.231  -0.042  0.00  0.00    +0.214 C 
ATOM      9  C   UNL     1      -0.275  -1.764   0.452  0.00  0.00    +0.313 C 
ATOM     10  N   UNL     1      -2.525  -4.531  -0.132  0.00  0.00    -0.331 N 
ATOM     11  H   UNL     1      -1.970  -5.306   0.115  0.00  0.00    +0.145 HD
ATOM     12  H   UNL     1      -3.450  -4.667  -0.442  0.00  0.00    +0.145 HD
ENDROOT
BRANCH   1  15
ATOM     13  O4* UNL     1      -1.640   1.820  -1.074  0.00  0.00    -0.333 OA
ATOM     14  C2* UNL     1      -3.308   2.162   0.617  0.00  0.00    +0.187 C 
ATOM     15  C1* UNL     1      -2.993   1.472  -0.712  0.00  0.00    +0.226 C 
ATOM     16  C3* UNL     1      -1.931   2.503   1.154  0.00  0.00    +0.171 C 
ATOM     17  C4* UNL     1      -1.146   2.772  -0.118  0.00  0.00    +0.175 C 
BRANCH  14  18
ATOM     18  O2* UNL     1      -4.071   3.341   0.364  0.00  0.00    -0.378 OA
ATOM     19  H2* UNL     1      -4.945   3.093   0.022  0.00  0.00    +0.211 HD
ENDBRANCH  14  18
BRANCH  16  20
ATOM     20  O3* UNL     1      -1.927   3.613   2.026  0.00  0.00    -0.379 OA
ATOM     21  H3* UNL     1      -2.438   3.400   2.823  0.00  0.00    +0.211 HD
ENDBRANCH  16  20
BRANCH  17  22
ATOM     22  C5* UNL     1       0.353   2.603   0.049  0.00  0.00    +0.169 C 
BRANCH  22  23
ATOM     23  O5* UNL     1       0.981   2.866  -1.194  0.00  0.00    -0.379 OA
ATOM     24  H5* UNL     1       1.941   2.761  -1.100  0.00  0.00    +0.211 HD
ENDBRANCH  22  23
ENDBRANCH  17  22
ENDBRANCH   1  15
BRANCH   9  25
ATOM     25  O   UNL     1       1.024  -1.616   0.887  0.00  0.00    -0.399 OA
BRANCH  25  26
ATOM     26  C   UNL     1       1.914  -2.682   0.597  0.00  0.00    +0.227 C 
BRANCH  26  27
ATOM     27  C   UNL     1       3.297  -2.366   1.155  0.00  0.00    +0.075 C 
BRANCH  27  28
ATOM     28  C   UNL     1       3.897  -1.127   0.535  0.00  0.00    -0.018 C 
ATOM     29  C   UNL     1       4.671  -1.246  -0.608  0.00  0.00    -0.004 C 
ATOM     30  C   UNL     1       3.663   0.107   1.121  0.00  0.00    -0.004 C 
ATOM     31  C   UNL     1       4.998   1.147  -0.603  0.00  0.00    -0.022 C 
ATOM     32  C   UNL     1       5.225  -0.102  -1.181  0.00  0.00    -0.005 C 
ATOM     33  C   UNL     1       4.217   1.252   0.548  0.00  0.00    -0.005 C 
ATOM     34  C   UNL     1       5.591   2.371  -1.215  0.00  0.00    +0.031 C 
ENDBRANCH  27  28
ENDBRANCH  26  27
ENDBRANCH  25  26
ENDBRANCH   9  25
TORSDOF 9
