REMARK  Name = 131483
REMARK  4 active torsions:
REMARK  status: ('A' for Active; 'I' for Inactive)
REMARK    1  A    between atoms: S_1  and  N_5
REMARK    2  A    between atoms: S_1  and  C_15
REMARK    3  A    between atoms: C_8  and  N_14
REMARK    4  A    between atoms: C_20  and  N_21
REMARK                            x       y       z     vdW  Elec       q    Type
REMARK                         _______ _______ _______ _____ _____    ______ ____
ROOT
ATOM      1  S   UNL     1      -0.998  -1.340   0.056  0.00  0.00    +0.076 S 
ATOM      2  O   UNL     1      -1.120  -2.423  -0.913  0.00  0.00    -0.150 OA
ATOM      3  O   UNL     1      -0.644  -1.666   1.432  0.00  0.00    -0.150 OA
ENDROOT
BRANCH   1   5
ATOM      4  N   UNL     1       2.472   0.621  -0.298  0.00  0.00    -0.238 N 
ATOM      5  N   UNL     1       0.119  -0.186  -0.569  0.00  0.00    -0.187 N 
ATOM      6  N   UNL     1       2.057  -1.533   0.049  0.00  0.00    -0.211 NA
ATOM      7  C   UNL     1       1.515  -0.370  -0.278  0.00  0.00    +0.209 C 
ATOM      8  C   UNL     1       3.672   0.057   0.031  0.00  0.00    +0.219 C 
ATOM      9  C   UNL     1       2.229   2.010  -0.615  0.00  0.00    +0.122 C 
ATOM     10  C   UNL     1       3.391  -1.273   0.241  0.00  0.00    +0.141 C 
ATOM     11  H   UNL     1      -0.190   0.576  -1.109  0.00  0.00    +0.177 HD
BRANCH   8  14
ATOM     12  O   UNL     1       5.938   0.170   0.423  0.00  0.00    -0.125 OA
ATOM     13  O   UNL     1       4.875   2.013  -0.134  0.00  0.00    -0.125 OA
ATOM     14  N   UNL     1       4.872   0.773   0.110  0.00  0.00    +0.074 N 
ENDBRANCH   8  14
ENDBRANCH   1   5
BRANCH   1  15
ATOM     15  C   UNL     1      -2.505  -0.458   0.061  0.00  0.00    +0.125 C 
ATOM     16  C   UNL     1      -3.336  -0.491  -1.059  0.00  0.00    +0.021 C 
ATOM     17  C   UNL     1      -2.877   0.280   1.185  0.00  0.00    +0.021 C 
ATOM     18  C   UNL     1      -4.540   0.214  -1.055  0.00  0.00    +0.015 C 
ATOM     19  C   UNL     1      -4.081   0.985   1.189  0.00  0.00    +0.015 C 
ATOM     20  C   UNL     1      -4.912   0.952   0.069  0.00  0.00    +0.042 C 
BRANCH  20  21
ATOM     21  N   UNL     1      -6.129   1.664   0.073  0.00  0.00    -0.357 N 
ATOM     22  H   UNL     1      -6.716   1.641  -0.717  0.00  0.00    +0.142 HD
ATOM     23  H   UNL     1      -6.392   2.185   0.866  0.00  0.00    +0.142 HD
ENDBRANCH  20  21
ENDBRANCH   1  15
TORSDOF 4
