REMARK  Name = 131420
REMARK  11 active torsions:
REMARK  status: ('A' for Active; 'I' for Inactive)
REMARK    1  A    between atoms: C_2  and  C_11
REMARK    2  A    between atoms: C_7  and  O_23
REMARK    3  A    between atoms: C_12  and  O_17
REMARK    4  A    between atoms: C_14  and  O_19
REMARK    5  A    between atoms: C_16  and  O_21
REMARK    6  A    between atoms: O_23  and  C_29
REMARK    7  A    between atoms: C_25  and  O_30
REMARK    8  A    between atoms: C_26  and  O_32
REMARK    9  A    between atoms: C_27  and  O_34
REMARK   10  A    between atoms: C_28  and  C_36
REMARK   11  A    between atoms: C_36  and  O_37
REMARK                            x       y       z     vdW  Elec       q    Type
REMARK                         _______ _______ _______ _____ _____    ______ ____
ROOT
ATOM      1  O   UNL     1      -1.412   1.914   1.395  0.00  0.00    -0.475 OA
ATOM      2  C   UNL     1      -3.108   2.013  -0.401  0.00  0.00    +0.074 C 
ATOM      3  C   UNL     1      -2.038   2.417  -1.427  0.00  0.00    +0.038 C 
ATOM      4  C   UNL     1      -0.642   2.244  -0.896  0.00  0.00    +0.012 C 
ATOM      5  C   UNL     1      -2.658   2.489   0.986  0.00  0.00    +0.210 C 
ATOM      6  C   UNL     1      -0.409   2.014   0.466  0.00  0.00    +0.138 C 
ATOM      7  C   UNL     1       1.971   1.901   0.058  0.00  0.00    +0.144 C 
ATOM      8  C   UNL     1       0.892   1.827   0.938  0.00  0.00    +0.074 C 
ATOM      9  C   UNL     1       0.451   2.326  -1.769  0.00  0.00    +0.002 C 
ATOM     10  C   UNL     1       1.751   2.155  -1.294  0.00  0.00    +0.037 C 
ENDROOT
BRANCH   2  11
ATOM     11  C   UNL     1      -3.508   0.541  -0.376  0.00  0.00    +0.019 C 
ATOM     12  C   UNL     1      -4.805   0.159  -0.035  0.00  0.00    +0.171 C 
ATOM     13  C   UNL     1      -2.558  -0.428  -0.701  0.00  0.00    +0.002 C 
ATOM     14  C   UNL     1      -5.153  -1.192  -0.018  0.00  0.00    +0.202 C 
ATOM     15  C   UNL     1      -2.906  -1.779  -0.684  0.00  0.00    +0.040 C 
ATOM     16  C   UNL     1      -4.204  -2.160  -0.343  0.00  0.00    +0.175 C 
BRANCH  12  17
ATOM     17  O   UNL     1      -5.735   1.104   0.286  0.00  0.00    -0.469 OA
ATOM     18  C   UNL     1      -6.310   1.028   1.589  0.00  0.00    +0.253 C 
ENDBRANCH  12  17
BRANCH  14  19
ATOM     19  O   UNL     1      -6.421  -1.566   0.318  0.00  0.00    -0.501 OA
ATOM     20  H   UNL     1      -7.059  -0.916   0.536  0.00  0.00    +0.292 HD
ENDBRANCH  14  19
BRANCH  16  21
ATOM     21  O   UNL     1      -4.531  -3.483  -0.329  0.00  0.00    -0.468 OA
ATOM     22  C   UNL     1      -4.342  -4.184   0.899  0.00  0.00    +0.253 C 
ENDBRANCH  16  21
ENDBRANCH   2  11
BRANCH   7  23
ATOM     23  O   UNL     1       3.242   1.723   0.520  0.00  0.00    -0.450 OA
BRANCH  23  29
ATOM     24  O   UNL     1       3.294  -0.587   0.193  0.00  0.00    -0.316 OA
ATOM     25  C   UNL     1       6.166  -0.605   0.176  0.00  0.00    +0.173 C 
ATOM     26  C   UNL     1       5.338  -1.885   0.295  0.00  0.00    +0.169 C 
ATOM     27  C   UNL     1       5.360   0.618   0.614  0.00  0.00    +0.210 C 
ATOM     28  C   UNL     1       3.971  -1.712  -0.370  0.00  0.00    +0.177 C 
ATOM     29  C   UNL     1       3.980   0.640  -0.044  0.00  0.00    +0.318 C 
BRANCH  25  30
ATOM     30  O   UNL     1       7.315  -0.743   1.013  0.00  0.00    -0.379 OA
ATOM     31  H   UNL     1       7.827  -1.519   0.735  0.00  0.00    +0.211 HD
ENDBRANCH  25  30
BRANCH  26  32
ATOM     32  O   UNL     1       6.035  -2.958  -0.334  0.00  0.00    -0.379 OA
ATOM     33  H   UNL     1       6.903  -3.070   0.087  0.00  0.00    +0.211 HD
ENDBRANCH  26  32
BRANCH  27  34
ATOM     34  O   UNL     1       6.056   1.804   0.234  0.00  0.00    -0.377 OA
ATOM     35  H   UNL     1       6.935   1.809   0.643  0.00  0.00    +0.211 HD
ENDBRANCH  27  34
BRANCH  28  36
ATOM     36  C   UNL     1       3.083  -2.935  -0.163  0.00  0.00    +0.169 C 
BRANCH  36  37
ATOM     37  O   UNL     1       1.837  -2.699  -0.793  0.00  0.00    -0.379 OA
ATOM     38  H   UNL     1       1.261  -3.470  -0.669  0.00  0.00    +0.211 HD
ENDBRANCH  36  37
ENDBRANCH  28  36
ENDBRANCH  23  29
ENDBRANCH   7  23
TORSDOF 11
