131433
  -OEChem-03292013323D

 52 55  0     1  0  0  0  0  0999 V2000
   -1.6397    1.8201   -1.0741 O   0  0  0  0  0  0  0  0  0  0  0  0
   -4.0713    3.3406    0.3641 O   0  0  0  0  0  0  0  0  0  0  0  0
   -1.9275    3.6133    2.0260 O   0  0  0  0  0  0  0  0  0  0  0  0
    0.9808    2.8663   -1.1935 O   0  0  0  0  0  0  0  0  0  0  0  0
    1.0238   -1.6156    0.8869 O   0  0  0  0  0  0  0  0  0  0  0  0
   -3.1247    0.0146   -0.6616 N   0  0  0  0  0  0  0  0  0  0  0  0
   -4.0586   -2.0036   -0.8426 N   0  0  0  0  0  0  0  0  0  0  0  0
   -0.9229   -0.6186    0.1467 N   0  0  0  0  0  0  0  0  0  0  0  0
   -0.7269   -3.0396    0.3852 N   0  0  0  0  0  0  0  0  0  0  0  0
   -2.5251   -4.5313   -0.1323 N   0  0  0  0  0  0  0  0  0  0  0  0
   -3.3084    2.1619    0.6165 C   0  0  1  0  0  0  0  0  0  0  0  0
   -2.9931    1.4717   -0.7118 C   0  0  1  0  0  0  0  0  0  0  0  0
   -1.9314    2.5034    1.1540 C   0  0  1  0  0  0  0  0  0  0  0  0
   -1.1462    2.7725   -0.1180 C   0  0  1  0  0  0  0  0  0  0  0  0
    0.3532    2.6033    0.0492 C   0  0  0  0  0  0  0  0  0  0  0  0
   -2.1713   -0.8823   -0.2678 C   0  0  0  0  0  0  0  0  0  0  0  0
   -4.2401   -0.7085   -0.9965 C   0  0  0  0  0  0  0  0  0  0  0  0
   -2.7697   -2.1264   -0.3877 C   0  0  0  0  0  0  0  0  0  0  0  0
   -1.9981   -3.2314   -0.0424 C   0  0  0  0  0  0  0  0  0  0  0  0
   -0.2751   -1.7639    0.4523 C   0  0  0  0  0  0  0  0  0  0  0  0
    1.9140   -2.6823    0.5967 C   0  0  0  0  0  0  0  0  0  0  0  0
    3.2971   -2.3660    1.1549 C   0  0  0  0  0  0  0  0  0  0  0  0
    3.8966   -1.1272    0.5349 C   0  0  0  0  0  0  0  0  0  0  0  0
    4.6706   -1.2463   -0.6084 C   0  0  0  0  0  0  0  0  0  0  0  0
    3.6627    0.1069    1.1206 C   0  0  0  0  0  0  0  0  0  0  0  0
    4.9981    1.1474   -0.6030 C   0  0  0  0  0  0  0  0  0  0  0  0
    5.2249   -0.1016   -1.1811 C   0  0  0  0  0  0  0  0  0  0  0  0
    4.2170    1.2516    0.5479 C   0  0  0  0  0  0  0  0  0  0  0  0
    5.5911    2.3712   -1.2151 C   0  0  0  0  0  0  0  0  0  0  0  0
   -3.8846    1.5493    1.3175 H   0  0  0  0  0  0  0  0  0  0  0  0
   -3.6452    1.8144   -1.5238 H   0  0  0  0  0  0  0  0  0  0  0  0
   -1.5255    1.6348    1.6859 H   0  0  0  0  0  0  0  0  0  0  0  0
   -1.3566    3.7742   -0.5145 H   0  0  0  0  0  0  0  0  0  0  0  0
    0.6233    1.5875    0.3503 H   0  0  0  0  0  0  0  0  0  0  0  0
    0.7527    3.3032    0.7888 H   0  0  0  0  0  0  0  0  0  0  0  0
   -4.9221    3.0598   -0.0142 H   0  0  0  0  0  0  0  0  0  0  0  0
   -1.0060    3.7838    2.2843 H   0  0  0  0  0  0  0  0  0  0  0  0
   -5.1506   -0.2384   -1.3424 H   0  0  0  0  0  0  0  0  0  0  0  0
    0.6243    2.2348   -1.8415 H   0  0  0  0  0  0  0  0  0  0  0  0
   -3.4737   -4.6772   -0.4502 H   0  0  0  0  0  0  0  0  0  0  0  0
   -1.9448   -5.3180    0.1251 H   0  0  0  0  0  0  0  0  0  0  0  0
    1.5661   -3.6084    1.0706 H   0  0  0  0  0  0  0  0  0  0  0  0
    1.9650   -2.8362   -0.4886 H   0  0  0  0  0  0  0  0  0  0  0  0
    3.2336   -2.2230    2.2415 H   0  0  0  0  0  0  0  0  0  0  0  0
    3.9664   -3.2205    0.9967 H   0  0  0  0  0  0  0  0  0  0  0  0
    4.8507   -2.2143   -1.0670 H   0  0  0  0  0  0  0  0  0  0  0  0
    3.0550    0.1999    2.0162 H   0  0  0  0  0  0  0  0  0  0  0  0
    5.8297   -0.1958   -2.0792 H   0  0  0  0  0  0  0  0  0  0  0  0
    4.0303    2.2195    1.0056 H   0  0  0  0  0  0  0  0  0  0  0  0
    5.8336    3.1164   -0.4499 H   0  0  0  0  0  0  0  0  0  0  0  0
    6.5226    2.1393   -1.7427 H   0  0  0  0  0  0  0  0  0  0  0  0
    4.8868    2.8141   -1.9264 H   0  0  0  0  0  0  0  0  0  0  0  0
  1 12  1  0  0  0  0
  1 14  1  0  0  0  0
  2 11  1  0  0  0  0
  2 36  1  0  0  0  0
  3 13  1  0  0  0  0
  3 37  1  0  0  0  0
  4 15  1  0  0  0  0
  4 39  1  0  0  0  0
  5 20  1  0  0  0  0
  5 21  1  0  0  0  0
  6 12  1  0  0  0  0
  6 16  1  0  0  0  0
  6 17  1  0  0  0  0
  7 17  2  0  0  0  0
  7 18  1  0  0  0  0
  8 16  2  0  0  0  0
  8 20  1  0  0  0  0
  9 19  1  0  0  0  0
  9 20  2  0  0  0  0
 10 19  1  0  0  0  0
 10 40  1  0  0  0  0
 10 41  1  0  0  0  0
 11 12  1  0  0  0  0
 11 13  1  0  0  0  0
 11 30  1  0  0  0  0
 12 31  1  0  0  0  0
 13 14  1  0  0  0  0
 13 32  1  0  0  0  0
 14 15  1  0  0  0  0
 14 33  1  0  0  0  0
 15 34  1  0  0  0  0
 15 35  1  0  0  0  0
 16 18  1  0  0  0  0
 17 38  1  0  0  0  0
 18 19  2  0  0  0  0
 21 22  1  0  0  0  0
 21 42  1  0  0  0  0
 21 43  1  0  0  0  0
 22 23  1  0  0  0  0
 22 44  1  0  0  0  0
 22 45  1  0  0  0  0
 23 24  2  0  0  0  0
 23 25  1  0  0  0  0
 24 27  1  0  0  0  0
 24 46  1  0  0  0  0
 25 28  2  0  0  0  0
 25 47  1  0  0  0  0
 26 27  2  0  0  0  0
 26 28  1  0  0  0  0
 26 29  1  0  0  0  0
 27 48  1  0  0  0  0
 28 49  1  0  0  0  0
 29 50  1  0  0  0  0
 29 51  1  0  0  0  0
 29 52  1  0  0  0  0
M  END
> <PUBCHEM_COMPOUND_CID>
131433

> <PUBCHEM_CONFORMER_RMSD>
1

> <PUBCHEM_CONFORMER_DIVERSEORDER>
1
54
348
307
218
424
321
314
405
334
5
151
252
185
255
35
88
244
473
92
156
69
371
502
526
282
15
64
472
113
346
91
331
457
187
78
165
13
284
60
233
42
109
74
341
150
402
268
197
400
29
14
429
79
495
23
162
7
539
277
521
96
538
154
513
295
293
506
105
181
178
12
25
379
20
67
82
153
227
520
171
101
50
223
112
53
167
57
128
367
203
524
90
239
392
4
323
9
254
34
66
95
408
431
26
71
403
56
501
3
129
52
46
272
370
238
198
320
302
89
2
6
240
75
28
527
38
8
62

> <PUBCHEM_MMFF94_PARTIAL_CHARGES>
39
1 -0.56
10 -0.9
11 0.28
12 0.54
13 0.28
14 0.28
15 0.28
16 0.11
17 0.04
18 0.23
19 0.41
2 -0.68
20 0.7
21 0.28
22 0.14
23 -0.14
24 -0.15
25 -0.15
26 -0.14
27 -0.15
28 -0.15
29 0.14
3 -0.68
36 0.4
37 0.4
38 0.15
39 0.4
4 -0.68
40 0.4
41 0.4
46 0.15
47 0.15
48 0.15
49 0.15
5 -0.36
6 0.05
7 -0.57
8 -0.57
9 -0.62

> <PUBCHEM_EFFECTIVE_ROTOR_COUNT>
7

> <PUBCHEM_PHARMACOPHORE_FEATURES>
16
1 1 acceptor
1 10 cation
1 10 donor
1 2 acceptor
1 2 donor
1 3 acceptor
1 3 donor
1 4 acceptor
1 4 donor
3 6 7 17 cation
3 6 8 16 cation
3 8 9 20 cation
5 1 11 12 13 14 rings
5 6 7 16 17 18 rings
6 23 24 25 26 27 28 rings
6 8 9 16 18 19 20 rings

> <PUBCHEM_HEAVY_ATOM_COUNT>
29

> <PUBCHEM_ATOM_DEF_STEREO_COUNT>
4

> <PUBCHEM_ATOM_UDEF_STEREO_COUNT>
0

> <PUBCHEM_BOND_DEF_STEREO_COUNT>
0

> <PUBCHEM_BOND_UDEF_STEREO_COUNT>
0

> <PUBCHEM_ISOTOPIC_ATOM_COUNT>
0

> <PUBCHEM_COMPONENT_COUNT>
1

> <PUBCHEM_CACTVS_TAUTO_COUNT>
3

> <PUBCHEM_CONFORMER_ID>
0002016900000001

> <PUBCHEM_MMFF94_ENERGY>
75.3725

> <PUBCHEM_FEATURE_SELFOVERLAP>
81.818

> <PUBCHEM_SHAPE_FINGERPRINT>
10498660 4 18263361542267945610
10670039 82 18335143098910571878
10673678 19 17609470776065472141
10871710 139 18409171008383045705
1100329 8 18412263961105822361
11059048 146 18269001899236708066
11135609 187 18260824951082841725
11513181 2 18272653394437866486
11578080 2 15839899272757011193
12633257 1 18122339087037454242
12788726 201 18342454863318265699
12978246 48 17976253539570018736
13140716 1 18048319143711456059
13583140 156 16664299742294136451
14117953 113 17688015423707911172
14251757 5 18411702114151608138
14363568 33 17327472817702256378
14790565 3 18194682566873281661
14840074 17 18042418932040851733
14931854 50 18335697290913798774
14932702 115 18272362075205916776
15297060 5 18130224831360090954
15975801 100 17463432520809726814
16067690 210 16701745930314077024
161222 10 18190205475878761748
19930381 70 17328295256663599459
20642791 35 18267577090806528867
21049683 271 17900538192833576319
21133410 221 16616160319345395280
21623110 236 18334574594863057029
23557571 272 18272937128435128574
23559900 14 18123743424884218492
463206 1 17474109177556876838
469060 322 16733280013892284371
5048184 11 18337956667103002272
5309563 4 17836366316973427334
6287921 2 17693378841164146087
6700243 42 17843704363563139646

> <PUBCHEM_SHAPE_MULTIPOLES>
542.55
10.78
5.3
1.24
11.9
0.51
-0.16
-2.01
2.92
-4.25
-0.86
0.37
-0.61
-2.24

> <PUBCHEM_SHAPE_SELFOVERLAP>
1176.725

> <PUBCHEM_SHAPE_VOLUME>
293

> <PUBCHEM_COORDINATE_TYPE>
2
5
10

$$$$
