131432
  -OEChem-03292013323D

 49 52  0     1  0  0  0  0  0999 V2000
   -2.0999    1.5407   -1.1162 O   0  0  0  0  0  0  0  0  0  0  0  0
   -4.8981    2.2043    0.3060 O   0  0  0  0  0  0  0  0  0  0  0  0
   -2.9649    3.1866    1.9582 O   0  0  0  0  0  0  0  0  0  0  0  0
    0.0353    3.3836   -1.2576 O   0  0  0  0  0  0  0  0  0  0  0  0
    1.5352   -0.8074    0.8878 O   0  0  0  0  0  0  0  0  0  0  0  0
   -2.9146   -0.6446   -0.6736 N   0  0  0  0  0  0  0  0  0  0  0  0
   -3.1376   -2.8596   -0.8227 N   0  0  0  0  0  0  0  0  0  0  0  0
   -0.6287   -0.5120    0.1382 N   0  0  0  0  0  0  0  0  0  0  0  0
    0.3469   -2.7324    0.4115 N   0  0  0  0  0  0  0  0  0  0  0  0
   -0.8642   -4.7371   -0.0796 N   0  0  0  0  0  0  0  0  0  0  0  0
   -3.7926    1.3433    0.5736 C   0  0  1  0  0  0  0  0  0  0  0  0
   -3.2661    0.7747   -0.7453 C   0  0  1  0  0  0  0  0  0  0  0  0
   -2.6040    2.1237    1.1025 C   0  0  1  0  0  0  0  0  0  0  0  0
   -1.9468    2.6159   -0.1753 C   0  0  1  0  0  0  0  0  0  0  0  0
   -0.4747    2.9482   -0.0095 C   0  0  0  0  0  0  0  0  0  0  0  0
   -1.7214   -1.1750   -0.2692 C   0  0  0  0  0  0  0  0  0  0  0  0
   -3.7318   -1.6973   -0.9950 C   0  0  0  0  0  0  0  0  0  0  0  0
   -1.8803   -2.5480   -0.3694 C   0  0  0  0  0  0  0  0  0  0  0  0
   -0.7909   -3.3352   -0.0101 C   0  0  0  0  0  0  0  0  0  0  0  0
    0.3571   -1.3782    0.4588 C   0  0  0  0  0  0  0  0  0  0  0  0
    2.5837   -1.7010    1.2295 C   0  0  0  0  0  0  0  0  0  0  0  0
    3.8030   -0.9118    1.6936 C   0  0  0  0  0  0  0  0  0  0  0  0
    4.3459   -0.0072    0.6142 C   0  0  0  0  0  0  0  0  0  0  0  0
    5.3122   -0.4899   -0.2543 C   0  0  0  0  0  0  0  0  0  0  0  0
    3.8687    1.2900    0.5108 C   0  0  0  0  0  0  0  0  0  0  0  0
    5.8142    0.3460   -1.2518 C   0  0  0  0  0  0  0  0  0  0  0  0
    4.3708    2.1258   -0.4867 C   0  0  0  0  0  0  0  0  0  0  0  0
    5.3435    1.6538   -1.3681 C   0  0  0  0  0  0  0  0  0  0  0  0
   -4.1387    0.5865    1.2849 H   0  0  0  0  0  0  0  0  0  0  0  0
   -3.9925    0.8736   -1.5606 H   0  0  0  0  0  0  0  0  0  0  0  0
   -1.9379    1.4432    1.6459 H   0  0  0  0  0  0  0  0  0  0  0  0
   -2.4719    3.4880   -0.5858 H   0  0  0  0  0  0  0  0  0  0  0  0
    0.1124    2.0814    0.3060 H   0  0  0  0  0  0  0  0  0  0  0  0
   -0.3283    3.7512    0.7185 H   0  0  0  0  0  0  0  0  0  0  0  0
   -5.6097    1.6555   -0.0659 H   0  0  0  0  0  0  0  0  0  0  0  0
   -2.1502    3.6523    2.2119 H   0  0  0  0  0  0  0  0  0  0  0  0
   -4.7451   -1.5555   -1.3454 H   0  0  0  0  0  0  0  0  0  0  0  0
   -0.0964    2.6620   -1.8961 H   0  0  0  0  0  0  0  0  0  0  0  0
   -1.7125   -5.1894   -0.3926 H   0  0  0  0  0  0  0  0  0  0  0  0
   -0.0595   -5.2872    0.1883 H   0  0  0  0  0  0  0  0  0  0  0  0
    2.2646   -2.3562    2.0498 H   0  0  0  0  0  0  0  0  0  0  0  0
    2.8538   -2.3157    0.3610 H   0  0  0  0  0  0  0  0  0  0  0  0
    3.5378   -0.3017    2.5668 H   0  0  0  0  0  0  0  0  0  0  0  0
    4.5873   -1.6018    2.0283 H   0  0  0  0  0  0  0  0  0  0  0  0
    5.6835   -1.5074   -0.1728 H   0  0  0  0  0  0  0  0  0  0  0  0
    3.1111    1.6680    1.1911 H   0  0  0  0  0  0  0  0  0  0  0  0
    6.5712   -0.0216   -1.9385 H   0  0  0  0  0  0  0  0  0  0  0  0
    4.0034    3.1438   -0.5777 H   0  0  0  0  0  0  0  0  0  0  0  0
    5.7340    2.3045   -2.1450 H   0  0  0  0  0  0  0  0  0  0  0  0
  1 12  1  0  0  0  0
  1 14  1  0  0  0  0
  2 11  1  0  0  0  0
  2 35  1  0  0  0  0
  3 13  1  0  0  0  0
  3 36  1  0  0  0  0
  4 15  1  0  0  0  0
  4 38  1  0  0  0  0
  5 20  1  0  0  0  0
  5 21  1  0  0  0  0
  6 12  1  0  0  0  0
  6 16  1  0  0  0  0
  6 17  1  0  0  0  0
  7 17  2  0  0  0  0
  7 18  1  0  0  0  0
  8 16  2  0  0  0  0
  8 20  1  0  0  0  0
  9 19  1  0  0  0  0
  9 20  2  0  0  0  0
 10 19  1  0  0  0  0
 10 39  1  0  0  0  0
 10 40  1  0  0  0  0
 11 12  1  0  0  0  0
 11 13  1  0  0  0  0
 11 29  1  0  0  0  0
 12 30  1  0  0  0  0
 13 14  1  0  0  0  0
 13 31  1  0  0  0  0
 14 15  1  0  0  0  0
 14 32  1  0  0  0  0
 15 33  1  0  0  0  0
 15 34  1  0  0  0  0
 16 18  1  0  0  0  0
 17 37  1  0  0  0  0
 18 19  2  0  0  0  0
 21 22  1  0  0  0  0
 21 41  1  0  0  0  0
 21 42  1  0  0  0  0
 22 23  1  0  0  0  0
 22 43  1  0  0  0  0
 22 44  1  0  0  0  0
 23 24  2  0  0  0  0
 23 25  1  0  0  0  0
 24 26  1  0  0  0  0
 24 45  1  0  0  0  0
 25 27  2  0  0  0  0
 25 46  1  0  0  0  0
 26 28  2  0  0  0  0
 26 47  1  0  0  0  0
 27 28  1  0  0  0  0
 27 48  1  0  0  0  0
 28 49  1  0  0  0  0
M  END
> <PUBCHEM_COMPOUND_CID>
131432

> <PUBCHEM_CONFORMER_RMSD>
0.8

> <PUBCHEM_CONFORMER_DIVERSEORDER>
1
108
328
199
43
424
154
216
293
373
76
340
107
68
319
344
390
366
220
301
240
382
165
438
376
440
453
351
398
206
364
315
279
25
447
410
54
425
284
67
18
230
132
177
341
258
40
156
295
405
400
190
401
180
159
198
227
39
449
164
386
217
222
158
289
117
459
237
113
186
348
125
454
369
435
409
404
118
260
428
27
300
46
28
243
79
299
412
202
255
120
349
332
126
418
357
85
63
303
87
333
434
335
270
330
34
358
75
388
407
261
292
179
283
244
214
74
304
52
26
363
413
155
59
204
305
86
50
448
442
144
4
263
312
44
272
82
343
381
47
372
246
287
321
95
168
318
423
172
231
361
185
286
238
176
225
139
336
195
175
362
69
61
346
436
262
457
345
6
94
385
444
291
131
135
102
167
88
323
421
450
306
184
101
281
218
229
384
356
130
31
347
10
397
13
353
278
406
253
365
224
98
403
354
251
169
97
8
259
267
250
151
430
268
325
399
91
393
77
124
320
152
374
29
53
392
112
114
196
313
115
329
209
420
377
78
252
396
192
274
138
219
314
445
297
414
326
166
110
408
379
129
84
201
389
140
383
116
73
182
36
371
226
368
256
70
309
367
205
411
24
93
173
327
134
121
387
455
437
429
264
51
127
200
426
296
133
30
99
233
178
103
150
339
181
324
294
162
191
427
109
460
92
242
334
288
38
452
254
359
380
48
193
239
123
241
20
143
163
317
35
273
245
83
451
189
3
174
149
153
234
308
9
290
81
370
417
57
307
58
337
221
146
21
456
15
350
275
60
147
247
141
276
188
90
213
395
5
171
17
215
394
71
37
64
415
66
23
338
160
416
441
56
439
96
183
45
228
316
446
212
280
391
100
352
331
203
49
65
458
248
142
360
194
197
62
16
282
266
322
11
208
277
12
42
302
422
106
232
269
375
7
157
105
128
136
402
104
33
19
2
148
187
55
14
122
433
378
342
235
32
210
72
236
249
285
355
311
431
419
119
137
223
265
257
170
310
161
443
80
207
89
22
41
111
211
298
432
145
271

> <PUBCHEM_MMFF94_PARTIAL_CHARGES>
39
1 -0.56
10 -0.9
11 0.28
12 0.54
13 0.28
14 0.28
15 0.28
16 0.11
17 0.04
18 0.23
19 0.41
2 -0.68
20 0.7
21 0.28
22 0.14
23 -0.14
24 -0.15
25 -0.15
26 -0.15
27 -0.15
28 -0.15
3 -0.68
35 0.4
36 0.4
37 0.15
38 0.4
39 0.4
4 -0.68
40 0.4
45 0.15
46 0.15
47 0.15
48 0.15
49 0.15
5 -0.36
6 0.05
7 -0.57
8 -0.57
9 -0.62

> <PUBCHEM_EFFECTIVE_ROTOR_COUNT>
7

> <PUBCHEM_PHARMACOPHORE_FEATURES>
16
1 1 acceptor
1 10 cation
1 10 donor
1 2 acceptor
1 2 donor
1 3 acceptor
1 3 donor
1 4 acceptor
1 4 donor
3 6 7 17 cation
3 6 8 16 cation
3 8 9 20 cation
5 1 11 12 13 14 rings
5 6 7 16 17 18 rings
6 23 24 25 26 27 28 rings
6 8 9 16 18 19 20 rings

> <PUBCHEM_HEAVY_ATOM_COUNT>
28

> <PUBCHEM_ATOM_DEF_STEREO_COUNT>
4

> <PUBCHEM_ATOM_UDEF_STEREO_COUNT>
0

> <PUBCHEM_BOND_DEF_STEREO_COUNT>
0

> <PUBCHEM_BOND_UDEF_STEREO_COUNT>
0

> <PUBCHEM_ISOTOPIC_ATOM_COUNT>
0

> <PUBCHEM_COMPONENT_COUNT>
1

> <PUBCHEM_CACTVS_TAUTO_COUNT>
3

> <PUBCHEM_CONFORMER_ID>
0002016800000001

> <PUBCHEM_MMFF94_ENERGY>
72.8058

> <PUBCHEM_FEATURE_SELFOVERLAP>
81.818

> <PUBCHEM_SHAPE_FINGERPRINT>
10498660 4 18335410305684061068
10670039 82 18408602578768838174
10871710 139 18409448102725151671
1100329 8 18267868457662718721
11059048 146 18411142420390435498
11513181 2 18343303635188403342
12390115 104 18272377447205118075
12788726 201 18340762762284355371
12978246 48 18191297179082036552
13583140 156 16808408363201453435
13994607 96 17822023024521926874
14117953 113 17975962181641659492
14251757 5 18341055224019186514
14289585 56 17386291966073580444
1454969 45 18410855444003431497
14790565 3 18339645525458586489
14840074 17 18114192894970451205
15021287 119 17678163894666609154
15163728 17 18270691874141358150
15183329 4 18335704906671925574
15297060 5 18272939293256771608
15575132 122 18115025204035127237
15975801 100 17606416350143644748
161222 10 18189919645800081060
18785283 64 17977667502569959331
20101258 96 17758405457875554714
20642791 35 18049716609714813914
20775438 99 16328178410803346999
21857420 4 15328657453041684710
23366157 5 18046899381715771723
23557571 272 18200883975467133878
3459 110 14057584434568302462
38570 142 17895493453291236006
469060 322 16660648513265296119
6287921 2 17836934395059621841
6700243 42 17625295222248639854

> <PUBCHEM_SHAPE_MULTIPOLES>
521.98
11
4.9
1.32
13.79
1.68
-0.22
-4.45
2.05
-4.52
-0.02
0.53
-0.46
-2.47

> <PUBCHEM_SHAPE_SELFOVERLAP>
1134.757

> <PUBCHEM_SHAPE_VOLUME>
279.8

> <PUBCHEM_COORDINATE_TYPE>
2
5
10

$$$$
