131420
  -OEChem-03292013323D

 61 64  0     1  0  0  0  0  0999 V2000
    3.2938   -0.5870    0.1929 O   0  0  0  0  0  0  0  0  0  0  0  0
    3.2416    1.7226    0.5199 O   0  0  0  0  0  0  0  0  0  0  0  0
    7.3150   -0.7427    1.0129 O   0  0  0  0  0  0  0  0  0  0  0  0
    6.0354   -2.9576   -0.3335 O   0  0  0  0  0  0  0  0  0  0  0  0
    6.0558    1.8045    0.2343 O   0  0  0  0  0  0  0  0  0  0  0  0
   -1.4118    1.9136    1.3946 O   0  0  0  0  0  0  0  0  0  0  0  0
    1.8368   -2.6990   -0.7933 O   0  0  0  0  0  0  0  0  0  0  0  0
   -5.7354    1.1036    0.2863 O   0  0  0  0  0  0  0  0  0  0  0  0
   -6.4206   -1.5663    0.3181 O   0  0  0  0  0  0  0  0  0  0  0  0
   -4.5307   -3.4830   -0.3289 O   0  0  0  0  0  0  0  0  0  0  0  0
    6.1657   -0.6054    0.1757 C   0  0  1  0  0  0  0  0  0  0  0  0
    5.3381   -1.8852    0.2950 C   0  0  1  0  0  0  0  0  0  0  0  0
    5.3599    0.6176    0.6141 C   0  0  2  0  0  0  0  0  0  0  0  0
    3.9708   -1.7118   -0.3705 C   0  0  1  0  0  0  0  0  0  0  0  0
    3.9804    0.6397   -0.0443 C   0  0  1  0  0  0  0  0  0  0  0  0
   -3.1085    2.0128   -0.4012 C   0  0  2  0  0  0  0  0  0  0  0  0
    3.0827   -2.9346   -0.1630 C   0  0  0  0  0  0  0  0  0  0  0  0
   -2.0384    2.4175   -1.4274 C   0  0  0  0  0  0  0  0  0  0  0  0
   -0.6418    2.2437   -0.8956 C   0  0  0  0  0  0  0  0  0  0  0  0
   -2.6580    2.4885    0.9862 C   0  0  0  0  0  0  0  0  0  0  0  0
   -0.4091    2.0135    0.4658 C   0  0  0  0  0  0  0  0  0  0  0  0
    1.9713    1.9010    0.0579 C   0  0  0  0  0  0  0  0  0  0  0  0
   -3.5077    0.5415   -0.3762 C   0  0  0  0  0  0  0  0  0  0  0  0
    0.8925    1.8266    0.9377 C   0  0  0  0  0  0  0  0  0  0  0  0
    0.4506    2.3265   -1.7694 C   0  0  0  0  0  0  0  0  0  0  0  0
    1.7511    2.1551   -1.2942 C   0  0  0  0  0  0  0  0  0  0  0  0
   -4.8054    0.1591   -0.0347 C   0  0  0  0  0  0  0  0  0  0  0  0
   -2.5584   -0.4283   -0.7010 C   0  0  0  0  0  0  0  0  0  0  0  0
   -5.1534   -1.1916   -0.0181 C   0  0  0  0  0  0  0  0  0  0  0  0
   -2.9065   -1.7788   -0.6843 C   0  0  0  0  0  0  0  0  0  0  0  0
   -4.2039   -2.1605   -0.3430 C   0  0  0  0  0  0  0  0  0  0  0  0
   -6.3102    1.0285    1.5886 C   0  0  0  0  0  0  0  0  0  0  0  0
   -4.3418   -4.1842    0.8986 C   0  0  0  0  0  0  0  0  0  0  0  0
    6.5387   -0.4844   -0.8491 H   0  0  0  0  0  0  0  0  0  0  0  0
    5.2152   -2.1449    1.3543 H   0  0  0  0  0  0  0  0  0  0  0  0
    5.2591    0.6383    1.7065 H   0  0  0  0  0  0  0  0  0  0  0  0
    4.0785   -1.5504   -1.4518 H   0  0  0  0  0  0  0  0  0  0  0  0
    4.0958    0.8030   -1.1240 H   0  0  0  0  0  0  0  0  0  0  0  0
   -4.0094    2.5756   -0.6819 H   0  0  0  0  0  0  0  0  0  0  0  0
    2.8902   -3.1145    0.8999 H   0  0  0  0  0  0  0  0  0  0  0  0
    3.5245   -3.8351   -0.5988 H   0  0  0  0  0  0  0  0  0  0  0  0
   -2.1682    1.8652   -2.3661 H   0  0  0  0  0  0  0  0  0  0  0  0
   -2.1610    3.4842   -1.6588 H   0  0  0  0  0  0  0  0  0  0  0  0
   -2.5591    3.5819    1.0086 H   0  0  0  0  0  0  0  0  0  0  0  0
   -3.3985    2.2252    1.7496 H   0  0  0  0  0  0  0  0  0  0  0  0
    7.8806    0.0341    0.8670 H   0  0  0  0  0  0  0  0  0  0  0  0
    6.9067   -3.0276    0.0928 H   0  0  0  0  0  0  0  0  0  0  0  0
    6.8928    1.8266    0.7276 H   0  0  0  0  0  0  0  0  0  0  0  0
    1.0674    1.6280    1.9923 H   0  0  0  0  0  0  0  0  0  0  0  0
    0.2924    2.5213   -2.8272 H   0  0  0  0  0  0  0  0  0  0  0  0
    2.5792    2.2368   -1.9924 H   0  0  0  0  0  0  0  0  0  0  0  0
   -1.5401   -0.1889   -0.9793 H   0  0  0  0  0  0  0  0  0  0  0  0
    1.4561   -1.8940   -0.4022 H   0  0  0  0  0  0  0  0  0  0  0  0
   -2.1624   -2.5286   -0.9398 H   0  0  0  0  0  0  0  0  0  0  0  0
   -6.4911   -2.5329    0.2357 H   0  0  0  0  0  0  0  0  0  0  0  0
   -5.6439    0.5420    2.3096 H   0  0  0  0  0  0  0  0  0  0  0  0
   -6.4963    2.0499    1.9334 H   0  0  0  0  0  0  0  0  0  0  0  0
   -7.2703    0.5068    1.5447 H   0  0  0  0  0  0  0  0  0  0  0  0
   -4.6869   -5.2126    0.7621 H   0  0  0  0  0  0  0  0  0  0  0  0
   -3.2808   -4.2038    1.1668 H   0  0  0  0  0  0  0  0  0  0  0  0
   -4.9235   -3.7238    1.7035 H   0  0  0  0  0  0  0  0  0  0  0  0
  1 14  1  0  0  0  0
  1 15  1  0  0  0  0
  2 15  1  0  0  0  0
  2 22  1  0  0  0  0
  3 11  1  0  0  0  0
  3 46  1  0  0  0  0
  4 12  1  0  0  0  0
  4 47  1  0  0  0  0
  5 13  1  0  0  0  0
  5 48  1  0  0  0  0
  6 20  1  0  0  0  0
  6 21  1  0  0  0  0
  7 17  1  0  0  0  0
  7 53  1  0  0  0  0
  8 27  1  0  0  0  0
  8 32  1  0  0  0  0
  9 29  1  0  0  0  0
  9 55  1  0  0  0  0
 10 31  1  0  0  0  0
 10 33  1  0  0  0  0
 11 12  1  0  0  0  0
 11 13  1  0  0  0  0
 11 34  1  0  0  0  0
 12 14  1  0  0  0  0
 12 35  1  0  0  0  0
 13 15  1  0  0  0  0
 13 36  1  0  0  0  0
 14 17  1  0  0  0  0
 14 37  1  0  0  0  0
 15 38  1  0  0  0  0
 16 18  1  0  0  0  0
 16 20  1  0  0  0  0
 16 23  1  0  0  0  0
 16 39  1  0  0  0  0
 17 40  1  0  0  0  0
 17 41  1  0  0  0  0
 18 19  1  0  0  0  0
 18 42  1  0  0  0  0
 18 43  1  0  0  0  0
 19 21  2  0  0  0  0
 19 25  1  0  0  0  0
 20 44  1  0  0  0  0
 20 45  1  0  0  0  0
 21 24  1  0  0  0  0
 22 24  2  0  0  0  0
 22 26  1  0  0  0  0
 23 27  2  0  0  0  0
 23 28  1  0  0  0  0
 24 49  1  0  0  0  0
 25 26  2  0  0  0  0
 25 50  1  0  0  0  0
 26 51  1  0  0  0  0
 27 29  1  0  0  0  0
 28 30  2  0  0  0  0
 28 52  1  0  0  0  0
 29 31  2  0  0  0  0
 30 31  1  0  0  0  0
 30 54  1  0  0  0  0
 32 56  1  0  0  0  0
 32 57  1  0  0  0  0
 32 58  1  0  0  0  0
 33 59  1  0  0  0  0
 33 60  1  0  0  0  0
 33 61  1  0  0  0  0
M  END
> <PUBCHEM_COMPOUND_CID>
131420

> <PUBCHEM_CONFORMER_RMSD>
1

> <PUBCHEM_CONFORMER_DIVERSEORDER>
1
41
36
124
86
136
44
37
112
50
94
125
163
12
144
175
134
185
182
133
24
55
148
56
130
145
184
126
2
107
35
92
88
131
96
66
113
116
111
72
63
58
177
14
129
102
39
23
29
106
171
123
174
180
99
109
75
21
139
135
78
147
183
108
27
68
181
121
43
33
95
165
67
170
59
128
173
118
141
169
81
110
159
149
122
40
127
104
62
114
97
176
25
103
82
51
89
143
162
19
64
61
157
70
26
154
160
166
46
117
168
87
13
57
140
3
74
79
83
119
18
151
100
115
8
158
76
90
22
31
45
105
10
167
137
98
7
93
16
9
73
65
6
152
85
71
120
20
178
146
52
156
91
138
84
132
15
17
34
172
4
164
60
42
80
5
161
179
142
69
153
28
54
30
47
38
150
32
48
101
11
77
155
49
53

> <PUBCHEM_MMFF94_PARTIAL_CHARGES>
43
1 -0.56
10 -0.36
11 0.28
12 0.28
13 0.28
14 0.28
15 0.56
16 0.14
17 0.28
18 0.14
19 -0.14
2 -0.36
20 0.28
21 0.08
22 0.08
23 -0.14
24 -0.15
25 -0.15
26 -0.15
27 0.08
28 -0.15
29 0.08
3 -0.68
30 -0.15
31 0.08
32 0.28
33 0.28
4 -0.68
46 0.4
47 0.4
48 0.4
49 0.15
5 -0.68
50 0.15
51 0.15
52 0.15
53 0.4
54 0.15
55 0.45
6 -0.36
7 -0.68
8 -0.36
9 -0.53

> <PUBCHEM_EFFECTIVE_ROTOR_COUNT>
8

> <PUBCHEM_PHARMACOPHORE_FEATURES>
18
1 1 acceptor
1 10 acceptor
1 2 acceptor
1 3 acceptor
1 3 donor
1 4 acceptor
1 4 donor
1 5 acceptor
1 5 donor
1 6 acceptor
1 7 acceptor
1 7 donor
1 8 acceptor
1 9 donor
6 1 11 12 13 14 15 rings
6 19 21 22 24 25 26 rings
6 23 27 28 29 30 31 rings
6 6 16 18 19 20 21 rings

> <PUBCHEM_HEAVY_ATOM_COUNT>
33

> <PUBCHEM_ATOM_DEF_STEREO_COUNT>
6

> <PUBCHEM_ATOM_UDEF_STEREO_COUNT>
0

> <PUBCHEM_BOND_DEF_STEREO_COUNT>
0

> <PUBCHEM_BOND_UDEF_STEREO_COUNT>
0

> <PUBCHEM_ISOTOPIC_ATOM_COUNT>
0

> <PUBCHEM_COMPONENT_COUNT>
1

> <PUBCHEM_CACTVS_TAUTO_COUNT>
9

> <PUBCHEM_CONFORMER_ID>
0002015C00000001

> <PUBCHEM_MMFF94_ENERGY>
130.0301

> <PUBCHEM_FEATURE_SELFOVERLAP>
91.446

> <PUBCHEM_SHAPE_FINGERPRINT>
10290309 65 18120372056272513479
10864689 126 17833274120803361190
10939801 23 18198903802739725628
11135609 12 18334297560708424473
11578080 2 12894528572775277395
117089 54 18045509870049498275
11963148 33 18115579324327286634
12107183 9 18340496590961909857
12422481 6 18341899571697637053
12633257 1 16056318461349960581
13402501 40 18410853257042476310
13583140 156 17845637175918503128
1361 2 18261395615725843852
1361 4 18410291437092715378
14251751 18 18409167705574528205
14394314 77 18343588455675767761
14420673 8 18411421709181209199
15001296 14 18336261327473028354
15064986 96 17775299256968653223
15320467 1 18410854343611660670
15361156 5 18041007270874518701
15799311 1 18340783562916244080
16110190 28 18341895186261929239
1813 80 17603586330866304941
18608769 82 18411978062513126934
19315092 285 17128451240736303695
20721686 56 18410012161107884531
20775530 9 18337098021309137463
21033648 29 14979695281836695801
21197605 99 18412262865915730370
23559900 14 18341601664055609793
338550 245 18408326600680327540
463206 1 18408609188201189323
469060 322 17603581890386890694
484989 97 18341898472972570950
5104073 3 18059019518027606361
54583773 228 18408610246124621614
563151 248 18196955304763273345
56633871 153 18408891763280280293
6431902 208 18339917211924891118
7970288 3 18191866945127457423

> <PUBCHEM_SHAPE_MULTIPOLES>
620.43
17.04
4.47
1.19
10.08
3.39
0.04
10.18
-4.47
-2.02
0.31
-0.55
-0.67
0.01

> <PUBCHEM_SHAPE_SELFOVERLAP>
1336.441

> <PUBCHEM_SHAPE_VOLUME>
337

> <PUBCHEM_COORDINATE_TYPE>
2
5
10

$$$$
