131464
  -OEChem-03292013323D

 38 38  0     1  0  0  0  0  0999 V2000
   -3.8641    1.2135    0.0793 S   0  0  0  0  0  0  0  0  0  0  0  0
   -1.1429   -2.6113   -0.4199 S   0  0  0  0  0  0  0  0  0  0  0  0
   -2.3322    1.5567   -0.3634 O   0  0  0  0  0  0  0  0  0  0  0  0
    1.1316    1.3675    0.7220 O   0  0  0  0  0  0  0  0  0  0  0  0
   -1.1501   -0.9775   -0.4331 O   0  0  0  0  0  0  0  0  0  0  0  0
    2.3312   -1.1004    1.1662 O   0  0  0  0  0  0  0  0  0  0  0  0
   -4.0083   -0.2271    0.1839 O   0  0  0  0  0  0  0  0  0  0  0  0
   -4.1765    2.0589    1.2174 O   0  0  0  0  0  0  0  0  0  0  0  0
   -2.4580   -3.0422    0.0187 O   0  0  0  0  0  0  0  0  0  0  0  0
    0.0421   -3.0644    0.2855 O   0  0  0  0  0  0  0  0  0  0  0  0
   -4.8142    1.7504   -1.2432 N   0  0  0  0  0  0  0  0  0  0  0  0
   -0.9786   -3.0426   -2.0712 N   0  0  0  0  0  0  0  0  0  0  0  0
   -1.2553    1.2369    0.5206 C   0  0  2  0  0  0  0  0  0  0  0  0
    0.0445    1.6655   -0.1477 C   0  0  0  0  0  0  0  0  0  0  0  0
   -1.2741   -0.2630    0.7922 C   0  0  0  0  0  0  0  0  0  0  0  0
    2.3269    1.0578    0.1299 C   0  0  0  0  0  0  0  0  0  0  0  0
    2.9230   -0.1787    0.3564 C   0  0  0  0  0  0  0  0  0  0  0  0
    2.9361    1.9945   -0.6993 C   0  0  0  0  0  0  0  0  0  0  0  0
    4.1408   -0.4817   -0.2526 C   0  0  0  0  0  0  0  0  0  0  0  0
    4.1539    1.6914   -1.3082 C   0  0  0  0  0  0  0  0  0  0  0  0
    4.7563    0.4533   -1.0849 C   0  0  0  0  0  0  0  0  0  0  0  0
    2.6680   -1.0576    2.5515 C   0  0  0  0  0  0  0  0  0  0  0  0
   -1.3809    1.7800    1.4648 H   0  0  0  0  0  0  0  0  0  0  0  0
    0.0219    2.7460   -0.3348 H   0  0  0  0  0  0  0  0  0  0  0  0
    0.1562    1.1750   -1.1243 H   0  0  0  0  0  0  0  0  0  0  0  0
   -0.4184   -0.5265    1.4248 H   0  0  0  0  0  0  0  0  0  0  0  0
   -2.1472   -0.5965    1.3549 H   0  0  0  0  0  0  0  0  0  0  0  0
    2.4822    2.9657   -0.8752 H   0  0  0  0  0  0  0  0  0  0  0  0
    4.6154   -1.4446   -0.0839 H   0  0  0  0  0  0  0  0  0  0  0  0
    4.6341    2.4200   -1.9548 H   0  0  0  0  0  0  0  0  0  0  0  0
    5.7046    0.2175   -1.5588 H   0  0  0  0  0  0  0  0  0  0  0  0
   -4.8512    2.7656   -1.4013 H   0  0  0  0  0  0  0  0  0  0  0  0
   -4.7245    1.2203   -2.1195 H   0  0  0  0  0  0  0  0  0  0  0  0
   -0.0759   -2.8294   -2.5146 H   0  0  0  0  0  0  0  0  0  0  0  0
   -1.7762   -2.8296   -2.6839 H   0  0  0  0  0  0  0  0  0  0  0  0
    2.1110   -1.8472    3.0632 H   0  0  0  0  0  0  0  0  0  0  0  0
    3.7387   -1.2365    2.6916 H   0  0  0  0  0  0  0  0  0  0  0  0
    2.3871   -0.0933    2.9865 H   0  0  0  0  0  0  0  0  0  0  0  0
  1  3  1  0  0  0  0
  1  7  2  0  0  0  0
  1  8  2  0  0  0  0
  1 11  1  0  0  0  0
  2  5  1  0  0  0  0
  2  9  2  0  0  0  0
  2 10  2  0  0  0  0
  2 12  1  0  0  0  0
  3 13  1  0  0  0  0
  4 14  1  0  0  0  0
  4 16  1  0  0  0  0
  5 15  1  0  0  0  0
  6 17  1  0  0  0  0
  6 22  1  0  0  0  0
 11 32  1  0  0  0  0
 11 33  1  0  0  0  0
 12 34  1  0  0  0  0
 12 35  1  0  0  0  0
 13 14  1  0  0  0  0
 13 15  1  0  0  0  0
 13 23  1  0  0  0  0
 14 24  1  0  0  0  0
 14 25  1  0  0  0  0
 15 26  1  0  0  0  0
 15 27  1  0  0  0  0
 16 17  1  0  0  0  0
 16 18  2  0  0  0  0
 17 19  2  0  0  0  0
 18 20  1  0  0  0  0
 18 28  1  0  0  0  0
 19 21  1  0  0  0  0
 19 29  1  0  0  0  0
 20 21  2  0  0  0  0
 20 30  1  0  0  0  0
 21 31  1  0  0  0  0
 22 36  1  0  0  0  0
 22 37  1  0  0  0  0
 22 38  1  0  0  0  0
M  END
> <PUBCHEM_COMPOUND_CID>
131464

> <PUBCHEM_CONFORMER_RMSD>
1.2

> <PUBCHEM_CONFORMER_DIVERSEORDER>
2
139
175
63
358
31
3
492
303
262
367
241
238
252
272
5
385
92
68
447
109
355
45
425
74
298
336
40
95
325
152
215
10
22
395
222
300
375
19
494
203
14
125
76
73
461
34
224
165
182
174
294
26
483
50
297
362
315
386
399
397
265
6
390
484
437
38
312
103
489
49
531
431
202
237
378
30
353
542
48
402
330
44
210
257
7
285
261
500
129
41
190
410
122
196
8
429
25
474
467
71
75
496
99
15
59
167
491
96
290
1
213
36
268
214
263
82
291
4
145
89
27
11
12
112

> <PUBCHEM_MMFF94_PARTIAL_CHARGES>
30
1 1.62
10 -0.65
11 -0.98
12 -0.98
13 0.28
14 0.28
15 0.28
16 0.08
17 0.08
18 -0.15
19 -0.15
2 1.62
20 -0.15
21 -0.15
22 0.28
28 0.15
29 0.15
3 -0.46
30 0.15
31 0.15
32 0.42
33 0.42
34 0.42
35 0.42
4 -0.36
5 -0.46
6 -0.36
7 -0.65
8 -0.65
9 -0.65

> <PUBCHEM_EFFECTIVE_ROTOR_COUNT>
9

> <PUBCHEM_PHARMACOPHORE_FEATURES>
9
1 10 acceptor
1 11 donor
1 12 donor
1 4 acceptor
1 6 acceptor
1 7 acceptor
1 8 acceptor
1 9 acceptor
6 16 17 18 19 20 21 rings

> <PUBCHEM_HEAVY_ATOM_COUNT>
22

> <PUBCHEM_ATOM_DEF_STEREO_COUNT>
0

> <PUBCHEM_ATOM_UDEF_STEREO_COUNT>
1

> <PUBCHEM_BOND_DEF_STEREO_COUNT>
0

> <PUBCHEM_BOND_UDEF_STEREO_COUNT>
0

> <PUBCHEM_ISOTOPIC_ATOM_COUNT>
0

> <PUBCHEM_COMPONENT_COUNT>
1

> <PUBCHEM_CACTVS_TAUTO_COUNT>
1

> <PUBCHEM_CONFORMER_ID>
0002018800000002

> <PUBCHEM_MMFF94_ENERGY>
59.1021

> <PUBCHEM_FEATURE_SELFOVERLAP>
45.715

> <PUBCHEM_SHAPE_FINGERPRINT>
10366900 7 16702308944839212360
104564 63 18195811988178417014
10616163 171 18268437995679286430
10759866 29 18186240628084597082
12553582 1 17836078253501216114
12592029 89 18337675200810782251
12788726 201 18194675097830331971
13583140 156 17530690909326428041
13836976 161 18335698287040463524
14178342 30 18121202436596011120
14251751 93 18338243763806619018
14790565 3 18268162980175847929
15415430 112 18338804523622008068
16752209 62 18271515511361140631
20465049 17 18262253114082484186
20600515 1 18130525083802814240
20602899 9 17775013387897149411
20645476 183 18187086182332534979
20645477 70 18114747018786762352
20681677 155 18341618131154797080
20871999 31 18339930440724459828
21634736 98 18120944064627693468
23402655 69 18262248806493985164
23557571 272 17986382498578015826
23558518 356 17683530898389218720
23559900 14 18202284736565722992
23598291 2 18187071871770796546
2637199 183 18335995181292560658
26918003 58 12103561952961139869
3060560 45 18263648377199954244
34934 24 18334012809262536672
44154327 71 18337670793757819194
633830 44 17632287948338925625
81228 2 17979057612090397953

> <PUBCHEM_SHAPE_MULTIPOLES>
403.53
8.99
3.34
1.52
0.77
2.67
0.38
-4.89
-1.68
2.35
-0.89
-0.75
0.62
-1.5

> <PUBCHEM_SHAPE_SELFOVERLAP>
795.277

> <PUBCHEM_SHAPE_VOLUME>
242.1

> <PUBCHEM_COORDINATE_TYPE>
2
5
10

$$$$
