REMARK  Name = 131497
REMARK  11 active torsions:
REMARK  status: ('A' for Active; 'I' for Inactive)
REMARK    1  A    between atoms: N_5  and  CA_15
REMARK    2  A    between atoms: N_7  and  C_18
REMARK    3  A    between atoms: C_9  and  C_13
REMARK    4  A    between atoms: C_14  and  C_16
REMARK    5  A    between atoms: CA_15  and  C_17
REMARK    6  A    between atoms: CA_15  and  CB_30
REMARK    7  A    between atoms: C_18  and  C_19
REMARK    8  A    between atoms: C_18  and  C_27
REMARK    9  A    between atoms: C_19  and  C_20
REMARK   10  A    between atoms: C_27  and  O_28
REMARK   11  A    between atoms: CB_30  and  CG_31
REMARK                            x       y       z     vdW  Elec       q    Type
REMARK                         _______ _______ _______ _____ _____    ______ ____
ROOT
ATOM      1  CA  PHE A   1       0.760   0.968   0.012  0.00  0.00    +0.153 C 
ENDROOT
BRANCH   1   3
ATOM      2  O   UNK A   0      -0.527   3.189  -1.351  0.00  0.00    -0.273 OA
ATOM      3  N   PHE A   1      -0.644   1.354   0.055  0.00  0.00    -0.297 N 
ATOM      4  C   UNK A   0      -1.184   2.403  -0.669  0.00  0.00    +0.241 C 
ATOM      5  H   PHE A   1      -1.247   0.836   0.635  0.00  0.00    +0.150 HD
BRANCH   4   8
ATOM      6  O   UNK A   2      -3.445   0.567  -2.249  0.00  0.00    -0.275 OA
ATOM      7  N   UNK A   0      -3.366   1.381  -0.091  0.00  0.00    -0.273 N 
ATOM      8  C   UNK A   0      -2.684   2.624  -0.446  0.00  0.00    +0.152 C 
ATOM      9  C   UNK A   0      -2.944   3.551   0.741  0.00  0.00    +0.031 C 
ATOM     10  C   UNK A   0      -3.101   2.598   1.921  0.00  0.00    +0.024 C 
ATOM     11  C   UNK A   0      -3.783   1.384   1.309  0.00  0.00    +0.094 C 
ATOM     12  C   UNK A   2      -3.668   0.421  -1.044  0.00  0.00    +0.222 C 
ATOM     13  C   UNK A   2      -4.225  -0.894  -0.536  0.00  0.00    +0.100 C 
ENDBRANCH   4   8
ENDBRANCH   1   3
BRANCH   1  16
ATOM     14  O   PHE A   1       0.430  -0.592   1.820  0.00  0.00    -0.273 OA
ATOM     15  N   UNK A   2       1.219  -1.408  -0.206  0.00  0.00    -0.295 N 
ATOM     16  C   PHE A   1       0.801  -0.408   0.660  0.00  0.00    +0.241 C 
ATOM     17  H   UNK A   2       1.557  -1.155  -1.096  0.00  0.00    +0.150 HD
BRANCH  15  18
ATOM     18  C   UNK A   2       1.176  -2.818   0.155  0.00  0.00    +0.177 C 
BRANCH  18  20
ATOM     19  O   UNK A   2       3.115  -2.982  -1.275  0.00  0.00    -0.248 OA
ATOM     20  C   UNK A   2       2.491  -3.368  -0.297  0.00  0.00    +0.332 C 
BRANCH  20  21
ATOM     21  O   UNK A   2       2.903  -4.361   0.527  0.00  0.00    -0.479 OA
ATOM     22  H   UNK A   2       2.377  -4.609   1.262  0.00  0.00    +0.295 HD
ENDBRANCH  20  21
ENDBRANCH  18  20
BRANCH  18  23
ATOM     23  C   UNK A   2       0.017  -3.552  -0.527  0.00  0.00    +0.074 C 
BRANCH  23  26
ATOM     24  N   UNK A   2      -3.155  -1.810  -0.182  0.00  0.00    -0.244 NA
ATOM     25  N   UNK A   2      -1.866  -3.123   1.057  0.00  0.00    -0.231 NA
ATOM     26  C   UNK A   2      -1.310  -2.969  -0.193  0.00  0.00    +0.065 C 
ATOM     27  C   UNK A   2      -2.122  -2.190  -0.992  0.00  0.00    +0.168 C 
ATOM     28  C   UNK A   2      -2.976  -2.418   1.027  0.00  0.00    +0.194 C 
ENDBRANCH  23  26
ENDBRANCH  18  23
ENDBRANCH  15  18
ENDBRANCH   1  16
BRANCH   1  29
ATOM     29  CB  PHE A   1       1.637   1.937   0.792  0.00  0.00    +0.055 C 
BRANCH  29  30
ATOM     30  CG  PHE A   1       3.082   1.841   0.378  0.00  0.00    -0.020 C 
ATOM     31  CD1 PHE A   1       3.922   0.952   1.032  0.00  0.00    -0.004 C 
ATOM     32  CD2 PHE A   1       3.552   2.644  -0.652  0.00  0.00    -0.004 C 
ATOM     33  CE1 PHE A   1       5.261   0.862   0.647  0.00  0.00    -0.000 C 
ATOM     34  CE2 PHE A   1       4.890   2.554  -1.037  0.00  0.00    -0.000 C 
ATOM     35  CZ  PHE A   1       5.744   1.664  -0.387  0.00  0.00    -0.000 C 
ENDBRANCH  29  30
ENDBRANCH   1  29
TORSDOF 10
