REMARK  Name = 131464
REMARK  11 active torsions:
REMARK  status: ('A' for Active; 'I' for Inactive)
REMARK    1  A    between atoms: C_1  and  O_2
REMARK    2  A    between atoms: C_1  and  C_9
REMARK    3  A    between atoms: C_1  and  C_19
REMARK    4  A    between atoms: O_2  and  S_3
REMARK    5  A    between atoms: S_3  and  N_6
REMARK    6  A    between atoms: C_9  and  O_10
REMARK    7  A    between atoms: O_10  and  C_11
REMARK    8  A    between atoms: C_12  and  O_17
REMARK    9  A    between atoms: C_19  and  O_20
REMARK   10  A    between atoms: O_20  and  S_21
REMARK   11  A    between atoms: S_21  and  N_24
REMARK                            x       y       z     vdW  Elec       q    Type
REMARK                         _______ _______ _______ _____ _____    ______ ____
ROOT
ATOM      1  C   UNL     1      -1.255   1.237   0.521  0.00  0.00    +0.220 C 
ENDROOT
BRANCH   1   2
ATOM      2  O   UNL     1      -2.332   1.557  -0.363  0.00  0.00    -0.226 OA
BRANCH   2   3
ATOM      3  S   UNL     1      -3.864   1.214   0.079  0.00  0.00    +0.046 S 
ATOM      4  O   UNL     1      -4.008  -0.227   0.184  0.00  0.00    -0.056 OA
ATOM      5  O   UNL     1      -4.176   2.059   1.217  0.00  0.00    -0.056 OA
BRANCH   3   6
ATOM      6  N   UNL     1      -4.814   1.750  -1.243  0.00  0.00    -0.204 NA
ATOM      7  H   UNL     1      -4.616   1.173  -2.061  0.00  0.00    +0.144 HD
ATOM      8  H   UNL     1      -4.589   2.723  -1.451  0.00  0.00    +0.144 HD
ENDBRANCH   3   6
ENDBRANCH   2   3
ENDBRANCH   1   2
BRANCH   1   9
ATOM      9  C   UNL     1       0.044   1.665  -0.148  0.00  0.00    +0.240 C 
BRANCH   9  10
ATOM     10  O   UNL     1       1.132   1.367   0.722  0.00  0.00    -0.470 OA
BRANCH  10  11
ATOM     11  C   UNL     1       2.327   1.058   0.130  0.00  0.00    +0.172 C 
ATOM     12  C   UNL     1       2.923  -0.179   0.356  0.00  0.00    +0.172 C 
ATOM     13  C   UNL     1       2.936   1.994  -0.699  0.00  0.00    +0.040 C 
ATOM     14  C   UNL     1       4.141  -0.482  -0.253  0.00  0.00    +0.040 C 
ATOM     15  C   UNL     1       4.154   1.691  -1.308  0.00  0.00    +0.003 C 
ATOM     16  C   UNL     1       4.756   0.453  -1.085  0.00  0.00    +0.003 C 
BRANCH  12  17
ATOM     17  O   UNL     1       2.331  -1.100   1.166  0.00  0.00    -0.468 OA
ATOM     18  C   UNL     1       2.668  -1.058   2.551  0.00  0.00    +0.253 C 
ENDBRANCH  12  17
ENDBRANCH  10  11
ENDBRANCH   9  10
ENDBRANCH   1   9
BRANCH   1  19
ATOM     19  C   UNL     1      -1.274  -0.263   0.792  0.00  0.00    +0.210 C 
BRANCH  19  20
ATOM     20  O   UNL     1      -1.150  -0.978  -0.433  0.00  0.00    -0.227 OA
BRANCH  20  21
ATOM     21  S   UNL     1      -1.143  -2.611  -0.420  0.00  0.00    +0.045 S 
ATOM     22  O   UNL     1      -2.458  -3.042   0.019  0.00  0.00    -0.056 OA
ATOM     23  O   UNL     1       0.042  -3.064   0.285  0.00  0.00    -0.056 OA
BRANCH  21  24
ATOM     24  N   UNL     1      -0.979  -3.043  -2.071  0.00  0.00    -0.204 NA
ATOM     25  H   UNL     1      -1.802  -2.733  -2.587  0.00  0.00    +0.144 HD
ATOM     26  H   UNL     1      -0.888  -4.055  -2.151  0.00  0.00    +0.144 HD
ENDBRANCH  21  24
ENDBRANCH  20  21
ENDBRANCH  19  20
ENDBRANCH   1  19
TORSDOF 11
