REMARK  Name = 131498
REMARK  10 active torsions:
REMARK  status: ('A' for Active; 'I' for Inactive)
REMARK    1  A    between atoms: C_3  and  C_9
REMARK    2  A    between atoms: C_4  and  C_16
REMARK    3  A    between atoms: C_4  and  C_26
REMARK    4  A    between atoms: C_7  and  C_27
REMARK    5  A    between atoms: C_9  and  O_10
REMARK    6  A    between atoms: O_10  and  C_11
REMARK    7  A    between atoms: C_16  and  O_17
REMARK    8  A    between atoms: O_17  and  C_18
REMARK    9  A    between atoms: C_18  and  C_19
REMARK   10  A    between atoms: C_27  and  N_29
REMARK                            x       y       z     vdW  Elec       q    Type
REMARK                         _______ _______ _______ _____ _____    ______ ____
ROOT
ATOM      1  O   UNL     1       1.091   2.753   1.331  0.00  0.00    -0.277 OA
ATOM      2  N   UNL     1       0.291   1.748  -0.604  0.00  0.00    -0.264 N 
ATOM      3  C   UNL     1      -1.702   0.637  -1.272  0.00  0.00    +0.141 C 
ATOM      4  C   UNL     1      -0.941   1.171  -0.038  0.00  0.00    +0.239 C 
ATOM      5  C   UNL     1      -0.590   0.327  -2.273  0.00  0.00    +0.036 C 
ATOM      6  C   UNL     1       0.410   1.444  -2.028  0.00  0.00    +0.095 C 
ATOM      7  C   UNL     1       1.201   2.503   0.130  0.00  0.00    +0.206 C 
ENDROOT
BRANCH   3   9
ATOM      8  O   UNL     1      -2.364  -1.665  -1.513  0.00  0.00    -0.250 OA
ATOM      9  C   UNL     1      -2.550  -0.569  -1.004  0.00  0.00    +0.319 C 
BRANCH   9  10
ATOM     10  O   UNL     1      -3.537  -0.244  -0.120  0.00  0.00    -0.456 OA
BRANCH  10  11
ATOM     11  C   UNL     1      -4.428  -1.309   0.226  0.00  0.00    +0.136 C 
ATOM     12  C   UNL     1      -5.126  -1.793  -1.044  0.00  0.00    +0.044 C 
ATOM     13  C   UNL     1      -5.445  -0.754   1.220  0.00  0.00    +0.044 C 
ATOM     14  C   UNL     1      -3.614  -2.435   0.863  0.00  0.00    +0.044 C 
ENDBRANCH  10  11
ENDBRANCH   9  10
ENDBRANCH   3   9
BRANCH   4  16
ATOM     15  O   UNL     1      -1.162  -0.314   1.853  0.00  0.00    -0.247 OA
ATOM     16  C   UNL     1      -0.512   0.062   0.887  0.00  0.00    +0.348 C 
BRANCH  16  17
ATOM     17  O   UNL     1       0.689  -0.435   0.476  0.00  0.00    -0.442 OA
BRANCH  17  18
ATOM     18  C   UNL     1       1.218  -1.501   1.272  0.00  0.00    +0.235 C 
BRANCH  18  19
ATOM     19  C   UNL     1       2.533  -1.937   0.696  0.00  0.00    +0.021 C 
ATOM     20  C   UNL     1       2.573  -2.942  -0.270  0.00  0.00    -0.001 C 
ATOM     21  C   UNL     1       3.716  -1.335   1.126  0.00  0.00    -0.001 C 
ATOM     22  C   UNL     1       3.796  -3.346  -0.806  0.00  0.00    -0.000 C 
ATOM     23  C   UNL     1       4.939  -1.740   0.590  0.00  0.00    -0.000 C 
ATOM     24  C   UNL     1       4.979  -2.745  -0.376  0.00  0.00    -0.000 C 
ENDBRANCH  18  19
ENDBRANCH  17  18
ENDBRANCH  16  17
ENDBRANCH   4  16
BRANCH   4  26
ATOM     25  N   UNL     1      -2.400   2.946   1.242  0.00  0.00    -0.194 NA
ATOM     26  C   UNL     1      -1.756   2.163   0.678  0.00  0.00    +0.102 C 
ENDBRANCH   4  26
BRANCH   7  27
ATOM     27  C   UNL     1       2.392   3.018  -0.640  0.00  0.00    +0.013 C 
ATOM     28  C   UNL     1       3.525   2.014  -0.572  0.00  0.00    -0.015 C 
BRANCH  27  29
ATOM     29  N   UNL     1       2.775   4.279  -0.029  0.00  0.00    +0.387 N 
ATOM     30  H   UNL     1       1.996   4.935  -0.088  0.00  0.00    -0.089 HD
ATOM     31  H   UNL     1       3.582   4.664  -0.520  0.00  0.00    -0.089 HD
ATOM     32  H   UNL     1       3.015   4.124   0.950  0.00  0.00    -0.089 HD
ENDBRANCH  27  29
ENDBRANCH   7  27
TORSDOF 10
