REMARK  Name = 131408
REMARK  4 active torsions:
REMARK  status: ('A' for Active; 'I' for Inactive)
REMARK    1  A    between atoms: C_6  and  O_24
REMARK    2  A    between atoms: C_8  and  N_15
REMARK    3  A    between atoms: C_16  and  C_18
REMARK    4  A    between atoms: O_24  and  S_25
REMARK                            x       y       z     vdW  Elec       q    Type
REMARK                         _______ _______ _______ _____ _____    ______ ____
ROOT
ATOM      1  C   UNL     1      -1.899  -0.247   0.305  0.00  0.00    +0.038 C 
ATOM      2  C   UNL     1      -3.024  -1.234   0.531  0.00  0.00    +0.003 C 
ATOM      3  C   UNL     1      -2.416   1.030  -0.011  0.00  0.00    -0.001 C 
ATOM      4  C   UNL     1      -4.245  -0.367   0.307  0.00  0.00    -0.004 C 
ATOM      5  C   UNL     1      -3.861   0.956  -0.010  0.00  0.00    -0.018 C 
ATOM      6  C   UNL     1      -0.536  -0.477   0.376  0.00  0.00    +0.189 C 
ATOM      7  C   UNL     1      -1.564   2.093  -0.259  0.00  0.00    +0.001 C 
ATOM      8  C   UNL     1       0.323   0.595   0.126  0.00  0.00    +0.088 C 
ATOM      9  C   UNL     1      -5.577  -0.735   0.381  0.00  0.00    -0.001 C 
ATOM     10  C   UNL     1      -4.818   1.927  -0.256  0.00  0.00    +0.052 C 
ATOM     11  C   UNL     1      -0.186   1.867  -0.189  0.00  0.00    +0.018 C 
ATOM     12  C   UNL     1      -6.542   0.244   0.132  0.00  0.00    -0.004 C 
ATOM     13  C   UNL     1      -6.166   1.561  -0.183  0.00  0.00    -0.021 C 
ENDROOT
BRANCH   8  15
ATOM     14  O   UNL     1       2.548   2.553  -0.323  0.00  0.00    -0.270 OA
ATOM     15  N   UNL     1       1.708   0.417   0.185  0.00  0.00    -0.278 N 
ATOM     16  C   UNL     1       2.708   1.372  -0.035  0.00  0.00    +0.250 C 
ATOM     17  H   UNL     1       2.018  -0.490   0.409  0.00  0.00    +0.155 HD
BRANCH  16  18
ATOM     18  C   UNL     1       4.102   0.868   0.074  0.00  0.00    +0.054 C 
ATOM     19  C   UNL     1       5.097   1.507  -0.636  0.00  0.00    +0.005 C 
ATOM     20  C   UNL     1       4.355  -0.220   0.882  0.00  0.00    +0.005 C 
ATOM     21  C   UNL     1       6.405   1.035  -0.534  0.00  0.00    +0.000 C 
ATOM     22  C   UNL     1       5.664  -0.693   0.984  0.00  0.00    +0.000 C 
ATOM     23  C   UNL     1       6.689  -0.065   0.276  0.00  0.00    +0.000 C 
ENDBRANCH  16  18
ENDBRANCH   8  15
BRANCH   6  24
ATOM     24  O   UNL     1      -0.060  -1.712   0.682  0.00  0.00    -0.321 OA
BRANCH  24  25
ATOM     25  S   UNL     1       0.236  -2.778  -0.536  0.00  0.00    +0.282 S 
ATOM     26  O   UNL     1       0.645  -4.154   0.241  0.00  0.00    -0.012 OA
ATOM     27  O   UNL     1      -0.999  -3.024  -1.258  0.00  0.00    -0.105 OA
ATOM     28  O   UNL     1       1.412  -2.318  -1.251  0.00  0.00    -0.105 OA
ENDBRANCH  24  25
ENDBRANCH   6  24
TORSDOF 4
