131532
  -OEChem-03292013323D

 60 61  0     1  0  0  0  0  0999 V2000
    3.1890    2.0419   -1.6747 Cl  0  0  0  0  0  0  0  0  0  0  0  0
    2.7314    4.7986   -0.0886 Cl  0  0  0  0  0  0  0  0  0  0  0  0
   -2.4873   -2.0207   -0.0629 O   0  0  0  0  0  0  0  0  0  0  0  0
   -1.4351    0.3066   -1.6599 O   0  0  0  0  0  0  0  0  0  0  0  0
    4.5799   -1.0058   -0.3454 O   0  0  0  0  0  0  0  0  0  0  0  0
    0.3255    0.1092   -3.1502 O   0  0  0  0  0  0  0  0  0  0  0  0
    4.2475   -0.9464    1.9449 O   0  0  0  0  0  0  0  0  0  0  0  0
   -4.7586   -0.4963    0.4459 O   0  0  0  0  0  0  0  0  0  0  0  0
    0.5380   -2.7536    0.4415 N   0  0  0  0  0  0  0  0  0  0  0  0
   -6.5865    2.3002    1.9853 N   0  0  0  0  0  0  0  0  0  0  0  0
    1.7665   -0.3735   -0.4857 C   0  0  2  0  0  0  0  0  0  0  0  0
    0.4138   -0.8786   -0.9975 C   0  0  0  0  0  0  0  0  0  0  0  0
    2.4591   -1.3709    0.4485 C   0  0  0  0  0  0  0  0  0  0  0  0
   -0.1443   -2.0080   -0.5062 C   0  0  0  0  0  0  0  0  0  0  0  0
    1.8224   -2.4814    0.8846 C   0  0  0  0  0  0  0  0  0  0  0  0
    1.5917    0.9451    0.2112 C   0  0  0  0  0  0  0  0  0  0  0  0
   -1.4867   -2.5604   -0.9032 C   0  0  0  0  0  0  0  0  0  0  0  0
   -0.2126   -0.1006   -2.0787 C   0  0  0  0  0  0  0  0  0  0  0  0
    2.3925   -3.4958    1.8389 C   0  0  0  0  0  0  0  0  0  0  0  0
    3.8592   -1.0825    0.7994 C   0  0  0  0  0  0  0  0  0  0  0  0
    2.1998    2.1122   -0.2514 C   0  0  0  0  0  0  0  0  0  0  0  0
    0.7923    0.9807    1.3539 C   0  0  0  0  0  0  0  0  0  0  0  0
    2.0086    3.3149    0.4289 C   0  0  0  0  0  0  0  0  0  0  0  0
    0.6013    2.1833    2.0341 C   0  0  0  0  0  0  0  0  0  0  0  0
    1.2095    3.3504    1.5716 C   0  0  0  0  0  0  0  0  0  0  0  0
   -3.7812   -2.5124   -0.3972 C   0  0  0  0  0  0  0  0  0  0  0  0
   -4.7991   -1.9140    0.5545 C   0  0  0  0  0  0  0  0  0  0  0  0
   -2.1750    1.0808   -2.6096 C   0  0  0  0  0  0  0  0  0  0  0  0
    5.9730   -0.7289   -0.1681 C   0  0  0  0  0  0  0  0  0  0  0  0
   -3.5095    1.4601   -2.0036 C   0  0  0  0  0  0  0  0  0  0  0  0
   -5.7108    0.1187    1.3025 C   0  0  0  0  0  0  0  0  0  0  0  0
   -5.6143    1.6270    1.1371 C   0  0  0  0  0  0  0  0  0  0  0  0
    2.3948   -0.3155   -1.3794 H   0  0  0  0  0  0  0  0  0  0  0  0
    0.0872   -3.5882    0.7993 H   0  0  0  0  0  0  0  0  0  0  0  0
   -1.4835   -3.6552   -0.8241 H   0  0  0  0  0  0  0  0  0  0  0  0
   -1.7111   -2.3260   -1.9509 H   0  0  0  0  0  0  0  0  0  0  0  0
    2.2814   -4.5054    1.4274 H   0  0  0  0  0  0  0  0  0  0  0  0
    3.4569   -3.3543    2.0412 H   0  0  0  0  0  0  0  0  0  0  0  0
    1.8582   -3.4546    2.7939 H   0  0  0  0  0  0  0  0  0  0  0  0
    0.3036    0.0906    1.7402 H   0  0  0  0  0  0  0  0  0  0  0  0
   -0.0214    2.2112    2.9235 H   0  0  0  0  0  0  0  0  0  0  0  0
   -4.0159   -2.2138   -1.4254 H   0  0  0  0  0  0  0  0  0  0  0  0
   -3.7977   -3.6053   -0.3231 H   0  0  0  0  0  0  0  0  0  0  0  0
    1.0492    4.2786    2.1144 H   0  0  0  0  0  0  0  0  0  0  0  0
   -5.8012   -2.2814    0.3075 H   0  0  0  0  0  0  0  0  0  0  0  0
   -4.5520   -2.1962    1.5845 H   0  0  0  0  0  0  0  0  0  0  0  0
   -2.3326    0.4942   -3.5215 H   0  0  0  0  0  0  0  0  0  0  0  0
   -1.6106    1.9879   -2.8533 H   0  0  0  0  0  0  0  0  0  0  0  0
    6.4408   -0.6950   -1.1555 H   0  0  0  0  0  0  0  0  0  0  0  0
    6.4458   -1.5227    0.4182 H   0  0  0  0  0  0  0  0  0  0  0  0
    6.1065    0.2428    0.3172 H   0  0  0  0  0  0  0  0  0  0  0  0
   -4.1112    0.5651   -1.8253 H   0  0  0  0  0  0  0  0  0  0  0  0
   -3.3699    1.9601   -1.0403 H   0  0  0  0  0  0  0  0  0  0  0  0
   -4.0668    2.1225   -2.6718 H   0  0  0  0  0  0  0  0  0  0  0  0
   -5.5032   -0.1636    2.3418 H   0  0  0  0  0  0  0  0  0  0  0  0
   -6.7173   -0.2276    1.0376 H   0  0  0  0  0  0  0  0  0  0  0  0
   -5.7910    1.8981    0.0905 H   0  0  0  0  0  0  0  0  0  0  0  0
   -4.6013    1.9670    1.3810 H   0  0  0  0  0  0  0  0  0  0  0  0
   -6.4042    2.0759    2.9627 H   0  0  0  0  0  0  0  0  0  0  0  0
   -6.4715    3.3089    1.8976 H   0  0  0  0  0  0  0  0  0  0  0  0
  1 21  1  0  0  0  0
  2 23  1  0  0  0  0
  3 17  1  0  0  0  0
  3 26  1  0  0  0  0
  4 18  1  0  0  0  0
  4 28  1  0  0  0  0
  5 20  1  0  0  0  0
  5 29  1  0  0  0  0
  6 18  2  0  0  0  0
  7 20  2  0  0  0  0
  8 27  1  0  0  0  0
  8 31  1  0  0  0  0
  9 14  1  0  0  0  0
  9 15  1  0  0  0  0
  9 34  1  0  0  0  0
 10 32  1  0  0  0  0
 10 59  1  0  0  0  0
 10 60  1  0  0  0  0
 11 12  1  0  0  0  0
 11 13  1  0  0  0  0
 11 16  1  0  0  0  0
 11 33  1  0  0  0  0
 12 14  2  0  0  0  0
 12 18  1  0  0  0  0
 13 15  2  0  0  0  0
 13 20  1  0  0  0  0
 14 17  1  0  0  0  0
 15 19  1  0  0  0  0
 16 21  2  0  0  0  0
 16 22  1  0  0  0  0
 17 35  1  0  0  0  0
 17 36  1  0  0  0  0
 19 37  1  0  0  0  0
 19 38  1  0  0  0  0
 19 39  1  0  0  0  0
 21 23  1  0  0  0  0
 22 24  2  0  0  0  0
 22 40  1  0  0  0  0
 23 25  2  0  0  0  0
 24 25  1  0  0  0  0
 24 41  1  0  0  0  0
 25 44  1  0  0  0  0
 26 27  1  0  0  0  0
 26 42  1  0  0  0  0
 26 43  1  0  0  0  0
 27 45  1  0  0  0  0
 27 46  1  0  0  0  0
 28 30  1  0  0  0  0
 28 47  1  0  0  0  0
 28 48  1  0  0  0  0
 29 49  1  0  0  0  0
 29 50  1  0  0  0  0
 29 51  1  0  0  0  0
 30 52  1  0  0  0  0
 30 53  1  0  0  0  0
 30 54  1  0  0  0  0
 31 32  1  0  0  0  0
 31 55  1  0  0  0  0
 31 56  1  0  0  0  0
 32 57  1  0  0  0  0
 32 58  1  0  0  0  0
M  END
> <PUBCHEM_COMPOUND_CID>
131532

> <PUBCHEM_CONFORMER_RMSD>
1.2

> <PUBCHEM_CONFORMER_DIVERSEORDER>
1
26
9
40
16
34
39
8
36
44
35
43
5
32
20
18
7
38
31
24
25
29
21
33
42
17
10
6
27
14
3
41
13
12
11
28
19
23
15
22
2
4
30
37

> <PUBCHEM_MMFF94_PARTIAL_CHARGES>
37
1 -0.18
10 -0.99
11 0.42
12 -0.12
13 -0.12
14 -0.04
15 -0.04
16 -0.14
17 0.42
18 0.71
19 0.14
2 -0.18
20 0.71
21 0.18
22 -0.15
23 0.18
24 -0.15
25 -0.15
26 0.28
27 0.28
28 0.28
29 0.28
3 -0.56
31 0.28
32 0.27
34 0.4
4 -0.43
40 0.15
41 0.15
44 0.15
5 -0.43
59 0.36
6 -0.57
60 0.36
7 -0.57
8 -0.56
9 -0.6

> <PUBCHEM_EFFECTIVE_ROTOR_COUNT>
13.4

> <PUBCHEM_PHARMACOPHORE_FEATURES>
10
1 10 cation
1 10 donor
1 3 acceptor
1 6 acceptor
1 7 acceptor
1 8 acceptor
1 9 cation
1 9 donor
6 16 21 22 23 24 25 rings
6 9 11 12 13 14 15 rings

> <PUBCHEM_HEAVY_ATOM_COUNT>
32

> <PUBCHEM_ATOM_DEF_STEREO_COUNT>
0

> <PUBCHEM_ATOM_UDEF_STEREO_COUNT>
1

> <PUBCHEM_BOND_DEF_STEREO_COUNT>
0

> <PUBCHEM_BOND_UDEF_STEREO_COUNT>
0

> <PUBCHEM_ISOTOPIC_ATOM_COUNT>
0

> <PUBCHEM_COMPONENT_COUNT>
1

> <PUBCHEM_CACTVS_TAUTO_COUNT>
3

> <PUBCHEM_CONFORMER_ID>
000201CC00000001

> <PUBCHEM_MMFF94_ENERGY>
72.8119

> <PUBCHEM_FEATURE_SELFOVERLAP>
50.751

> <PUBCHEM_SHAPE_FINGERPRINT>
10165383 225 17974008654611689956
12633257 1 18342460327181285009
12788726 201 17839154348386860148
13140716 1 18044629058081626596
14950920 106 18411981382438223425
14955137 171 18060422395932102876
15238133 3 18202292381142837857
15475509 8 18271541822889991350
20691752 17 17026535274448281666
20739085 24 17822291352630482159
23559900 14 17823396319066833807
350125 39 18188202212689459438
4918855 1 18260276269068365004
5265222 85 16388745061271637244
57527295 17 17839190950230000126
5895379 119 17345499057558061923
6086070 43 18267840870855843847
6371009 1 18200584814595683657
70251023 43 17982418758907663398

> <PUBCHEM_SHAPE_MULTIPOLES>
617.11
10.8
4.81
2.36
14.17
2.63
0.99
1.24
-4.64
-2.62
-1.77
1.06
0.89
-1.67

> <PUBCHEM_SHAPE_SELFOVERLAP>
1260.57

> <PUBCHEM_SHAPE_VOLUME>
359.5

> <PUBCHEM_COORDINATE_TYPE>
2
5
10

$$$$
