REMARK  Name = 131532
REMARK  14 active torsions:
REMARK  status: ('A' for Active; 'I' for Inactive)
REMARK    1  A    between atoms: C_2  and  C_11
REMARK    2  A    between atoms: C_3  and  C_18
REMARK    3  A    between atoms: C_4  and  C_23
REMARK    4  A    between atoms: C_5  and  C_26
REMARK    5  A    between atoms: C_18  and  O_19
REMARK    6  A    between atoms: O_19  and  C_20
REMARK    7  A    between atoms: C_23  and  O_24
REMARK    8  A    between atoms: C_26  and  O_27
REMARK    9  A    between atoms: O_27  and  C_28
REMARK   10  A    between atoms: C_28  and  C_29
REMARK   11  A    between atoms: C_29  and  O_30
REMARK   12  A    between atoms: O_30  and  C_31
REMARK   13  A    between atoms: C_31  and  C_32
REMARK   14  A    between atoms: C_32  and  N_33
REMARK                            x       y       z     vdW  Elec       q    Type
REMARK                         _______ _______ _______ _____ _____    ______ ____
ROOT
ATOM      1  N   UNL     1       0.538  -2.754   0.442  0.00  0.00    -0.332 N 
ATOM      2  C   UNL     1       1.766  -0.373  -0.486  0.00  0.00    +0.012 C 
ATOM      3  C   UNL     1       0.414  -0.879  -0.998  0.00  0.00    +0.074 C 
ATOM      4  C   UNL     1       2.459  -1.371   0.449  0.00  0.00    +0.085 C 
ATOM      5  C   UNL     1      -0.144  -2.008  -0.506  0.00  0.00    +0.128 C 
ATOM      6  C   UNL     1       1.822  -2.481   0.885  0.00  0.00    +0.028 C 
ATOM      7  C   UNL     1       2.393  -3.496   1.839  0.00  0.00    +0.047 C 
ATOM      8  H   UNL     1       0.077  -3.533   0.828  0.00  0.00    +0.147 HD
ENDROOT
BRANCH   2  11
ATOM      9 CL   UNL     1       3.189   2.042  -1.675  0.00  0.00    -0.081 Cl
ATOM     10 CL   UNL     1       2.731   4.799  -0.089  0.00  0.00    -0.081 Cl
ATOM     11  C   UNL     1       1.592   0.945   0.211  0.00  0.00    +0.012 C 
ATOM     12  C   UNL     1       2.200   2.112  -0.251  0.00  0.00    +0.068 C 
ATOM     13  C   UNL     1       0.792   0.981   1.354  0.00  0.00    +0.001 C 
ATOM     14  C   UNL     1       2.009   3.315   0.429  0.00  0.00    +0.068 C 
ATOM     15  C   UNL     1       0.601   2.183   2.034  0.00  0.00    +0.001 C 
ATOM     16  C   UNL     1       1.210   3.350   1.572  0.00  0.00    +0.012 C 
ENDBRANCH   2  11
BRANCH   3  18
ATOM     17  O   UNL     1       0.326   0.109  -3.150  0.00  0.00    -0.245 OA
ATOM     18  C   UNL     1      -0.213  -0.101  -2.079  0.00  0.00    +0.339 C 
BRANCH  18  19
ATOM     19  O   UNL     1      -1.435   0.307  -1.660  0.00  0.00    -0.446 OA
BRANCH  19  20
ATOM     20  C   UNL     1      -2.175   1.081  -2.610  0.00  0.00    +0.209 C 
ATOM     21  C   UNL     1      -3.510   1.460  -2.004  0.00  0.00    +0.051 C 
ENDBRANCH  19  20
ENDBRANCH  18  19
ENDBRANCH   3  18
BRANCH   4  23
ATOM     22  O   UNL     1       4.247  -0.946   1.945  0.00  0.00    -0.245 OA
ATOM     23  C   UNL     1       3.859  -1.083   0.799  0.00  0.00    +0.342 C 
BRANCH  23  24
ATOM     24  O   UNL     1       4.580  -1.006  -0.345  0.00  0.00    -0.441 OA
ATOM     25  C   UNL     1       5.973  -0.729  -0.168  0.00  0.00    +0.256 C 
ENDBRANCH  23  24
ENDBRANCH   4  23
BRANCH   5  26
ATOM     26  C   UNL     1      -1.487  -2.560  -0.903  0.00  0.00    +0.166 C 
BRANCH  26  27
ATOM     27  O   UNL     1      -2.487  -2.021  -0.063  0.00  0.00    -0.349 OA
BRANCH  27  28
ATOM     28  C   UNL     1      -3.781  -2.512  -0.397  0.00  0.00    +0.174 C 
BRANCH  28  29
ATOM     29  C   UNL     1      -4.799  -1.914   0.554  0.00  0.00    +0.174 C 
BRANCH  29  30
ATOM     30  O   UNL     1      -4.759  -0.496   0.446  0.00  0.00    -0.353 OA
BRANCH  30  31
ATOM     31  C   UNL     1      -5.711   0.119   1.302  0.00  0.00    +0.119 C 
BRANCH  31  32
ATOM     32  C   UNL     1      -5.614   1.627   1.137  0.00  0.00    -0.054 C 
BRANCH  32  33
ATOM     33  N   UNL     1      -6.587   2.300   1.985  0.00  0.00    +0.382 N 
ATOM     34  H   UNL     1      -6.506   3.309   1.860  0.00  0.00    -0.089 HD
ATOM     35  H   UNL     1      -6.408   2.063   2.961  0.00  0.00    -0.089 HD
ATOM     36  H   UNL     1      -7.527   2.000   1.729  0.00  0.00    -0.089 HD
ENDBRANCH  32  33
ENDBRANCH  31  32
ENDBRANCH  30  31
ENDBRANCH  29  30
ENDBRANCH  28  29
ENDBRANCH  27  28
ENDBRANCH  26  27
ENDBRANCH   5  26
TORSDOF 14
