REMARK  Name = 131512
REMARK  7 active torsions:
REMARK  status: ('A' for Active; 'I' for Inactive)
REMARK    1  A    between atoms: C_3  and  O_25
REMARK    2  A    between atoms: C_11  and  O_21
REMARK    3  A    between atoms: C_13  and  O_23
REMARK    4  A    between atoms: O_25  and  C_31
REMARK    5  A    between atoms: C_27  and  O_33
REMARK    6  A    between atoms: C_28  and  O_35
REMARK    7  A    between atoms: C_29  and  O_37
REMARK                            x       y       z     vdW  Elec       q    Type
REMARK                         _______ _______ _______ _____ _____    ______ ____
ROOT
ATOM      1  O   UNL     1       3.177  -2.122  -0.060  0.00  0.00    -0.421 OA
ATOM      2  O   UNL     1       5.432  -1.839  -0.241  0.00  0.00    -0.244 OA
ATOM      3  C   UNL     1      -0.731  -0.702   0.339  0.00  0.00    +0.144 C 
ATOM      4  C   UNL     1      -0.511  -2.083   0.258  0.00  0.00    +0.071 C 
ATOM      5  C   UNL     1       1.660  -0.229   0.153  0.00  0.00    +0.041 A 
ATOM      6  C   UNL     1       0.334   0.205   0.287  0.00  0.00    +0.040 C 
ATOM      7  C   UNL     1       0.809  -2.562   0.124  0.00  0.00    +0.041 C 
ATOM      8  C   UNL     1       1.859  -1.613   0.075  0.00  0.00    +0.149 A 
ATOM      9  C   UNL     1       2.824   0.667   0.091  0.00  0.00    +0.043 A 
ATOM     10  C   UNL     1       4.112   0.123  -0.044  0.00  0.00    +0.079 A 
ATOM     11  C   UNL     1      -1.582  -2.991   0.309  0.00  0.00    +0.137 C 
ATOM     12  C   UNL     1       1.012  -3.957   0.044  0.00  0.00    +0.003 C 
ATOM     13  C   UNL     1       2.722   2.070   0.161  0.00  0.00    +0.139 C 
ATOM     14  C   UNL     1       4.320  -1.340  -0.125  0.00  0.00    +0.346 A 
ATOM     15  C   UNL     1       5.248   0.947  -0.108  0.00  0.00    +0.002 C 
ATOM     16  C   UNL     1      -1.358  -4.365   0.228  0.00  0.00    +0.037 C 
ATOM     17  C   UNL     1      -0.062  -4.848   0.096  0.00  0.00    +0.003 C 
ATOM     18  C   UNL     1       5.115   2.330  -0.037  0.00  0.00    -0.019 C 
ATOM     19  C   UNL     1       3.852   2.892   0.098  0.00  0.00    +0.033 C 
ATOM     20  C   UNL     1       6.320   3.204  -0.105  0.00  0.00    +0.031 C 
ENDROOT
BRANCH  11  21
ATOM     21  O   UNL     1      -2.883  -2.595   0.439  0.00  0.00    -0.505 OA
ATOM     22  H   UNL     1      -3.092  -1.683   0.498  0.00  0.00    +0.292 HD
ENDBRANCH  11  21
BRANCH  13  23
ATOM     23  O   UNL     1       1.553   2.760   0.294  0.00  0.00    -0.471 OA
ATOM     24  C   UNL     1       0.888   3.142  -0.908  0.00  0.00    +0.252 C 
ENDBRANCH  13  23
BRANCH   3  25
ATOM     25  O   UNL     1      -1.981  -0.163   0.469  0.00  0.00    -0.450 OA
BRANCH  25  31
ATOM     26  O   UNL     1      -2.641   2.049  -0.079  0.00  0.00    -0.319 OA
ATOM     27  C   UNL     1      -4.869   0.249  -0.286  0.00  0.00    +0.173 C 
ATOM     28  C   UNL     1      -5.032   1.666   0.266  0.00  0.00    +0.167 C 
ATOM     29  C   UNL     1      -3.667   0.164  -1.228  0.00  0.00    +0.210 C 
ATOM     30  C   UNL     1      -3.708   2.152   0.870  0.00  0.00    +0.148 C 
ATOM     31  C   UNL     1      -2.410   0.721  -0.560  0.00  0.00    +0.318 C 
ATOM     32  C   UNL     1      -3.779   3.614   1.303  0.00  0.00    +0.035 C 
BRANCH  27  33
ATOM     33  O   UNL     1      -6.057  -0.123  -0.981  0.00  0.00    -0.379 OA
ATOM     34  H   UNL     1      -6.815  -0.067  -0.379  0.00  0.00    +0.211 HD
ENDBRANCH  27  33
BRANCH  28  35
ATOM     35  O   UNL     1      -6.050   1.638   1.264  0.00  0.00    -0.379 OA
ATOM     36  H   UNL     1      -6.881   1.330   0.871  0.00  0.00    +0.211 HD
ENDBRANCH  28  35
BRANCH  29  37
ATOM     37  O   UNL     1      -3.913   0.937  -2.404  0.00  0.00    -0.377 OA
ATOM     38  H   UNL     1      -4.708   0.604  -2.849  0.00  0.00    +0.211 HD
ENDBRANCH  29  37
ENDBRANCH  25  31
ENDBRANCH   3  25
TORSDOF 7
