131511
  -OEChem-03292013323D

 62 66  0     1  0  0  0  0  0999 V2000
   -5.0052   -2.2568    0.9819 O   0  0  0  0  0  0  0  0  0  0  0  0
   -1.9732   -0.6025   -0.0097 O   0  0  0  0  0  0  0  0  0  0  0  0
    5.0652    0.1664    0.8306 O   0  0  0  0  0  0  0  0  0  0  0  0
   -3.8499    2.9343    0.6803 O   0  0  0  0  0  0  0  0  0  0  0  0
    0.0937   -1.9467   -0.3916 O   0  0  0  0  0  0  0  0  0  0  0  0
    2.1907   -3.2145   -0.6941 O   0  0  0  0  0  0  0  0  0  0  0  0
   -2.4765    6.2696   -0.3233 O   0  0  0  0  0  0  0  0  0  0  0  0
   -1.7546    4.6390   -1.7284 O   0  0  0  0  0  0  0  0  0  0  0  0
    7.2018    0.6285    0.0834 O   0  0  0  0  0  0  0  0  0  0  0  0
   -4.0701   -1.8356    0.0016 C   0  0  2  0  0  0  0  0  0  0  0  0
   -3.7340   -2.9191    0.9642 C   0  0  2  0  0  0  0  0  0  0  0  0
   -3.7895   -4.3707    0.6654 C   0  0  0  0  0  0  0  0  0  0  0  0
   -3.3565   -0.5414    0.1258 C   0  0  0  0  0  0  0  0  0  0  0  0
   -4.4582   -2.1927   -1.3789 C   0  0  0  0  0  0  0  0  0  0  0  0
   -2.5250   -4.8664   -0.0459 C   0  0  0  0  0  0  0  0  0  0  0  0
   -4.0127    0.6085    0.3546 C   0  0  0  0  0  0  0  0  0  0  0  0
   -1.2231    0.5475    0.0910 C   0  0  0  0  0  0  0  0  0  0  0  0
   -1.8125    1.7900    0.3275 C   0  0  0  0  0  0  0  0  0  0  0  0
    0.1800    0.4320   -0.0538 C   0  0  0  0  0  0  0  0  0  0  0  0
   -3.2725    1.8761    0.4725 C   0  0  0  0  0  0  0  0  0  0  0  0
   -2.6028   -6.3460   -0.3844 C   0  0  0  0  0  0  0  0  0  0  0  0
    0.9708    1.6010    0.0459 C   0  0  0  0  0  0  0  0  0  0  0  0
    3.0035    0.2890   -0.3408 C   0  0  0  0  0  0  0  0  0  0  0  0
   -1.0291    2.9375    0.4255 C   0  0  0  0  0  0  0  0  0  0  0  0
    2.2245   -0.8692   -0.4284 C   0  0  0  0  0  0  0  0  0  0  0  0
    4.5023    0.2475   -0.4750 C   0  0  2  0  0  0  0  0  0  0  0  0
    0.8314   -0.7979   -0.2909 C   0  0  0  0  0  0  0  0  0  0  0  0
    4.9465   -0.9431   -1.3201 C   0  0  0  0  0  0  0  0  0  0  0  0
    2.3660    1.5134   -0.0952 C   0  0  0  0  0  0  0  0  0  0  0  0
    0.3542    2.8396    0.2851 C   0  0  0  0  0  0  0  0  0  0  0  0
    4.3738   -2.2445   -0.7783 C   0  0  0  0  0  0  0  0  0  0  0  0
    2.8672   -2.1902   -0.6572 C   0  0  0  0  0  0  0  0  0  0  0  0
   -1.5843    4.3022    0.6776 C   0  0  0  0  0  0  0  0  0  0  0  0
   -1.9323    5.0532   -0.5911 C   0  0  0  0  0  0  0  0  0  0  0  0
    6.4290    0.1201    0.8843 C   0  0  0  0  0  0  0  0  0  0  0  0
    6.8617   -0.6579    2.0899 C   0  0  0  0  0  0  0  0  0  0  0  0
   -3.0523   -2.7027    1.7790 H   0  0  0  0  0  0  0  0  0  0  0  0
   -4.6716   -4.6243    0.0664 H   0  0  0  0  0  0  0  0  0  0  0  0
   -3.9039   -4.9154    1.6109 H   0  0  0  0  0  0  0  0  0  0  0  0
   -3.5769   -2.4252   -1.9866 H   0  0  0  0  0  0  0  0  0  0  0  0
   -5.1350   -3.0519   -1.4289 H   0  0  0  0  0  0  0  0  0  0  0  0
   -4.9838   -1.3620   -1.8648 H   0  0  0  0  0  0  0  0  0  0  0  0
   -1.6505   -4.6841    0.5902 H   0  0  0  0  0  0  0  0  0  0  0  0
   -2.3638   -4.2972   -0.9682 H   0  0  0  0  0  0  0  0  0  0  0  0
   -5.0917    0.6431    0.4571 H   0  0  0  0  0  0  0  0  0  0  0  0
   -2.7279   -6.9487    0.5208 H   0  0  0  0  0  0  0  0  0  0  0  0
   -3.4446   -6.5509   -1.0534 H   0  0  0  0  0  0  0  0  0  0  0  0
   -1.6846   -6.6695   -0.8843 H   0  0  0  0  0  0  0  0  0  0  0  0
    4.8441    1.1731   -0.9569 H   0  0  0  0  0  0  0  0  0  0  0  0
    4.5874   -0.8018   -2.3489 H   0  0  0  0  0  0  0  0  0  0  0  0
    6.0349   -1.0348   -1.3832 H   0  0  0  0  0  0  0  0  0  0  0  0
    2.9725    2.4152   -0.0147 H   0  0  0  0  0  0  0  0  0  0  0  0
    0.9697    3.7356    0.3565 H   0  0  0  0  0  0  0  0  0  0  0  0
    4.6310   -3.0577   -1.4665 H   0  0  0  0  0  0  0  0  0  0  0  0
    4.7886   -2.4865    0.2057 H   0  0  0  0  0  0  0  0  0  0  0  0
   -0.8028    4.9042    1.1652 H   0  0  0  0  0  0  0  0  0  0  0  0
   -2.3993    4.3283    1.4022 H   0  0  0  0  0  0  0  0  0  0  0  0
    0.6207   -2.7120   -0.1152 H   0  0  0  0  0  0  0  0  0  0  0  0
    7.9544   -0.6778    2.1353 H   0  0  0  0  0  0  0  0  0  0  0  0
    6.4851   -0.1771    2.9961 H   0  0  0  0  0  0  0  0  0  0  0  0
    6.4973   -1.6856    2.0193 H   0  0  0  0  0  0  0  0  0  0  0  0
   -2.7019    6.7574   -1.1439 H   0  0  0  0  0  0  0  0  0  0  0  0
  1 10  1  0  0  0  0
  1 11  1  0  0  0  0
  2 13  1  0  0  0  0
  2 17  1  0  0  0  0
  3 26  1  0  0  0  0
  3 35  1  0  0  0  0
  4 20  2  0  0  0  0
  5 27  1  0  0  0  0
  5 58  1  0  0  0  0
  6 32  2  0  0  0  0
  7 34  1  0  0  0  0
  7 62  1  0  0  0  0
  8 34  2  0  0  0  0
  9 35  2  0  0  0  0
 10 11  1  0  0  0  0
 10 13  1  0  0  0  0
 10 14  1  0  0  0  0
 11 12  1  0  0  0  0
 11 37  1  0  0  0  0
 12 15  1  0  0  0  0
 12 38  1  0  0  0  0
 12 39  1  0  0  0  0
 13 16  2  0  0  0  0
 14 40  1  0  0  0  0
 14 41  1  0  0  0  0
 14 42  1  0  0  0  0
 15 21  1  0  0  0  0
 15 43  1  0  0  0  0
 15 44  1  0  0  0  0
 16 20  1  0  0  0  0
 16 45  1  0  0  0  0
 17 18  1  0  0  0  0
 17 19  2  0  0  0  0
 18 20  1  0  0  0  0
 18 24  2  0  0  0  0
 19 22  1  0  0  0  0
 19 27  1  0  0  0  0
 21 46  1  0  0  0  0
 21 47  1  0  0  0  0
 21 48  1  0  0  0  0
 22 29  1  0  0  0  0
 22 30  2  0  0  0  0
 23 25  1  0  0  0  0
 23 26  1  0  0  0  0
 23 29  2  0  0  0  0
 24 30  1  0  0  0  0
 24 33  1  0  0  0  0
 25 27  2  0  0  0  0
 25 32  1  0  0  0  0
 26 28  1  0  0  0  0
 26 49  1  0  0  0  0
 28 31  1  0  0  0  0
 28 50  1  0  0  0  0
 28 51  1  0  0  0  0
 29 52  1  0  0  0  0
 30 53  1  0  0  0  0
 31 32  1  0  0  0  0
 31 54  1  0  0  0  0
 31 55  1  0  0  0  0
 33 34  1  0  0  0  0
 33 56  1  0  0  0  0
 33 57  1  0  0  0  0
 35 36  1  0  0  0  0
 36 59  1  0  0  0  0
 36 60  1  0  0  0  0
 36 61  1  0  0  0  0
M  END
> <PUBCHEM_COMPOUND_CID>
131511

> <PUBCHEM_CONFORMER_RMSD>
1

> <PUBCHEM_CONFORMER_DIVERSEORDER>
1
49
14
61
30
45
60
65
55
66
54
34
67
33
62
59
31
37
42
48
43
68
58
39
47
12
26
29
21
15
53
51
18
44
19
52
57
63
64
16
20
28
41
3
35
50
36
38
23
13
8
32
24
46
27
56
22
6
40
10
7
11
25
2
9
17
4
5

> <PUBCHEM_MMFF94_PARTIAL_CHARGES>
37
1 -0.3
10 0.09
11 -0.05
12 0.09
13 0.04
14 0.09
16 -0.14
17 0.08
18 0.09
2 -0.16
20 0.47
23 -0.14
24 -0.14
25 0.09
26 0.42
27 0.08
29 -0.15
3 -0.43
30 -0.15
31 0.06
32 0.42
33 0.2
34 0.66
35 0.66
36 0.06
37 0.1
4 -0.57
45 0.15
5 -0.53
52 0.15
53 0.15
58 0.45
6 -0.57
62 0.5
7 -0.65
8 -0.57
9 -0.57

> <PUBCHEM_EFFECTIVE_ROTOR_COUNT>
8.2

> <PUBCHEM_PHARMACOPHORE_FEATURES>
14
1 1 acceptor
1 2 acceptor
1 21 hydrophobe
1 4 acceptor
1 5 donor
1 6 acceptor
1 7 acceptor
1 8 acceptor
1 9 acceptor
3 7 8 34 anion
6 17 18 19 22 24 30 rings
6 19 22 23 25 27 29 rings
6 2 13 16 17 18 20 rings
6 23 25 26 28 31 32 rings

> <PUBCHEM_HEAVY_ATOM_COUNT>
36

> <PUBCHEM_ATOM_DEF_STEREO_COUNT>
0

> <PUBCHEM_ATOM_UDEF_STEREO_COUNT>
3

> <PUBCHEM_BOND_DEF_STEREO_COUNT>
0

> <PUBCHEM_BOND_UDEF_STEREO_COUNT>
0

> <PUBCHEM_ISOTOPIC_ATOM_COUNT>
0

> <PUBCHEM_COMPONENT_COUNT>
1

> <PUBCHEM_CACTVS_TAUTO_COUNT>
69

> <PUBCHEM_CONFORMER_ID>
000201B700000001

> <PUBCHEM_MMFF94_ENERGY>
96.7107

> <PUBCHEM_FEATURE_SELFOVERLAP>
71.182

> <PUBCHEM_SHAPE_FINGERPRINT>
10290309 65 18050293561562300465
10319688 45 18410009978826245569
10411042 1 18266462199127654187
11136131 41 16897072336746725282
11445158 3 16963204632664202061
12106331 60 18410005564206818918
12788726 201 18333165068121644274
13140716 1 18267861877635411338
13540713 4 18058170519289139086
13782708 43 17917436394025637902
138480 1 15959497215696779881
14068700 686 18343303652552433454
14659021 117 18410004438286571193
14790565 3 17619076027509165137
14844126 61 18408042931402843827
15131766 46 15578140811216950780
15320467 1 18195255416605592175
15400415 2 17978234855133949060
15927050 60 17619635683834249455
16087824 20 18338800006388051193
18608769 82 18342464785642519102
21033648 144 18127973010166949604
21033648 29 17977948982005401312
21133410 52 17550947427194373302
21796203 349 17613194005256454147
21859007 373 16959565833929963132
22956985 138 17689712386776967889
23559900 14 18340200894883888073
3383291 50 18412266156040268019
3504750 166 18116981218588963560
3882209 13 17767374127226830215
392239 28 18338241577900692634
4280585 95 18338226189153923707
4616759 239 17989201517400294354
463206 1 18265341796737317571
469060 322 18340223971531991568
5104073 3 18200315412308279874
5309563 4 18196379340948369095
550186 72 18410572899169427428
613672 6 18340482373918617919
6673363 416 18267318702392975244

> <PUBCHEM_SHAPE_MULTIPOLES>
688.04
12.76
8.05
1.12
20.49
2.58
0.08
-8.73
3.31
-13.46
-1.24
0.79
-0.09
0.71

> <PUBCHEM_SHAPE_SELFOVERLAP>
1516.633

> <PUBCHEM_SHAPE_VOLUME>
368.8

> <PUBCHEM_COORDINATE_TYPE>
2
5
10

$$$$
