131519
  -OEChem-03292013323D

 64 66  0     1  0  0  0  0  0999 V2000
   -5.2650    1.3409   -1.1163 S   0  0  0  0  0  0  0  0  0  0  0  0
   -2.7682   -3.0598    0.9188 S   0  0  0  0  0  0  0  0  0  0  0  0
   -3.9017    0.8013   -0.3972 O   0  0  0  0  0  0  0  0  0  0  0  0
   -2.8666   -1.4425    0.7203 O   0  0  0  0  0  0  0  0  0  0  0  0
    1.4045   -0.2111   -1.8467 O   0  0  0  0  0  0  0  0  0  0  0  0
    5.3709   -0.4665   -0.5525 O   0  0  0  0  0  0  0  0  0  0  0  0
    2.4982    1.8088   -1.7943 O   0  0  0  0  0  0  0  0  0  0  0  0
    6.1197    0.2107    1.5113 O   0  0  0  0  0  0  0  0  0  0  0  0
   -6.4014    1.0693   -0.2595 O   0  0  0  0  0  0  0  0  0  0  0  0
   -5.0245    2.6535   -1.6803 O   0  0  0  0  0  0  0  0  0  0  0  0
   -1.3758   -3.4512    1.0032 O   0  0  0  0  0  0  0  0  0  0  0  0
   -3.7465   -3.4852    1.8991 O   0  0  0  0  0  0  0  0  0  0  0  0
   -0.1180    1.1825    1.3775 C   0  0  0  0  0  0  0  0  0  0  0  0
    1.9281    0.8812    1.3453 C   0  0  0  0  0  0  0  0  0  0  0  0
    0.7822    0.0986    1.9510 C   0  0  0  0  0  0  0  0  0  0  0  0
    1.0545    2.1081    1.1307 C   0  0  0  0  0  0  0  0  0  0  0  0
   -1.0193    0.8142    0.2179 C   0  0  0  0  0  0  0  0  0  0  0  0
   -1.3014    1.6542    2.1846 C   0  0  0  0  0  0  0  0  0  0  0  0
   -2.1758    0.7789    1.2499 C   0  0  0  0  0  0  0  0  0  0  0  0
    2.6536    0.3100    0.1453 C   0  0  2  0  0  0  0  0  0  0  0  0
    3.2272    1.0295    2.0964 C   0  0  0  0  0  0  0  0  0  0  0  0
    3.9298    0.9812    0.7149 C   0  0  1  0  0  0  0  0  0  0  0  0
   -3.4445    1.4573    0.7773 C   0  0  0  0  0  0  0  0  0  0  0  0
   -2.4727   -0.5984    1.7948 C   0  0  0  0  0  0  0  0  0  0  0  0
    2.1936    0.7420   -1.2612 C   0  0  0  0  0  0  0  0  0  0  0  0
    5.2608    0.2146    0.6298 C   0  0  0  0  0  0  0  0  0  0  0  0
    0.9262    0.0952   -3.1610 C   0  0  0  0  0  0  0  0  0  0  0  0
    6.5776   -1.2165   -0.7312 C   0  0  0  0  0  0  0  0  0  0  0  0
   -5.2791    0.1630   -2.4437 C   0  0  0  0  0  0  0  0  0  0  0  0
   -3.3703   -3.5019   -0.6910 C   0  0  0  0  0  0  0  0  0  0  0  0
    0.0764   -1.0620   -3.6492 C   0  0  0  0  0  0  0  0  0  0  0  0
    6.5273   -1.8997   -2.0841 C   0  0  0  0  0  0  0  0  0  0  0  0
    0.7998    0.0573    3.0459 H   0  0  0  0  0  0  0  0  0  0  0  0
    0.6438   -0.9150    1.5639 H   0  0  0  0  0  0  0  0  0  0  0  0
    1.0761    2.6153    0.1648 H   0  0  0  0  0  0  0  0  0  0  0  0
    1.1746    2.8745    1.9068 H   0  0  0  0  0  0  0  0  0  0  0  0
   -1.1113    1.6021   -0.5399 H   0  0  0  0  0  0  0  0  0  0  0  0
   -0.8004   -0.1263   -0.2949 H   0  0  0  0  0  0  0  0  0  0  0  0
   -1.3095    1.3844    3.2450 H   0  0  0  0  0  0  0  0  0  0  0  0
   -1.4862    2.7326    2.1066 H   0  0  0  0  0  0  0  0  0  0  0  0
    2.7243   -0.7879    0.2036 H   0  0  0  0  0  0  0  0  0  0  0  0
    3.3653    1.9571    2.6590 H   0  0  0  0  0  0  0  0  0  0  0  0
    3.4665    0.1829    2.7508 H   0  0  0  0  0  0  0  0  0  0  0  0
    4.0750    2.0004    0.3233 H   0  0  0  0  0  0  0  0  0  0  0  0
   -3.2588    2.5095    0.5311 H   0  0  0  0  0  0  0  0  0  0  0  0
   -4.2241    1.4274    1.5474 H   0  0  0  0  0  0  0  0  0  0  0  0
   -3.2847   -0.5684    2.5307 H   0  0  0  0  0  0  0  0  0  0  0  0
   -1.6068   -1.0370    2.3003 H   0  0  0  0  0  0  0  0  0  0  0  0
    0.3232    1.0093   -3.1267 H   0  0  0  0  0  0  0  0  0  0  0  0
    1.7770    0.2417   -3.8356 H   0  0  0  0  0  0  0  0  0  0  0  0
    6.6621   -1.9683    0.0612 H   0  0  0  0  0  0  0  0  0  0  0  0
    7.4386   -0.5404   -0.6887 H   0  0  0  0  0  0  0  0  0  0  0  0
   -4.3651    0.2791   -3.0293 H   0  0  0  0  0  0  0  0  0  0  0  0
   -6.1515    0.3650   -3.0683 H   0  0  0  0  0  0  0  0  0  0  0  0
   -5.3453   -0.8423   -2.0233 H   0  0  0  0  0  0  0  0  0  0  0  0
   -4.3836   -3.1133   -0.8084 H   0  0  0  0  0  0  0  0  0  0  0  0
   -3.3769   -4.5914   -0.7642 H   0  0  0  0  0  0  0  0  0  0  0  0
   -2.7033   -3.0807   -1.4457 H   0  0  0  0  0  0  0  0  0  0  0  0
   -0.7674   -1.2318   -2.9719 H   0  0  0  0  0  0  0  0  0  0  0  0
   -0.3098   -0.8666   -4.6533 H   0  0  0  0  0  0  0  0  0  0  0  0
    0.6606   -1.9879   -3.6678 H   0  0  0  0  0  0  0  0  0  0  0  0
    5.6587   -2.5634   -2.1479 H   0  0  0  0  0  0  0  0  0  0  0  0
    6.4222   -1.1605   -2.8850 H   0  0  0  0  0  0  0  0  0  0  0  0
    7.4339   -2.4853   -2.2597 H   0  0  0  0  0  0  0  0  0  0  0  0
  1  3  1  0  0  0  0
  1  9  2  0  0  0  0
  1 10  2  0  0  0  0
  1 29  1  0  0  0  0
  2  4  1  0  0  0  0
  2 11  2  0  0  0  0
  2 12  2  0  0  0  0
  2 30  1  0  0  0  0
  3 23  1  0  0  0  0
  4 24  1  0  0  0  0
  5 25  1  0  0  0  0
  5 27  1  0  0  0  0
  6 26  1  0  0  0  0
  6 28  1  0  0  0  0
  7 25  2  0  0  0  0
  8 26  2  0  0  0  0
 13 15  1  0  0  0  0
 13 16  1  0  0  0  0
 13 17  1  0  0  0  0
 13 18  1  0  0  0  0
 14 15  1  0  0  0  0
 14 16  1  0  0  0  0
 14 20  1  0  0  0  0
 14 21  1  0  0  0  0
 15 33  1  0  0  0  0
 15 34  1  0  0  0  0
 16 35  1  0  0  0  0
 16 36  1  0  0  0  0
 17 19  1  0  0  0  0
 17 37  1  0  0  0  0
 17 38  1  0  0  0  0
 18 19  1  0  0  0  0
 18 39  1  0  0  0  0
 18 40  1  0  0  0  0
 19 23  1  0  0  0  0
 19 24  1  0  0  0  0
 20 22  1  0  0  0  0
 20 25  1  0  0  0  0
 20 41  1  0  0  0  0
 21 22  1  0  0  0  0
 21 42  1  0  0  0  0
 21 43  1  0  0  0  0
 22 26  1  0  0  0  0
 22 44  1  0  0  0  0
 23 45  1  0  0  0  0
 23 46  1  0  0  0  0
 24 47  1  0  0  0  0
 24 48  1  0  0  0  0
 27 31  1  0  0  0  0
 27 49  1  0  0  0  0
 27 50  1  0  0  0  0
 28 32  1  0  0  0  0
 28 51  1  0  0  0  0
 28 52  1  0  0  0  0
 29 53  1  0  0  0  0
 29 54  1  0  0  0  0
 29 55  1  0  0  0  0
 30 56  1  0  0  0  0
 30 57  1  0  0  0  0
 30 58  1  0  0  0  0
 31 59  1  0  0  0  0
 31 60  1  0  0  0  0
 31 61  1  0  0  0  0
 32 62  1  0  0  0  0
 32 63  1  0  0  0  0
 32 64  1  0  0  0  0
M  END
> <PUBCHEM_COMPOUND_CID>
131519

> <PUBCHEM_CONFORMER_RMSD>
1.2

> <PUBCHEM_CONFORMER_DIVERSEORDER>
9
85
48
52
76
96
82
81
38
99
42
23
40
78
56
26
61
80
35
84
98
57
41
59
45
19
46
103
11
27
65
51
90
18
34
106
95
25
71
100
105
77
47
70
4
62
102
94
97
69
29
13
50
44
92
22
88
36
8
30
91
73
74
87
55
60
89
39
3
72
43
12
83
53
86
66
49
58
20
75
67
24
37
7
54
104
93
6
32
68
33
1
79
101
17
64
21
63
2
15
5
10
14
16
31
28

> <PUBCHEM_MMFF94_PARTIAL_CHARGES>
22
1 1.38
10 -0.65
11 -0.65
12 -0.65
2 1.38
20 0.05
22 0.05
23 0.28
24 0.28
25 0.67
26 0.67
27 0.28
28 0.28
29 0.11
3 -0.46
30 0.11
4 -0.46
5 -0.43
6 -0.43
7 -0.57
8 -0.57
9 -0.65

> <PUBCHEM_EFFECTIVE_ROTOR_COUNT>
13.6

> <PUBCHEM_PHARMACOPHORE_FEATURES>
9
1 10 acceptor
1 11 acceptor
1 12 acceptor
1 7 acceptor
1 8 acceptor
1 9 acceptor
4 13 14 15 16 rings
4 13 17 18 19 rings
4 14 20 21 22 rings

> <PUBCHEM_HEAVY_ATOM_COUNT>
32

> <PUBCHEM_ATOM_DEF_STEREO_COUNT>
0

> <PUBCHEM_ATOM_UDEF_STEREO_COUNT>
2

> <PUBCHEM_BOND_DEF_STEREO_COUNT>
0

> <PUBCHEM_BOND_UDEF_STEREO_COUNT>
0

> <PUBCHEM_ISOTOPIC_ATOM_COUNT>
0

> <PUBCHEM_COMPONENT_COUNT>
1

> <PUBCHEM_CACTVS_TAUTO_COUNT>
1

> <PUBCHEM_CONFORMER_ID>
000201BF00000009

> <PUBCHEM_MMFF94_ENERGY>
67.5946

> <PUBCHEM_FEATURE_SELFOVERLAP>
45.982

> <PUBCHEM_SHAPE_FINGERPRINT>
105312 117 18113890534300210313
11513181 2 17607790713270406053
11578080 2 17897994965876091340
11796584 16 18409444795975056162
12422481 6 16916524626336585494
13583140 156 18130500937907295208
14790565 3 14490753399782207668
15510800 12 17560817506563632014
1601671 61 15791730767903621992
21304303 64 13479432556066595916
21304304 249 16988560161543417884
21307412 95 18271533004862871606
22393880 68 18260541272934861136
23559900 14 18271519883801372584
392239 28 14548738395961854818
4015057 19 17774992548927184089
44062 13 18335137643779899115
6328613 192 14996294582657836868

> <PUBCHEM_SHAPE_MULTIPOLES>
607.55
13.9
3.29
2.99
9.08
1.71
-1.45
4.79
2.31
1
-0.08
-5.08
2.26
2.08

> <PUBCHEM_SHAPE_SELFOVERLAP>
1231.193

> <PUBCHEM_SHAPE_VOLUME>
360.6

> <PUBCHEM_COORDINATE_TYPE>
2
5
10

$$$$
