REMARK  Name = 131513
REMARK  14 active torsions:
REMARK  status: ('A' for Active; 'I' for Inactive)
REMARK    1  A    between atoms: P_1  and  N_3
REMARK    2  A    between atoms: P_1  and  N_8
REMARK    3  A    between atoms: P_1  and  O_13
REMARK    4  A    between atoms: N_3  and  C_5
REMARK    5  A    between atoms: C_5  and  C_7
REMARK    6  A    between atoms: N_8  and  C_10
REMARK    7  A    between atoms: C_10  and  C_12
REMARK    8  A    between atoms: O_13  and  C_14
REMARK    9  A    between atoms: C_14  and  C_15
REMARK   10  A    between atoms: C_15  and  C_16
REMARK   11  A    between atoms: C_16  and  O_17
REMARK   12  A    between atoms: C_16  and  O_21
REMARK   13  A    between atoms: O_17  and  C_19
REMARK   14  A    between atoms: O_21  and  C_23
REMARK                            x       y       z     vdW  Elec       q    Type
REMARK                         _______ _______ _______ _____ _____    ______ ____
ROOT
ATOM      1  P   UNL     1       2.133  -0.858   0.650  0.00  0.00    +0.345 P 
ATOM      2  O   UNL     1       2.332  -0.910   2.147  0.00  0.00    -0.254 OA
ENDROOT
BRANCH   1   3
ATOM      3  N   UNL     1       3.473  -0.352  -0.202  0.00  0.00    -0.221 NA
ATOM      4  H   UNL     1       3.191  -0.264  -1.178  0.00  0.00    +0.133 HD
BRANCH   3   5
ATOM      5  C   UNL     1       4.111   0.901   0.175  0.00  0.00    +0.095 C 
BRANCH   5   7
ATOM      6 CL   UNL     1       5.875   2.864  -0.454  0.00  0.00    -0.112 Cl
ATOM      7  C   UNL     1       5.075   1.342  -0.916  0.00  0.00    +0.112 C 
ENDBRANCH   5   7
ENDBRANCH   3   5
ENDBRANCH   1   3
BRANCH   1   8
ATOM      8  N   UNL     1       1.652  -2.304  -0.022  0.00  0.00    -0.221 NA
ATOM      9  H   UNL     1       2.441  -2.946   0.055  0.00  0.00    +0.133 HD
BRANCH   8  10
ATOM     10  C   UNL     1       0.490  -2.990   0.525  0.00  0.00    +0.095 C 
BRANCH  10  12
ATOM     11 CL   UNL     1      -1.288  -5.027   0.315  0.00  0.00    -0.112 Cl
ATOM     12  C   UNL     1       0.144  -4.194  -0.337  0.00  0.00    +0.112 C 
ENDBRANCH  10  12
ENDBRANCH   8  10
ENDBRANCH   1   8
BRANCH   1  13
ATOM     13  O   UNL     1       0.945   0.205   0.304  0.00  0.00    -0.292 OA
BRANCH  13  14
ATOM     14  C   UNL     1       0.602   0.492  -1.045  0.00  0.00    +0.160 C 
BRANCH  14  15
ATOM     15  C   UNL     1      -0.530   1.510  -1.057  0.00  0.00    +0.124 C 
BRANCH  15  16
ATOM     16  C   UNL     1      -1.780   1.013  -0.327  0.00  0.00    +0.347 C 
BRANCH  16  17
ATOM     17  O   UNL     1      -2.768   2.065  -0.371  0.00  0.00    -0.413 OA
BRANCH  17  19
ATOM     18  O   UNL     1      -1.729   3.180   1.366  0.00  0.00    -0.250 OA
ATOM     19  C   UNL     1      -2.616   3.077   0.529  0.00  0.00    +0.320 C 
ATOM     20  C   UNL     1      -3.714   4.080   0.343  0.00  0.00    +0.121 C 
ENDBRANCH  17  19
ENDBRANCH  16  17
BRANCH  16  21
ATOM     21  O   UNL     1      -2.269  -0.167  -0.999  0.00  0.00    -0.413 OA
BRANCH  21  23
ATOM     22  O   UNL     1      -3.512  -0.807   0.841  0.00  0.00    -0.250 OA
ATOM     23  C   UNL     1      -3.117  -0.977  -0.304  0.00  0.00    +0.320 C 
ATOM     24  C   UNL     1      -3.507  -2.142  -1.161  0.00  0.00    +0.121 C 
ENDBRANCH  21  23
ENDBRANCH  16  21
ENDBRANCH  15  16
ENDBRANCH  14  15
ENDBRANCH  13  14
ENDBRANCH   1  13
TORSDOF 14
