REMARK  Name = 131554
REMARK  5 active torsions:
REMARK  status: ('A' for Active; 'I' for Inactive)
REMARK    1  A    between atoms: C_4  and  C_17
REMARK    2  A    between atoms: C_10  and  O_13
REMARK    3  A    between atoms: C_12  and  O_15
REMARK    4  A    between atoms: C_17  and  C_18
REMARK    5  A    between atoms: C_18  and  N_21
REMARK                            x       y       z     vdW  Elec       q    Type
REMARK                         _______ _______ _______ _____ _____    ______ ____
ROOT
ATOM      1  O   UNL     1      -1.307   3.494   0.024  0.00  0.00    -0.267 OA
ATOM      2  N   UNL     1       0.730   2.371   0.278  0.00  0.00    -0.249 N 
ATOM      3  N   UNL     1      -0.560   0.214  -1.019  0.00  0.00    -0.404 NA
ATOM      4  C   UNL     1      -1.206   1.313  -0.807  0.00  0.00    +0.164 C 
ATOM      5  C   UNL     1       1.440   1.161   0.043  0.00  0.00    +0.083 C 
ATOM      6  C   UNL     1       0.772   0.111  -0.602  0.00  0.00    +0.130 C 
ATOM      7  C   UNL     1      -0.594   2.508  -0.123  0.00  0.00    +0.278 C 
ATOM      8  C   UNL     1       2.778   0.984   0.433  0.00  0.00    +0.057 C 
ATOM      9  C   UNL     1       1.446  -1.094  -0.847  0.00  0.00    +0.127 C 
ATOM     10  C   UNL     1       3.438  -0.221   0.184  0.00  0.00    +0.170 C 
ATOM     11  C   UNL     1       1.399   3.481   0.946  0.00  0.00    +0.120 C 
ATOM     12  C   UNL     1       2.773  -1.260  -0.456  0.00  0.00    +0.157 C 
ENDROOT
BRANCH  10  13
ATOM     13  O   UNL     1       4.736  -0.365   0.572  0.00  0.00    -0.469 OA
ATOM     14  C   UNL     1       5.740   0.011  -0.368  0.00  0.00    +0.253 C 
ENDBRANCH  10  13
BRANCH  12  15
ATOM     15  O   UNL     1       3.405  -2.440  -0.708  0.00  0.00    -0.472 OA
ATOM     16  C   UNL     1       3.321  -3.448   0.298  0.00  0.00    +0.252 C 
ENDBRANCH  12  15
BRANCH   4  17
ATOM     17  C   UNL     1      -2.637   1.433  -1.252  0.00  0.00    +0.087 C 
BRANCH  17  18
ATOM     18  C   UNL     1      -3.571   0.977  -0.149  0.00  0.00    +0.128 C 
BRANCH  18  21
ATOM     19  O   UNL     1      -1.778  -0.139   1.932  0.00  0.00    -0.204 OA
ATOM     20  O   UNL     1      -4.706  -1.554  -1.187  0.00  0.00    -0.204 OA
ATOM     21  N   UNL     1      -3.326  -0.386   0.241  0.00  0.00    -0.139 N 
ATOM     22  N   UNL     1      -2.553  -2.208   1.255  0.00  0.00    -0.047 NA
ATOM     23  N   UNL     1      -3.372  -2.605   0.382  0.00  0.00    -0.047 NA
ATOM     24  C   UNL     1      -2.485  -0.830   1.210  0.00  0.00    +0.248 C 
ATOM     25  C   UNL     1      -3.884  -1.508  -0.280  0.00  0.00    +0.248 C 
ENDBRANCH  18  21
ENDBRANCH  17  18
ENDBRANCH   4  17
TORSDOF 5
