REMARK  Name = 131519
REMARK  12 active torsions:
REMARK  status: ('A' for Active; 'I' for Inactive)
REMARK    1  A    between atoms: C_7  and  C_21
REMARK    2  A    between atoms: C_7  and  C_27
REMARK    3  A    between atoms: C_8  and  C_12
REMARK    4  A    between atoms: C_10  and  C_17
REMARK    5  A    between atoms: C_12  and  O_13
REMARK    6  A    between atoms: O_13  and  C_14
REMARK    7  A    between atoms: C_17  and  O_18
REMARK    8  A    between atoms: O_18  and  C_19
REMARK    9  A    between atoms: C_21  and  O_22
REMARK   10  A    between atoms: O_22  and  S_23
REMARK   11  A    between atoms: C_27  and  O_28
REMARK   12  A    between atoms: O_28  and  S_29
REMARK                            x       y       z     vdW  Elec       q    Type
REMARK                         _______ _______ _______ _____ _____    ______ ____
ROOT
ATOM      1  C   UNL     1      -0.118   1.183   1.377  0.00  0.00    +0.000 C 
ATOM      2  C   UNL     1       1.928   0.881   1.345  0.00  0.00    +0.011 C 
ATOM      3  C   UNL     1       0.782   0.099   1.951  0.00  0.00    +0.001 C 
ATOM      4  C   UNL     1       1.054   2.108   1.131  0.00  0.00    +0.001 C 
ATOM      5  C   UNL     1      -1.019   0.814   0.218  0.00  0.00    +0.005 C 
ATOM      6  C   UNL     1      -1.301   1.654   2.185  0.00  0.00    +0.005 C 
ATOM      7  C   UNL     1      -2.176   0.779   1.250  0.00  0.00    +0.059 C 
ATOM      8  C   UNL     1       2.654   0.310   0.145  0.00  0.00    +0.110 C 
ATOM      9  C   UNL     1       3.227   1.030   2.096  0.00  0.00    +0.012 C 
ATOM     10  C   UNL     1       3.930   0.981   0.715  0.00  0.00    +0.110 C 
ENDROOT
BRANCH   8  12
ATOM     11  O   UNL     1       2.498   1.809  -1.794  0.00  0.00    -0.250 OA
ATOM     12  C   UNL     1       2.194   0.742  -1.261  0.00  0.00    +0.317 C 
BRANCH  12  13
ATOM     13  O   UNL     1       1.405  -0.211  -1.847  0.00  0.00    -0.448 OA
BRANCH  13  14
ATOM     14  C   UNL     1       0.926   0.095  -3.161  0.00  0.00    +0.209 C 
ATOM     15  C   UNL     1       0.076  -1.062  -3.649  0.00  0.00    +0.051 C 
ENDBRANCH  13  14
ENDBRANCH  12  13
ENDBRANCH   8  12
BRANCH  10  17
ATOM     16  O   UNL     1       6.120   0.211   1.511  0.00  0.00    -0.250 OA
ATOM     17  C   UNL     1       5.261   0.215   0.630  0.00  0.00    +0.317 C 
BRANCH  17  18
ATOM     18  O   UNL     1       5.371  -0.467  -0.552  0.00  0.00    -0.448 OA
BRANCH  18  19
ATOM     19  C   UNL     1       6.578  -1.216  -0.731  0.00  0.00    +0.209 C 
ATOM     20  C   UNL     1       6.527  -1.900  -2.084  0.00  0.00    +0.051 C 
ENDBRANCH  18  19
ENDBRANCH  17  18
ENDBRANCH  10  17
BRANCH   7  21
ATOM     21  C   UNL     1      -3.445   1.457   0.777  0.00  0.00    +0.175 C 
BRANCH  21  22
ATOM     22  O   UNL     1      -3.902   0.801  -0.397  0.00  0.00    -0.242 OA
BRANCH  22  23
ATOM     23  S   UNL     1      -5.265   1.341  -1.116  0.00  0.00    -0.005 S 
ATOM     24  O   UNL     1      -6.401   1.069  -0.260  0.00  0.00    -0.072 OA
ATOM     25  O   UNL     1      -5.024   2.654  -1.680  0.00  0.00    -0.072 OA
ATOM     26  C   UNL     1      -5.279   0.163  -2.444  0.00  0.00    +0.181 C 
ENDBRANCH  22  23
ENDBRANCH  21  22
ENDBRANCH   7  21
BRANCH   7  27
ATOM     27  C   UNL     1      -2.473  -0.598   1.795  0.00  0.00    +0.175 C 
BRANCH  27  28
ATOM     28  O   UNL     1      -2.867  -1.442   0.720  0.00  0.00    -0.242 OA
BRANCH  28  29
ATOM     29  S   UNL     1      -2.768  -3.060   0.919  0.00  0.00    -0.005 S 
ATOM     30  O   UNL     1      -1.376  -3.451   1.003  0.00  0.00    -0.072 OA
ATOM     31  O   UNL     1      -3.747  -3.485   1.899  0.00  0.00    -0.072 OA
ATOM     32  C   UNL     1      -3.370  -3.502  -0.691  0.00  0.00    +0.181 C 
ENDBRANCH  28  29
ENDBRANCH  27  28
ENDBRANCH   7  27
TORSDOF 12
