REMARK  Name = 131544
REMARK  7 active torsions:
REMARK  status: ('A' for Active; 'I' for Inactive)
REMARK    1  A    between atoms: N_3  and  C1*_11
REMARK    2  A    between atoms: C_5  and  C_20
REMARK    3  A    between atoms: C3*_13  and  O3*_15
REMARK    4  A    between atoms: C4*_14  and  C5*_17
REMARK    5  A    between atoms: C5*_17  and  O5*_18
REMARK    6  A    between atoms: C_20  and  N_21
REMARK    7  A    between atoms: N_21  and  C_26
REMARK                            x       y       z     vdW  Elec       q    Type
REMARK                         _______ _______ _______ _____ _____    ______ ____
ROOT
ATOM      1  O   UNL     1       0.190   3.593   0.484  0.00  0.00    -0.270 OA
ATOM      2  O   UNL     1      -4.278   2.748  -0.204  0.00  0.00    -0.252 OA
ATOM      3  N   UNL     1      -2.867   0.931   0.196  0.00  0.00    -0.219 N 
ATOM      4  N   UNL     1      -2.047   3.155   0.140  0.00  0.00    -0.236 N 
ATOM      5  C   UNL     1      -0.515   1.327   0.562  0.00  0.00    +0.025 C 
ATOM      6  C   UNL     1      -1.569   0.510   0.454  0.00  0.00    +0.069 C 
ATOM      7  C   UNL     1      -0.735   2.789   0.397  0.00  0.00    +0.248 C 
ATOM      8  C   UNL     1      -3.152   2.303   0.027  0.00  0.00    +0.315 C 
ATOM      9  H   UNL     1      -2.221   4.117   0.026  0.00  0.00    +0.159 HD
ENDROOT
BRANCH   3  11
ATOM     10  O4* UNL     1      -3.603  -1.139   1.001  0.00  0.00    -0.335 OA
ATOM     11  C1* UNL     1      -3.902  -0.058   0.106  0.00  0.00    +0.202 C 
ATOM     12  C2* UNL     1      -4.035  -0.647  -1.288  0.00  0.00    +0.083 C 
ATOM     13  C3* UNL     1      -4.465  -2.068  -1.004  0.00  0.00    +0.144 C 
ATOM     14  C4* UNL     1      -3.748  -2.390   0.300  0.00  0.00    +0.173 C 
BRANCH  13  15
ATOM     15  O3* UNL     1      -5.876  -2.112  -0.805  0.00  0.00    -0.382 OA
ATOM     16  H3* UNL     1      -6.326  -1.906  -1.639  0.00  0.00    +0.210 HD
ENDBRANCH  13  15
BRANCH  14  17
ATOM     17  C5* UNL     1      -2.356  -2.969   0.084  0.00  0.00    +0.169 C 
BRANCH  17  18
ATOM     18  O5* UNL     1      -1.765  -3.226   1.347  0.00  0.00    -0.379 OA
ATOM     19  H5* UNL     1      -0.877  -3.595   1.220  0.00  0.00    +0.211 HD
ENDBRANCH  17  18
ENDBRANCH  14  17
ENDBRANCH   3  11
BRANCH   5  20
ATOM     20  C   UNL     1       0.875   0.853   0.841  0.00  0.00    -0.045 C 
BRANCH  20  21
ATOM     21  N   UNL     1       1.607   0.564  -0.384  0.00  0.00    +0.406 N 
ATOM     22  H   UNL     1       1.118  -0.167  -0.900  0.00  0.00    -0.080 HD
ATOM     23  H   UNL     1       1.663   1.418  -0.938  0.00  0.00    -0.080 HD
BRANCH  21  26
ATOM     24  O   UNL     1       3.965   1.074   0.361  0.00  0.00    -0.305 OA
ATOM     25  N   UNL     1       4.911   0.123  -0.287  0.00  0.00    -0.173 NA
ATOM     26  C   UNL     1       2.961   0.114  -0.088  0.00  0.00    +0.090 C 
ATOM     27  C   UNL     1       3.852  -0.058  -1.340  0.00  0.00    +0.078 C 
ATOM     28  C   UNL     1       4.757  -1.054   0.636  0.00  0.00    +0.070 C 
ATOM     29  C   UNL     1       3.222  -1.125   0.721  0.00  0.00    +0.028 C 
ATOM     30  C   UNL     1       3.874  -1.327  -2.148  0.00  0.00    +0.019 C 
ATOM     31  C   UNL     1       3.890   1.123  -2.301  0.00  0.00    +0.019 C 
ATOM     32  C   UNL     1       5.366  -0.687   2.011  0.00  0.00    +0.018 C 
ATOM     33  C   UNL     1       5.444  -2.347   0.181  0.00  0.00    +0.018 C 
ENDBRANCH  21  26
ENDBRANCH  20  21
ENDBRANCH   5  20
TORSDOF 7
