REMARK  Name = 131587
REMARK  5 active torsions:
REMARK  status: ('A' for Active; 'I' for Inactive)
REMARK    1  A    between atoms: C_1  and  C_8
REMARK    2  A    between atoms: C_4  and  N_17
REMARK    3  A    between atoms: C_8  and  O_9
REMARK    4  A    between atoms: O_9  and  N_12
REMARK    5  A    between atoms: N_17  and  N_19
REMARK                            x       y       z     vdW  Elec       q    Type
REMARK                         _______ _______ _______ _____ _____    ______ ____
ROOT
ATOM      1  C   UNL     1      -1.095   0.058  -0.254  0.00  0.00    +0.078 C 
ATOM      2  C   UNL     1      -1.979   0.923  -0.867  0.00  0.00    +0.008 C 
ATOM      3  C   UNL     1      -1.514  -0.924   0.619  0.00  0.00    +0.008 C 
ATOM      4  C   UNL     1      -3.790  -0.186   0.285  0.00  0.00    +0.058 C 
ATOM      5  C   UNL     1      -3.341   0.799  -0.595  0.00  0.00    +0.016 C 
ATOM      6  C   UNL     1      -2.877  -1.048   0.891  0.00  0.00    +0.016 C 
ENDROOT
BRANCH   1   8
ATOM      7  O   UNL     1       0.789   0.598  -1.612  0.00  0.00    -0.243 OA
ATOM      8  C   UNL     1       0.355   0.189  -0.545  0.00  0.00    +0.364 C 
BRANCH   8   9
ATOM      9  O   UNL     1       1.119  -0.197   0.524  0.00  0.00    -0.332 OA
BRANCH   9  12
ATOM     10  O   UNL     1       2.740   2.089   1.062  0.00  0.00    -0.267 OA
ATOM     11  O   UNL     1       2.834  -2.277  -0.412  0.00  0.00    -0.267 OA
ATOM     12  N   UNL     1       2.477  -0.090   0.294  0.00  0.00    -0.054 N 
ATOM     13  C   UNL     1       4.587   0.805   0.167  0.00  0.00    +0.066 C 
ATOM     14  C   UNL     1       4.618  -0.644  -0.322  0.00  0.00    +0.066 C 
ATOM     15  C   UNL     1       3.160   1.049   0.579  0.00  0.00    +0.287 C 
ATOM     16  C   UNL     1       3.207  -1.142  -0.160  0.00  0.00    +0.287 C 
ENDBRANCH   9  12
ENDBRANCH   8   9
ENDBRANCH   1   8
BRANCH   4  17
ATOM     17  N   UNL     1      -5.168  -0.312   0.559  0.00  0.00    -0.282 N 
ATOM     18  H   UNL     1      -5.456  -0.862   1.324  0.00  0.00    +0.166 HD
BRANCH  17  19
ATOM     19  N   UNL     1      -6.120   0.311  -0.213  0.00  0.00    -0.256 NA
ATOM     20  H   UNL     1      -5.663   0.837  -0.958  0.00  0.00    +0.140 HD
ATOM     21  H   UNL     1      -6.664   0.949   0.368  0.00  0.00    +0.140 HD
ENDBRANCH  17  19
ENDBRANCH   4  17
TORSDOF 5
