REMARK  Name = 131511
REMARK  9 active torsions:
REMARK  status: ('A' for Active; 'I' for Inactive)
REMARK    1  A    between atoms: C_4  and  C_22
REMARK    2  A    between atoms: C_12  and  C_34
REMARK    3  A    between atoms: C_14  and  O_30
REMARK    4  A    between atoms: C_15  and  O_28
REMARK    5  A    between atoms: C_23  and  C_25
REMARK    6  A    between atoms: C_25  and  C_26
REMARK    7  A    between atoms: O_30  and  C_32
REMARK    8  A    between atoms: C_34  and  C_36
REMARK    9  A    between atoms: C_36  and  O_37
REMARK                            x       y       z     vdW  Elec       q    Type
REMARK                         _______ _______ _______ _____ _____    ______ ____
ROOT
ATOM      1  O   UNL     1      -1.973  -0.603  -0.010  0.00  0.00    -0.455 OA
ATOM      2  O   UNL     1      -3.850   2.934   0.680  0.00  0.00    -0.286 OA
ATOM      3  O   UNL     1       2.191  -3.215  -0.694  0.00  0.00    -0.291 OA
ATOM      4  C   UNL     1      -3.357  -0.541   0.126  0.00  0.00    +0.152 C 
ATOM      5  C   UNL     1      -4.013   0.609   0.355  0.00  0.00    +0.077 C 
ATOM      6  C   UNL     1      -1.223   0.547   0.091  0.00  0.00    +0.150 C 
ATOM      7  C   UNL     1      -1.813   1.790   0.328  0.00  0.00    +0.070 C 
ATOM      8  C   UNL     1       0.180   0.432  -0.054  0.00  0.00    +0.068 C 
ATOM      9  C   UNL     1      -3.272   1.876   0.472  0.00  0.00    +0.201 C 
ATOM     10  C   UNL     1       0.971   1.601   0.046  0.00  0.00    +0.005 C 
ATOM     11  C   UNL     1       3.003   0.289  -0.341  0.00  0.00    +0.023 C 
ATOM     12  C   UNL     1      -1.029   2.938   0.425  0.00  0.00    -0.005 C 
ATOM     13  C   UNL     1       2.224  -0.869  -0.428  0.00  0.00    +0.068 C 
ATOM     14  C   UNL     1       4.502   0.247  -0.475  0.00  0.00    +0.192 C 
ATOM     15  C   UNL     1       0.831  -0.798  -0.291  0.00  0.00    +0.139 C 
ATOM     16  C   UNL     1       4.947  -0.943  -1.320  0.00  0.00    +0.056 C 
ATOM     17  C   UNL     1       2.366   1.513  -0.095  0.00  0.00    -0.000 C 
ATOM     18  C   UNL     1       0.354   2.840   0.285  0.00  0.00    -0.003 C 
ATOM     19  C   UNL     1       4.374  -2.244  -0.778  0.00  0.00    +0.073 C 
ATOM     20  C   UNL     1       2.867  -2.190  -0.657  0.00  0.00    +0.176 C 
ENDROOT
BRANCH   4  22
ATOM     21  O   UNL     1      -5.005  -2.257   0.982  0.00  0.00    -0.349 OA
ATOM     22  C   UNL     1      -4.070  -1.836   0.002  0.00  0.00    +0.168 C 
ATOM     23  C   UNL     1      -3.734  -2.919   0.964  0.00  0.00    +0.147 C 
ATOM     24  C   UNL     1      -4.458  -2.193  -1.379  0.00  0.00    +0.040 C 
BRANCH  23  25
ATOM     25  C   UNL     1      -3.789  -4.371   0.665  0.00  0.00    +0.032 C 
BRANCH  25  26
ATOM     26  C   UNL     1      -2.525  -4.866  -0.046  0.00  0.00    +0.003 C 
ATOM     27  C   UNL     1      -2.603  -6.346  -0.384  0.00  0.00    +0.000 C 
ENDBRANCH  25  26
ENDBRANCH  23  25
ENDBRANCH   4  22
BRANCH  15  28
ATOM     28  O   UNL     1       0.094  -1.947  -0.392  0.00  0.00    -0.505 OA
ATOM     29  H   UNL     1      -0.838  -1.914  -0.302  0.00  0.00    +0.292 HD
ENDBRANCH  15  28
BRANCH  14  30
ATOM     30  O   UNL     1       5.065   0.166   0.831  0.00  0.00    -0.448 OA
BRANCH  30  32
ATOM     31  O   UNL     1       7.202   0.628   0.083  0.00  0.00    -0.250 OA
ATOM     32  C   UNL     1       6.429   0.120   0.884  0.00  0.00    +0.318 C 
ATOM     33  C   UNL     1       6.862  -0.658   2.090  0.00  0.00    +0.121 C 
ENDBRANCH  30  32
ENDBRANCH  14  30
BRANCH  12  34
ATOM     34  C   UNL     1      -1.584   4.302   0.678  0.00  0.00    +0.136 C 
BRANCH  34  36
ATOM     35  O   UNL     1      -1.755   4.639  -1.728  0.00  0.00    -0.250 OA
ATOM     36  C   UNL     1      -1.932   5.053  -0.591  0.00  0.00    +0.318 C 
BRANCH  36  37
ATOM     37  O   UNL     1      -2.477   6.270  -0.323  0.00  0.00    -0.480 OA
ATOM     38  H   UNL     1      -2.594   6.545   0.565  0.00  0.00    +0.295 HD
ENDBRANCH  36  37
ENDBRANCH  34  36
ENDBRANCH  12  34
TORSDOF 9
