REMARK  Name = 131553
REMARK  10 active torsions:
REMARK  status: ('A' for Active; 'I' for Inactive)
REMARK    1  A    between atoms: N_2  and  O_17
REMARK    2  A    between atoms: C_3  and  C_5
REMARK    3  A    between atoms: C_6  and  O_11
REMARK    4  A    between atoms: C_7  and  O_13
REMARK    5  A    between atoms: C_8  and  O_15
REMARK    6  A    between atoms: O_17  and  C_19
REMARK    7  A    between atoms: C_19  and  C_20
REMARK    8  A    between atoms: C_21  and  O_26
REMARK    9  A    between atoms: C_22  and  O_28
REMARK   10  A    between atoms: C_23  and  O_30
REMARK                            x       y       z     vdW  Elec       q    Type
REMARK                         _______ _______ _______ _____ _____    ______ ____
ROOT
ATOM      1  O   UNL     1       1.069  -0.801  -1.628  0.00  0.00    -0.267 OA
ATOM      2  N   UNL     1       0.673   0.624   0.141  0.00  0.00    -0.140 N 
ATOM      3  C   UNL     1       1.505  -0.132  -0.673  0.00  0.00    +0.277 C 
ATOM      4  H   UNL     1       1.025   1.162   0.887  0.00  0.00    +0.196 HD
ENDROOT
BRANCH   3   5
ATOM      5  C   UNL     1       2.929  -0.097  -0.378  0.00  0.00    +0.062 C 
ATOM      6  C   UNL     1       5.659  -0.032   0.194  0.00  0.00    +0.206 C 
ATOM      7  C   UNL     1       5.104  -1.148  -0.432  0.00  0.00    +0.176 C 
ATOM      8  C   UNL     1       4.849   1.052   0.533  0.00  0.00    +0.176 C 
ATOM      9  C   UNL     1       3.739  -1.181  -0.718  0.00  0.00    +0.045 C 
ATOM     10  C   UNL     1       3.484   1.020   0.247  0.00  0.00    +0.045 C 
BRANCH   6  11
ATOM     11  O   UNL     1       6.993   0.001   0.471  0.00  0.00    -0.465 OA
ATOM     12  C   UNL     1       7.850   0.541  -0.532  0.00  0.00    +0.253 C 
ENDBRANCH   6  11
BRANCH   7  13
ATOM     13  O   UNL     1       5.883  -2.213  -0.769  0.00  0.00    -0.468 OA
ATOM     14  C   UNL     1       5.237  -3.314  -1.405  0.00  0.00    +0.253 C 
ENDBRANCH   7  13
BRANCH   8  15
ATOM     15  O   UNL     1       5.379   2.148   1.145  0.00  0.00    -0.468 OA
ATOM     16  C   UNL     1       4.483   3.212   1.458  0.00  0.00    +0.253 C 
ENDBRANCH   8  15
ENDBRANCH   3   5
BRANCH   2  17
ATOM     17  O   UNL     1      -0.701   0.578  -0.159  0.00  0.00    -0.342 OA
BRANCH  17  19
ATOM     18  O   UNL     1      -1.019  -0.255   1.966  0.00  0.00    -0.243 OA
ATOM     19  C   UNL     1      -1.440   0.102   0.876  0.00  0.00    +0.363 C 
BRANCH  19  20
ATOM     20  C   UNL     1      -2.879   0.074   0.510  0.00  0.00    +0.084 C 
ATOM     21  C   UNL     1      -5.583   0.024  -0.174  0.00  0.00    +0.206 C 
ATOM     22  C   UNL     1      -5.077  -0.905   0.736  0.00  0.00    +0.176 C 
ATOM     23  C   UNL     1      -4.738   0.977  -0.741  0.00  0.00    +0.176 C 
ATOM     24  C   UNL     1      -3.724  -0.880   1.077  0.00  0.00    +0.047 C 
ATOM     25  C   UNL     1      -3.386   1.002  -0.399  0.00  0.00    +0.047 C 
BRANCH  21  26
ATOM     26  O   UNL     1      -6.904  -0.002  -0.509  0.00  0.00    -0.465 OA
ATOM     27  C   UNL     1      -7.273  -0.811  -1.624  0.00  0.00    +0.253 C 
ENDBRANCH  21  26
BRANCH  22  28
ATOM     28  O   UNL     1      -5.892  -1.841   1.297  0.00  0.00    -0.468 OA
ATOM     29  C   UNL     1      -5.295  -2.753   2.217  0.00  0.00    +0.253 C 
ENDBRANCH  22  28
BRANCH  23  30
ATOM     30  O   UNL     1      -5.220   1.890  -1.630  0.00  0.00    -0.468 OA
ATOM     31  C   UNL     1      -5.706   3.120  -1.097  0.00  0.00    +0.253 C 
ENDBRANCH  23  30
ENDBRANCH  19  20
ENDBRANCH  17  19
ENDBRANCH   2  17
TORSDOF 10
