REMARK  Name = 131557
REMARK  3 active torsions:
REMARK  status: ('A' for Active; 'I' for Inactive)
REMARK    1  A    between atoms: C_6  and  N_17
REMARK    2  A    between atoms: C_16  and  C_26
REMARK    3  A    between atoms: C_26  and  O_27
REMARK                            x       y       z     vdW  Elec       q    Type
REMARK                         _______ _______ _______ _____ _____    ______ ____
ROOT
ATOM      1  S   UNL     1      -1.167  -2.177  -0.207  0.00  0.00    +0.069 S 
ATOM      2  F   UNL     1      -1.550   2.892   0.121  0.00  0.00    -0.203 F 
ATOM      3  O   UNL     1      -1.446  -2.595   1.206  0.00  0.00    -0.251 OA
ATOM      4  O   UNL     1       3.425   2.344   0.038  0.00  0.00    -0.286 OA
ATOM      5  N   UNL     1       1.955  -1.459  -0.061  0.00  0.00    -0.284 N 
ATOM      6  C   UNL     1      -1.233   0.542  -0.004  0.00  0.00    +0.085 C 
ATOM      7  C   UNL     1      -0.371  -0.566  -0.060  0.00  0.00    +0.085 C 
ATOM      8  C   UNL     1       1.028  -0.391  -0.030  0.00  0.00    +0.064 C 
ATOM      9  C   UNL     1       1.465  -2.832   0.090  0.00  0.00    +0.110 C 
ATOM     10  C   UNL     1       0.267  -3.102  -0.794  0.00  0.00    +0.118 C 
ATOM     11  C   UNL     1       1.513   0.941   0.015  0.00  0.00    +0.056 C 
ATOM     12  C   UNL     1      -0.727   1.836   0.062  0.00  0.00    +0.154 C 
ATOM     13  C   UNL     1       0.646   2.040   0.065  0.00  0.00    +0.035 C 
ATOM     14  C   UNL     1       3.312  -1.185  -0.060  0.00  0.00    +0.075 C 
ATOM     15  C   UNL     1       2.977   1.203   0.008  0.00  0.00    +0.204 C 
ATOM     16  C   UNL     1       3.876   0.027  -0.037  0.00  0.00    +0.129 C 
ENDROOT
BRANCH   6  17
ATOM     17  N   UNL     1      -2.625   0.407  -0.042  0.00  0.00    -0.310 N 
ATOM     18  N   UNL     1      -5.481   0.362  -0.001  0.00  0.00    +0.388 N 
ATOM     19  C   UNL     1      -3.341   0.286   1.234  0.00  0.00    +0.068 C 
ATOM     20  C   UNL     1      -3.385   1.011  -1.141  0.00  0.00    +0.068 C 
ATOM     21  C   UNL     1      -4.713  -0.359   1.021  0.00  0.00    -0.056 C 
ATOM     22  C   UNL     1      -4.755   0.343  -1.277  0.00  0.00    -0.056 C 
ATOM     23  C   UNL     1      -6.809  -0.230  -0.158  0.00  0.00    -0.101 C 
ATOM     24  H   UNL     1      -5.598   1.331   0.297  0.00  0.00    -0.080 HD
ENDBRANCH   6  17
BRANCH  16  26
ATOM     25  O   UNL     1       6.079  -0.693  -0.564  0.00  0.00    -0.245 OA
ATOM     26  C   UNL     1       5.336   0.120  -0.042  0.00  0.00    +0.342 C 
BRANCH  26  27
ATOM     27  O   UNL     1       5.722   1.234   0.616  0.00  0.00    -0.477 OA
ATOM     28  H   UNL     1       5.080   1.805   0.988  0.00  0.00    +0.295 HD
ENDBRANCH  26  27
ENDBRANCH  16  26
TORSDOF 3
