131644
  -OEChem-03292013323D

 71 73  0     1  0  0  0  0  0999 V2000
   -0.8211   -2.3876   -0.4570 O   0  0  0  0  0  0  0  0  0  0  0  0
   -2.3897   -0.4965   -1.4377 O   0  0  0  0  0  0  0  0  0  0  0  0
    0.8074    1.3432    1.2335 O   0  0  0  0  0  0  0  0  0  0  0  0
    1.5540   -0.8741   -0.2137 O   0  0  0  0  0  0  0  0  0  0  0  0
   -4.3807    1.0886   -1.0149 O   0  0  0  0  0  0  0  0  0  0  0  0
   -4.4229   -0.9042    0.8799 O   0  0  0  0  0  0  0  0  0  0  0  0
    2.5506    0.3082   -1.9125 O   0  0  0  0  0  0  0  0  0  0  0  0
    4.9148    0.1474   -0.6039 O   0  0  0  0  0  0  0  0  0  0  0  0
    5.9927   -0.6391    1.2810 O   0  0  0  0  0  0  0  0  0  0  0  0
    3.7437   -0.4237   -0.0780 N   0  0  0  0  0  0  0  0  0  0  0  0
   -2.2944    1.1077    0.4285 C   0  0  2  0  0  0  0  0  0  0  0  0
   -1.0856    1.8882   -0.2542 C   0  0  1  0  0  0  0  0  0  0  0  0
   -2.2078   -0.4274   -0.0056 C   0  0  2  0  0  0  0  0  0  0  0  0
   -0.8332   -1.1211    0.2488 C   0  0  2  0  0  0  0  0  0  0  0  0
   -1.0563    3.4604   -0.0092 C   0  0  0  0  0  0  0  0  0  0  0  0
    0.2987    1.1956   -0.0853 C   0  0  2  0  0  0  0  0  0  0  0  0
   -3.6611    1.8094   -0.0153 C   0  0  1  0  0  0  0  0  0  0  0  0
    0.2711   -0.2932   -0.4643 C   0  0  1  0  0  0  0  0  0  0  0  0
   -2.4793    4.0371    0.1848 C   0  0  0  0  0  0  0  0  0  0  0  0
   -3.5210    3.2341   -0.5586 C   0  0  0  0  0  0  0  0  0  0  0  0
   -2.2396    1.2322    1.9741 C   0  0  0  0  0  0  0  0  0  0  0  0
   -3.3259   -1.3342    0.5204 C   0  0  0  0  0  0  0  0  0  0  0  0
   -0.4483   -1.4276    1.7117 C   0  0  0  0  0  0  0  0  0  0  0  0
   -0.4390    4.1302   -1.2681 C   0  0  0  0  0  0  0  0  0  0  0  0
   -0.2083    3.9358    1.1882 C   0  0  0  0  0  0  0  0  0  0  0  0
   -1.8870   -3.3178   -0.2459 C   0  0  1  0  0  0  0  0  0  0  0  0
   -3.0481   -2.8185    0.6255 C   0  0  0  0  0  0  0  0  0  0  0  0
   -2.4064   -3.7127   -1.6381 C   0  0  0  0  0  0  0  0  0  0  0  0
   -1.2702   -4.5435    0.3765 C   0  0  0  0  0  0  0  0  0  0  0  0
    2.6141   -0.2742   -0.8345 C   0  0  0  0  0  0  0  0  0  0  0  0
    0.0174   -4.8811    0.2473 C   0  0  0  0  0  0  0  0  0  0  0  0
    5.9957   -0.0460    0.2107 C   0  0  0  0  0  0  0  0  0  0  0  0
    7.2064    0.5959   -0.4258 C   0  0  0  0  0  0  0  0  0  0  0  0
    8.4592    0.4086    0.4117 C   0  0  0  0  0  0  0  0  0  0  0  0
   -1.2941    1.7816   -1.3315 H   0  0  0  0  0  0  0  0  0  0  0  0
    1.0040    1.7282   -0.7283 H   0  0  0  0  0  0  0  0  0  0  0  0
   -4.3305    1.8594    0.8541 H   0  0  0  0  0  0  0  0  0  0  0  0
    0.1009   -0.3723   -1.5477 H   0  0  0  0  0  0  0  0  0  0  0  0
   -2.5189    5.0802   -0.1545 H   0  0  0  0  0  0  0  0  0  0  0  0
   -2.7503    4.0726    1.2463 H   0  0  0  0  0  0  0  0  0  0  0  0
   -4.4951    3.7355   -0.4892 H   0  0  0  0  0  0  0  0  0  0  0  0
   -3.2915    3.2118   -1.6318 H   0  0  0  0  0  0  0  0  0  0  0  0
   -2.5232    2.2297    2.3190 H   0  0  0  0  0  0  0  0  0  0  0  0
   -2.9375    0.5400    2.4561 H   0  0  0  0  0  0  0  0  0  0  0  0
   -1.2562    1.0410    2.3941 H   0  0  0  0  0  0  0  0  0  0  0  0
   -0.0005   -0.5878    2.2385 H   0  0  0  0  0  0  0  0  0  0  0  0
    0.2830   -2.2429    1.7583 H   0  0  0  0  0  0  0  0  0  0  0  0
   -1.2997   -1.7433    2.3170 H   0  0  0  0  0  0  0  0  0  0  0  0
   -1.0165    3.9005   -2.1700 H   0  0  0  0  0  0  0  0  0  0  0  0
   -0.4149    5.2216   -1.1651 H   0  0  0  0  0  0  0  0  0  0  0  0
    0.5911    3.8014   -1.4386 H   0  0  0  0  0  0  0  0  0  0  0  0
   -0.4991    3.4424    2.1194 H   0  0  0  0  0  0  0  0  0  0  0  0
    0.8618    3.7720    1.0248 H   0  0  0  0  0  0  0  0  0  0  0  0
   -0.3311    5.0147    1.3465 H   0  0  0  0  0  0  0  0  0  0  0  0
   -3.9711   -3.3583    0.3774 H   0  0  0  0  0  0  0  0  0  0  0  0
   -2.8601   -3.0195    1.6870 H   0  0  0  0  0  0  0  0  0  0  0  0
   -3.2639   -0.1458   -1.6663 H   0  0  0  0  0  0  0  0  0  0  0  0
    1.6878    0.9333    1.2662 H   0  0  0  0  0  0  0  0  0  0  0  0
   -4.9434    0.4387   -0.5608 H   0  0  0  0  0  0  0  0  0  0  0  0
   -2.8966   -2.8699   -2.1353 H   0  0  0  0  0  0  0  0  0  0  0  0
   -1.5851   -4.0194   -2.2974 H   0  0  0  0  0  0  0  0  0  0  0  0
   -3.1292   -4.5351   -1.5866 H   0  0  0  0  0  0  0  0  0  0  0  0
   -1.9243   -5.2238    0.9174 H   0  0  0  0  0  0  0  0  0  0  0  0
    0.3847   -5.7953    0.7025 H   0  0  0  0  0  0  0  0  0  0  0  0
    0.7314   -4.2833   -0.3072 H   0  0  0  0  0  0  0  0  0  0  0  0
    3.7963   -0.9043    0.8130 H   0  0  0  0  0  0  0  0  0  0  0  0
    7.3599    0.1449   -1.4119 H   0  0  0  0  0  0  0  0  0  0  0  0
    7.0077    1.6659   -0.5473 H   0  0  0  0  0  0  0  0  0  0  0  0
    8.6859   -0.6540    0.5480 H   0  0  0  0  0  0  0  0  0  0  0  0
    8.3391    0.8552    1.4044 H   0  0  0  0  0  0  0  0  0  0  0  0
    9.3175    0.8820   -0.0749 H   0  0  0  0  0  0  0  0  0  0  0  0
  1 14  1  0  0  0  0
  1 26  1  0  0  0  0
  2 13  1  0  0  0  0
  2 57  1  0  0  0  0
  3 16  1  0  0  0  0
  3 58  1  0  0  0  0
  4 18  1  0  0  0  0
  4 30  1  0  0  0  0
  5 17  1  0  0  0  0
  5 59  1  0  0  0  0
  6 22  2  0  0  0  0
  7 30  2  0  0  0  0
  8 10  1  0  0  0  0
  8 32  1  0  0  0  0
  9 32  2  0  0  0  0
 10 30  1  0  0  0  0
 10 66  1  0  0  0  0
 11 12  1  0  0  0  0
 11 13  1  0  0  0  0
 11 17  1  0  0  0  0
 11 21  1  0  0  0  0
 12 15  1  0  0  0  0
 12 16  1  0  0  0  0
 12 35  1  0  0  0  0
 13 14  1  0  0  0  0
 13 22  1  0  0  0  0
 14 18  1  0  0  0  0
 14 23  1  0  0  0  0
 15 19  1  0  0  0  0
 15 24  1  0  0  0  0
 15 25  1  0  0  0  0
 16 18  1  0  0  0  0
 16 36  1  0  0  0  0
 17 20  1  0  0  0  0
 17 37  1  0  0  0  0
 18 38  1  0  0  0  0
 19 20  1  0  0  0  0
 19 39  1  0  0  0  0
 19 40  1  0  0  0  0
 20 41  1  0  0  0  0
 20 42  1  0  0  0  0
 21 43  1  0  0  0  0
 21 44  1  0  0  0  0
 21 45  1  0  0  0  0
 22 27  1  0  0  0  0
 23 46  1  0  0  0  0
 23 47  1  0  0  0  0
 23 48  1  0  0  0  0
 24 49  1  0  0  0  0
 24 50  1  0  0  0  0
 24 51  1  0  0  0  0
 25 52  1  0  0  0  0
 25 53  1  0  0  0  0
 25 54  1  0  0  0  0
 26 27  1  0  0  0  0
 26 28  1  0  0  0  0
 26 29  1  0  0  0  0
 27 55  1  0  0  0  0
 27 56  1  0  0  0  0
 28 60  1  0  0  0  0
 28 61  1  0  0  0  0
 28 62  1  0  0  0  0
 29 31  2  0  0  0  0
 29 63  1  0  0  0  0
 31 64  1  0  0  0  0
 31 65  1  0  0  0  0
 32 33  1  0  0  0  0
 33 34  1  0  0  0  0
 33 67  1  0  0  0  0
 33 68  1  0  0  0  0
 34 69  1  0  0  0  0
 34 70  1  0  0  0  0
 34 71  1  0  0  0  0
M  END
> <PUBCHEM_COMPOUND_CID>
131644

> <PUBCHEM_CONFORMER_RMSD>
1

> <PUBCHEM_CONFORMER_DIVERSEORDER>
1
10
11
4
5
6
3
9
2
8
12
7

> <PUBCHEM_MMFF94_PARTIAL_CHARGES>
30
1 -0.56
10 -0.39
13 0.34
14 0.28
16 0.28
17 0.28
18 0.28
2 -0.68
22 0.45
26 0.42
27 0.06
29 -0.29
3 -0.68
30 0.78
31 -0.3
32 0.66
33 0.06
4 -0.43
5 -0.68
57 0.4
58 0.4
59 0.4
6 -0.57
63 0.15
64 0.15
65 0.15
66 0.37
7 -0.57
8 -0.19
9 -0.57

> <PUBCHEM_EFFECTIVE_ROTOR_COUNT>
8.8

> <PUBCHEM_PHARMACOPHORE_FEATURES>
17
1 1 acceptor
1 10 donor
1 2 acceptor
1 2 donor
1 3 acceptor
1 3 donor
1 31 hydrophobe
1 34 hydrophobe
1 5 acceptor
1 5 donor
1 6 acceptor
1 7 acceptor
1 9 acceptor
3 15 24 25 hydrophobe
6 1 13 14 22 26 27 rings
6 11 12 13 14 16 18 rings
6 11 12 15 17 19 20 rings

> <PUBCHEM_HEAVY_ATOM_COUNT>
34

> <PUBCHEM_ATOM_DEF_STEREO_COUNT>
8

> <PUBCHEM_ATOM_UDEF_STEREO_COUNT>
0

> <PUBCHEM_BOND_DEF_STEREO_COUNT>
0

> <PUBCHEM_BOND_UDEF_STEREO_COUNT>
0

> <PUBCHEM_ISOTOPIC_ATOM_COUNT>
0

> <PUBCHEM_COMPONENT_COUNT>
1

> <PUBCHEM_CACTVS_TAUTO_COUNT>
4

> <PUBCHEM_CONFORMER_ID>
0002023C00000001

> <PUBCHEM_MMFF94_ENERGY>
145.5679

> <PUBCHEM_FEATURE_SELFOVERLAP>
86.345

> <PUBCHEM_SHAPE_FINGERPRINT>
10290309 65 18195815068091558566
10319926 262 18341317926463746314
10411042 1 18050568744175416071
10675989 125 17257932594075828100
10930396 42 18196341884559122040
1100329 8 18194693781180454787
11049842 53 17974318468167755126
11135609 187 18120649129219228853
12608794 3 18197804226170567321
12788726 201 18334853935578703506
13140716 1 17981618361818748083
13911987 19 18263347128115146797
14068700 675 17985825063120522303
14394314 77 18409450318733468171
14659021 117 18266170807235130482
14790565 3 18050285869381478762
14844126 61 18335986453776811682
14856354 85 18339931532142447774
15131766 46 15288211750315098518
15230672 131 18192997020608246670
15439362 3 17686898315625685357
15463212 79 18337105666408979170
15876981 60 18263083365757417364
16728300 4 17822848672087591515
17686467 74 18125999615187649992
19958102 18 18267024951850067110
20101258 96 18193846061503738458
20511986 3 17749658611527980976
20600515 1 18058189347581797609
20775438 99 17047350219537035975
2132832 1 18115591598984512020
21796203 349 17684689722935013810
22956985 138 17402326470247643610
23366157 5 17470453296750862023
23419403 2 17560227141749297953
23559900 14 17764582514321485323
255183 313 18269573687889725867
283562 15 18341332180748278553
3178227 256 18265353840548107779
3504750 166 18263066779126755154
4280585 95 18268424818529620638
4409770 3 18408037407911116957
469060 322 18265920032542084377
484989 97 18191295186961295807
5171179 24 17985534783365961440
57527358 35 15431748612781945663
6700243 42 17768569228030628260
70251023 43 17831859427485887683
7226269 152 18408319986699593232
9896288 288 18337963293878655802
9981440 41 18191873322974303969

> <PUBCHEM_SHAPE_MULTIPOLES>
641.9
11.52
6.15
1.34
38.62
1.78
-0.06
-1.55
-0.65
-7.25
0.35
-0.29
-0.06
-0.14

> <PUBCHEM_SHAPE_SELFOVERLAP>
1344.324

> <PUBCHEM_SHAPE_VOLUME>
355.6

> <PUBCHEM_COORDINATE_TYPE>
2
5
10

$$$$
