REMARK  Name = 131637880
REMARK  7 active torsions:
REMARK  status: ('A' for Active; 'I' for Inactive)
REMARK    1  A    between atoms: C_3  and  O_28
REMARK    2  A    between atoms: C_4  and  C_22
REMARK    3  A    between atoms: C_4  and  O_24
REMARK    4  A    between atoms: C_9  and  O_26
REMARK    5  A    between atoms: O_28  and  C_30
REMARK    6  A    between atoms: C_31  and  N_36
REMARK    7  A    between atoms: C_33  and  O_40
REMARK                            x       y       z     vdW  Elec       q    Type
REMARK                         _______ _______ _______ _____ _____    ______ ____
ROOT
ATOM      1  O   UNL     1      -2.560  -2.545   0.676  0.00  0.00    -0.286 OA
ATOM      2  O   UNL     1      -4.623   2.196  -0.672  0.00  0.00    -0.287 OA
ATOM      3  C   UNL     1       1.526   0.559   0.677  0.00  0.00    +0.145 C 
ATOM      4  C   UNL     1       1.866   2.955  -0.082  0.00  0.00    +0.146 C 
ATOM      5  C   UNL     1       2.256   1.881   0.936  0.00  0.00    +0.069 C 
ATOM      6  C   UNL     1       0.359   3.227  -0.053  0.00  0.00    +0.060 C 
ATOM      7  C   UNL     1       0.051   0.736   0.415  0.00  0.00    +0.035 C 
ATOM      8  C   UNL     1      -0.489   1.979   0.043  0.00  0.00    -0.018 C 
ATOM      9  C   UNL     1      -0.795  -0.382   0.511  0.00  0.00    +0.135 C 
ATOM     10  C   UNL     1      -1.869   2.087  -0.200  0.00  0.00    -0.001 C 
ATOM     11  C   UNL     1      -2.167  -0.267   0.257  0.00  0.00    +0.075 C 
ATOM     12  C   UNL     1      -2.704   0.969  -0.097  0.00  0.00    +0.045 C 
ATOM     13  C   UNL     1      -3.033  -1.458   0.366  0.00  0.00    +0.199 C 
ATOM     14  C   UNL     1      -4.150   1.109  -0.364  0.00  0.00    +0.196 C 
ATOM     15  C   UNL     1      -4.479  -1.320   0.097  0.00  0.00    +0.042 C 
ATOM     16  C   UNL     1      -5.018  -0.081  -0.255  0.00  0.00    +0.042 C 
ATOM     17  C   UNL     1      -5.311  -2.441   0.197  0.00  0.00    +0.003 C 
ATOM     18  C   UNL     1      -6.390   0.037  -0.508  0.00  0.00    +0.003 C 
ATOM     19  C   UNL     1      -6.678  -2.319  -0.056  0.00  0.00    +0.000 C 
ATOM     20  C   UNL     1      -7.216  -1.083  -0.408  0.00  0.00    +0.000 C 
ENDROOT
BRANCH   4  22
ATOM     21  O   UNL     1       3.409   4.689  -0.643  0.00  0.00    -0.294 OA
ATOM     22  C   UNL     1       2.619   4.228   0.178  0.00  0.00    +0.175 C 
ATOM     23  C   UNL     1       2.358   4.912   1.493  0.00  0.00    +0.075 C 
ENDBRANCH   4  22
BRANCH   4  24
ATOM     24  O   UNL     1       2.252   2.586  -1.401  0.00  0.00    -0.379 OA
ATOM     25  H   UNL     1       1.804   1.763  -1.650  0.00  0.00    +0.211 HD
ENDBRANCH   4  24
BRANCH   9  26
ATOM     26  O   UNL     1      -0.240  -1.584   0.855  0.00  0.00    -0.506 OA
ATOM     27  H   UNL     1       0.680  -1.644   1.022  0.00  0.00    +0.292 HD
ENDBRANCH   9  26
BRANCH   3  28
ATOM     28  O   UNL     1       2.095  -0.102  -0.451  0.00  0.00    -0.328 OA
BRANCH  28  30
ATOM     29  O   UNL     1       2.740  -2.237   0.244  0.00  0.00    -0.331 OA
ATOM     30  C   UNL     1       3.197  -0.923  -0.070  0.00  0.00    +0.233 C 
ATOM     31  C   UNL     1       5.357  -1.893  -0.978  0.00  0.00    -0.031 C 
ATOM     32  C   UNL     1       4.167  -0.968  -1.248  0.00  0.00    +0.042 C 
ATOM     33  C   UNL     1       4.859  -3.256  -0.473  0.00  0.00    +0.118 C 
ATOM     34  C   UNL     1       3.766  -3.169   0.606  0.00  0.00    +0.142 C 
ATOM     35  C   UNL     1       4.290  -2.888   2.011  0.00  0.00    +0.035 C 
BRANCH  31  36
ATOM     36  N   UNL     1       6.268  -1.278  -0.014  0.00  0.00    +0.384 N 
ATOM     37  H   UNL     1       6.584  -0.377  -0.371  0.00  0.00    -0.089 HD
ATOM     38  H   UNL     1       7.073  -1.888   0.130  0.00  0.00    -0.089 HD
ATOM     39  H   UNL     1       5.782  -1.141   0.873  0.00  0.00    -0.089 HD
ENDBRANCH  31  36
BRANCH  33  40
ATOM     40  O   UNL     1       4.287  -3.957  -1.587  0.00  0.00    -0.384 OA
ATOM     41  H   UNL     1       4.947  -4.034  -2.294  0.00  0.00    +0.210 HD
ENDBRANCH  33  40
ENDBRANCH  28  30
ENDBRANCH   3  28
TORSDOF 7
