131664245
  -OEChem-03292013293D

 63 64  0     1  0  0  0  0  0999 V2000
    0.7325    1.9814   -2.9368 O   0  0  0  0  0  0  0  0  0  0  0  0
   -1.7836    0.7318    0.0638 O   0  0  0  0  0  0  0  0  0  0  0  0
    4.4668    1.3086    1.4655 O   0  0  0  0  0  0  0  0  0  0  0  0
   -0.6266    2.0643   -4.7913 O   0  0  0  0  0  0  0  0  0  0  0  0
   -0.4493   -3.7130    0.4179 O   0  0  0  0  0  0  0  0  0  0  0  0
   -3.2914   -0.8260    0.8393 O   0  0  0  0  0  0  0  0  0  0  0  0
    6.2208   -0.0842    0.8994 O   0  0  0  0  0  0  0  0  0  0  0  0
   -0.6574   -5.3734   -1.1750 O   0  0  0  0  0  0  0  0  0  0  0  0
   -6.5717    1.8996    3.0461 O   0  0  0  0  0  0  0  0  0  0  0  0
   -0.2528    0.1796   -1.7597 C   0  0  2  0  0  0  0  0  0  0  0  0
   -0.9757   -0.3164   -0.4836 C   0  0  1  0  0  0  0  0  0  0  0  0
    0.5991    1.4466   -1.6089 C   0  0  1  0  0  0  0  0  0  0  0  0
   -0.0806   -0.8159    0.6802 C   0  0  0  0  0  0  0  0  0  0  0  0
   -1.0990    0.6093   -2.9177 C   0  0  0  0  0  0  0  0  0  0  0  0
    1.9537    1.0840   -1.0831 C   0  0  0  0  0  0  0  0  0  0  0  0
    1.0036   -1.8232    0.3541 C   0  0  0  0  0  0  0  0  0  0  0  0
    2.4746    1.4188    0.1126 C   0  0  0  0  0  0  0  0  0  0  0  0
   -0.3532    1.6305   -3.6869 C   0  0  0  0  0  0  0  0  0  0  0  0
    3.5807    0.5344    0.6604 C   0  0  2  0  0  0  0  0  0  0  0  0
    2.9749   -0.6095    1.5030 C   0  0  0  0  0  0  0  0  0  0  0  0
    2.3059   -1.6960    0.6923 C   0  0  0  0  0  0  0  0  0  0  0  0
    0.5372   -3.0672   -0.3600 C   0  0  0  0  0  0  0  0  0  0  0  0
   -2.3232    0.2231   -3.2855 C   0  0  0  0  0  0  0  0  0  0  0  0
    1.9206    2.4731    1.0337 C   0  0  0  0  0  0  0  0  0  0  0  0
   -2.9174    0.3299    0.7008 C   0  0  0  0  0  0  0  0  0  0  0  0
   -3.6526    1.5280    1.2083 C   0  0  0  0  0  0  0  0  0  0  0  0
    5.7643    0.8833    1.4934 C   0  0  0  0  0  0  0  0  0  0  0  0
   -3.4924    2.8249    0.4716 C   0  0  0  0  0  0  0  0  0  0  0  0
   -0.9721   -4.8676   -0.1063 C   0  0  0  0  0  0  0  0  0  0  0  0
   -4.3855    1.3393    2.3215 C   0  0  0  0  0  0  0  0  0  0  0  0
    6.5740    1.7862    2.3740 C   0  0  0  0  0  0  0  0  0  0  0  0
   -5.2234    2.3545    3.0349 C   0  0  0  0  0  0  0  0  0  0  0  0
   -2.0009   -5.4388    0.8220 C   0  0  0  0  0  0  0  0  0  0  0  0
    0.3673   -0.6409   -2.1471 H   0  0  0  0  0  0  0  0  0  0  0  0
   -1.6152   -1.1535   -0.7955 H   0  0  0  0  0  0  0  0  0  0  0  0
    0.0937    2.2058   -1.0052 H   0  0  0  0  0  0  0  0  0  0  0  0
   -0.7283   -1.2715    1.4422 H   0  0  0  0  0  0  0  0  0  0  0  0
    0.3307    0.0546    1.1982 H   0  0  0  0  0  0  0  0  0  0  0  0
    2.4634    0.3146   -1.6639 H   0  0  0  0  0  0  0  0  0  0  0  0
    4.1385    0.1078   -0.1852 H   0  0  0  0  0  0  0  0  0  0  0  0
    2.2915   -0.2149    2.2648 H   0  0  0  0  0  0  0  0  0  0  0  0
    3.7718   -1.0860    2.0899 H   0  0  0  0  0  0  0  0  0  0  0  0
    2.9898   -2.4878    0.3875 H   0  0  0  0  0  0  0  0  0  0  0  0
    1.3700   -3.7617   -0.5270 H   0  0  0  0  0  0  0  0  0  0  0  0
    0.1249   -2.8064   -1.3408 H   0  0  0  0  0  0  0  0  0  0  0  0
   -2.8697   -0.5237   -2.7206 H   0  0  0  0  0  0  0  0  0  0  0  0
   -2.8144    0.6381   -4.1592 H   0  0  0  0  0  0  0  0  0  0  0  0
    2.7024    3.1970    1.2872 H   0  0  0  0  0  0  0  0  0  0  0  0
    1.5520    2.0283    1.9626 H   0  0  0  0  0  0  0  0  0  0  0  0
    1.1027    3.0473    0.5937 H   0  0  0  0  0  0  0  0  0  0  0  0
   -2.5212    3.2757    0.7000 H   0  0  0  0  0  0  0  0  0  0  0  0
   -4.2703    3.5539    0.7090 H   0  0  0  0  0  0  0  0  0  0  0  0
   -3.5481    2.6562   -0.6098 H   0  0  0  0  0  0  0  0  0  0  0  0
   -4.4028    0.3525    2.7829 H   0  0  0  0  0  0  0  0  0  0  0  0
    6.5508    2.8055    1.9806 H   0  0  0  0  0  0  0  0  0  0  0  0
    7.6122    1.4422    2.3896 H   0  0  0  0  0  0  0  0  0  0  0  0
    6.1821    1.7576    3.3938 H   0  0  0  0  0  0  0  0  0  0  0  0
   -5.1983    3.3467    2.5816 H   0  0  0  0  0  0  0  0  0  0  0  0
   -4.8810    2.4432    4.0710 H   0  0  0  0  0  0  0  0  0  0  0  0
   -1.5376   -5.6857    1.7805 H   0  0  0  0  0  0  0  0  0  0  0  0
   -2.4142   -6.3535    0.3876 H   0  0  0  0  0  0  0  0  0  0  0  0
   -2.8130   -4.7207    0.9603 H   0  0  0  0  0  0  0  0  0  0  0  0
   -7.0888    2.5529    3.5476 H   0  0  0  0  0  0  0  0  0  0  0  0
  1 12  1  0  0  0  0
  1 18  1  0  0  0  0
  2 11  1  0  0  0  0
  2 25  1  0  0  0  0
  3 19  1  0  0  0  0
  3 27  1  0  0  0  0
  4 18  2  0  0  0  0
  5 22  1  0  0  0  0
  5 29  1  0  0  0  0
  6 25  2  0  0  0  0
  7 27  2  0  0  0  0
  8 29  2  0  0  0  0
  9 32  1  0  0  0  0
  9 63  1  0  0  0  0
 10 11  1  0  0  0  0
 10 12  1  0  0  0  0
 10 14  1  0  0  0  0
 10 34  1  0  0  0  0
 11 13  1  0  0  0  0
 11 35  1  0  0  0  0
 12 15  1  0  0  0  0
 12 36  1  0  0  0  0
 13 16  1  0  0  0  0
 13 37  1  0  0  0  0
 13 38  1  0  0  0  0
 14 18  1  0  0  0  0
 14 23  2  0  0  0  0
 15 17  2  3  0  0  0
 15 39  1  0  0  0  0
 16 21  2  3  0  0  0
 16 22  1  0  0  0  0
 17 19  1  0  0  0  0
 17 24  1  0  0  0  0
 19 20  1  0  0  0  0
 19 40  1  0  0  0  0
 20 21  1  0  0  0  0
 20 41  1  0  0  0  0
 20 42  1  0  0  0  0
 21 43  1  0  0  0  0
 22 44  1  0  0  0  0
 22 45  1  0  0  0  0
 23 46  1  0  0  0  0
 23 47  1  0  0  0  0
 24 48  1  0  0  0  0
 24 49  1  0  0  0  0
 24 50  1  0  0  0  0
 25 26  1  0  0  0  0
 26 28  1  0  0  0  0
 26 30  2  0  0  0  0
 27 31  1  0  0  0  0
 28 51  1  0  0  0  0
 28 52  1  0  0  0  0
 28 53  1  0  0  0  0
 29 33  1  0  0  0  0
 30 32  1  0  0  0  0
 30 54  1  0  0  0  0
 31 55  1  0  0  0  0
 31 56  1  0  0  0  0
 31 57  1  0  0  0  0
 32 58  1  0  0  0  0
 32 59  1  0  0  0  0
 33 60  1  0  0  0  0
 33 61  1  0  0  0  0
 33 62  1  0  0  0  0
M  END
> <PUBCHEM_COMPOUND_CID>
131664245

> <PUBCHEM_CONFORMER_RMSD>
1

> <PUBCHEM_CONFORMER_DIVERSEORDER>
1
5
8
10
9
11
12
6
4
7
3
2

> <PUBCHEM_MMFF94_PARTIAL_CHARGES>
39
1 -0.43
10 0.14
11 0.28
12 0.42
13 0.14
14 -0.12
15 -0.29
16 -0.28
17 -0.28
18 0.71
19 0.42
2 -0.43
20 0.14
21 -0.29
22 0.42
23 -0.3
24 0.14
25 0.71
26 -0.12
27 0.66
28 0.14
29 0.66
3 -0.43
30 -0.29
31 0.06
32 0.42
33 0.06
39 0.15
4 -0.57
43 0.15
46 0.15
47 0.15
5 -0.43
54 0.15
6 -0.57
63 0.4
7 -0.57
8 -0.57
9 -0.68

> <PUBCHEM_EFFECTIVE_ROTOR_COUNT>
10

> <PUBCHEM_PHARMACOPHORE_FEATURES>
8
1 28 hydrophobe
1 4 acceptor
1 6 acceptor
1 7 acceptor
1 8 acceptor
1 9 acceptor
1 9 donor
5 1 10 12 14 18 rings

> <PUBCHEM_HEAVY_ATOM_COUNT>
33

> <PUBCHEM_ATOM_DEF_STEREO_COUNT>
4

> <PUBCHEM_ATOM_UDEF_STEREO_COUNT>
0

> <PUBCHEM_BOND_DEF_STEREO_COUNT>
1

> <PUBCHEM_BOND_UDEF_STEREO_COUNT>
2

> <PUBCHEM_ISOTOPIC_ATOM_COUNT>
0

> <PUBCHEM_COMPONENT_COUNT>
1

> <PUBCHEM_CACTVS_TAUTO_COUNT>
1

> <PUBCHEM_CONFORMER_ID>
07D9097500000001

> <PUBCHEM_MMFF94_ENERGY>
65.6047

> <PUBCHEM_FEATURE_SELFOVERLAP>
40.599

> <PUBCHEM_SHAPE_FINGERPRINT>
11582403 64 17346318172108650985
12422481 6 17895193251814256536
12788726 201 17111046031655577775
13009979 54 17829609813889508290
14674994 50 18044352036875511583
15324884 4 17606668124883945798
15420108 30 18336818702247962003
15878777 1 17255990259766607519
17980427 26 17986948544744369542
19319366 153 17916582020969521331
1979834 28 18117582655602146561
20587220 17 17908409270064546509
21133410 90 17695044992950984991
21344244 78 17750821899241888129
21756936 100 17988913514210345720
23559900 14 17683286545204659961
27425 322 17846781771685304505
3380486 145 17895460471335277301
469060 322 17461134794552074378
563151 74 18195237824572112753
9981440 41 17392994571343953940

> <PUBCHEM_SHAPE_MULTIPOLES>
626.3
10.31
5.44
3.98
7.59
12.38
4.65
-10.37
-14.39
-4.31
-1.05
-3.64
-4.09
-1.29

> <PUBCHEM_SHAPE_SELFOVERLAP>
1286.413

> <PUBCHEM_SHAPE_VOLUME>
357.5

> <PUBCHEM_COORDINATE_TYPE>
2
5
10

$$$$
