REMARK  Name = 131644
REMARK  9 active torsions:
REMARK  status: ('A' for Active; 'I' for Inactive)
REMARK    1  A    between atoms: C_5  and  O_21
REMARK    2  A    between atoms: C_8  and  O_23
REMARK    3  A    between atoms: C_9  and  O_25
REMARK    4  A    between atoms: C_10  and  O_29
REMARK    5  A    between atoms: C_18  and  C_27
REMARK    6  A    between atoms: O_29  and  C_32
REMARK    7  A    between atoms: N_31  and  O_34
REMARK    8  A    between atoms: O_34  and  C_36
REMARK    9  A    between atoms: C_36  and  C_37
REMARK                            x       y       z     vdW  Elec       q    Type
REMARK                         _______ _______ _______ _____ _____    ______ ____
ROOT
ATOM      1  O   UNL     1      -0.821  -2.388  -0.457  0.00  0.00    -0.352 OA
ATOM      2  O   UNL     1      -4.423  -0.904   0.880  0.00  0.00    -0.293 OA
ATOM      3  C   UNL     1      -2.294   1.108   0.428  0.00  0.00    +0.058 C 
ATOM      4  C   UNL     1      -1.086   1.888  -0.254  0.00  0.00    +0.036 C 
ATOM      5  C   UNL     1      -2.208  -0.427  -0.006  0.00  0.00    +0.167 C 
ATOM      6  C   UNL     1      -0.833  -1.121   0.249  0.00  0.00    +0.160 C 
ATOM      7  C   UNL     1      -1.056   3.460  -0.009  0.00  0.00    +0.003 C 
ATOM      8  C   UNL     1       0.299   1.196  -0.085  0.00  0.00    +0.153 C 
ATOM      9  C   UNL     1      -3.661   1.809  -0.015  0.00  0.00    +0.113 C 
ATOM     10  C   UNL     1       0.271  -0.293  -0.464  0.00  0.00    +0.224 C 
ATOM     11  C   UNL     1      -2.479   4.037   0.185  0.00  0.00    +0.003 C 
ATOM     12  C   UNL     1      -3.521   3.234  -0.559  0.00  0.00    +0.029 C 
ATOM     13  C   UNL     1      -2.240   1.232   1.974  0.00  0.00    +0.005 C 
ATOM     14  C   UNL     1      -3.326  -1.334   0.520  0.00  0.00    +0.180 C 
ATOM     15  C   UNL     1      -0.448  -1.428   1.712  0.00  0.00    +0.036 C 
ATOM     16  C   UNL     1      -0.439   4.130  -1.268  0.00  0.00    +0.000 C 
ATOM     17  C   UNL     1      -0.208   3.936   1.188  0.00  0.00    +0.000 C 
ATOM     18  C   UNL     1      -1.887  -3.318  -0.246  0.00  0.00    +0.118 C 
ATOM     19  C   UNL     1      -3.048  -2.818   0.625  0.00  0.00    +0.098 C 
ATOM     20  C   UNL     1      -2.406  -3.713  -1.638  0.00  0.00    +0.035 C 
ENDROOT
BRANCH   5  21
ATOM     21  O   UNL     1      -2.390  -0.496  -1.438  0.00  0.00    -0.377 OA
ATOM     22  H   UNL     1      -1.721   0.053  -1.875  0.00  0.00    +0.211 HD
ENDBRANCH   5  21
BRANCH   8  23
ATOM     23  O   UNL     1       0.807   1.343   1.234  0.00  0.00    -0.381 OA
ATOM     24  H   UNL     1       0.824   2.284   1.470  0.00  0.00    +0.210 HD
ENDBRANCH   8  23
BRANCH   9  25
ATOM     25  O   UNL     1      -4.381   1.089  -1.015  0.00  0.00    -0.384 OA
ATOM     26  H   UNL     1      -4.503   0.170  -0.727  0.00  0.00    +0.210 HD
ENDBRANCH   9  25
BRANCH  18  27
ATOM     27  C   UNL     1      -1.270  -4.543   0.377  0.00  0.00    +0.001 C 
ATOM     28  C   UNL     1       0.017  -4.881   0.247  0.00  0.00    -0.003 C 
ENDBRANCH  18  27
BRANCH  10  29
ATOM     29  O   UNL     1       1.554  -0.874  -0.214  0.00  0.00    -0.431 OA
BRANCH  29  32
ATOM     30  O   UNL     1       2.551   0.308  -1.913  0.00  0.00    -0.223 OA
ATOM     31  N   UNL     1       3.744  -0.424  -0.078  0.00  0.00    -0.110 N 
ATOM     32  C   UNL     1       2.614  -0.274  -0.835  0.00  0.00    +0.434 C 
ATOM     33  H   UNL     1       3.737  -0.902   0.782  0.00  0.00    +0.199 HD
BRANCH  31  34
ATOM     34  O   UNL     1       4.915   0.147  -0.604  0.00  0.00    -0.344 OA
BRANCH  34  36
ATOM     35  O   UNL     1       5.993  -0.639   1.281  0.00  0.00    -0.248 OA
ATOM     36  C   UNL     1       5.996  -0.046   0.211  0.00  0.00    +0.340 C 
BRANCH  36  37
ATOM     37  C   UNL     1       7.206   0.596  -0.426  0.00  0.00    +0.112 C 
ATOM     38  C   UNL     1       8.459   0.409   0.412  0.00  0.00    +0.012 C 
ENDBRANCH  36  37
ENDBRANCH  34  36
ENDBRANCH  31  34
ENDBRANCH  29  32
ENDBRANCH  10  29
TORSDOF 9
