REMARK  Name = 131625
REMARK  10 active torsions:
REMARK  status: ('A' for Active; 'I' for Inactive)
REMARK    1  A    between atoms: CA_1  and  N_3
REMARK    2  A    between atoms: CA_1  and  C_20
REMARK    3  A    between atoms: CA_1  and  C_23
REMARK    4  A    between atoms: C_4  and  C_6
REMARK    5  A    between atoms: C_6  and  N_7
REMARK    6  A    between atoms: N_7  and  S_9
REMARK    7  A    between atoms: S_9  and  C_12
REMARK    8  A    between atoms: C_20  and  O_21
REMARK    9  A    between atoms: C_23  and  C_24
REMARK   10  A    between atoms: C_27  and  C_32
REMARK                            x       y       z     vdW  Elec       q    Type
REMARK                         _______ _______ _______ _____ _____    ______ ____
ROOT
ATOM      1  CA  UNL     1       2.330   1.929   0.485  0.00  0.00    +0.176 C 
ENDROOT
BRANCH   1   3
ATOM      2  O   UNL     1      -0.438   2.693   0.865  0.00  0.00    -0.274 OA
ATOM      3  N   UNL     1       1.251   1.820  -0.471  0.00  0.00    -0.295 N 
ATOM      4  C   UNL     1      -0.051   2.215  -0.198  0.00  0.00    +0.241 C 
ATOM      5  H   UNL     1       1.450   1.448  -1.361  0.00  0.00    +0.150 HD
BRANCH   4   6
ATOM      6  C   UNL     1      -0.955   1.986  -1.382  0.00  0.00    +0.176 C 
BRANCH   6   7
ATOM      7  N   UNL     1      -2.320   2.418  -1.052  0.00  0.00    -0.170 NA
ATOM      8  H   UNL     1      -2.289   2.791  -0.102  0.00  0.00    +0.149 HD
BRANCH   7   9
ATOM      9  S   UNL     1      -3.608   1.303  -1.098  0.00  0.00    +0.061 S 
ATOM     10  O   UNL     1      -3.635   0.659  -2.398  0.00  0.00    -0.153 OA
ATOM     11  O   UNL     1      -4.803   1.933  -0.571  0.00  0.00    -0.153 OA
BRANCH   9  12
ATOM     12  C   UNL     1      -3.089   0.104   0.093  0.00  0.00    +0.122 C 
ATOM     13  C   UNL     1      -3.451   0.249   1.432  0.00  0.00    +0.020 C 
ATOM     14  C   UNL     1      -2.316  -0.986  -0.306  0.00  0.00    +0.020 C 
ATOM     15  C   UNL     1      -2.268  -1.787   1.973  0.00  0.00    -0.022 C 
ATOM     16  C   UNL     1      -3.041  -0.696   2.372  0.00  0.00    -0.003 C 
ATOM     17  C   UNL     1      -1.906  -1.932   0.633  0.00  0.00    -0.003 C 
ATOM     18  C   UNL     1      -1.829  -2.798   2.978  0.00  0.00    +0.031 C 
ENDBRANCH   9  12
ENDBRANCH   7   9
ENDBRANCH   6   7
ENDBRANCH   4   6
ENDBRANCH   1   3
BRANCH   1  20
ATOM     19  OXT UNL     1       3.850   3.663   1.213  0.00  0.00    -0.248 OA
ATOM     20  C   UNL     1       2.969   3.309   0.437  0.00  0.00    +0.332 C 
BRANCH  20  21
ATOM     21  O   UNL     1       2.494   4.122  -0.536  0.00  0.00    -0.479 OA
ATOM     22  H   UNL     1       1.819   3.820  -1.112  0.00  0.00    +0.295 HD
ENDBRANCH  20  21
ENDBRANCH   1  20
BRANCH   1  23
ATOM     23  C   UNL     1       3.394   0.850   0.243  0.00  0.00    +0.057 C 
BRANCH  23  24
ATOM     24  C   UNL     1       2.839  -0.552   0.316  0.00  0.00    -0.020 C 
ATOM     25  C   UNL     1       2.346  -1.168  -0.834  0.00  0.00    -0.001 C 
ATOM     26  C   UNL     1       2.820  -1.232   1.534  0.00  0.00    -0.004 C 
ATOM     27  C   UNL     1       1.834  -2.463  -0.767  0.00  0.00    +0.030 C 
ATOM     28  C   UNL     1       2.308  -2.527   1.601  0.00  0.00    -0.000 C 
ATOM     29  C   UNL     1       1.815  -3.143   0.451  0.00  0.00    +0.003 C 
BRANCH  27  32
ATOM     30  N   UNL     1       0.801  -4.400  -1.929  0.00  0.00    -0.343 N 
ATOM     31  N   UNL     1       1.341  -2.463  -3.119  0.00  0.00    -0.285 NA
ATOM     32  C   UNL     1       1.319  -3.107  -1.965  0.00  0.00    +0.117 C 
ATOM     33  H   UNL     1       0.458  -4.816  -2.752  0.00  0.00    +0.144 HD
ATOM     34  H   UNL     1       0.778  -4.897  -1.080  0.00  0.00    +0.144 HD
ATOM     35  H   UNL     1       0.993  -2.896  -3.931  0.00  0.00    +0.188 HD
ENDBRANCH  27  32
ENDBRANCH  23  24
ENDBRANCH   1  23
TORSDOF 10
