REMARK  Name = 131674018
REMARK  9 active torsions:
REMARK  status: ('A' for Active; 'I' for Inactive)
REMARK    1  A    between atoms: N_1  and  C_33
REMARK    2  A    between atoms: C_6  and  O_21
REMARK    3  A    between atoms: C_8  and  O_23
REMARK    4  A    between atoms: C_9  and  O_25
REMARK    5  A    between atoms: C_10  and  C_35
REMARK    6  A    between atoms: C_11  and  O_27
REMARK    7  A    between atoms: C_14  and  O_29
REMARK    8  A    between atoms: C_18  and  O_31
REMARK    9  A    between atoms: C_35  and  O_36
REMARK                            x       y       z     vdW  Elec       q    Type
REMARK                         _______ _______ _______ _____ _____    ______ ____
ROOT
ATOM      1  N   UNL     1      -1.586   1.607  -0.784  0.00  0.00    +0.390 N 
ATOM      2  C   UNL     1      -0.483   0.357   1.038  0.00  0.00    +0.013 C 
ATOM      3  C   UNL     1      -1.484  -0.813   0.684  0.00  0.00    +0.030 C 
ATOM      4  C   UNL     1      -0.327   0.936  -0.393  0.00  0.00    -0.026 C 
ATOM      5  C   UNL     1       0.920  -0.167   1.552  0.00  0.00    +0.005 C 
ATOM      6  C   UNL     1       0.078  -0.376  -1.158  0.00  0.00    +0.119 C 
ATOM      7  C   UNL     1       1.693  -1.151   0.652  0.00  0.00    +0.054 C 
ATOM      8  C   UNL     1       1.551  -0.793  -0.843  0.00  0.00    +0.115 C 
ATOM      9  C   UNL     1      -0.961  -1.415  -0.652  0.00  0.00    +0.140 C 
ATOM     10  C   UNL     1      -2.900  -0.205   0.414  0.00  0.00    +0.011 C 
ATOM     11  C   UNL     1      -1.060   1.316   2.143  0.00  0.00    +0.109 C 
ATOM     12  C   UNL     1       1.982   0.927   1.853  0.00  0.00    +0.005 C 
ATOM     13  C   UNL     1       3.279   0.488   1.157  0.00  0.00    +0.055 C 
ATOM     14  C   UNL     1       3.134  -1.024   1.156  0.00  0.00    +0.120 C 
ATOM     15  C   UNL     1       2.608   0.231  -1.344  0.00  0.00    +0.059 C 
ATOM     16  C   UNL     1      -2.798   0.774  -0.801  0.00  0.00    -0.075 C 
ATOM     17  C   UNL     1      -3.399   0.516   1.681  0.00  0.00    +0.003 C 
ATOM     18  C   UNL     1       3.338   1.058  -0.272  0.00  0.00    +0.120 C 
ATOM     19  C   UNL     1      -2.534   1.691   2.064  0.00  0.00    +0.029 C 
ATOM     20  H   UNL     1      -1.732   2.238   0.004  0.00  0.00    -0.080 HD
ENDROOT
BRANCH   6  21
ATOM     21  O   UNL     1      -0.051  -0.198  -2.564  0.00  0.00    -0.384 OA
ATOM     22  H   UNL     1       0.602   0.451  -2.868  0.00  0.00    +0.210 HD
ENDBRANCH   6  21
BRANCH   8  23
ATOM     23  O   UNL     1       1.830  -2.009  -1.571  0.00  0.00    -0.384 OA
ATOM     24  H   UNL     1       1.201  -2.697  -1.305  0.00  0.00    +0.210 HD
ENDBRANCH   8  23
BRANCH   9  25
ATOM     25  O   UNL     1      -0.482  -2.732  -0.441  0.00  0.00    -0.351 OA
ATOM     26  C   UNL     1      -1.545  -3.677  -0.393  0.00  0.00    +0.174 C 
ENDBRANCH   9  25
BRANCH  11  27
ATOM     27  O   UNL     1      -0.348   2.549   2.225  0.00  0.00    -0.385 OA
ATOM     28  H   UNL     1       0.604   2.370   2.278  0.00  0.00    +0.210 HD
ENDBRANCH  11  27
BRANCH  14  29
ATOM     29  O   UNL     1       4.089  -1.674   0.345  0.00  0.00    -0.353 OA
ATOM     30  C   UNL     1       5.349  -1.793   1.000  0.00  0.00    +0.174 C 
ENDBRANCH  14  29
BRANCH  18  31
ATOM     31  O   UNL     1       4.712   1.183  -0.661  0.00  0.00    -0.353 OA
ATOM     32  C   UNL     1       4.875   2.196  -1.637  0.00  0.00    +0.174 C 
ENDBRANCH  18  31
BRANCH   1  33
ATOM     33  C   UNL     1      -1.473   2.433  -1.979  0.00  0.00    -0.077 C 
ATOM     34  C   UNL     1      -2.661   3.369  -2.114  0.00  0.00    -0.025 C 
ENDBRANCH   1  33
BRANCH  10  35
ATOM     35  C   UNL     1      -3.941  -1.306   0.110  0.00  0.00    +0.140 C 
BRANCH  35  36
ATOM     36  O   UNL     1      -5.187  -0.678  -0.089  0.00  0.00    -0.351 OA
ATOM     37  C   UNL     1      -6.218  -1.619  -0.378  0.00  0.00    +0.174 C 
ENDBRANCH  35  36
ENDBRANCH  10  35
TORSDOF 9
