REMARK  Name = 131632596
REMARK  5 active torsions:
REMARK  status: ('A' for Active; 'I' for Inactive)
REMARK    1  A    between atoms: C_7  and  C_23
REMARK    2  A    between atoms: C_8  and  O_32
REMARK    3  A    between atoms: C_13  and  O_28
REMARK    4  A    between atoms: C_20  and  O_30
REMARK    5  A    between atoms: O_32  and  C_34
REMARK                            x       y       z     vdW  Elec       q    Type
REMARK                         _______ _______ _______ _____ _____    ______ ____
ROOT
ATOM      1  O   UNL     1       0.465   2.133  -1.002  0.00  0.00    -0.352 OA
ATOM      2  C   UNL     1      -0.034   0.837  -0.600  0.00  0.00    +0.121 C 
ATOM      3  C   UNL     1       0.943  -0.317  -0.845  0.00  0.00    +0.033 C 
ATOM      4  C   UNL     1      -1.535   0.712  -0.822  0.00  0.00    +0.028 C 
ATOM      5  C   UNL     1       0.614   1.798   0.372  0.00  0.00    +0.180 C 
ATOM      6  C   UNL     1      -2.063  -0.750  -0.775  0.00  0.00    +0.005 C 
ATOM      7  C   UNL     1       1.889  -0.221   0.419  0.00  0.00    +0.070 C 
ATOM      8  C   UNL     1       1.962   1.284   0.774  0.00  0.00    +0.202 C 
ATOM      9  C   UNL     1      -3.555  -0.942  -0.283  0.00  0.00    +0.023 C 
ATOM     10  C   UNL     1       0.247  -1.690  -0.873  0.00  0.00    +0.003 C 
ATOM     11  C   UNL     1      -1.062  -1.698  -0.094  0.00  0.00    +0.000 C 
ATOM     12  C   UNL     1      -2.334   1.639   0.092  0.00  0.00    +0.005 C 
ATOM     13  C   UNL     1      -4.419   0.299  -0.685  0.00  0.00    +0.091 C 
ATOM     14  C   UNL     1       1.700  -0.126  -2.176  0.00  0.00    +0.003 C 
ATOM     15  C   UNL     1      -3.833   1.638  -0.181  0.00  0.00    +0.027 C 
ATOM     16  C   UNL     1      -3.675  -1.172   1.252  0.00  0.00    +0.005 C 
ATOM     17  C   UNL     1      -5.879   0.172  -0.196  0.00  0.00    +0.056 C 
ATOM     18  C   UNL     1      -4.084  -2.233  -0.987  0.00  0.00    +0.002 C 
ATOM     19  C   UNL     1      -5.122  -1.287   1.739  0.00  0.00    +0.029 C 
ATOM     20  C   UNL     1      -5.991  -0.113   1.303  0.00  0.00    +0.113 C 
ENDROOT
BRANCH   7  23
ATOM     21  O   UNL     1       5.392  -1.221  -0.689  0.00  0.00    -0.418 OA
ATOM     22  O   UNL     1       6.787  -2.815   0.135  0.00  0.00    -0.244 OA
ATOM     23  C   UNL     1       3.218  -0.900   0.315  0.00  0.00    +0.019 C 
ATOM     24  C   UNL     1       3.524  -1.958   1.243  0.00  0.00    +0.006 C 
ATOM     25  C   UNL     1       4.146  -0.584  -0.593  0.00  0.00    +0.179 C 
ATOM     26  C   UNL     1       4.697  -2.597   1.193  0.00  0.00    +0.082 C 
ATOM     27  C   UNL     1       5.710  -2.230   0.181  0.00  0.00    +0.346 C 
ENDBRANCH   7  23
BRANCH  13  28
ATOM     28  O   UNL     1      -4.448   0.410  -2.118  0.00  0.00    -0.387 OA
ATOM     29  H   UNL     1      -3.542   0.491  -2.455  0.00  0.00    +0.210 HD
ENDBRANCH  13  28
BRANCH  20  30
ATOM     30  O   UNL     1      -7.347  -0.409   1.629  0.00  0.00    -0.384 OA
ATOM     31  H   UNL     1      -7.914   0.330   1.357  0.00  0.00    +0.210 HD
ENDBRANCH  20  30
BRANCH   8  32
ATOM     32  O   UNL     1       2.968   1.982   0.054  0.00  0.00    -0.449 OA
BRANCH  32  34
ATOM     33  O   UNL     1       3.135   3.535   1.757  0.00  0.00    -0.250 OA
ATOM     34  C   UNL     1       3.472   3.097   0.665  0.00  0.00    +0.318 C 
ATOM     35  C   UNL     1       4.517   3.727  -0.206  0.00  0.00    +0.121 C 
ENDBRANCH  32  34
ENDBRANCH   8  32
TORSDOF 5
