REMARK  Name = 131632597
REMARK  9 active torsions:
REMARK  status: ('A' for Active; 'I' for Inactive)
REMARK    1  A    between atoms: C_3  and  C_28
REMARK    2  A    between atoms: C_4  and  C_38
REMARK    3  A    between atoms: C_5  and  C_13
REMARK    4  A    between atoms: C_14  and  O_22
REMARK    5  A    between atoms: C_18  and  O_24
REMARK    6  A    between atoms: C_20  and  O_26
REMARK    7  A    between atoms: C_31  and  O_34
REMARK    8  A    between atoms: C_33  and  O_36
REMARK    9  A    between atoms: C_38  and  O_39
REMARK                            x       y       z     vdW  Elec       q    Type
REMARK                         _______ _______ _______ _____ _____    ______ ____
ROOT
ATOM      1  O   UNL     1       1.321   0.511   1.409  0.00  0.00    -0.469 OA
ATOM      2  O   UNL     1       2.681   0.221  -1.111  0.00  0.00    -0.468 OA
ATOM      3  C   UNL     1       3.271   0.898   0.013  0.00  0.00    +0.230 C 
ATOM      4  C   UNL     1       2.740   0.297   1.325  0.00  0.00    +0.239 C 
ATOM      5  C   UNL     1      -1.430  -0.317  -0.827  0.00  0.00    +0.023 C 
ATOM      6  C   UNL     1       0.671   0.191   0.249  0.00  0.00    +0.172 C 
ATOM      7  C   UNL     1       1.332   0.040  -0.970  0.00  0.00    +0.173 C 
ATOM      8  C   UNL     1      -0.713   0.028   0.318  0.00  0.00    +0.039 C 
ATOM      9  C   UNL     1      -0.765  -0.496  -2.040  0.00  0.00    +0.003 C 
ATOM     10  C   UNL     1       0.617  -0.318  -2.113  0.00  0.00    +0.040 C 
ENDROOT
BRANCH   5  13
ATOM     11  O   UNL     1      -3.503   0.767  -0.401  0.00  0.00    -0.471 OA
ATOM     12  O   UNL     1      -5.424  -2.746   0.496  0.00  0.00    -0.288 OA
ATOM     13  C   UNL     1      -2.934  -0.504  -0.752  0.00  0.00    +0.222 C 
ATOM     14  C   UNL     1      -3.322  -1.583   0.259  0.00  0.00    +0.217 C 
ATOM     15  C   UNL     1      -4.831  -1.693   0.297  0.00  0.00    +0.209 C 
ATOM     16  C   UNL     1      -5.567  -0.426   0.114  0.00  0.00    +0.105 C 
ATOM     17  C   UNL     1      -4.859   0.733  -0.209  0.00  0.00    +0.148 C 
ATOM     18  C   UNL     1      -6.953  -0.382   0.289  0.00  0.00    +0.142 C 
ATOM     19  C   UNL     1      -5.535   1.949  -0.323  0.00  0.00    +0.074 C 
ATOM     20  C   UNL     1      -6.918   1.997  -0.145  0.00  0.00    +0.140 C 
ATOM     21  C   UNL     1      -7.626   0.833   0.156  0.00  0.00    +0.073 C 
BRANCH  14  22
ATOM     22  O   UNL     1      -2.798  -2.838  -0.139  0.00  0.00    -0.374 OA
ATOM     23  H   UNL     1      -1.830  -2.788  -0.169  0.00  0.00    +0.211 HD
ENDBRANCH  14  22
BRANCH  18  24
ATOM     24  O   UNL     1      -7.692  -1.483   0.603  0.00  0.00    -0.505 OA
ATOM     25  H   UNL     1      -7.273  -2.316   0.700  0.00  0.00    +0.292 HD
ENDBRANCH  18  24
BRANCH  20  26
ATOM     26  O   UNL     1      -7.578   3.182  -0.266  0.00  0.00    -0.505 OA
ATOM     27  H   UNL     1      -7.103   3.964  -0.468  0.00  0.00    +0.292 HD
ENDBRANCH  20  26
ENDBRANCH   5  13
BRANCH   3  28
ATOM     28  C   UNL     1       4.772   0.785  -0.147  0.00  0.00    +0.024 C 
ATOM     29  C   UNL     1       5.387  -0.465  -0.089  0.00  0.00    +0.039 C 
ATOM     30  C   UNL     1       5.539   1.931  -0.354  0.00  0.00    +0.003 C 
ATOM     31  C   UNL     1       6.770  -0.570  -0.237  0.00  0.00    +0.172 C 
ATOM     32  C   UNL     1       6.923   1.827  -0.502  0.00  0.00    +0.040 C 
ATOM     33  C   UNL     1       7.538   0.577  -0.444  0.00  0.00    +0.168 C 
BRANCH  31  34
ATOM     34  O   UNL     1       7.359  -1.797  -0.181  0.00  0.00    -0.468 OA
ATOM     35  C   UNL     1       6.503  -2.917   0.033  0.00  0.00    +0.253 C 
ENDBRANCH  31  34
BRANCH  33  36
ATOM     36  O   UNL     1       8.889   0.487  -0.591  0.00  0.00    -0.503 OA
ATOM     37  H   UNL     1       9.310  -0.349  -0.553  0.00  0.00    +0.292 HD
ENDBRANCH  33  36
ENDBRANCH   3  28
BRANCH   4  38
ATOM     38  C   UNL     1       3.347   0.946   2.566  0.00  0.00    +0.185 C 
BRANCH  38  39
ATOM     39  O   UNL     1       2.788   0.333   3.713  0.00  0.00    -0.378 OA
ATOM     40  H   UNL     1       3.165   0.736   4.511  0.00  0.00    +0.211 HD
ENDBRANCH  38  39
ENDBRANCH   4  38
TORSDOF 9
