REMARK  Name = 131634540
REMARK  8 active torsions:
REMARK  status: ('A' for Active; 'I' for Inactive)
REMARK    1  A    between atoms: N_1  and  C_21
REMARK    2  A    between atoms: C_13  and  C_17
REMARK    3  A    between atoms: C_21  and  C_22
REMARK    4  A    between atoms: C_22  and  N_23
REMARK    5  A    between atoms: N_24  and  C_30
REMARK    6  A    between atoms: C_35  and  O_36
REMARK    7  A    between atoms: O_36  and  C_37
REMARK    8  A    between atoms: C_37  and  C_39
REMARK                            x       y       z     vdW  Elec       q    Type
REMARK                         _______ _______ _______ _____ _____    ______ ____
ROOT
ATOM      1  N   UNL     1      -2.095   1.742   0.510  0.00  0.00    -0.190 N 
ATOM      2  N   UNL     1      -2.608   2.921   0.086  0.00  0.00    -0.178 NA
ATOM      3  N   UNL     1      -5.052  -0.848   0.412  0.00  0.00    -0.115 N 
ATOM      4  N   UNL     1      -2.765  -0.557   0.915  0.00  0.00    -0.359 NA
ATOM      5  N   UNL     1      -6.505   0.639  -0.325  0.00  0.00    -0.333 NA
ATOM      6  N   UNL     1      -6.187  -1.558   0.303  0.00  0.00    -0.100 NA
ATOM      7  N   UNL     1      -3.774  -2.687   1.192  0.00  0.00    -0.319 N 
ATOM      8  C   UNL     1      -3.008   0.730   0.533  0.00  0.00    +0.195 C 
ATOM      9  C   UNL     1      -4.179   1.305   0.095  0.00  0.00    +0.181 C 
ATOM     10  C   UNL     1      -3.895   2.640  -0.168  0.00  0.00    +0.108 C 
ATOM     11  C   UNL     1      -5.260   0.457   0.034  0.00  0.00    +0.212 C 
ATOM     12  C   UNL     1      -3.810  -1.360   0.852  0.00  0.00    +0.262 C 
ATOM     13  C   UNL     1      -7.030  -0.617  -0.143  0.00  0.00    +0.140 C 
ATOM     14  H   UNL     1      -4.590  -3.235   1.124  0.00  0.00    +0.146 HD
ATOM     15  H   UNL     1      -2.934  -3.093   1.505  0.00  0.00    +0.146 HD
ENDROOT
BRANCH  13  17
ATOM     16  O   UNL     1      -9.019  -2.137  -0.266  0.00  0.00    -0.439 OA
ATOM     17  C   UNL     1      -8.446  -0.915  -0.426  0.00  0.00    +0.220 C 
ATOM     18  C   UNL     1      -9.370  -0.005  -0.886  0.00  0.00    +0.052 C 
ATOM     19  C   UNL     1     -10.588  -0.714  -1.017  0.00  0.00    +0.045 C 
ATOM     20  C   UNL     1     -10.322  -2.006  -0.627  0.00  0.00    +0.181 C 
ENDBRANCH  13  17
BRANCH   1  21
ATOM     21  C   UNL     1      -0.639   1.663   0.895  0.00  0.00    +0.096 C 
BRANCH  21  22
ATOM     22  C   UNL     1       0.265   1.610  -0.336  0.00  0.00    -0.053 C 
BRANCH  22  23
ATOM     23  N   UNL     1       1.669   1.544   0.069  0.00  0.00    +0.390 N 
ATOM     24  N   UNL     1       4.384   0.667  -0.067  0.00  0.00    -0.312 N 
ATOM     25  C   UNL     1       2.028   0.176   0.464  0.00  0.00    -0.055 C 
ATOM     26  C   UNL     1       2.542   1.994  -1.022  0.00  0.00    -0.055 C 
ATOM     27  C   UNL     1       3.479   0.107   0.945  0.00  0.00    +0.068 C 
ATOM     28  C   UNL     1       4.011   1.984  -0.592  0.00  0.00    +0.068 C 
ATOM     29  H   UNL     1       1.798   2.163   0.870  0.00  0.00    -0.079 HD
BRANCH  24  30
ATOM     30  C   UNL     1       5.732   0.295  -0.021  0.00  0.00    +0.048 C 
ATOM     31  C   UNL     1       6.719   1.266   0.144  0.00  0.00    +0.018 C 
ATOM     32  C   UNL     1       6.089  -1.048  -0.142  0.00  0.00    +0.018 C 
ATOM     33  C   UNL     1       8.063   0.895   0.188  0.00  0.00    +0.038 C 
ATOM     34  C   UNL     1       7.433  -1.419  -0.099  0.00  0.00    +0.038 C 
ATOM     35  C   UNL     1       8.420  -0.448   0.066  0.00  0.00    +0.139 C 
BRANCH  35  36
ATOM     36  O   UNL     1       9.731  -0.809   0.108  0.00  0.00    -0.472 OA
BRANCH  36  37
ATOM     37  C   UNL     1      10.108  -1.969  -0.633  0.00  0.00    +0.243 C 
BRANCH  37  39
ATOM     38  F   UNL     1      12.333  -1.722   0.033  0.00  0.00    -0.230 F 
ATOM     39  C   UNL     1      11.547  -1.818  -1.074  0.00  0.00    +0.240 C 
ENDBRANCH  37  39
ENDBRANCH  36  37
ENDBRANCH  35  36
ENDBRANCH  24  30
ENDBRANCH  22  23
ENDBRANCH  21  22
ENDBRANCH   1  21
TORSDOF 8
