REMARK  Name = 131632353
REMARK  9 active torsions:
REMARK  status: ('A' for Active; 'I' for Inactive)
REMARK    1  A    between atoms: C_6  and  C_24
REMARK    2  A    between atoms: C_7  and  O_20
REMARK    3  A    between atoms: C_19  and  O_22
REMARK    4  A    between atoms: C_24  and  C_26
REMARK    5  A    between atoms: C_26  and  C_27
REMARK    6  A    between atoms: C_27  and  C_30
REMARK    7  A    between atoms: N_29  and  C_32
REMARK    8  A    between atoms: C_32  and  C_34
REMARK    9  A    between atoms: C_34  and  O_35
REMARK                            x       y       z     vdW  Elec       q    Type
REMARK                         _______ _______ _______ _____ _____    ______ ____
ROOT
ATOM      1  C   UNL     1      -0.533   0.544  -0.583  0.00  0.00    +0.025 C 
ATOM      2  C   UNL     1      -1.379   1.206   0.519  0.00  0.00    +0.002 C 
ATOM      3  C   UNL     1      -2.856   1.462   0.145  0.00  0.00    +0.000 C 
ATOM      4  C   UNL     1      -3.427   0.315  -0.760  0.00  0.00    +0.002 C 
ATOM      5  C   UNL     1      -5.007   0.242  -0.805  0.00  0.00    +0.000 C 
ATOM      6  C   UNL     1       0.855   0.584   0.121  0.00  0.00    +0.002 C 
ATOM      7  C   UNL     1      -1.123  -0.864  -0.864  0.00  0.00    +0.110 C 
ATOM      8  C   UNL     1      -2.638  -0.988  -0.534  0.00  0.00    +0.029 C 
ATOM      9  C   UNL     1      -5.690   0.508   0.567  0.00  0.00    +0.002 C 
ATOM     10  C   UNL     1      -0.556   2.418   0.961  0.00  0.00    +0.000 C 
ATOM     11  C   UNL     1      -3.634   1.683   1.453  0.00  0.00    +0.000 C 
ATOM     12  C   UNL     1       0.906   1.983   0.771  0.00  0.00    +0.000 C 
ATOM     13  C   UNL     1      -5.135   1.753   1.263  0.00  0.00    +0.000 C 
ATOM     14  C   UNL     1      -5.563  -1.081  -1.416  0.00  0.00    +0.002 C 
ATOM     15  C   UNL     1      -0.490   1.369  -1.896  0.00  0.00    +0.002 C 
ATOM     16  C   UNL     1      -5.661  -0.712   1.499  0.00  0.00    +0.029 C 
ATOM     17  C   UNL     1      -5.462   1.372  -1.786  0.00  0.00    +0.000 C 
ATOM     18  C   UNL     1      -5.662  -2.273  -0.463  0.00  0.00    +0.029 C 
ATOM     19  C   UNL     1      -6.339  -1.912   0.850  0.00  0.00    +0.111 C 
ENDROOT
BRANCH   7  20
ATOM     20  O   UNL     1      -0.444  -1.872  -0.115  0.00  0.00    -0.384 OA
ATOM     21  H   UNL     1       0.507  -1.824  -0.296  0.00  0.00    +0.210 HD
ENDBRANCH   7  20
BRANCH  19  22
ATOM     22  O   UNL     1      -6.265  -3.035   1.722  0.00  0.00    -0.384 OA
ATOM     23  H   UNL     1      -6.694  -2.819   2.564  0.00  0.00    +0.210 HD
ENDBRANCH  19  22
BRANCH   6  24
ATOM     24  C   UNL     1       2.066   0.293  -0.756  0.00  0.00    +0.001 C 
ATOM     25  C   UNL     1       1.919  -1.083  -1.411  0.00  0.00    +0.000 C 
BRANCH  24  26
ATOM     26  C   UNL     1       3.360   0.407   0.075  0.00  0.00    +0.010 C 
BRANCH  26  27
ATOM     27  C   UNL     1       4.636   0.201  -0.742  0.00  0.00    +0.085 C 
BRANCH  27  30
ATOM     28  O   UNL     1       5.873   0.677   1.283  0.00  0.00    -0.275 OA
ATOM     29  N   UNL     1       7.039   0.203  -0.670  0.00  0.00    -0.295 N 
ATOM     30  C   UNL     1       5.893   0.394   0.088  0.00  0.00    +0.223 C 
ATOM     31  H   UNL     1       6.938  -0.022  -1.624  0.00  0.00    +0.150 HD
BRANCH  29  32
ATOM     32  C   UNL     1       8.373   0.317  -0.128  0.00  0.00    +0.200 C 
BRANCH  32  34
ATOM     33  O   UNL     1      10.009  -1.102   0.922  0.00  0.00    -0.248 OA
ATOM     34  C   UNL     1       8.901  -0.987   0.412  0.00  0.00    +0.334 C 
BRANCH  34  35
ATOM     35  O   UNL     1       8.035  -2.018   0.279  0.00  0.00    -0.479 OA
ATOM     36  H   UNL     1       7.199  -1.879  -0.119  0.00  0.00    +0.295 HD
ENDBRANCH  34  35
ENDBRANCH  32  34
ENDBRANCH  29  32
ENDBRANCH  27  30
ENDBRANCH  26  27
ENDBRANCH  24  26
ENDBRANCH   6  24
TORSDOF 9
