REMARK  Name = 131664245
REMARK  10 active torsions:
REMARK  status: ('A' for Active; 'I' for Inactive)
REMARK    1  A    between atoms: C_4  and  O_17
REMARK    2  A    between atoms: C_9  and  C_30
REMARK    3  A    between atoms: C_12  and  O_26
REMARK    4  A    between atoms: O_17  and  C_19
REMARK    5  A    between atoms: C_19  and  C_20
REMARK    6  A    between atoms: C_22  and  C_23
REMARK    7  A    between atoms: C_23  and  O_24
REMARK    8  A    between atoms: O_26  and  C_28
REMARK    9  A    between atoms: C_30  and  O_31
REMARK   10  A    between atoms: O_31  and  C_33
REMARK                            x       y       z     vdW  Elec       q    Type
REMARK                         _______ _______ _______ _____ _____    ______ ____
ROOT
ATOM      1  O   UNL     1       0.733   1.981  -2.937  0.00  0.00    -0.449 OA
ATOM      2  O   UNL     1      -0.627   2.064  -4.791  0.00  0.00    -0.245 OA
ATOM      3  C   UNL     1      -0.253   0.180  -1.760  0.00  0.00    +0.109 C 
ATOM      4  C   UNL     1      -0.976  -0.316  -0.484  0.00  0.00    +0.181 C 
ATOM      5  C   UNL     1       0.599   1.447  -1.609  0.00  0.00    +0.177 C 
ATOM      6  C   UNL     1      -0.081  -0.816   0.680  0.00  0.00    +0.069 C 
ATOM      7  C   UNL     1      -1.099   0.609  -2.918  0.00  0.00    +0.060 C 
ATOM      8  C   UNL     1       1.954   1.084  -1.083  0.00  0.00    +0.048 C 
ATOM      9  C   UNL     1       1.004  -1.823   0.354  0.00  0.00    -0.001 C 
ATOM     10  C   UNL     1       2.475   1.419   0.113  0.00  0.00    +0.044 C 
ATOM     11  C   UNL     1      -0.353   1.631  -3.687  0.00  0.00    +0.337 C 
ATOM     12  C   UNL     1       3.581   0.534   0.660  0.00  0.00    +0.173 C 
ATOM     13  C   UNL     1       2.975  -0.610   1.503  0.00  0.00    +0.069 C 
ATOM     14  C   UNL     1       2.306  -1.696   0.692  0.00  0.00    -0.027 C 
ATOM     15  C   UNL     1      -2.323   0.223  -3.285  0.00  0.00    +0.002 C 
ATOM     16  C   UNL     1       1.921   2.473   1.034  0.00  0.00    +0.004 C 
ENDROOT
BRANCH   4  17
ATOM     17  O   UNL     1      -1.784   0.732   0.064  0.00  0.00    -0.449 OA
BRANCH  17  19
ATOM     18  O   UNL     1      -3.291  -0.826   0.839  0.00  0.00    -0.245 OA
ATOM     19  C   UNL     1      -2.917   0.330   0.701  0.00  0.00    +0.337 C 
BRANCH  19  20
ATOM     20  C   UNL     1      -3.653   1.528   1.208  0.00  0.00    +0.052 C 
ATOM     21  C   UNL     1      -3.492   2.825   0.472  0.00  0.00    +0.038 C 
ATOM     22  C   UNL     1      -4.386   1.339   2.321  0.00  0.00    +0.007 C 
BRANCH  22  23
ATOM     23  C   UNL     1      -5.223   2.354   3.035  0.00  0.00    +0.163 C 
BRANCH  23  24
ATOM     24  O   UNL     1      -6.572   1.900   3.046  0.00  0.00    -0.377 OA
ATOM     25  H   UNL     1      -7.128   2.548   3.506  0.00  0.00    +0.211 HD
ENDBRANCH  23  24
ENDBRANCH  22  23
ENDBRANCH  19  20
ENDBRANCH  17  19
ENDBRANCH   4  17
BRANCH  12  26
ATOM     26  O   UNL     1       4.467   1.309   1.466  0.00  0.00    -0.452 OA
BRANCH  26  28
ATOM     27  O   UNL     1       6.221  -0.084   0.899  0.00  0.00    -0.250 OA
ATOM     28  C   UNL     1       5.764   0.883   1.493  0.00  0.00    +0.317 C 
ATOM     29  C   UNL     1       6.574   1.786   2.374  0.00  0.00    +0.121 C 
ENDBRANCH  26  28
ENDBRANCH  12  26
BRANCH   9  30
ATOM     30  C   UNL     1       0.537  -3.067  -0.360  0.00  0.00    +0.231 C 
BRANCH  30  31
ATOM     31  O   UNL     1      -0.449  -3.713   0.418  0.00  0.00    -0.444 OA
BRANCH  31  33
ATOM     32  O   UNL     1      -0.657  -5.373  -1.175  0.00  0.00    -0.250 OA
ATOM     33  C   UNL     1      -0.972  -4.868  -0.106  0.00  0.00    +0.318 C 
ATOM     34  C   UNL     1      -2.001  -5.439   0.822  0.00  0.00    +0.121 C 
ENDBRANCH  31  33
ENDBRANCH  30  31
ENDBRANCH   9  30
TORSDOF 10
