REMARK  Name = 131674266
REMARK  11 active torsions:
REMARK  status: ('A' for Active; 'I' for Inactive)
REMARK    1  A    between atoms: N_1  and  C_37
REMARK    2  A    between atoms: C_8  and  O_21
REMARK    3  A    between atoms: C_9  and  O_23
REMARK    4  A    between atoms: C_10  and  C_39
REMARK    5  A    between atoms: C_11  and  O_25
REMARK    6  A    between atoms: C_13  and  O_27
REMARK    7  A    between atoms: C_14  and  O_29
REMARK    8  A    between atoms: C_15  and  O_31
REMARK    9  A    between atoms: C_17  and  O_35
REMARK   10  A    between atoms: C_18  and  O_33
REMARK   11  A    between atoms: C_39  and  O_40
REMARK                            x       y       z     vdW  Elec       q    Type
REMARK                         _______ _______ _______ _____ _____    ______ ____
ROOT
ATOM      1  N   UNL     1      -1.202   0.503  -1.674  0.00  0.00    +0.389 N 
ATOM      2  C   UNL     1      -0.374   0.510   0.659  0.00  0.00    +0.011 C 
ATOM      3  C   UNL     1      -1.468  -0.681   0.808  0.00  0.00    +0.030 C 
ATOM      4  C   UNL     1       0.970   0.386   1.522  0.00  0.00    +0.008 C 
ATOM      5  C   UNL     1      -0.042   0.180  -0.798  0.00  0.00    -0.051 C 
ATOM      6  C   UNL     1       0.391  -1.347  -0.586  0.00  0.00    +0.036 C 
ATOM      7  C   UNL     1       1.881  -0.867   1.403  0.00  0.00    +0.056 C 
ATOM      8  C   UNL     1       1.838  -1.446  -0.033  0.00  0.00    +0.118 C 
ATOM      9  C   UNL     1      -0.583  -1.923   0.541  0.00  0.00    +0.116 C 
ATOM     10  C   UNL     1      -2.838  -0.064   0.355  0.00  0.00    +0.036 C 
ATOM     11  C   UNL     1      -0.941   1.943   0.989  0.00  0.00    +0.116 C 
ATOM     12  C   UNL     1       1.983   1.537   1.214  0.00  0.00    +0.032 C 
ATOM     13  C   UNL     1       3.345   0.884   0.917  0.00  0.00    +0.140 C 
ATOM     14  C   UNL     1       3.268  -0.346   1.805  0.00  0.00    +0.140 C 
ATOM     15  C   UNL     1       2.952  -0.874  -0.950  0.00  0.00    +0.164 C 
ATOM     16  C   UNL     1      -2.612   0.364  -1.192  0.00  0.00    -0.072 C 
ATOM     17  C   UNL     1      -3.284   1.084   1.295  0.00  0.00    +0.113 C 
ATOM     18  C   UNL     1       3.491   0.526  -0.580  0.00  0.00    +0.171 C 
ATOM     19  C   UNL     1      -2.139   1.861   1.918  0.00  0.00    +0.059 C 
ATOM     20  H   UNL     1      -1.131   1.518  -1.612  0.00  0.00    -0.080 HD
ENDROOT
BRANCH   8  21
ATOM     21  O   UNL     1       2.122  -2.857   0.089  0.00  0.00    -0.384 OA
ATOM     22  H   UNL     1       1.453  -3.274   0.655  0.00  0.00    +0.210 HD
ENDBRANCH   8  21
BRANCH   9  23
ATOM     23  O   UNL     1      -1.263  -3.083   0.047  0.00  0.00    -0.354 OA
ATOM     24  C   UNL     1      -1.770  -3.881   1.108  0.00  0.00    +0.174 C 
ENDBRANCH   9  23
BRANCH  11  25
ATOM     25  O   UNL     1      -1.274   2.737  -0.141  0.00  0.00    -0.354 OA
ATOM     26  C   UNL     1      -1.195   4.127   0.151  0.00  0.00    +0.174 C 
ENDBRANCH  11  25
BRANCH  13  27
ATOM     27  O   UNL     1       4.368   1.776   1.331  0.00  0.00    -0.382 OA
ATOM     28  H   UNL     1       4.254   1.984   2.272  0.00  0.00    +0.210 HD
ENDBRANCH  13  27
BRANCH  14  29
ATOM     29  O   UNL     1       4.315  -1.267   1.576  0.00  0.00    -0.382 OA
ATOM     30  H   UNL     1       4.212  -2.027   2.170  0.00  0.00    +0.210 HD
ENDBRANCH  14  29
BRANCH  15  31
ATOM     31  O   UNL     1       2.535  -0.885  -2.316  0.00  0.00    -0.380 OA
ATOM     32  H   UNL     1       2.198  -1.765  -2.545  0.00  0.00    +0.211 HD
ENDBRANCH  15  31
BRANCH  18  33
ATOM     33  O   UNL     1       4.888   0.538  -0.917  0.00  0.00    -0.349 OA
ATOM     34  C   UNL     1       5.073   0.753  -2.304  0.00  0.00    +0.174 C 
ENDBRANCH  18  33
BRANCH  17  35
ATOM     35  O   UNL     1      -4.151   2.001   0.628  0.00  0.00    -0.384 OA
ATOM     36  H   UNL     1      -4.887   1.514   0.226  0.00  0.00    +0.210 HD
ENDBRANCH  17  35
BRANCH   1  37
ATOM     37  C   UNL     1      -1.028   0.068  -3.051  0.00  0.00    -0.077 C 
ATOM     38  C   UNL     1      -1.896   0.881  -3.997  0.00  0.00    -0.025 C 
ENDBRANCH   1  37
BRANCH  10  39
ATOM     39  C   UNL     1      -3.971  -1.131   0.407  0.00  0.00    +0.142 C 
BRANCH  39  40
ATOM     40  O   UNL     1      -5.145  -0.547  -0.117  0.00  0.00    -0.351 OA
ATOM     41  C   UNL     1      -6.241  -1.457  -0.108  0.00  0.00    +0.174 C 
ENDBRANCH  39  40
ENDBRANCH  10  39
TORSDOF 11
