131698442
  -OEChem-03292013293D

 65 68  0     1  0  0  0  0  0999 V2000
    1.5632   -1.2655    1.3775 Cl  0  0  0  0  0  0  0  0  0  0  0  0
   -2.1483   -0.9482    0.3488 O   0  0  0  0  0  0  0  0  0  0  0  0
    1.2586    2.7005    0.8115 O   0  0  0  0  0  0  0  0  0  0  0  0
   -4.6352    1.2901   -0.1135 O   0  0  0  0  0  0  0  0  0  0  0  0
   -4.7241    1.1076    2.6308 O   0  0  0  0  0  0  0  0  0  0  0  0
   -4.1240   -1.7897   -0.4950 O   0  0  0  0  0  0  0  0  0  0  0  0
    6.7376   -1.4296    0.7290 O   0  0  0  0  0  0  0  0  0  0  0  0
   -1.2940    1.3761    0.0149 C   0  0  1  0  0  0  0  0  0  0  0  0
   -0.3422    1.1040   -1.1894 C   0  0  1  0  0  0  0  0  0  0  0  0
    0.6895   -0.0249   -0.9120 C   0  0  2  0  0  0  0  0  0  0  0  0
    1.6014    0.2916    0.3450 C   0  0  1  0  0  0  0  0  0  0  0  0
   -2.4485    0.3382   -0.2099 C   0  0  1  0  0  0  0  0  0  0  0  0
   -1.3191    0.8372   -2.3439 C   0  0  0  0  0  0  0  0  0  0  0  0
   -0.5632    1.2367    1.3755 C   0  0  0  0  0  0  0  0  0  0  0  0
   -2.5350    0.1139   -1.7425 C   0  0  2  0  0  0  0  0  0  0  0  0
    0.9599    1.3843    1.2622 C   0  0  2  0  0  0  0  0  0  0  0  0
    3.1289    0.5486   -0.0340 C   0  0  1  0  0  0  0  0  0  0  0  0
    1.4841   -0.3857   -2.1864 C   0  0  0  0  0  0  0  0  0  0  0  0
   -1.8317    2.8307   -0.1106 C   0  0  0  0  0  0  0  0  0  0  0  0
    2.7434   -1.1998   -1.9301 C   0  0  0  0  0  0  0  0  0  0  0  0
    3.6343   -0.6474   -0.8496 C   0  0  0  0  0  0  0  0  0  0  0  0
   -3.7434    0.6799    0.4744 C   0  0  0  0  0  0  0  0  0  0  0  0
   -3.8182    0.5722   -2.4326 C   0  0  0  0  0  0  0  0  0  0  0  0
    3.3648    1.8310   -0.8763 C   0  0  0  0  0  0  0  0  0  0  0  0
    3.9869    0.7595    1.2133 C   0  0  0  0  0  0  0  0  0  0  0  0
    4.7879   -1.2855   -0.5891 C   0  0  0  0  0  0  0  0  0  0  0  0
   -3.8795    0.2321    1.9141 C   0  0  0  0  0  0  0  0  0  0  0  0
    5.1313    0.1214    1.4782 C   0  0  0  0  0  0  0  0  0  0  0  0
   -3.0804   -1.9283    0.1282 C   0  0  0  0  0  0  0  0  0  0  0  0
    5.6472   -0.8988    0.5479 C   0  0  0  0  0  0  0  0  0  0  0  0
   -2.6171   -3.2118    0.7765 C   0  0  0  0  0  0  0  0  0  0  0  0
   -3.6153   -4.3406    0.5871 C   0  0  0  0  0  0  0  0  0  0  0  0
    0.2258    2.0076   -1.4449 H   0  0  0  0  0  0  0  0  0  0  0  0
    0.1053   -0.9267   -0.6902 H   0  0  0  0  0  0  0  0  0  0  0  0
   -1.6219    1.7973   -2.7814 H   0  0  0  0  0  0  0  0  0  0  0  0
   -0.8866    0.2666   -3.1696 H   0  0  0  0  0  0  0  0  0  0  0  0
   -0.7727    0.2704    1.8418 H   0  0  0  0  0  0  0  0  0  0  0  0
   -0.9463    1.9869    2.0793 H   0  0  0  0  0  0  0  0  0  0  0  0
   -2.3865   -0.9408   -2.0079 H   0  0  0  0  0  0  0  0  0  0  0  0
    1.3817    1.3107    2.2722 H   0  0  0  0  0  0  0  0  0  0  0  0
    1.7388    0.5143   -2.7562 H   0  0  0  0  0  0  0  0  0  0  0  0
    0.8457   -0.9762   -2.8555 H   0  0  0  0  0  0  0  0  0  0  0  0
   -2.4194    2.9865   -1.0196 H   0  0  0  0  0  0  0  0  0  0  0  0
   -1.0140    3.5586   -0.1265 H   0  0  0  0  0  0  0  0  0  0  0  0
   -2.4761    3.0880    0.7377 H   0  0  0  0  0  0  0  0  0  0  0  0
    3.3047   -1.2807   -2.8694 H   0  0  0  0  0  0  0  0  0  0  0  0
    2.4420   -2.2175   -1.6482 H   0  0  0  0  0  0  0  0  0  0  0  0
   -3.7320    0.3792   -3.5097 H   0  0  0  0  0  0  0  0  0  0  0  0
   -3.9875    1.6494   -2.3374 H   0  0  0  0  0  0  0  0  0  0  0  0
   -4.7030    0.0201   -2.1059 H   0  0  0  0  0  0  0  0  0  0  0  0
    2.5702    2.0294   -1.5966 H   0  0  0  0  0  0  0  0  0  0  0  0
    4.3042    1.7711   -1.4418 H   0  0  0  0  0  0  0  0  0  0  0  0
    3.4482    2.7306   -0.2547 H   0  0  0  0  0  0  0  0  0  0  0  0
    3.6714    1.5236    1.9201 H   0  0  0  0  0  0  0  0  0  0  0  0
    0.8839    3.3258    1.4549 H   0  0  0  0  0  0  0  0  0  0  0  0
    5.1115   -2.1367   -1.1794 H   0  0  0  0  0  0  0  0  0  0  0  0
   -2.9164    0.2325    2.4244 H   0  0  0  0  0  0  0  0  0  0  0  0
   -4.3276   -0.7618    1.9643 H   0  0  0  0  0  0  0  0  0  0  0  0
    5.7113    0.3461    2.3656 H   0  0  0  0  0  0  0  0  0  0  0  0
   -1.6573   -3.4958    0.3323 H   0  0  0  0  0  0  0  0  0  0  0  0
   -2.4766   -3.0274    1.8468 H   0  0  0  0  0  0  0  0  0  0  0  0
   -4.7937    0.7647    3.5381 H   0  0  0  0  0  0  0  0  0  0  0  0
   -4.5858   -4.0842    1.0250 H   0  0  0  0  0  0  0  0  0  0  0  0
   -3.7729   -4.5516   -0.4758 H   0  0  0  0  0  0  0  0  0  0  0  0
   -3.2532   -5.2545    1.0679 H   0  0  0  0  0  0  0  0  0  0  0  0
  1 11  1  0  0  0  0
  2 12  1  0  0  0  0
  2 29  1  0  0  0  0
  3 16  1  0  0  0  0
  3 55  1  0  0  0  0
  4 22  2  0  0  0  0
  5 27  1  0  0  0  0
  5 62  1  0  0  0  0
  6 29  2  0  0  0  0
  7 30  2  0  0  0  0
  8  9  1  0  0  0  0
  8 12  1  0  0  0  0
  8 14  1  0  0  0  0
  8 19  1  0  0  0  0
  9 10  1  0  0  0  0
  9 13  1  0  0  0  0
  9 33  1  0  0  0  0
 10 11  1  0  0  0  0
 10 18  1  0  0  0  0
 10 34  1  0  0  0  0
 11 16  1  0  0  0  0
 11 17  1  0  0  0  0
 12 15  1  0  0  0  0
 12 22  1  0  0  0  0
 13 15  1  0  0  0  0
 13 35  1  0  0  0  0
 13 36  1  0  0  0  0
 14 16  1  0  0  0  0
 14 37  1  0  0  0  0
 14 38  1  0  0  0  0
 15 23  1  0  0  0  0
 15 39  1  0  0  0  0
 16 40  1  0  0  0  0
 17 21  1  0  0  0  0
 17 24  1  0  0  0  0
 17 25  1  0  0  0  0
 18 20  1  0  0  0  0
 18 41  1  0  0  0  0
 18 42  1  0  0  0  0
 19 43  1  0  0  0  0
 19 44  1  0  0  0  0
 19 45  1  0  0  0  0
 20 21  1  0  0  0  0
 20 46  1  0  0  0  0
 20 47  1  0  0  0  0
 21 26  2  0  0  0  0
 22 27  1  0  0  0  0
 23 48  1  0  0  0  0
 23 49  1  0  0  0  0
 23 50  1  0  0  0  0
 24 51  1  0  0  0  0
 24 52  1  0  0  0  0
 24 53  1  0  0  0  0
 25 28  2  0  0  0  0
 25 54  1  0  0  0  0
 26 30  1  0  0  0  0
 26 56  1  0  0  0  0
 27 57  1  0  0  0  0
 27 58  1  0  0  0  0
 28 30  1  0  0  0  0
 28 59  1  0  0  0  0
 29 31  1  0  0  0  0
 31 32  1  0  0  0  0
 31 60  1  0  0  0  0
 31 61  1  0  0  0  0
 32 63  1  0  0  0  0
 32 64  1  0  0  0  0
 32 65  1  0  0  0  0
M  END
> <PUBCHEM_COMPOUND_CID>
131698442

> <PUBCHEM_CONFORMER_RMSD>
0.8

> <PUBCHEM_CONFORMER_DIVERSEORDER>
1
6
14
12
15
11
3
18
10
9
8
7
4
17
16
5
13
2

> <PUBCHEM_MMFF94_PARTIAL_CHARGES>
26
1 -0.29
11 0.29
12 0.34
16 0.28
17 0.28
2 -0.43
20 0.14
21 -0.28
22 0.45
25 -0.29
26 -0.14
27 0.34
28 -0.14
29 0.66
3 -0.68
30 0.54
31 0.06
4 -0.57
5 -0.68
54 0.15
55 0.4
56 0.15
59 0.15
6 -0.57
62 0.4
7 -0.57

> <PUBCHEM_EFFECTIVE_ROTOR_COUNT>
6.4

> <PUBCHEM_PHARMACOPHORE_FEATURES>
12
1 3 acceptor
1 3 donor
1 32 hydrophobe
1 4 acceptor
1 5 acceptor
1 5 donor
1 6 acceptor
1 7 acceptor
5 8 9 12 13 15 rings
6 10 11 17 18 20 21 rings
6 17 21 25 26 28 30 rings
6 8 9 10 11 14 16 rings

> <PUBCHEM_HEAVY_ATOM_COUNT>
32

> <PUBCHEM_ATOM_DEF_STEREO_COUNT>
6

> <PUBCHEM_ATOM_UDEF_STEREO_COUNT>
2

> <PUBCHEM_BOND_DEF_STEREO_COUNT>
0

> <PUBCHEM_BOND_UDEF_STEREO_COUNT>
0

> <PUBCHEM_ISOTOPIC_ATOM_COUNT>
0

> <PUBCHEM_COMPONENT_COUNT>
1

> <PUBCHEM_CACTVS_TAUTO_COUNT>
30

> <PUBCHEM_CONFORMER_ID>
07D98F0A00000001

> <PUBCHEM_MMFF94_ENERGY>
135.1386

> <PUBCHEM_FEATURE_SELFOVERLAP>
61.031

> <PUBCHEM_SHAPE_FINGERPRINT>
11552529 35 18057607774872149271
11578080 2 17750782423891314661
11796584 16 18260539001303641446
11828532 37 17827919852018512283
12236239 1 16732994089318866660
12403814 3 17703783687318066260
12422481 6 16917069898335887854
12633257 1 18413114960844777761
13140716 1 18270125728779423209
13224815 77 18186516635372715700
13583140 156 17131837598435368731
14790565 3 16629949045417973944
14856354 85 18412270527825728414
14955137 171 17847066601670088776
15163728 17 9871209223206127171
15238133 3 18129958787953500233
15361156 5 17846226531504245324
15484559 13 12046623563366139910
15788980 27 17749387057540394172
17349148 13 18341610391866290336
1813 80 17749682895035637429
20600515 1 18341344326515112173
20775438 99 15579529653400621305
20775530 9 18116142458151944355
21033648 29 18197231256454478881
22122407 14 15985108513288146723
22393880 68 17677034815950911422
23559900 14 18336816568176593448
2838139 119 10087643698036303370
350125 39 11819573488390089013
392239 28 18342737395384685906
463206 1 17821727230499246354
484985 159 18408880746489336331
5104073 3 18272373117793330832
57527293 21 18261965140598182806
9849439 229 12246033393187931387
9981440 41 16199605580242669035

> <PUBCHEM_SHAPE_MULTIPOLES>
625.2
11.15
2.95
2.16
9.2
2.62
0.44
4.35
-2.78
-3.32
-0.6
-1.05
-0.48
0.41

> <PUBCHEM_SHAPE_SELFOVERLAP>
1335.576

> <PUBCHEM_SHAPE_VOLUME>
343.6

> <PUBCHEM_COORDINATE_TYPE>
2
5
10

$$$$
