131693
  -OEChem-03292013323D

 40 43  0     1  0  0  0  0  0999 V2000
   -2.9240    0.1186   -1.1897 O   0  0  0  0  0  0  0  0  0  0  0  0
   -2.9211   -2.6478    0.2274 O   0  0  0  0  0  0  0  0  0  0  0  0
   -4.5379   -1.0666    1.7889 O   0  0  0  0  0  0  0  0  0  0  0  0
   -5.1924    1.7500   -1.5529 O   0  0  0  0  0  0  0  0  0  0  0  0
    3.1873   -2.3382   -0.5306 O   0  0  0  0  0  0  0  0  0  0  0  0
    3.2331   -0.1391    0.1974 N   0  0  0  0  0  0  0  0  0  0  0  0
   -0.7488    0.1967   -0.2587 N   0  0  0  0  0  0  0  0  0  0  0  0
    1.1918   -1.2667   -0.4591 N   0  0  0  0  0  0  0  0  0  0  0  0
    0.2845    2.0638    0.5182 N   0  0  0  0  0  0  0  0  0  0  0  0
    3.1900    2.1873    0.9646 N   0  0  0  0  0  0  0  0  0  0  0  0
    4.6774   -0.1897    0.3790 C   0  0  0  0  0  0  0  0  0  0  0  0
    5.5450    0.8191   -0.2770 C   0  0  0  0  0  0  0  0  0  0  0  0
    5.5522   -0.6069   -0.7443 C   0  0  0  0  0  0  0  0  0  0  0  0
   -1.8514   -0.6619   -0.6244 C   0  0  1  0  0  0  0  0  0  0  0  0
   -2.4178   -1.3672    0.6030 C   0  0  1  0  0  0  0  0  0  0  0  0
   -3.5390   -0.4349    1.0174 C   0  0  1  0  0  0  0  0  0  0  0  0
   -4.0690    0.0419   -0.3238 C   0  0  1  0  0  0  0  0  0  0  0  0
    2.5592    1.0575    0.4990 C   0  0  0  0  0  0  0  0  0  0  0  0
    0.5770   -0.1725   -0.1894 C   0  0  0  0  0  0  0  0  0  0  0  0
    1.2329    1.0649    0.3134 C   0  0  0  0  0  0  0  0  0  0  0  0
   -4.7482    1.3983   -0.2543 C   0  0  0  0  0  0  0  0  0  0  0  0
    2.5657   -1.3034   -0.2777 C   0  0  0  0  0  0  0  0  0  0  0  0
   -0.8466    1.4966    0.1735 C   0  0  0  0  0  0  0  0  0  0  0  0
    4.9582   -0.5191    1.3742 H   0  0  0  0  0  0  0  0  0  0  0  0
    6.4116    1.1738    0.2678 H   0  0  0  0  0  0  0  0  0  0  0  0
    5.1228    1.5462   -0.9600 H   0  0  0  0  0  0  0  0  0  0  0  0
    5.1206   -0.8061   -1.7176 H   0  0  0  0  0  0  0  0  0  0  0  0
    6.4226   -1.2086   -0.5127 H   0  0  0  0  0  0  0  0  0  0  0  0
   -1.5334   -1.3753   -1.3930 H   0  0  0  0  0  0  0  0  0  0  0  0
   -1.6856   -1.5304    1.4002 H   0  0  0  0  0  0  0  0  0  0  0  0
   -3.1344    0.4055    1.5934 H   0  0  0  0  0  0  0  0  0  0  0  0
   -4.7599   -0.6882   -0.7643 H   0  0  0  0  0  0  0  0  0  0  0  0
   -4.0615    2.1790    0.0837 H   0  0  0  0  0  0  0  0  0  0  0  0
   -5.6125    1.3677    0.4164 H   0  0  0  0  0  0  0  0  0  0  0  0
   -1.8310    1.9769    0.2015 H   0  0  0  0  0  0  0  0  0  0  0  0
   -3.3792   -3.0165    1.0019 H   0  0  0  0  0  0  0  0  0  0  0  0
   -4.1093   -1.4219    2.5862 H   0  0  0  0  0  0  0  0  0  0  0  0
    4.1527    2.1459    1.2686 H   0  0  0  0  0  0  0  0  0  0  0  0
    2.6403    3.0120    1.1744 H   0  0  0  0  0  0  0  0  0  0  0  0
   -5.6287    2.6162   -1.4820 H   0  0  0  0  0  0  0  0  0  0  0  0
  1 14  1  0  0  0  0
  1 17  1  0  0  0  0
  2 15  1  0  0  0  0
  2 36  1  0  0  0  0
  3 16  1  0  0  0  0
  3 37  1  0  0  0  0
  4 21  1  0  0  0  0
  4 40  1  0  0  0  0
  5 22  2  0  0  0  0
  6 11  1  0  0  0  0
  6 18  1  0  0  0  0
  6 22  1  0  0  0  0
  7 14  1  0  0  0  0
  7 19  1  0  0  0  0
  7 23  1  0  0  0  0
  8 19  2  0  0  0  0
  8 22  1  0  0  0  0
  9 20  1  0  0  0  0
  9 23  2  0  0  0  0
 10 18  1  0  0  0  0
 10 38  1  0  0  0  0
 10 39  1  0  0  0  0
 11 12  1  0  0  0  0
 11 13  1  0  0  0  0
 11 24  1  0  0  0  0
 12 13  1  0  0  0  0
 12 25  1  0  0  0  0
 12 26  1  0  0  0  0
 13 27  1  0  0  0  0
 13 28  1  0  0  0  0
 14 15  1  0  0  0  0
 14 29  1  0  0  0  0
 15 16  1  0  0  0  0
 15 30  1  0  0  0  0
 16 17  1  0  0  0  0
 16 31  1  0  0  0  0
 17 21  1  0  0  0  0
 17 32  1  0  0  0  0
 18 20  2  0  0  0  0
 19 20  1  0  0  0  0
 21 33  1  0  0  0  0
 21 34  1  0  0  0  0
 23 35  1  0  0  0  0
M  END
> <PUBCHEM_COMPOUND_CID>
131693

> <PUBCHEM_CONFORMER_RMSD>
0.8

> <PUBCHEM_CONFORMER_DIVERSEORDER>
1
12
2
14
4
6
13
9
3
11
8
7
5
10

> <PUBCHEM_MMFF94_PARTIAL_CHARGES>
34
1 -0.56
10 -0.9
11 0.05
12 -0.2
13 -0.2
14 0.65
15 0.28
16 0.28
17 0.28
18 0.21
19 0.49
2 -0.68
20 0.19
21 0.28
22 0.84
23 0.44
24 0.1
25 0.1
26 0.1
27 0.1
28 0.1
3 -0.68
35 0.06
36 0.4
37 0.4
38 0.4
39 0.4
4 -0.68
40 0.4
5 -0.57
6 -0.32
7 -0.47
8 -0.66
9 -0.62

> <PUBCHEM_EFFECTIVE_ROTOR_COUNT>
4.6

> <PUBCHEM_PHARMACOPHORE_FEATURES>
15
1 1 acceptor
1 10 cation
1 10 donor
1 2 acceptor
1 2 donor
1 3 acceptor
1 3 donor
1 4 acceptor
1 4 donor
1 5 acceptor
1 8 donor
3 7 9 23 cation
5 1 14 15 16 17 rings
5 7 9 19 20 23 rings
6 6 8 18 19 20 22 rings

> <PUBCHEM_HEAVY_ATOM_COUNT>
23

> <PUBCHEM_ATOM_DEF_STEREO_COUNT>
4

> <PUBCHEM_ATOM_UDEF_STEREO_COUNT>
0

> <PUBCHEM_BOND_DEF_STEREO_COUNT>
0

> <PUBCHEM_BOND_UDEF_STEREO_COUNT>
0

> <PUBCHEM_ISOTOPIC_ATOM_COUNT>
0

> <PUBCHEM_COMPONENT_COUNT>
1

> <PUBCHEM_CACTVS_TAUTO_COUNT>
4

> <PUBCHEM_CONFORMER_ID>
0002026D00000001

> <PUBCHEM_MMFF94_ENERGY>
90.4595

> <PUBCHEM_FEATURE_SELFOVERLAP>
76.269

> <PUBCHEM_SHAPE_FINGERPRINT>
10366900 7 17346594158017145194
10906281 52 18201170840606805677
11089746 13 16774075167968667512
11796584 16 17676765375583613994
12011746 2 18272370845855838054
12236239 1 16917348147306803839
12553582 1 18343578538848799834
12670546 56 16271922710078946016
12788726 201 18198335161158377489
13140716 1 18127685148974517122
13675066 3 18334577966617813857
13760787 19 17894343371969333330
14294032 229 15266516015720461835
14386348 63 18408888433852658682
15196674 1 18341611581229138522
15375358 24 18412540990168811511
15527383 91 18272380792525413512
15788980 27 18341893012897545228
1601671 61 18413672413825472980
17349148 13 15195563515781590317
17844677 252 18260554467022081516
200 152 17561077003754598089
20645477 56 18260825986791640093
20645477 70 18131346397365285446
21033648 29 18337660984290067513
21267235 1 18272096014697837311
21279426 13 18123469376179561557
21421861 104 17824253805172107698
21709351 56 18270959149960995484
2215653 11 18343014463186685885
23402539 116 16298383569782100134
23557571 272 17676482830753669789
23559900 14 18341043094952726824
26918003 58 18408319973693398170
2871803 45 18341050723225490310
3004659 81 18187644644836851522
335352 9 18342174457930986228
34934 24 18411412891107058846
3545911 37 18412263943588070081
4921388 177 16515694367931946715
5104073 3 18271241745998147314
5283173 99 18189049794072965828
542803 24 17458346342621573748
59755656 215 18340489959421284366
602551 16 17023189378443058098
633830 44 17895747517085075980
9709674 26 18341611507919568423

> <PUBCHEM_SHAPE_MULTIPOLES>
419.08
11.9
2.14
1.05
2.58
0.21
-0.06
-0.71
1.18
-0.36
-0.13
-1.05
-0.05
1.68

> <PUBCHEM_SHAPE_SELFOVERLAP>
912.13

> <PUBCHEM_SHAPE_VOLUME>
225.5

> <PUBCHEM_COORDINATE_TYPE>
2
5
10

$$$$
