REMARK  Name = 131698442
REMARK  7 active torsions:
REMARK  status: ('A' for Active; 'I' for Inactive)
REMARK    1  A    between atoms: C_7  and  C_26
REMARK    2  A    between atoms: C_7  and  O_30
REMARK    3  A    between atoms: C_11  and  O_23
REMARK    4  A    between atoms: C_26  and  C_27
REMARK    5  A    between atoms: C_27  and  O_28
REMARK    6  A    between atoms: O_30  and  C_32
REMARK    7  A    between atoms: C_32  and  C_33
REMARK                            x       y       z     vdW  Elec       q    Type
REMARK                         _______ _______ _______ _____ _____    ______ ____
ROOT
ATOM      1 CL   UNL     1       1.563  -1.266   1.377  0.00  0.00    -0.113 Cl
ATOM      2  O   UNL     1       6.738  -1.430   0.729  0.00  0.00    -0.287 OA
ATOM      3  C   UNL     1      -1.294   1.376   0.015  0.00  0.00    +0.043 C 
ATOM      4  C   UNL     1      -0.342   1.104  -1.189  0.00  0.00    +0.005 C 
ATOM      5  C   UNL     1       0.690  -0.025  -0.912  0.00  0.00    +0.017 C 
ATOM      6  C   UNL     1       1.601   0.292   0.345  0.00  0.00    +0.098 C 
ATOM      7  C   UNL     1      -2.449   0.338  -0.210  0.00  0.00    +0.188 C 
ATOM      8  C   UNL     1      -1.319   0.837  -2.344  0.00  0.00    +0.004 C 
ATOM      9  C   UNL     1      -0.563   1.237   1.375  0.00  0.00    +0.034 C 
ATOM     10  C   UNL     1      -2.535   0.114  -1.742  0.00  0.00    +0.044 C 
ATOM     11  C   UNL     1       0.960   1.384   1.262  0.00  0.00    +0.125 C 
ATOM     12  C   UNL     1       3.129   0.549  -0.034  0.00  0.00    +0.049 C 
ATOM     13  C   UNL     1       1.484  -0.386  -2.186  0.00  0.00    +0.006 C 
ATOM     14  C   UNL     1      -1.832   2.831  -0.111  0.00  0.00    +0.004 C 
ATOM     15  C   UNL     1       2.743  -1.200  -1.930  0.00  0.00    +0.022 C 
ATOM     16  C   UNL     1       3.634  -0.647  -0.850  0.00  0.00    -0.037 C 
ATOM     17  C   UNL     1      -3.818   0.572  -2.433  0.00  0.00    +0.004 C 
ATOM     18  C   UNL     1       3.365   1.831  -0.876  0.00  0.00    +0.010 C 
ATOM     19  C   UNL     1       3.987   0.759   1.213  0.00  0.00    -0.018 C 
ATOM     20  C   UNL     1       4.788  -1.286  -0.589  0.00  0.00    +0.034 C 
ATOM     21  C   UNL     1       5.131   0.121   1.478  0.00  0.00    +0.038 C 
ATOM     22  C   UNL     1       5.647  -0.899   0.548  0.00  0.00    +0.195 C 
ENDROOT
BRANCH  11  23
ATOM     23  O   UNL     1       1.259   2.700   0.811  0.00  0.00    -0.383 OA
ATOM     24  H   UNL     1       2.220   2.806   0.736  0.00  0.00    +0.210 HD
ENDBRANCH  11  23
BRANCH   7  26
ATOM     25  O   UNL     1      -4.635   1.290  -0.114  0.00  0.00    -0.290 OA
ATOM     26  C   UNL     1      -3.743   0.680   0.474  0.00  0.00    +0.216 C 
BRANCH  26  27
ATOM     27  C   UNL     1      -3.880   0.232   1.914  0.00  0.00    +0.206 C 
BRANCH  27  28
ATOM     28  O   UNL     1      -4.724   1.108   2.631  0.00  0.00    -0.375 OA
ATOM     29  H   UNL     1      -4.799   0.805   3.549  0.00  0.00    +0.211 HD
ENDBRANCH  27  28
ENDBRANCH  26  27
ENDBRANCH   7  26
BRANCH   7  30
ATOM     30  O   UNL     1      -2.148  -0.948   0.349  0.00  0.00    -0.449 OA
BRANCH  30  32
ATOM     31  O   UNL     1      -4.124  -1.790  -0.495  0.00  0.00    -0.250 OA
ATOM     32  C   UNL     1      -3.080  -1.928   0.128  0.00  0.00    +0.317 C 
BRANCH  32  33
ATOM     33  C   UNL     1      -2.617  -3.212   0.776  0.00  0.00    +0.110 C 
ATOM     34  C   UNL     1      -3.615  -4.341   0.587  0.00  0.00    +0.012 C 
ENDBRANCH  32  33
ENDBRANCH  30  32
ENDBRANCH   7  30
TORSDOF 7
