131632353
  -OEChem-03292013293D

 75 78  0     1  0  0  0  0  0999 V2000
   -0.4441   -1.8724   -0.1145 O   0  0  0  0  0  0  0  0  0  0  0  0
   -6.2651   -3.0353    1.7216 O   0  0  0  0  0  0  0  0  0  0  0  0
    5.8733    0.6773    1.2832 O   0  0  0  0  0  0  0  0  0  0  0  0
    8.0353   -2.0180    0.2787 O   0  0  0  0  0  0  0  0  0  0  0  0
   10.0088   -1.1023    0.9223 O   0  0  0  0  0  0  0  0  0  0  0  0
    7.0387    0.2025   -0.6704 N   0  0  0  0  0  0  0  0  0  0  0  0
   -0.5326    0.5436   -0.5827 C   0  0  1  0  0  0  0  0  0  0  0  0
   -1.3789    1.2062    0.5191 C   0  0  2  0  0  0  0  0  0  0  0  0
   -2.8557    1.4615    0.1451 C   0  0  1  0  0  0  0  0  0  0  0  0
   -3.4274    0.3147   -0.7603 C   0  0  2  0  0  0  0  0  0  0  0  0
   -5.0074    0.2418   -0.8050 C   0  0  2  0  0  0  0  0  0  0  0  0
    0.8554    0.5835    0.1206 C   0  0  2  0  0  0  0  0  0  0  0  0
   -1.1235   -0.8644   -0.8641 C   0  0  2  0  0  0  0  0  0  0  0  0
   -2.6378   -0.9884   -0.5345 C   0  0  0  0  0  0  0  0  0  0  0  0
   -5.6901    0.5085    0.5672 C   0  0  2  0  0  0  0  0  0  0  0  0
   -0.5562    2.4176    0.9612 C   0  0  0  0  0  0  0  0  0  0  0  0
   -3.6339    1.6832    1.4532 C   0  0  0  0  0  0  0  0  0  0  0  0
    0.9060    1.9833    0.7709 C   0  0  0  0  0  0  0  0  0  0  0  0
   -5.1352    1.7529    1.2631 C   0  0  0  0  0  0  0  0  0  0  0  0
   -5.5630   -1.0812   -1.4159 C   0  0  0  0  0  0  0  0  0  0  0  0
   -0.4905    1.3691   -1.8963 C   0  0  0  0  0  0  0  0  0  0  0  0
    2.0660    0.2932   -0.7556 C   0  0  1  0  0  0  0  0  0  0  0  0
   -5.6606   -0.7122    1.4988 C   0  0  0  0  0  0  0  0  0  0  0  0
   -5.4620    1.3718   -1.7861 C   0  0  0  0  0  0  0  0  0  0  0  0
   -5.6624   -2.2731   -0.4634 C   0  0  0  0  0  0  0  0  0  0  0  0
   -6.3392   -1.9123    0.8495 C   0  0  1  0  0  0  0  0  0  0  0  0
    3.3597    0.4071    0.0754 C   0  0  0  0  0  0  0  0  0  0  0  0
    1.9193   -1.0834   -1.4109 C   0  0  0  0  0  0  0  0  0  0  0  0
    4.6355    0.2005   -0.7420 C   0  0  0  0  0  0  0  0  0  0  0  0
    5.8931    0.3940    0.0885 C   0  0  0  0  0  0  0  0  0  0  0  0
    8.3731    0.3173   -0.1283 C   0  0  0  0  0  0  0  0  0  0  0  0
    8.9013   -0.9867    0.4118 C   0  0  0  0  0  0  0  0  0  0  0  0
   -1.3781    0.5154    1.3792 H   0  0  0  0  0  0  0  0  0  0  0  0
   -2.9207    2.3924   -0.4343 H   0  0  0  0  0  0  0  0  0  0  0  0
   -3.1583    0.5753   -1.7917 H   0  0  0  0  0  0  0  0  0  0  0  0
    0.8545   -0.1375    0.9520 H   0  0  0  0  0  0  0  0  0  0  0  0
   -1.0016   -1.1159   -1.9240 H   0  0  0  0  0  0  0  0  0  0  0  0
   -2.7700   -1.3372    0.4963 H   0  0  0  0  0  0  0  0  0  0  0  0
   -3.0128   -1.7888   -1.1788 H   0  0  0  0  0  0  0  0  0  0  0  0
   -6.7550    0.7143    0.3802 H   0  0  0  0  0  0  0  0  0  0  0  0
   -0.7586    2.6871    2.0029 H   0  0  0  0  0  0  0  0  0  0  0  0
   -0.7725    3.2973    0.3447 H   0  0  0  0  0  0  0  0  0  0  0  0
   -3.2978    2.6166    1.9219 H   0  0  0  0  0  0  0  0  0  0  0  0
   -3.4039    0.8879    2.1724 H   0  0  0  0  0  0  0  0  0  0  0  0
    1.4268    2.7157    0.1434 H   0  0  0  0  0  0  0  0  0  0  0  0
    1.4243    1.9476    1.7357 H   0  0  0  0  0  0  0  0  0  0  0  0
   -5.6178    1.8795    2.2402 H   0  0  0  0  0  0  0  0  0  0  0  0
   -5.3878    2.6522    0.6898 H   0  0  0  0  0  0  0  0  0  0  0  0
   -4.9825   -1.3644   -2.3026 H   0  0  0  0  0  0  0  0  0  0  0  0
   -6.5824   -0.8950   -1.7838 H   0  0  0  0  0  0  0  0  0  0  0  0
   -0.0095    2.3433   -1.7614 H   0  0  0  0  0  0  0  0  0  0  0  0
   -1.4797    1.5757   -2.3066 H   0  0  0  0  0  0  0  0  0  0  0  0
    0.0655    0.8454   -2.6807 H   0  0  0  0  0  0  0  0  0  0  0  0
    2.1353    1.0398   -1.5566 H   0  0  0  0  0  0  0  0  0  0  0  0
   -4.6380   -0.9796    1.7863 H   0  0  0  0  0  0  0  0  0  0  0  0
   -6.1749   -0.4817    2.4407 H   0  0  0  0  0  0  0  0  0  0  0  0
   -5.0601    2.3511   -1.5096 H   0  0  0  0  0  0  0  0  0  0  0  0
   -6.5542    1.4599   -1.8153 H   0  0  0  0  0  0  0  0  0  0  0  0
   -5.1265    1.1604   -2.8085 H   0  0  0  0  0  0  0  0  0  0  0  0
   -4.6808   -2.7095   -0.2577 H   0  0  0  0  0  0  0  0  0  0  0  0
   -6.2237   -3.0796   -0.9529 H   0  0  0  0  0  0  0  0  0  0  0  0
   -7.3997   -1.6907    0.6808 H   0  0  0  0  0  0  0  0  0  0  0  0
   -0.8308   -2.7306   -0.3586 H   0  0  0  0  0  0  0  0  0  0  0  0
    3.3360   -0.3207    0.8972 H   0  0  0  0  0  0  0  0  0  0  0  0
    3.4206    1.3966    0.5433 H   0  0  0  0  0  0  0  0  0  0  0  0
    1.8830   -1.8865   -0.6697 H   0  0  0  0  0  0  0  0  0  0  0  0
    2.7873   -1.2936   -2.0451 H   0  0  0  0  0  0  0  0  0  0  0  0
    1.0791   -1.1506   -2.0981 H   0  0  0  0  0  0  0  0  0  0  0  0
    4.6637    0.9068   -1.5800 H   0  0  0  0  0  0  0  0  0  0  0  0
    4.6763   -0.8158   -1.1475 H   0  0  0  0  0  0  0  0  0  0  0  0
   -6.7172   -3.7771    1.2846 H   0  0  0  0  0  0  0  0  0  0  0  0
    6.9473   -0.0499   -1.6502 H   0  0  0  0  0  0  0  0  0  0  0  0
    8.3705    1.0538    0.6807 H   0  0  0  0  0  0  0  0  0  0  0  0
    9.0256    0.6494   -0.9406 H   0  0  0  0  0  0  0  0  0  0  0  0
    8.4018   -2.8542    0.6374 H   0  0  0  0  0  0  0  0  0  0  0  0
  1 13  1  0  0  0  0
  1 63  1  0  0  0  0
  2 26  1  0  0  0  0
  2 71  1  0  0  0  0
  3 30  2  0  0  0  0
  4 32  1  0  0  0  0
  4 75  1  0  0  0  0
  5 32  2  0  0  0  0
  6 30  1  0  0  0  0
  6 31  1  0  0  0  0
  6 72  1  0  0  0  0
  7  8  1  0  0  0  0
  7 12  1  0  0  0  0
  7 13  1  0  0  0  0
  7 21  1  0  0  0  0
  8  9  1  0  0  0  0
  8 16  1  0  0  0  0
  8 33  1  0  0  0  0
  9 10  1  0  0  0  0
  9 17  1  0  0  0  0
  9 34  1  0  0  0  0
 10 11  1  0  0  0  0
 10 14  1  0  0  0  0
 10 35  1  0  0  0  0
 11 15  1  0  0  0  0
 11 20  1  0  0  0  0
 11 24  1  0  0  0  0
 12 18  1  0  0  0  0
 12 22  1  0  0  0  0
 12 36  1  0  0  0  0
 13 14  1  0  0  0  0
 13 37  1  0  0  0  0
 14 38  1  0  0  0  0
 14 39  1  0  0  0  0
 15 19  1  0  0  0  0
 15 23  1  0  0  0  0
 15 40  1  0  0  0  0
 16 18  1  0  0  0  0
 16 41  1  0  0  0  0
 16 42  1  0  0  0  0
 17 19  1  0  0  0  0
 17 43  1  0  0  0  0
 17 44  1  0  0  0  0
 18 45  1  0  0  0  0
 18 46  1  0  0  0  0
 19 47  1  0  0  0  0
 19 48  1  0  0  0  0
 20 25  1  0  0  0  0
 20 49  1  0  0  0  0
 20 50  1  0  0  0  0
 21 51  1  0  0  0  0
 21 52  1  0  0  0  0
 21 53  1  0  0  0  0
 22 27  1  0  0  0  0
 22 28  1  0  0  0  0
 22 54  1  0  0  0  0
 23 26  1  0  0  0  0
 23 55  1  0  0  0  0
 23 56  1  0  0  0  0
 24 57  1  0  0  0  0
 24 58  1  0  0  0  0
 24 59  1  0  0  0  0
 25 26  1  0  0  0  0
 25 60  1  0  0  0  0
 25 61  1  0  0  0  0
 26 62  1  0  0  0  0
 27 29  1  0  0  0  0
 27 64  1  0  0  0  0
 27 65  1  0  0  0  0
 28 66  1  0  0  0  0
 28 67  1  0  0  0  0
 28 68  1  0  0  0  0
 29 30  1  0  0  0  0
 29 69  1  0  0  0  0
 29 70  1  0  0  0  0
 31 32  1  0  0  0  0
 31 73  1  0  0  0  0
 31 74  1  0  0  0  0
M  END
> <PUBCHEM_COMPOUND_CID>
131632353

> <PUBCHEM_CONFORMER_RMSD>
1

> <PUBCHEM_CONFORMER_DIVERSEORDER>
1
43
37
31
78
61
79
32
30
45
5
35
69
75
68
4
65
80
34
46
23
62
28
47
72
36
41
54
26
55
77
60
74
73
76
17
24
67
57
33
64
51
70
13
39
27
53
29
59
20
10
58
52
11
12
16
18
44
38
63
42
6
3
66
21
49
8
50
48
40
19
22
25
15
71
14
7
9
56
2

> <PUBCHEM_MMFF94_PARTIAL_CHARGES>
16
1 -0.68
13 0.28
2 -0.68
26 0.28
29 0.06
3 -0.57
30 0.57
31 0.36
32 0.66
4 -0.65
5 -0.57
6 -0.73
63 0.4
71 0.4
72 0.37
75 0.5

> <PUBCHEM_EFFECTIVE_ROTOR_COUNT>
9.2

> <PUBCHEM_PHARMACOPHORE_FEATURES>
14
1 1 acceptor
1 1 donor
1 2 acceptor
1 2 donor
1 28 hydrophobe
1 3 acceptor
1 4 acceptor
1 5 acceptor
1 6 donor
3 4 5 32 anion
5 7 8 12 16 18 rings
6 11 15 20 23 25 26 rings
6 7 8 9 10 13 14 rings
6 9 10 11 15 17 19 rings

> <PUBCHEM_HEAVY_ATOM_COUNT>
32

> <PUBCHEM_ATOM_DEF_STEREO_COUNT>
9

> <PUBCHEM_ATOM_UDEF_STEREO_COUNT>
1

> <PUBCHEM_BOND_DEF_STEREO_COUNT>
0

> <PUBCHEM_BOND_UDEF_STEREO_COUNT>
0

> <PUBCHEM_ISOTOPIC_ATOM_COUNT>
0

> <PUBCHEM_COMPONENT_COUNT>
1

> <PUBCHEM_CACTVS_TAUTO_COUNT>
2

> <PUBCHEM_CONFORMER_ID>
07D88CE100000001

> <PUBCHEM_MMFF94_ENERGY>
117.1008

> <PUBCHEM_FEATURE_SELFOVERLAP>
71.235

> <PUBCHEM_SHAPE_FINGERPRINT>
10299344 5 18410293606430527174
10675989 125 16903853554081314073
11135926 11 18271805683567258071
11315181 36 18342175578733015741
11456790 92 16988841658453953122
13782708 43 18259984906997401313
14251764 18 18201999915998749638
14849402 71 17416403379673335088
14856354 85 17346316050732573685
15021287 119 18041001769090043261
15183329 4 17775563126705098710
15461852 350 17167582700074436326
17093844 174 17704073976216267961
1754908 1 18131063841011825890
1754911 235 8430312455806774522
19611394 137 18269279117552740738
21267235 1 18272654579526689620
21792961 116 18408599254485100781
23559900 14 18059281188382659145
23569917 315 18260555541170711314
23569943 247 17752760235447026106
23576562 1 8141501484952720250
3178227 256 17775571957484783482
3383291 50 18271527588830620158
3711267 37 11311765212393495970
4093350 32 15123517969891787070
4169191 19 8070034380182190742
4616759 239 17561370573813298707
5104073 3 17917160376986658299
58083652 198 17346306128962837984
6441014 3 17613726237736702051
9953998 17 16774082869182431329
999808 66 18409733993018290251

> <PUBCHEM_SHAPE_MULTIPOLES>
624.22
24.54
2.32
1.52
62.83
0.52
0.13
12.14
-6.62
-3.15
-0.78
-1.93
-0.02
0.3

> <PUBCHEM_SHAPE_SELFOVERLAP>
1300.044

> <PUBCHEM_SHAPE_VOLUME>
349.8

> <PUBCHEM_COORDINATE_TYPE>
2
5
10

$$$$
