REMARK  Name = 131665
REMARK  8 active torsions:
REMARK  status: ('A' for Active; 'I' for Inactive)
REMARK    1  A    between atoms: C_1  and  S_15
REMARK    2  A    between atoms: C_2  and  O_7
REMARK    3  A    between atoms: C_3  and  O_11
REMARK    4  A    between atoms: C_4  and  O_9
REMARK    5  A    between atoms: C_5  and  O_13
REMARK    6  A    between atoms: S_15  and  C_16
REMARK    7  A    between atoms: C_16  and  C_18
REMARK    8  A    between atoms: C_18  and  O_19
REMARK                            x       y       z     vdW  Elec       q    Type
REMARK                         _______ _______ _______ _____ _____    ______ ____
ROOT
ATOM      1  C   UNL     1       0.135   0.196  -0.572  0.00  0.00    +0.097 C 
ATOM      2  C   UNL     1      -0.610  -0.915  -0.178  0.00  0.00    +0.184 C 
ATOM      3  C   UNL     1      -1.968  -0.778   0.109  0.00  0.00    +0.203 C 
ATOM      4  C   UNL     1      -2.581   0.470   0.001  0.00  0.00    +0.178 C 
ATOM      5  C   UNL     1      -0.478   1.444  -0.680  0.00  0.00    +0.145 C 
ATOM      6  C   UNL     1      -1.836   1.581  -0.393  0.00  0.00    +0.077 C 
ENDROOT
BRANCH   2   7
ATOM      7  O   UNL     1      -0.034  -2.148  -0.065  0.00  0.00    -0.468 OA
ATOM      8  C   UNL     1      -0.043  -2.973  -1.226  0.00  0.00    +0.253 C 
ENDBRANCH   2   7
BRANCH   4   9
ATOM      9  O   UNL     1      -3.907   0.618   0.279  0.00  0.00    -0.468 OA
ATOM     10  C   UNL     1      -4.256   0.931   1.626  0.00  0.00    +0.253 C 
ENDBRANCH   4   9
BRANCH   3  11
ATOM     11  O   UNL     1      -2.699  -1.863   0.494  0.00  0.00    -0.501 OA
ATOM     12  H   UNL     1      -2.289  -2.702   0.567  0.00  0.00    +0.292 HD
ENDBRANCH   3  11
BRANCH   5  13
ATOM     13  O   UNL     1       0.216   2.555  -1.062  0.00  0.00    -0.505 OA
ATOM     14  H   UNL     1       1.129   2.491  -1.260  0.00  0.00    +0.292 HD
ENDBRANCH   5  13
BRANCH   1  15
ATOM     15  S   UNL     1       1.883   0.024  -0.938  0.00  0.00    -0.096 S 
BRANCH  15  16
ATOM     16  C   UNL     1       2.620   0.327   0.691  0.00  0.00    +0.171 C 
BRANCH  16  18
ATOM     17  O   UNL     1       4.752   0.494  -0.421  0.00  0.00    -0.249 OA
ATOM     18  C   UNL     1       4.115   0.224   0.589  0.00  0.00    +0.325 C 
BRANCH  18  19
ATOM     19  O   UNL     1       4.692  -0.188   1.746  0.00  0.00    -0.480 OA
ATOM     20  H   UNL     1       4.159  -0.382   2.492  0.00  0.00    +0.295 HD
ENDBRANCH  18  19
ENDBRANCH  16  18
ENDBRANCH  15  16
ENDBRANCH   1  15
TORSDOF 8
