REMARK  Name = 131693
REMARK  7 active torsions:
REMARK  status: ('A' for Active; 'I' for Inactive)
REMARK    1  A    between atoms: N_2  and  C_26
REMARK    2  A    between atoms: N_3  and  C1*_12
REMARK    3  A    between atoms: C_6  and  N_23
REMARK    4  A    between atoms: C2*_13  and  O2*_16
REMARK    5  A    between atoms: C3*_14  and  O3*_18
REMARK    6  A    between atoms: C4*_15  and  C5*_20
REMARK    7  A    between atoms: C5*_20  and  O5*_21
REMARK                            x       y       z     vdW  Elec       q    Type
REMARK                         _______ _______ _______ _____ _____    ______ ____
ROOT
ATOM      1  O   UNL     1       3.187  -2.338  -0.531  0.00  0.00    -0.193 OA
ATOM      2  N   UNL     1       3.233  -0.139   0.197  0.00  0.00    -0.211 N 
ATOM      3  N   UNL     1      -0.749   0.197  -0.259  0.00  0.00    -0.236 N 
ATOM      4  N   UNL     1       1.192  -1.267  -0.459  0.00  0.00    -0.304 NA
ATOM      5  N   UNL     1       0.284   2.064   0.518  0.00  0.00    -0.245 NA
ATOM      6  C   UNL     1       2.559   1.058   0.499  0.00  0.00    +0.183 C 
ATOM      7  C   UNL     1       0.577  -0.172  -0.189  0.00  0.00    +0.217 C 
ATOM      8  C   UNL     1       1.233   1.065   0.313  0.00  0.00    +0.134 C 
ATOM      9  C   UNL     1       2.566  -1.303  -0.278  0.00  0.00    +0.271 C 
ATOM     10  C   UNL     1      -0.847   1.497   0.173  0.00  0.00    +0.223 C 
ENDROOT
BRANCH   3  12
ATOM     11  O4* UNL     1      -2.924   0.119  -1.190  0.00  0.00    -0.333 OA
ATOM     12  C1* UNL     1      -1.851  -0.662  -0.624  0.00  0.00    +0.226 C 
ATOM     13  C2* UNL     1      -2.418  -1.367   0.603  0.00  0.00    +0.187 C 
ATOM     14  C3* UNL     1      -3.539  -0.435   1.017  0.00  0.00    +0.171 C 
ATOM     15  C4* UNL     1      -4.069   0.042  -0.324  0.00  0.00    +0.175 C 
BRANCH  13  16
ATOM     16  O2* UNL     1      -2.921  -2.648   0.227  0.00  0.00    -0.378 OA
ATOM     17  H2* UNL     1      -2.183  -3.222  -0.032  0.00  0.00    +0.211 HD
ENDBRANCH  13  16
BRANCH  14  18
ATOM     18  O3* UNL     1      -4.538  -1.067   1.789  0.00  0.00    -0.379 OA
ATOM     19  H3* UNL     1      -4.160  -1.355   2.634  0.00  0.00    +0.211 HD
ENDBRANCH  14  18
BRANCH  15  20
ATOM     20  C5* UNL     1      -4.748   1.398  -0.254  0.00  0.00    +0.169 C 
BRANCH  20  21
ATOM     21  O5* UNL     1      -5.192   1.750  -1.553  0.00  0.00    -0.379 OA
ATOM     22  H5* UNL     1      -5.629   2.616  -1.522  0.00  0.00    +0.211 HD
ENDBRANCH  20  21
ENDBRANCH  15  20
ENDBRANCH   3  12
BRANCH   6  23
ATOM     23  N   UNL     1       3.190   2.187   0.965  0.00  0.00    -0.301 NA
ATOM     24  H   UNL     1       4.165   2.185   1.102  0.00  0.00    +0.121 HD
ATOM     25  H   UNL     1       2.667   2.998   1.160  0.00  0.00    +0.121 HD
ENDBRANCH   6  23
BRANCH   2  26
ATOM     26  C   UNL     1       4.677  -0.190   0.379  0.00  0.00    +0.087 C 
ATOM     27  C   UNL     1       5.545   0.819  -0.277  0.00  0.00    +0.022 C 
ATOM     28  C   UNL     1       5.552  -0.607  -0.744  0.00  0.00    +0.022 C 
ENDBRANCH   2  26
TORSDOF 7
