REMARK  Name = 131674214
REMARK  9 active torsions:
REMARK  status: ('A' for Active; 'I' for Inactive)
REMARK    1  A    between atoms: C_1  and  C_4
REMARK    2  A    between atoms: C_1  and  O_18
REMARK    3  A    between atoms: C_1  and  C_22
REMARK    4  A    between atoms: C_10  and  O_14
REMARK    5  A    between atoms: C_11  and  O_16
REMARK    6  A    between atoms: O_18  and  C_20
REMARK    7  A    between atoms: C_22  and  C_23
REMARK    8  A    between atoms: C_24  and  C_26
REMARK    9  A    between atoms: C_24  and  C_30
REMARK                            x       y       z     vdW  Elec       q    Type
REMARK                         _______ _______ _______ _____ _____    ______ ____
ROOT
ATOM      1  O   UNL     1       0.379   0.100   1.869  0.00  0.00    -0.287 OA
ATOM      2  O   UNL     1      -1.905   0.765  -2.916  0.00  0.00    -0.286 OA
ATOM      3  C   UNL     1       0.640   0.437  -0.452  0.00  0.00    +0.060 C 
ATOM      4  C   UNL     1      -1.641   0.251   0.653  0.00  0.00    +0.078 C 
ATOM      5  C   UNL     1      -0.170   0.249   0.783  0.00  0.00    +0.198 C 
ATOM      6  C   UNL     1      -2.246   0.423  -0.592  0.00  0.00    +0.079 C 
ATOM      7  C   UNL     1       0.044   0.602  -1.638  0.00  0.00    +0.045 C 
ATOM      8  C   UNL     1      -1.424   0.608  -1.801  0.00  0.00    +0.199 C 
ATOM      9  C   UNL     1      -2.434   0.076   1.794  0.00  0.00    +0.137 C 
ATOM     10  C   UNL     1      -3.642   0.423  -0.701  0.00  0.00    +0.137 C 
ATOM     11  C   UNL     1      -3.825   0.075   1.683  0.00  0.00    +0.040 C 
ATOM     12  C   UNL     1      -4.428   0.248   0.439  0.00  0.00    +0.040 C 
ENDROOT
BRANCH   9  13
ATOM     13  O   UNL     1      -1.909  -0.100   3.040  0.00  0.00    -0.505 OA
ATOM     14  H   UNL     1      -0.980  -0.107   3.161  0.00  0.00    +0.292 HD
ENDBRANCH   9  13
BRANCH  10  15
ATOM     15  O   UNL     1      -4.290   0.585  -1.889  0.00  0.00    -0.505 OA
ATOM     16  H   UNL     1      -3.799   0.705  -2.678  0.00  0.00    +0.292 HD
ENDBRANCH  10  15
BRANCH   3  17
ATOM     17  C   UNL     1       2.136   0.436  -0.344  0.00  0.00    +0.198 C 
BRANCH  17  18
ATOM     18  O   UNL     1       2.533   1.555   0.441  0.00  0.00    -0.447 OA
BRANCH  18  20
ATOM     19  O   UNL     1       4.448   1.789  -0.830  0.00  0.00    -0.250 OA
ATOM     20  C   UNL     1       3.717   2.140   0.086  0.00  0.00    +0.318 C 
ATOM     21  C   UNL     1       4.005   3.297   0.994  0.00  0.00    +0.121 C 
ENDBRANCH  18  20
ENDBRANCH  17  18
BRANCH  17  22
ATOM     22  C   UNL     1       2.715  -0.856   0.243  0.00  0.00    +0.066 C 
BRANCH  22  23
ATOM     23  C   UNL     1       2.472  -2.078  -0.606  0.00  0.00    -0.015 C 
ATOM     24  C   UNL     1       1.855  -3.221  -0.251  0.00  0.00    -0.079 C 
ATOM     25  C   UNL     1       1.322  -3.398   1.145  0.00  0.00    +0.038 C 
ATOM     26  C   UNL     1       1.644  -4.407  -1.150  0.00  0.00    +0.038 C 
ENDBRANCH  22  23
ENDBRANCH  17  22
ENDBRANCH   3  17
TORSDOF 7
