131624
  -OEChem-03292013323D

 54 55  0     1  0  0  0  0  0999 V2000
   -3.8923   -0.1015   -0.5749 S   0  0  0  0  0  0  0  0  0  0  0  0
    2.2408   -3.3913    1.4703 O   0  0  0  0  0  0  0  0  0  0  0  0
   -0.5096   -3.0583   -2.8101 O   0  0  0  0  0  0  0  0  0  0  0  0
    0.3664   -2.1079    1.8271 O   0  0  0  0  0  0  0  0  0  0  0  0
   -5.0468   -0.6091    0.1416 O   0  0  0  0  0  0  0  0  0  0  0  0
   -4.0681    0.8070   -1.6917 O   0  0  0  0  0  0  0  0  0  0  0  0
   -0.1115   -1.8422   -0.8696 N   0  0  0  0  0  0  0  0  0  0  0  0
   -2.9172   -1.4100   -1.0665 N   0  0  0  0  0  0  0  0  0  0  0  0
    2.0405    4.3170   -1.3324 N   0  0  0  0  0  0  0  0  0  0  0  0
    1.0612    2.7629   -2.7771 N   0  0  0  0  0  0  0  0  0  0  0  0
    1.0754   -2.5397   -0.4423 C   0  0  1  0  0  0  0  0  0  0  0  0
    2.3395   -1.9171   -1.0533 C   0  0  0  0  0  0  0  0  0  0  0  0
    2.6166   -0.4954   -0.6195 C   0  0  0  0  0  0  0  0  0  0  0  0
   -2.0091   -1.2656   -2.2140 C   0  0  0  0  0  0  0  0  0  0  0  0
   -0.8115   -2.1615   -2.0271 C   0  0  0  0  0  0  0  0  0  0  0  0
    1.1690   -2.6494    1.0739 C   0  0  0  0  0  0  0  0  0  0  0  0
    2.0926    0.5717   -1.3492 C   0  0  0  0  0  0  0  0  0  0  0  0
    3.3955   -0.2510    0.5115 C   0  0  0  0  0  0  0  0  0  0  0  0
   -2.8417    0.7120    0.5908 C   0  0  0  0  0  0  0  0  0  0  0  0
    2.3478    1.8830   -0.9480 C   0  0  0  0  0  0  0  0  0  0  0  0
    3.6506    1.0603    0.9128 C   0  0  0  0  0  0  0  0  0  0  0  0
    3.1267    2.1273    0.1830 C   0  0  0  0  0  0  0  0  0  0  0  0
   -2.8881    0.3555    1.9386 C   0  0  0  0  0  0  0  0  0  0  0  0
   -1.9662    1.7101    0.1632 C   0  0  0  0  0  0  0  0  0  0  0  0
   -1.1832    1.9952    2.4308 C   0  0  0  0  0  0  0  0  0  0  0  0
   -2.0588    0.9971    2.8586 C   0  0  0  0  0  0  0  0  0  0  0  0
   -1.1369    2.3517    1.0831 C   0  0  0  0  0  0  0  0  0  0  0  0
    1.8024    2.9962   -1.7084 C   0  0  0  0  0  0  0  0  0  0  0  0
   -0.2966    2.6812    3.4145 C   0  0  0  0  0  0  0  0  0  0  0  0
    2.4127   -3.5282    2.8845 C   0  0  0  0  0  0  0  0  0  0  0  0
    0.9888   -3.5701   -0.8113 H   0  0  0  0  0  0  0  0  0  0  0  0
    3.2155   -2.5332   -0.8105 H   0  0  0  0  0  0  0  0  0  0  0  0
    2.2694   -1.9424   -2.1493 H   0  0  0  0  0  0  0  0  0  0  0  0
   -0.4424   -1.0722   -0.2947 H   0  0  0  0  0  0  0  0  0  0  0  0
   -1.6551   -0.2359   -2.3212 H   0  0  0  0  0  0  0  0  0  0  0  0
   -2.5344   -1.5587   -3.1279 H   0  0  0  0  0  0  0  0  0  0  0  0
    1.4885    0.3607   -2.2281 H   0  0  0  0  0  0  0  0  0  0  0  0
    3.8169   -1.0705    1.0867 H   0  0  0  0  0  0  0  0  0  0  0  0
   -3.2307   -2.3645   -0.8509 H   0  0  0  0  0  0  0  0  0  0  0  0
    4.2580    1.2498    1.7930 H   0  0  0  0  0  0  0  0  0  0  0  0
    3.3549    3.1257    0.5393 H   0  0  0  0  0  0  0  0  0  0  0  0
   -3.5578   -0.4237    2.2913 H   0  0  0  0  0  0  0  0  0  0  0  0
   -1.9078    1.9997   -0.8821 H   0  0  0  0  0  0  0  0  0  0  0  0
   -2.1038    0.7103    3.9059 H   0  0  0  0  0  0  0  0  0  0  0  0
   -0.4596    3.1284    0.7384 H   0  0  0  0  0  0  0  0  0  0  0  0
    0.6493    2.9806    2.9500 H   0  0  0  0  0  0  0  0  0  0  0  0
   -0.0466    2.0195    4.2509 H   0  0  0  0  0  0  0  0  0  0  0  0
   -0.7925    3.5735    3.8092 H   0  0  0  0  0  0  0  0  0  0  0  0
    3.3036   -4.1366    3.0611 H   0  0  0  0  0  0  0  0  0  0  0  0
    1.5482   -4.0350    3.3237 H   0  0  0  0  0  0  0  0  0  0  0  0
    2.5613   -2.5466    3.3447 H   0  0  0  0  0  0  0  0  0  0  0  0
    1.6490    5.0802   -1.8747 H   0  0  0  0  0  0  0  0  0  0  0  0
    2.5936    4.5842   -0.5277 H   0  0  0  0  0  0  0  0  0  0  0  0
    0.7714    3.6649   -3.1711 H   0  0  0  0  0  0  0  0  0  0  0  0
  1  5  2  0  0  0  0
  1  6  2  0  0  0  0
  1  8  1  0  0  0  0
  1 19  1  0  0  0  0
  2 16  1  0  0  0  0
  2 30  1  0  0  0  0
  3 15  2  0  0  0  0
  4 16  2  0  0  0  0
  7 11  1  0  0  0  0
  7 15  1  0  0  0  0
  7 34  1  0  0  0  0
  8 14  1  0  0  0  0
  8 39  1  0  0  0  0
  9 28  1  0  0  0  0
  9 52  1  0  0  0  0
  9 53  1  0  0  0  0
 10 28  2  0  0  0  0
 10 54  1  0  0  0  0
 11 12  1  0  0  0  0
 11 16  1  0  0  0  0
 11 31  1  0  0  0  0
 12 13  1  0  0  0  0
 12 32  1  0  0  0  0
 12 33  1  0  0  0  0
 13 17  2  0  0  0  0
 13 18  1  0  0  0  0
 14 15  1  0  0  0  0
 14 35  1  0  0  0  0
 14 36  1  0  0  0  0
 17 20  1  0  0  0  0
 17 37  1  0  0  0  0
 18 21  2  0  0  0  0
 18 38  1  0  0  0  0
 19 23  2  0  0  0  0
 19 24  1  0  0  0  0
 20 22  2  0  0  0  0
 20 28  1  0  0  0  0
 21 22  1  0  0  0  0
 21 40  1  0  0  0  0
 22 41  1  0  0  0  0
 23 26  1  0  0  0  0
 23 42  1  0  0  0  0
 24 27  2  0  0  0  0
 24 43  1  0  0  0  0
 25 26  2  0  0  0  0
 25 27  1  0  0  0  0
 25 29  1  0  0  0  0
 26 44  1  0  0  0  0
 27 45  1  0  0  0  0
 29 46  1  0  0  0  0
 29 47  1  0  0  0  0
 29 48  1  0  0  0  0
 30 49  1  0  0  0  0
 30 50  1  0  0  0  0
 30 51  1  0  0  0  0
M  END
> <PUBCHEM_COMPOUND_CID>
131624

> <PUBCHEM_CONFORMER_RMSD>
1.6

> <PUBCHEM_CONFORMER_DIVERSEORDER>
1
37
9
46
57
47
78
79
19
30
21
83
45
87
86
39
54
22
26
96
61
42
105
8
40
49
100
43
27
74
63
3
67
36
55
98
75
81
82
102
44
10
104
11
76
72
73
41
95
77
7
34
91
103
69
93
38
23
35
12
2
17
65
24
18
84
5
29
88
64
13
59
85
58
20
33
99
53
16
15
68
14
56
32
94
80
28
90
4
101
50
52
60
89
92
25
70
31
51
48
106
66
71
62
97
6

> <PUBCHEM_MMFF94_PARTIAL_CHARGES>
43
1 1.45
10 -0.85
11 0.36
12 0.14
13 -0.14
14 0.42
15 0.57
16 0.66
17 -0.15
18 -0.15
19 -0.01
2 -0.43
20 0.09
21 -0.15
22 -0.15
23 -0.15
24 -0.15
25 -0.14
26 -0.15
27 -0.15
28 0.41
29 0.14
3 -0.57
30 0.28
34 0.37
37 0.15
38 0.15
39 0.42
4 -0.57
40 0.15
41 0.15
42 0.15
43 0.15
44 0.15
45 0.15
5 -0.65
52 0.4
53 0.4
54 0.4
6 -0.65
7 -0.73
8 -0.91
9 -0.85

> <PUBCHEM_EFFECTIVE_ROTOR_COUNT>
11

> <PUBCHEM_PHARMACOPHORE_FEATURES>
11
1 10 donor
1 3 acceptor
1 4 acceptor
1 5 acceptor
1 6 acceptor
1 7 donor
1 8 donor
1 9 donor
3 9 10 28 cation
6 13 17 18 20 21 22 rings
6 19 23 24 25 26 27 rings

> <PUBCHEM_HEAVY_ATOM_COUNT>
30

> <PUBCHEM_ATOM_DEF_STEREO_COUNT>
1

> <PUBCHEM_ATOM_UDEF_STEREO_COUNT>
0

> <PUBCHEM_BOND_DEF_STEREO_COUNT>
0

> <PUBCHEM_BOND_UDEF_STEREO_COUNT>
0

> <PUBCHEM_ISOTOPIC_ATOM_COUNT>
0

> <PUBCHEM_COMPONENT_COUNT>
1

> <PUBCHEM_CACTVS_TAUTO_COUNT>
2

> <PUBCHEM_CONFORMER_ID>
0002022800000001

> <PUBCHEM_MMFF94_ENERGY>
63.3103

> <PUBCHEM_FEATURE_SELFOVERLAP>
55.886

> <PUBCHEM_SHAPE_FINGERPRINT>
12156800 1 10798310040160475829
12539773 59 18273222984378551881
13009979 54 18057582326964495862
133893 2 18119271504919097481
13965767 371 17767130804433170632
14787075 74 17905614654892873511
15297060 5 17203620267643679795
19319366 153 18266451203922218679
20715895 44 17764296251120891157
20764821 26 17483386804826215465
238 59 18041012764079713408
35225 105 17545921515818318965
469060 322 15658042600543985780
6287921 2 17628947567388161959

> <PUBCHEM_SHAPE_MULTIPOLES>
571.96
6.45
4.87
3.41
4.21
0.19
-1.31
0.22
0.03
-3.41
0.05
0.25
0.15
-3.47

> <PUBCHEM_SHAPE_SELFOVERLAP>
1182.438

> <PUBCHEM_SHAPE_VOLUME>
327.7

> <PUBCHEM_COORDINATE_TYPE>
2
5
10

$$$$
