REMARK  Name = 131685
REMARK  11 active torsions:
REMARK  status: ('A' for Active; 'I' for Inactive)
REMARK    1  A    between atoms: C_2  and  O_3
REMARK    2  A    between atoms: C_2  and  C_18
REMARK    3  A    between atoms: O_3  and  C_4
REMARK    4  A    between atoms: C_4  and  C_5
REMARK    5  A    between atoms: C_18  and  N_20
REMARK    6  A    between atoms: C_18  and  C_28
REMARK    7  A    between atoms: C_21  and  O_23
REMARK    8  A    between atoms: O_23  and  C_24
REMARK    9  A    between atoms: C_28  and  C_29
REMARK   10  A    between atoms: C_29  and  C_31
REMARK   11  A    between atoms: C_31  and  O_32
REMARK                            x       y       z     vdW  Elec       q    Type
REMARK                         _______ _______ _______ _____ _____    ______ ____
ROOT
ATOM      1  O   UNL     1       0.003   2.404  -3.157  0.00  0.00    -0.248 OA
ATOM      2  C   UNL     1      -0.225   1.670  -2.201  0.00  0.00    +0.335 C 
ENDROOT
BRANCH   2   3
ATOM      3  O   UNL     1       0.735   1.024  -1.469  0.00  0.00    -0.447 OA
BRANCH   3   4
ATOM      4  C   UNL     1       2.077   1.239  -1.867  0.00  0.00    +0.217 C 
BRANCH   4   5
ATOM      5  C   UNL     1       2.992   0.445  -0.943  0.00  0.00    +0.088 C 
ATOM      6  C   UNL     1       2.763   0.767   0.527  0.00  0.00    -0.015 C 
ATOM      7  C   UNL     1       2.707  -1.049  -0.976  0.00  0.00    -0.015 C 
ATOM      8  C   UNL     1       2.409  -0.402   1.238  0.00  0.00    -0.004 C 
ATOM      9  C   UNL     1       2.375  -1.516   0.316  0.00  0.00    -0.004 C 
ATOM     10  C   UNL     1       2.880   1.990   1.167  0.00  0.00    -0.004 C 
ATOM     11  C   UNL     1       2.759  -1.910  -2.061  0.00  0.00    -0.004 C 
ATOM     12  C   UNL     1       2.160  -0.351   2.600  0.00  0.00    -0.000 C 
ATOM     13  C   UNL     1       2.082  -2.854   0.528  0.00  0.00    -0.000 C 
ATOM     14  C   UNL     1       2.628   2.041   2.540  0.00  0.00    -0.000 C 
ATOM     15  C   UNL     1       2.464  -3.258  -1.846  0.00  0.00    -0.000 C 
ATOM     16  C   UNL     1       2.271   0.882   3.249  0.00  0.00    -0.000 C 
ATOM     17  C   UNL     1       2.128  -3.725  -0.564  0.00  0.00    -0.000 C 
ENDBRANCH   4   5
ENDBRANCH   3   4
ENDBRANCH   2   3
BRANCH   2  18
ATOM     18  C   UNL     1      -1.635   1.359  -1.724  0.00  0.00    +0.174 C 
BRANCH  18  20
ATOM     19  O   UNL     1      -3.631  -0.694  -1.236  0.00  0.00    -0.226 OA
ATOM     20  N   UNL     1      -1.656   0.381  -0.665  0.00  0.00    -0.262 N 
ATOM     21  C   UNL     1      -2.651  -0.563  -0.509  0.00  0.00    +0.402 C 
ATOM     22  H   UNL     1      -0.917   0.387  -0.014  0.00  0.00    +0.153 HD
BRANCH  21  23
ATOM     23  O   UNL     1      -2.386  -1.339   0.583  0.00  0.00    -0.442 OA
BRANCH  23  24
ATOM     24  C   UNL     1      -3.342  -2.367   0.866  0.00  0.00    +0.138 C 
ATOM     25  C   UNL     1      -4.697  -1.712   1.127  0.00  0.00    +0.044 C 
ATOM     26  C   UNL     1      -2.859  -3.116   2.106  0.00  0.00    +0.044 C 
ATOM     27  C   UNL     1      -3.414  -3.308  -0.336  0.00  0.00    +0.044 C 
ENDBRANCH  23  24
ENDBRANCH  21  23
ENDBRANCH  18  20
BRANCH  18  28
ATOM     28  C   UNL     1      -2.401   2.629  -1.322  0.00  0.00    +0.043 C 
BRANCH  28  29
ATOM     29  C   UNL     1      -1.710   3.500  -0.264  0.00  0.00    +0.112 C 
BRANCH  29  31
ATOM     30  O   UNL     1      -0.499   2.591   1.634  0.00  0.00    -0.250 OA
ATOM     31  C   UNL     1      -1.565   2.816   1.076  0.00  0.00    +0.314 C 
BRANCH  31  32
ATOM     32  O   UNL     1      -2.760   2.424   1.587  0.00  0.00    -0.480 OA
ATOM     33  H   UNL     1      -3.553   2.617   1.127  0.00  0.00    +0.295 HD
ENDBRANCH  31  32
ENDBRANCH  29  31
ENDBRANCH  28  29
ENDBRANCH  18  28
ENDBRANCH   2  18
TORSDOF 11
