REMARK  Name = 131676010
REMARK  5 active torsions:
REMARK  status: ('A' for Active; 'I' for Inactive)
REMARK    1  A    between atoms: C_7  and  O_23
REMARK    2  A    between atoms: C_8  and  O_25
REMARK    3  A    between atoms: C_9  and  O_27
REMARK    4  A    between atoms: C_11  and  O_29
REMARK    5  A    between atoms: O_29  and  C_31
REMARK                            x       y       z     vdW  Elec       q    Type
REMARK                         _______ _______ _______ _____ _____    ______ ____
ROOT
ATOM      1  O   UNL     1       0.495  -0.909  -2.156  0.00  0.00    -0.332 OA
ATOM      2  O   UNL     1       2.678  -1.145   1.699  0.00  0.00    -0.291 OA
ATOM      3  C   UNL     1      -0.938  -0.105  -0.279  0.00  0.00    +0.067 C 
ATOM      4  C   UNL     1       1.622  -0.051  -0.242  0.00  0.00    +0.129 C 
ATOM      5  C   UNL     1       0.325   0.665   0.288  0.00  0.00    +0.020 C 
ATOM      6  C   UNL     1      -0.872  -1.534   0.398  0.00  0.00    +0.038 C 
ATOM      7  C   UNL     1       1.239  -1.342  -1.000  0.00  0.00    +0.217 C 
ATOM      8  C   UNL     1       0.303  -2.310  -0.242  0.00  0.00    +0.162 C 
ATOM      9  C   UNL     1       2.474   0.951  -1.092  0.00  0.00    +0.126 C 
ATOM     10  C   UNL     1      -2.249  -2.302   0.541  0.00  0.00    +0.003 C 
ATOM     11  C   UNL     1      -2.281   0.580   0.062  0.00  0.00    +0.171 C 
ATOM     12  C   UNL     1      -0.725  -0.238  -1.813  0.00  0.00    +0.148 C 
ATOM     13  C   UNL     1       0.361   2.194   0.061  0.00  0.00    +0.001 C 
ATOM     14  C   UNL     1       2.922   1.980  -0.047  0.00  0.00    +0.053 C 
ATOM     15  C   UNL     1       2.575  -0.195   0.944  0.00  0.00    +0.175 C 
ATOM     16  C   UNL     1       1.723   2.839   0.380  0.00  0.00    +0.007 C 
ATOM     17  C   UNL     1      -3.311  -1.738  -0.419  0.00  0.00    +0.004 C 
ATOM     18  C   UNL     1      -3.521  -0.232  -0.327  0.00  0.00    +0.044 C 
ATOM     19  C   UNL     1       3.356   1.071   1.078  0.00  0.00    +0.015 C 
ATOM     20  C   UNL     1      -2.763  -2.144   1.998  0.00  0.00    +0.000 C 
ATOM     21  C   UNL     1      -2.168  -3.824   0.287  0.00  0.00    +0.000 C 
ATOM     22  C   UNL     1       4.296   1.271   2.002  0.00  0.00    -0.002 C 
ENDROOT
BRANCH   7  23
ATOM     23  O   UNL     1       2.406  -2.039  -1.427  0.00  0.00    -0.361 OA
ATOM     24  H   UNL     1       2.991  -1.429  -1.902  0.00  0.00    +0.213 HD
ENDBRANCH   7  23
BRANCH   8  25
ATOM     25  O   UNL     1       1.034  -3.022   0.750  0.00  0.00    -0.380 OA
ATOM     26  H   UNL     1       0.439  -3.626   1.220  0.00  0.00    +0.211 HD
ENDBRANCH   8  25
BRANCH   9  27
ATOM     27  O   UNL     1       3.609   0.334  -1.694  0.00  0.00    -0.384 OA
ATOM     28  H   UNL     1       3.313  -0.315  -2.352  0.00  0.00    +0.210 HD
ENDBRANCH   9  27
BRANCH  11  29
ATOM     29  O   UNL     1      -2.417   1.869  -0.536  0.00  0.00    -0.452 OA
BRANCH  29  31
ATOM     30  O   UNL     1      -3.754   2.556   1.217  0.00  0.00    -0.250 OA
ATOM     31  C   UNL     1      -3.185   2.761   0.154  0.00  0.00    +0.317 C 
ATOM     32  C   UNL     1      -3.237   4.062  -0.589  0.00  0.00    +0.121 C 
ENDBRANCH  29  31
ENDBRANCH  11  29
TORSDOF 5
