REMARK  Name = 131624
REMARK  10 active torsions:
REMARK  status: ('A' for Active; 'I' for Inactive)
REMARK    1  A    between atoms: C_1  and  N_3
REMARK    2  A    between atoms: C_1  and  C_20
REMARK    3  A    between atoms: C_1  and  C_23
REMARK    4  A    between atoms: C_4  and  C_6
REMARK    5  A    between atoms: C_6  and  N_7
REMARK    6  A    between atoms: N_7  and  S_9
REMARK    7  A    between atoms: S_9  and  C_12
REMARK    8  A    between atoms: C_20  and  O_21
REMARK    9  A    between atoms: C_23  and  C_24
REMARK   10  A    between atoms: C_27  and  C_32
REMARK                            x       y       z     vdW  Elec       q    Type
REMARK                         _______ _______ _______ _____ _____    ______ ____
ROOT
ATOM      1  C   UNL     1       1.075  -2.540  -0.442  0.00  0.00    +0.176 C 
ENDROOT
BRANCH   1   3
ATOM      2  O   UNL     1      -0.510  -3.058  -2.810  0.00  0.00    -0.274 OA
ATOM      3  N   UNL     1      -0.112  -1.842  -0.870  0.00  0.00    -0.295 N 
ATOM      4  C   UNL     1      -0.811  -2.162  -2.027  0.00  0.00    +0.241 C 
ATOM      5  H   UNL     1      -0.443  -1.101  -0.313  0.00  0.00    +0.150 HD
BRANCH   4   6
ATOM      6  C   UNL     1      -2.009  -1.266  -2.214  0.00  0.00    +0.176 C 
BRANCH   6   7
ATOM      7  N   UNL     1      -2.917  -1.410  -1.067  0.00  0.00    -0.170 NA
ATOM      8  H   UNL     1      -3.549  -2.180  -1.287  0.00  0.00    +0.149 HD
BRANCH   7   9
ATOM      9  S   UNL     1      -3.892  -0.102  -0.575  0.00  0.00    +0.061 S 
ATOM     10  O   UNL     1      -5.047  -0.609   0.142  0.00  0.00    -0.153 OA
ATOM     11  O   UNL     1      -4.068   0.807  -1.692  0.00  0.00    -0.153 OA
BRANCH   9  12
ATOM     12  C   UNL     1      -2.842   0.712   0.591  0.00  0.00    +0.122 C 
ATOM     13  C   UNL     1      -2.888   0.355   1.939  0.00  0.00    +0.020 C 
ATOM     14  C   UNL     1      -1.966   1.710   0.163  0.00  0.00    +0.020 C 
ATOM     15  C   UNL     1      -1.183   1.995   2.431  0.00  0.00    -0.022 C 
ATOM     16  C   UNL     1      -2.059   0.997   2.859  0.00  0.00    -0.003 C 
ATOM     17  C   UNL     1      -1.137   2.352   1.083  0.00  0.00    -0.003 C 
ATOM     18  C   UNL     1      -0.297   2.681   3.414  0.00  0.00    +0.031 C 
ENDBRANCH   9  12
ENDBRANCH   7   9
ENDBRANCH   6   7
ENDBRANCH   4   6
ENDBRANCH   1   3
BRANCH   1  20
ATOM     19  O   UNL     1       0.366  -2.108   1.827  0.00  0.00    -0.248 OA
ATOM     20  C   UNL     1       1.169  -2.649   1.074  0.00  0.00    +0.335 C 
BRANCH  20  21
ATOM     21  O   UNL     1       2.241  -3.391   1.470  0.00  0.00    -0.443 OA
ATOM     22  C   UNL     1       2.413  -3.528   2.885  0.00  0.00    +0.256 C 
ENDBRANCH  20  21
ENDBRANCH   1  20
BRANCH   1  23
ATOM     23  C   UNL     1       2.340  -1.917  -1.053  0.00  0.00    +0.057 C 
BRANCH  23  24
ATOM     24  C   UNL     1       2.617  -0.495  -0.620  0.00  0.00    -0.020 C 
ATOM     25  C   UNL     1       2.093   0.572  -1.349  0.00  0.00    -0.001 C 
ATOM     26  C   UNL     1       3.396  -0.251   0.511  0.00  0.00    -0.004 C 
ATOM     27  C   UNL     1       2.348   1.883  -0.948  0.00  0.00    +0.030 C 
ATOM     28  C   UNL     1       3.651   1.060   0.913  0.00  0.00    -0.000 C 
ATOM     29  C   UNL     1       3.127   2.127   0.183  0.00  0.00    +0.003 C 
BRANCH  27  32
ATOM     30  N   UNL     1       2.041   4.317  -1.332  0.00  0.00    -0.343 N 
ATOM     31  N   UNL     1       1.061   2.763  -2.777  0.00  0.00    -0.285 NA
ATOM     32  C   UNL     1       1.802   2.996  -1.708  0.00  0.00    +0.117 C 
ATOM     33  H   UNL     1       1.661   5.055  -1.862  0.00  0.00    +0.144 HD
ATOM     34  H   UNL     1       2.588   4.511  -0.537  0.00  0.00    +0.144 HD
ATOM     35  H   UNL     1       0.691   3.515  -3.293  0.00  0.00    +0.188 HD
ENDBRANCH  27  32
ENDBRANCH  23  24
ENDBRANCH   1  23
TORSDOF 10
