REMARK  Name = 131713
REMARK  11 active torsions:
REMARK  status: ('A' for Active; 'I' for Inactive)
REMARK    1  A    between atoms: C_1  and  C_3
REMARK    2  A    between atoms: C_1  and  C_8
REMARK    3  A    between atoms: C_1  and  C_17
REMARK    4  A    between atoms: C_8  and  C_9
REMARK    5  A    between atoms: C_10  and  C_11
REMARK    6  A    between atoms: C_11  and  C_12
REMARK    7  A    between atoms: C_12  and  C_14
REMARK    8  A    between atoms: C_14  and  O_15
REMARK    9  A    between atoms: C_17  and  N_18
REMARK   10  A    between atoms: N_18  and  S_20
REMARK   11  A    between atoms: S_20  and  C_23
REMARK                            x       y       z     vdW  Elec       q    Type
REMARK                         _______ _______ _______ _____ _____    ______ ____
ROOT
ATOM      1  C   UNL     1       0.448  -0.679  -0.175  0.00  0.00    +0.046 C 
ENDROOT
BRANCH   1   3
ATOM      2  N   UNL     1       1.385   2.666  -1.719  0.00  0.00    -0.243 NA
ATOM      3  C   UNL     1       1.055   0.707  -0.340  0.00  0.00    -0.002 C 
ATOM      4  C   UNL     1       1.810   1.285   0.675  0.00  0.00    -0.001 C 
ATOM      5  C   UNL     1       0.874   1.432  -1.507  0.00  0.00    +0.095 C 
ATOM      6  C   UNL     1       2.352   2.552   0.494  0.00  0.00    +0.020 C 
ATOM      7  C   UNL     1       2.113   3.195  -0.710  0.00  0.00    +0.099 C 
ENDBRANCH   1   3
BRANCH   1   8
ATOM      8  C   UNL     1       0.979  -1.681  -1.229  0.00  0.00    +0.032 C 
BRANCH   8   9
ATOM      9  C   UNL     1       2.504  -1.863  -1.253  0.00  0.00    -0.030 C 
ATOM     10  C   UNL     1       3.124  -2.449   0.021  0.00  0.00    -0.030 C 
BRANCH  10  11
ATOM     11  C   UNL     1       4.634  -2.708  -0.031  0.00  0.00    +0.037 C 
BRANCH  11  12
ATOM     12  C   UNL     1       5.494  -1.464  -0.237  0.00  0.00    +0.114 C 
BRANCH  12  14
ATOM     13  O   UNL     1       5.011  -0.760   2.023  0.00  0.00    -0.250 OA
ATOM     14  C   UNL     1       5.338  -0.464   0.881  0.00  0.00    +0.314 C 
BRANCH  14  15
ATOM     15  O   UNL     1       5.608   0.805   0.487  0.00  0.00    -0.480 OA
ATOM     16  H   UNL     1       5.855   0.978  -0.400  0.00  0.00    +0.295 HD
ENDBRANCH  14  15
ENDBRANCH  12  14
ENDBRANCH  11  12
ENDBRANCH  10  11
ENDBRANCH   8   9
ENDBRANCH   1   8
BRANCH   1  17
ATOM     17  C   UNL     1      -1.089  -0.577  -0.217  0.00  0.00    +0.096 C 
BRANCH  17  18
ATOM     18  N   UNL     1      -1.578   0.322   0.854  0.00  0.00    -0.179 NA
ATOM     19  H   UNL     1      -1.771  -0.264   1.666  0.00  0.00    +0.149 HD
BRANCH  18  20
ATOM     20  S   UNL     1      -2.963   1.271   0.595  0.00  0.00    +0.060 S 
ATOM     21  O   UNL     1      -2.791   2.055  -0.614  0.00  0.00    -0.153 OA
ATOM     22  O   UNL     1      -3.325   1.921   1.840  0.00  0.00    -0.153 OA
BRANCH  20  23
ATOM     23  C   UNL     1      -4.193   0.042   0.278  0.00  0.00    +0.122 C 
ATOM     24  C   UNL     1      -4.934  -0.492   1.332  0.00  0.00    +0.020 C 
ATOM     25  C   UNL     1      -4.423  -0.393  -1.028  0.00  0.00    +0.020 C 
ATOM     26  C   UNL     1      -5.904  -1.462   1.082  0.00  0.00    +0.001 C 
ATOM     27  C   UNL     1      -5.394  -1.363  -1.278  0.00  0.00    +0.001 C 
ATOM     28  C   UNL     1      -6.135  -1.898  -0.223  0.00  0.00    +0.000 C 
ENDBRANCH  20  23
ENDBRANCH  18  20
ENDBRANCH  17  18
ENDBRANCH   1  17
TORSDOF 11
