REMARK  Name = 131717
REMARK  15 active torsions:
REMARK  status: ('A' for Active; 'I' for Inactive)
REMARK    1  A    between atoms: C_1  and  C_2
REMARK    2  A    between atoms: C_1  and  C_18
REMARK    3  A    between atoms: C_1  and  C_27
REMARK    4  A    between atoms: C_2  and  C_3
REMARK    5  A    between atoms: C_3  and  C_4
REMARK    6  A    between atoms: C_4  and  C_5
REMARK    7  A    between atoms: C_5  and  N_6
REMARK    8  A    between atoms: N_6  and  S_8
REMARK    9  A    between atoms: S_8  and  C_12
REMARK   10  A    between atoms: C_18  and  C_19
REMARK   11  A    between atoms: C_19  and  C_20
REMARK   12  A    between atoms: C_20  and  C_22
REMARK   13  A    between atoms: C_27  and  C_28
REMARK   14  A    between atoms: C_28  and  C_30
REMARK   15  A    between atoms: C_30  and  O_31
REMARK                            x       y       z     vdW  Elec       q    Type
REMARK                         _______ _______ _______ _____ _____    ______ ____
ROOT
ATOM      1  C   UNL     1      -3.337  -1.563  -0.382  0.00  0.00    +0.001 C 
ENDROOT
BRANCH   1   2
ATOM      2  C   UNL     1      -2.063  -2.028  -1.129  0.00  0.00    +0.000 C 
BRANCH   2   3
ATOM      3  C   UNL     1      -0.754  -1.558  -0.486  0.00  0.00    +0.001 C 
BRANCH   3   4
ATOM      4  C   UNL     1       0.460  -2.136  -1.221  0.00  0.00    +0.019 C 
BRANCH   4   5
ATOM      5  C   UNL     1       1.786  -1.684  -0.617  0.00  0.00    +0.091 C 
BRANCH   5   6
ATOM      6  N   UNL     1       1.921  -0.214  -0.687  0.00  0.00    -0.179 NA
ATOM      7  H   UNL     1       2.354   0.000  -1.586  0.00  0.00    +0.149 HD
BRANCH   6   8
ATOM      8  S   UNL     1       2.817   0.615   0.498  0.00  0.00    +0.060 S 
ATOM      9  O   UNL     1       2.313   0.265   1.812  0.00  0.00    -0.153 OA
ATOM     10  O   UNL     1       2.937   2.006   0.109  0.00  0.00    -0.153 OA
BRANCH   8  12
ATOM     11 CL   UNL     1       8.503  -1.967  -0.148  0.00  0.00    -0.082 Cl
ATOM     12  C   UNL     1       4.418  -0.112   0.316  0.00  0.00    +0.122 C 
ATOM     13  C   UNL     1       5.341   0.447  -0.567  0.00  0.00    +0.021 C 
ATOM     14  C   UNL     1       4.758  -1.244   1.056  0.00  0.00    +0.021 C 
ATOM     15  C   UNL     1       6.605  -0.126  -0.711  0.00  0.00    +0.013 C 
ATOM     16  C   UNL     1       6.021  -1.818   0.912  0.00  0.00    +0.013 C 
ATOM     17  C   UNL     1       6.944  -1.259   0.029  0.00  0.00    +0.058 C 
ENDBRANCH   8  12
ENDBRANCH   6   8
ENDBRANCH   5   6
ENDBRANCH   4   5
ENDBRANCH   3   4
ENDBRANCH   2   3
ENDBRANCH   1   2
BRANCH   1  18
ATOM     18  C   UNL     1      -3.425  -0.030  -0.205  0.00  0.00    +0.000 C 
BRANCH  18  19
ATOM     19  C   UNL     1      -3.511   0.769  -1.510  0.00  0.00    +0.005 C 
BRANCH  19  20
ATOM     20  C   UNL     1      -3.670   2.269  -1.227  0.00  0.00    +0.028 C 
BRANCH  20  22
ATOM     21  N   UNL     1      -1.601   3.597   1.660  0.00  0.00    -0.243 NA
ATOM     22  C   UNL     1      -2.550   2.942  -0.465  0.00  0.00    -0.003 C 
ATOM     23  C   UNL     1      -1.473   3.514  -1.131  0.00  0.00    -0.001 C 
ATOM     24  C   UNL     1      -2.567   3.010   0.919  0.00  0.00    +0.095 C 
ATOM     25  C   UNL     1      -0.459   4.128  -0.404  0.00  0.00    +0.020 C 
ATOM     26  C   UNL     1      -0.569   4.142   0.977  0.00  0.00    +0.099 C 
ENDBRANCH  20  22
ENDBRANCH  19  20
ENDBRANCH  18  19
ENDBRANCH   1  18
BRANCH   1  27
ATOM     27  C   UNL     1      -4.572  -2.182  -1.085  0.00  0.00    +0.012 C 
BRANCH  27  28
ATOM     28  C   UNL     1      -5.922  -1.927  -0.410  0.00  0.00    +0.109 C 
BRANCH  28  30
ATOM     29  O   UNL     1      -5.389  -3.480   1.388  0.00  0.00    -0.250 OA
ATOM     30  C   UNL     1      -6.021  -2.516   0.979  0.00  0.00    +0.314 C 
BRANCH  30  31
ATOM     31  O   UNL     1      -6.941  -1.860   1.734  0.00  0.00    -0.480 OA
ATOM     32  H   UNL     1      -7.402  -1.126   1.378  0.00  0.00    +0.295 HD
ENDBRANCH  30  31
ENDBRANCH  28  30
ENDBRANCH  27  28
ENDBRANCH   1  27
TORSDOF 15
