REMARK  Name = 13175188
REMARK  11 active torsions:
REMARK  status: ('A' for Active; 'I' for Inactive)
REMARK    1  A    between atoms: C_3  and  C_25
REMARK    2  A    between atoms: C_4  and  O_8
REMARK    3  A    between atoms: C_5  and  C_16
REMARK    4  A    between atoms: C_6  and  C_10
REMARK    5  A    between atoms: C_11  and  C_13
REMARK    6  A    between atoms: C_13  and  O_14
REMARK    7  A    between atoms: C_16  and  O_17
REMARK    8  A    between atoms: O_17  and  C_19
REMARK    9  A    between atoms: C_19  and  C_20
REMARK   10  A    between atoms: C_21  and  C_22
REMARK   11  A    between atoms: C_25  and  O_26
REMARK                            x       y       z     vdW  Elec       q    Type
REMARK                         _______ _______ _______ _____ _____    ______ ____
ROOT
ATOM      1  O   UNL     1      -2.229  -1.014   0.602  0.00  0.00    -0.421 OA
ATOM      2  O   UNL     1      -0.445  -2.035   1.539  0.00  0.00    -0.245 OA
ATOM      3  C   UNL     1      -2.203   1.336   0.084  0.00  0.00    +0.076 A 
ATOM      4  C   UNL     1      -0.845   1.381   0.613  0.00  0.00    +0.146 A 
ATOM      5  C   UNL     1      -0.233   0.289   1.108  0.00  0.00    +0.131 A 
ATOM      6  C   UNL     1      -2.843   0.153   0.096  0.00  0.00    +0.150 A 
ATOM      7  C   UNL     1      -0.962  -1.010   1.105  0.00  0.00    +0.348 A 
ENDROOT
BRANCH   4   8
ATOM      8  O   UNL     1      -0.170   2.592   0.611  0.00  0.00    -0.472 OA
ATOM      9  C   UNL     1       0.555   2.753  -0.589  0.00  0.00    +0.252 C 
ENDBRANCH   4   8
BRANCH   6  10
ATOM     10  C   UNL     1      -4.177  -0.117  -0.372  0.00  0.00    +0.044 C 
ATOM     11  C   UNL     1      -4.733  -1.331  -0.320  0.00  0.00    +0.085 C 
BRANCH  11  13
ATOM     12  O   UNL     1      -6.829  -0.666  -1.300  0.00  0.00    -0.245 OA
ATOM     13  C   UNL     1      -6.107  -1.524  -0.821  0.00  0.00    +0.338 C 
BRANCH  13  14
ATOM     14  O   UNL     1      -6.448  -2.824  -0.666  0.00  0.00    -0.477 OA
ATOM     15  H   UNL     1      -5.838  -3.427  -0.289  0.00  0.00    +0.295 HD
ENDBRANCH  13  14
ENDBRANCH  11  13
ENDBRANCH   6  10
BRANCH   5  16
ATOM     16  C   UNL     1       1.158   0.269   1.671  0.00  0.00    +0.245 C 
BRANCH  16  17
ATOM     17  O   UNL     1       2.087  -0.012   0.641  0.00  0.00    -0.440 OA
BRANCH  17  19
ATOM     18  O   UNL     1       3.841   0.113   2.139  0.00  0.00    -0.245 OA
ATOM     19  C   UNL     1       3.401  -0.061   1.014  0.00  0.00    +0.342 C 
BRANCH  19  20
ATOM     20  C   UNL     1       4.212  -0.364  -0.186  0.00  0.00    +0.082 C 
ATOM     21  C   UNL     1       5.544  -0.467  -0.082  0.00  0.00    +0.006 C 
BRANCH  21  22
ATOM     22  C   UNL     1       6.395  -0.762  -1.213  0.00  0.00    -0.004 C 
ATOM     23  C   UNL     1       7.729  -0.867  -1.119  0.00  0.00    -0.026 C 
ATOM     24  C   UNL     1       8.619  -1.172  -2.280  0.00  0.00    +0.031 C 
ENDBRANCH  21  22
ENDBRANCH  19  20
ENDBRANCH  17  19
ENDBRANCH  16  17
ENDBRANCH   5  16
BRANCH   3  25
ATOM     25  C   UNL     1      -2.806   2.612  -0.450  0.00  0.00    +0.170 C 
BRANCH  25  26
ATOM     26  O   UNL     1      -2.512   2.729  -1.826  0.00  0.00    -0.377 OA
ATOM     27  H   UNL     1      -2.899   3.549  -2.171  0.00  0.00    +0.211 HD
ENDBRANCH  25  26
ENDBRANCH   3  25
TORSDOF 11
