REMARK  Name = 131714458
REMARK  7 active torsions:
REMARK  status: ('A' for Active; 'I' for Inactive)
REMARK    1  A    between atoms: N_2  and  C_9
REMARK    2  A    between atoms: C_3  and  C_21
REMARK    3  A    between atoms: C_11  and  C_15
REMARK    4  A    between atoms: C_13  and  C_18
REMARK    5  A    between atoms: C_15  and  O_16
REMARK    6  A    between atoms: N_20  and  O_30
REMARK    7  A    between atoms: C_21  and  C_25
REMARK                            x       y       z     vdW  Elec       q    Type
REMARK                         _______ _______ _______ _____ _____    ______ ____
ROOT
ATOM      1  O   UNK A   0       1.773  -1.848  -1.808  0.00  0.00    -0.268 OA
ATOM      2  N   UNK A   1       0.865  -1.367   0.303  0.00  0.00    -0.291 N 
ATOM      3  C   UNK A   0       1.870  -1.489  -0.645  0.00  0.00    +0.269 C 
ATOM      4  H   UNK A   1       1.106  -1.061   1.208  0.00  0.00    +0.150 HD
ENDROOT
BRANCH   2   9
ATOM      5  S   UNK A   1      -2.114  -1.201  -2.306  0.00  0.00    -0.114 S 
ATOM      6  O   UNK A   1      -1.666  -1.523   2.320  0.00  0.00    -0.273 OA
ATOM      7  N   UNK A   1      -2.218  -0.518   0.258  0.00  0.00    -0.242 N 
ATOM      8  C   UNK A   1      -1.258  -0.600  -0.830  0.00  0.00    +0.155 C 
ATOM      9  C   UNK A   1      -0.531  -1.671   0.021  0.00  0.00    +0.179 C 
ATOM     10  C   UNK A   1      -1.519  -1.254   1.150  0.00  0.00    +0.251 C 
ATOM     11  C   UNK A   1      -3.389   0.168   0.182  0.00  0.00    +0.128 C 
ATOM     12  C   UNK A   1      -3.256   0.224  -2.356  0.00  0.00    +0.087 C 
ATOM     13  C   UNK A   1      -3.890   0.571  -1.011  0.00  0.00    +0.009 C 
BRANCH  11  15
ATOM     14  O   UNK A   1      -5.202  -0.023   1.708  0.00  0.00    -0.244 OA
ATOM     15  C   UNK A   1      -4.095   0.404   1.454  0.00  0.00    +0.352 C 
BRANCH  15  16
ATOM     16  O   UNK A   1      -3.320   1.153   2.260  0.00  0.00    -0.476 OA
ATOM     17  H   UNK A   1      -2.475   1.434   1.969  0.00  0.00    +0.295 HD
ENDBRANCH  15  16
ENDBRANCH  11  15
BRANCH  13  18
ATOM     18  C   UNK A   1      -5.097   1.361  -1.170  0.00  0.00    -0.002 C 
ATOM     19  C   UNK A   1      -5.415   2.366  -0.364  0.00  0.00    -0.000 C 
ENDBRANCH  13  18
ENDBRANCH   2   9
BRANCH   3  21
ATOM     20  N   UNK A   0       3.994  -2.026   0.418  0.00  0.00    -0.079 NA
ATOM     21  C   UNK A   0       3.232  -1.121  -0.119  0.00  0.00    +0.198 C 
BRANCH  21  25
ATOM     22  S   UNK A   0       4.037   2.675  -1.020  0.00  0.00    -0.060 S 
ATOM     23  N   UNK A   0       4.558   0.820   0.703  0.00  0.00    -0.383 NA
ATOM     24  N   UNK A   0       5.632   2.888   1.098  0.00  0.00    -0.328 N 
ATOM     25  C   UNK A   0       3.689   0.291  -0.232  0.00  0.00    +0.148 C 
ATOM     26  C   UNK A   0       3.295   1.145  -1.240  0.00  0.00    +0.127 C 
ATOM     27  C   UNK A   0       4.811   2.070   0.387  0.00  0.00    +0.204 C 
ATOM     28  H   UNK A   0       5.777   3.816   0.804  0.00  0.00    +0.145 HD
ATOM     29  H   UNK A   0       6.082   2.552   1.907  0.00  0.00    +0.145 HD
ENDBRANCH  21  25
BRANCH  20  30
ATOM     30  O   UNK A   0       5.215  -1.494   0.839  0.00  0.00    -0.409 OA
ATOM     31  H   UNK A   0       5.854  -2.048   1.243  0.00  0.00    +0.328 HD
ENDBRANCH  20  30
ENDBRANCH   3  21
TORSDOF 7
