131713
  -OEChem-03292013323D

 50 51  0     1  0  0  0  0  0999 V2000
   -2.9626    1.2712    0.5947 S   0  0  0  0  0  0  0  0  0  0  0  0
   -2.7909    2.0547   -0.6138 O   0  0  0  0  0  0  0  0  0  0  0  0
   -3.3248    1.9205    1.8400 O   0  0  0  0  0  0  0  0  0  0  0  0
    5.6082    0.8055    0.4869 O   0  0  0  0  0  0  0  0  0  0  0  0
    5.0108   -0.7598    2.0226 O   0  0  0  0  0  0  0  0  0  0  0  0
   -1.5783    0.3219    0.8542 N   0  0  0  0  0  0  0  0  0  0  0  0
    1.3854    2.6657   -1.7187 N   0  0  0  0  0  0  0  0  0  0  0  0
    0.4481   -0.6790   -0.1747 C   0  0  2  0  0  0  0  0  0  0  0  0
    0.9786   -1.6810   -1.2291 C   0  0  0  0  0  0  0  0  0  0  0  0
    2.5036   -1.8635   -1.2526 C   0  0  0  0  0  0  0  0  0  0  0  0
   -1.0887   -0.5774   -0.2174 C   0  0  0  0  0  0  0  0  0  0  0  0
    3.1240   -2.4485    0.0206 C   0  0  0  0  0  0  0  0  0  0  0  0
    1.0548    0.7071   -0.3404 C   0  0  0  0  0  0  0  0  0  0  0  0
    4.6343   -2.7083   -0.0313 C   0  0  0  0  0  0  0  0  0  0  0  0
    5.4935   -1.4641   -0.2368 C   0  0  0  0  0  0  0  0  0  0  0  0
    1.8095    1.2850    0.6746 C   0  0  0  0  0  0  0  0  0  0  0  0
    0.8739    1.4323   -1.5071 C   0  0  0  0  0  0  0  0  0  0  0  0
   -4.1931    0.0424    0.2775 C   0  0  0  0  0  0  0  0  0  0  0  0
    2.3523    2.5524    0.4942 C   0  0  0  0  0  0  0  0  0  0  0  0
    5.3380   -0.4638    0.8807 C   0  0  0  0  0  0  0  0  0  0  0  0
    2.1133    3.1949   -0.7099 C   0  0  0  0  0  0  0  0  0  0  0  0
   -4.9336   -0.4919    1.3320 C   0  0  0  0  0  0  0  0  0  0  0  0
   -4.4235   -0.3934   -1.0275 C   0  0  0  0  0  0  0  0  0  0  0  0
   -5.9042   -1.4620    1.0818 C   0  0  0  0  0  0  0  0  0  0  0  0
   -5.3942   -1.3634   -1.2777 C   0  0  0  0  0  0  0  0  0  0  0  0
   -6.1345   -1.8977   -0.2230 C   0  0  0  0  0  0  0  0  0  0  0  0
    0.7191   -1.0602    0.8189 H   0  0  0  0  0  0  0  0  0  0  0  0
    0.5137   -2.6590   -1.0495 H   0  0  0  0  0  0  0  0  0  0  0  0
    0.6563   -1.3725   -2.2318 H   0  0  0  0  0  0  0  0  0  0  0  0
    2.7453   -2.5334   -2.0878 H   0  0  0  0  0  0  0  0  0  0  0  0
    2.9782   -0.9058   -1.4906 H   0  0  0  0  0  0  0  0  0  0  0  0
   -1.4213   -0.2228   -1.1983 H   0  0  0  0  0  0  0  0  0  0  0  0
   -1.5257   -1.5692   -0.0540 H   0  0  0  0  0  0  0  0  0  0  0  0
    2.6285   -3.4043    0.2339 H   0  0  0  0  0  0  0  0  0  0  0  0
    2.8975   -1.7985    0.8716 H   0  0  0  0  0  0  0  0  0  0  0  0
    4.8445   -3.4169   -0.8416 H   0  0  0  0  0  0  0  0  0  0  0  0
    4.9313   -3.2055    0.9007 H   0  0  0  0  0  0  0  0  0  0  0  0
   -1.3421    0.0432    1.8146 H   0  0  0  0  0  0  0  0  0  0  0  0
    5.2373   -0.9839   -1.1867 H   0  0  0  0  0  0  0  0  0  0  0  0
    6.5507   -1.7479   -0.2806 H   0  0  0  0  0  0  0  0  0  0  0  0
    1.9836    0.7592    1.6092 H   0  0  0  0  0  0  0  0  0  0  0  0
    0.2976    1.0419   -2.3398 H   0  0  0  0  0  0  0  0  0  0  0  0
    2.9451    3.0215    1.2711 H   0  0  0  0  0  0  0  0  0  0  0  0
    2.5151    4.1845   -0.9004 H   0  0  0  0  0  0  0  0  0  0  0  0
   -4.7659   -0.1728    2.3567 H   0  0  0  0  0  0  0  0  0  0  0  0
   -3.8583    0.0075   -1.8639 H   0  0  0  0  0  0  0  0  0  0  0  0
   -6.4794   -1.8794    1.9030 H   0  0  0  0  0  0  0  0  0  0  0  0
   -5.5733   -1.7033   -2.2936 H   0  0  0  0  0  0  0  0  0  0  0  0
   -6.8897   -2.6534   -0.4178 H   0  0  0  0  0  0  0  0  0  0  0  0
    5.5028    1.4470    1.2215 H   0  0  0  0  0  0  0  0  0  0  0  0
  1  2  2  0  0  0  0
  1  3  2  0  0  0  0
  1  6  1  0  0  0  0
  1 18  1  0  0  0  0
  4 20  1  0  0  0  0
  4 50  1  0  0  0  0
  5 20  2  0  0  0  0
  6 11  1  0  0  0  0
  6 38  1  0  0  0  0
  7 17  1  0  0  0  0
  7 21  2  0  0  0  0
  8  9  1  0  0  0  0
  8 11  1  0  0  0  0
  8 13  1  0  0  0  0
  8 27  1  0  0  0  0
  9 10  1  0  0  0  0
  9 28  1  0  0  0  0
  9 29  1  0  0  0  0
 10 12  1  0  0  0  0
 10 30  1  0  0  0  0
 10 31  1  0  0  0  0
 11 32  1  0  0  0  0
 11 33  1  0  0  0  0
 12 14  1  0  0  0  0
 12 34  1  0  0  0  0
 12 35  1  0  0  0  0
 13 16  1  0  0  0  0
 13 17  2  0  0  0  0
 14 15  1  0  0  0  0
 14 36  1  0  0  0  0
 14 37  1  0  0  0  0
 15 20  1  0  0  0  0
 15 39  1  0  0  0  0
 15 40  1  0  0  0  0
 16 19  2  0  0  0  0
 16 41  1  0  0  0  0
 17 42  1  0  0  0  0
 18 22  2  0  0  0  0
 18 23  1  0  0  0  0
 19 21  1  0  0  0  0
 19 43  1  0  0  0  0
 21 44  1  0  0  0  0
 22 24  1  0  0  0  0
 22 45  1  0  0  0  0
 23 25  2  0  0  0  0
 23 46  1  0  0  0  0
 24 26  2  0  0  0  0
 24 47  1  0  0  0  0
 25 26  1  0  0  0  0
 25 48  1  0  0  0  0
 26 49  1  0  0  0  0
M  END
> <PUBCHEM_COMPOUND_CID>
131713

> <PUBCHEM_CONFORMER_RMSD>
1.2

> <PUBCHEM_CONFORMER_DIVERSEORDER>
1
70
122
105
191
185
11
40
179
6
184
53
128
74
194
16
54
150
195
145
55
102
176
142
144
103
131
77
58
69
187
163
65
63
135
41
123
174
13
158
24
155
33
97
9
111
117
94
19
168
147
100
26
165
182
64
175
130
149
113
2
133
192
167
180
116
56
7
172
31
146
76
140
126
15
151
196
99
186
42
154
51
48
141
91
124
68
106
110
29
82
160
10
98
153
137
189
27
89
152
73
71
114
25
119
37
193
80
95
171
78
8
148
108
90
36
109
183
104
62
44
61
143
17
129
50
3
47
39
30
169
190
188
46
72
20
52
83
177
121
57
162
118
125
49
35
139
23
181
5
115
178
120
75
60
81
136
84
161
45
86
173
96
88
164
197
134
157
138
59
101
38
112
92
156
66
166
170
87
107
85
93
127
159
132
34
67
12
18
22
43
79
21
32
4
28
14

> <PUBCHEM_MMFF94_PARTIAL_CHARGES>
33
1 1.45
11 0.36
13 -0.14
15 0.06
16 -0.15
17 0.16
18 -0.01
19 -0.15
2 -0.65
20 0.66
21 0.16
22 -0.15
23 -0.15
24 -0.15
25 -0.15
26 -0.15
3 -0.65
38 0.42
4 -0.65
41 0.15
42 0.15
43 0.15
44 0.15
45 0.15
46 0.15
47 0.15
48 0.15
49 0.15
5 -0.57
50 0.5
6 -0.91
7 -0.62
8 0.14

> <PUBCHEM_EFFECTIVE_ROTOR_COUNT>
11

> <PUBCHEM_PHARMACOPHORE_FEATURES>
11
1 2 acceptor
1 3 acceptor
1 4 acceptor
1 5 acceptor
1 6 donor
1 7 acceptor
3 12 14 15 hydrophobe
3 4 5 20 anion
3 8 9 10 hydrophobe
6 18 22 23 24 25 26 rings
6 7 13 16 17 19 21 rings

> <PUBCHEM_HEAVY_ATOM_COUNT>
26

> <PUBCHEM_ATOM_DEF_STEREO_COUNT>
0

> <PUBCHEM_ATOM_UDEF_STEREO_COUNT>
1

> <PUBCHEM_BOND_DEF_STEREO_COUNT>
0

> <PUBCHEM_BOND_UDEF_STEREO_COUNT>
0

> <PUBCHEM_ISOTOPIC_ATOM_COUNT>
0

> <PUBCHEM_COMPONENT_COUNT>
1

> <PUBCHEM_CACTVS_TAUTO_COUNT>
1

> <PUBCHEM_CONFORMER_ID>
0002028100000001

> <PUBCHEM_MMFF94_ENERGY>
38.0987

> <PUBCHEM_FEATURE_SELFOVERLAP>
55.897

> <PUBCHEM_SHAPE_FINGERPRINT>
11135609 12 18409170996120779145
12166972 35 18202006538295293896
12596602 18 17632295662104879666
13533116 47 18340487875760843336
13899415 180 18040996215691827365
14170010 4 18412262856523663262
144659 39 15841546388277583525
14955137 171 18059581252335970654
17349148 13 18411985788420710337
17857418 61 18413389843431869071
17980427 23 18059858307743958557
1813 80 18040719134862331500
18222031 100 18334293141656393350
18785283 64 18262238940648034396
19377110 9 17846226578764521459
23559900 14 18333445452793651331
312423 11 18270979989638089969
350125 39 18343303673684293909
465052 167 18333728035776926874
5104073 3 18059012752931823802
67856867 119 18271526485308231681

> <PUBCHEM_SHAPE_MULTIPOLES>
505.48
14.62
3.27
1.51
6.94
1.22
-0.08
-9.16
-3.85
-2.78
0.7
0.21
0.25
-0.69

> <PUBCHEM_SHAPE_SELFOVERLAP>
1027.407

> <PUBCHEM_SHAPE_VOLUME>
292.9

> <PUBCHEM_COORDINATE_TYPE>
2
5
10

$$$$
