REMARK  Name = 131790
REMARK  10 active torsions:
REMARK  status: ('A' for Active; 'I' for Inactive)
REMARK    1  A    between atoms: CA_1  and  C_8
REMARK    2  A    between atoms: CA_1  and  N_14
REMARK    3  A    between atoms: CA_1  and  CB_25
REMARK    4  A    between atoms: CA_4  and  C_10
REMARK    5  A    between atoms: C_10  and  O_11
REMARK    6  A    between atoms: C_15  and  C_18
REMARK    7  A    between atoms: C_19  and  C_21
REMARK    8  A    between atoms: C_21  and  O_22
REMARK    9  A    between atoms: O_22  and  C_23
REMARK   10  A    between atoms: CB_25  and  CG1_27
REMARK                            x       y       z     vdW  Elec       q    Type
REMARK                         _______ _______ _______ _____ _____    ______ ____
ROOT
ATOM      1  CA  UNL     1       0.803   1.063  -0.191  0.00  0.00    +0.149 C 
ENDROOT
BRANCH   1   8
ATOM      2  O   UNL     1       0.985  -1.068   0.856  0.00  0.00    -0.273 OA
ATOM      3  N   UNL     1       2.712  -0.429  -0.546  0.00  0.00    -0.270 N 
ATOM      4  CA  UNL     1       3.432  -1.695  -0.511  0.00  0.00    +0.175 C 
ATOM      5  CB  UNL     1       4.419  -1.612  -1.670  0.00  0.00    +0.033 C 
ATOM      6  CD  UNL     1       3.354   0.517  -1.456  0.00  0.00    +0.094 C 
ATOM      7  CG  UNL     1       4.695  -0.116  -1.794  0.00  0.00    +0.024 C 
ATOM      8  C   UNL     1       1.496  -0.246   0.093  0.00  0.00    +0.244 C 
BRANCH   4  10
ATOM      9  OXT UNL     1       4.538  -0.805   1.447  0.00  0.00    -0.248 OA
ATOM     10  C   UNL     1       4.133  -1.768   0.813  0.00  0.00    +0.332 C 
BRANCH  10  11
ATOM     11  O   UNL     1       4.263  -3.056   1.215  0.00  0.00    -0.479 OA
ATOM     12  H   UNL     1       3.930  -3.749   0.681  0.00  0.00    +0.295 HD
ENDBRANCH  10  11
ENDBRANCH   4  10
ENDBRANCH   1   8
BRANCH   1  14
ATOM     13  O   UNL     1      -1.223   2.229  -1.921  0.00  0.00    -0.272 OA
ATOM     14  N   UNL     1      -0.601   0.775  -0.210  0.00  0.00    -0.296 N 
ATOM     15  C   ACE A   0      -1.498   1.385  -1.076  0.00  0.00    +0.253 C 
ATOM     16  H   UNL     1      -0.948   0.109   0.426  0.00  0.00    +0.150 HD
BRANCH  15  18
ATOM     17  O   UNL     1      -3.520   0.550  -2.162  0.00  0.00    -0.333 OA
ATOM     18  C   UNL     1      -2.911   0.931  -0.922  0.00  0.00    +0.229 C 
ATOM     19  C   UNL     1      -3.277  -0.496  -1.213  0.00  0.00    +0.250 C 
BRANCH  19  21
ATOM     20  O   UNL     1      -5.427  -1.434  -1.373  0.00  0.00    -0.247 OA
ATOM     21  C   UNL     1      -4.509  -1.065  -0.655  0.00  0.00    +0.347 C 
BRANCH  21  22
ATOM     22  O   UNL     1      -4.464  -1.112   0.705  0.00  0.00    -0.447 OA
BRANCH  22  23
ATOM     23  C   UNL     1      -5.627  -1.654   1.339  0.00  0.00    +0.209 C 
ATOM     24  C   UNL     1      -5.423  -1.638   2.839  0.00  0.00    +0.051 C 
ENDBRANCH  22  23
ENDBRANCH  21  22
ENDBRANCH  19  21
ENDBRANCH  15  18
ENDBRANCH   1  14
BRANCH   1  25
ATOM     25  CB  UNL     1       1.216   2.151   0.816  0.00  0.00    +0.027 C 
ATOM     26  CG2 UNL     1       0.997   3.536   0.193  0.00  0.00    +0.002 C 
BRANCH  25  27
ATOM     27  CG1 UNL     1       0.488   2.020   2.173  0.00  0.00    +0.002 C 
ATOM     28  CD1 UNL     1       0.951   3.034   3.211  0.00  0.00    +0.000 C 
ENDBRANCH  25  27
ENDBRANCH   1  25
TORSDOF 10
