REMARK  Name = 131743
REMARK  5 active torsions:
REMARK  status: ('A' for Active; 'I' for Inactive)
REMARK    1  A    between atoms: N_2  and  C_13
REMARK    2  A    between atoms: C_13  and  C_14
REMARK    3  A    between atoms: C_14  and  S_15
REMARK    4  A    between atoms: S_15  and  C_16
REMARK    5  A    between atoms: C_16  and  C_19
REMARK                            x       y       z     vdW  Elec       q    Type
REMARK                         _______ _______ _______ _____ _____    ______ ____
ROOT
ATOM      1  O   UNL     1       1.851  -0.602  -2.179  0.00  0.00    -0.253 OA
ATOM      2  N   UNL     1       2.004   1.349  -0.224  0.00  0.00    -0.346 N 
ATOM      3  N   UNL     1       2.695  -0.920  -0.011  0.00  0.00    -0.241 N 
ATOM      4  N   UNL     1       2.945   0.484   1.799  0.00  0.00    -0.239 NA
ATOM      5  N   UNL     1       2.638  -2.658  -1.525  0.00  0.00    -0.313 N 
ATOM      6  C   UNL     1       2.552   0.352   0.571  0.00  0.00    +0.193 C 
ATOM      7  C   UNL     1       2.349  -1.320  -1.314  0.00  0.00    +0.303 C 
ATOM      8  C   UNL     1       3.498  -0.682   2.473  0.00  0.00    +0.155 C 
ATOM      9  H   UNL     1       2.168   1.282  -1.192  0.00  0.00    +0.163 HD
ATOM     10  H   UNL     1       3.085  -1.617   0.564  0.00  0.00    +0.159 HD
ATOM     11  H   UNL     1       2.446  -3.072  -2.397  0.00  0.00    +0.146 HD
ATOM     12  H   UNL     1       3.036  -3.196  -0.802  0.00  0.00    +0.146 HD
ENDROOT
BRANCH   2  13
ATOM     13  C   UNL     1       1.219   2.476   0.225  0.00  0.00    +0.112 C 
BRANCH  13  14
ATOM     14  C   UNL     1       0.210   2.906  -0.833  0.00  0.00    +0.082 C 
BRANCH  14  15
ATOM     15  S   UNL     1      -0.928   1.563  -1.290  0.00  0.00    -0.132 S 
BRANCH  15  16
ATOM     16  C   UNL     1      -1.725   1.341   0.317  0.00  0.00    +0.099 C 
BRANCH  16  19
ATOM     17  N   UNL     1      -3.831  -1.600   0.344  0.00  0.00    -0.319 N 
ATOM     18  N   UNL     1      -4.043   0.576  -0.044  0.00  0.00    -0.318 N 
ATOM     19  C   UNL     1      -2.757   0.262   0.273  0.00  0.00    +0.043 C 
ATOM     20  C   UNL     1      -2.585  -1.066   0.518  0.00  0.00    +0.033 C 
ATOM     21  C   UNL     1      -1.420  -1.883   0.891  0.00  0.00    +0.048 C 
ATOM     22  C   UNL     1      -4.673  -0.576   0.008  0.00  0.00    +0.181 C 
ATOM     23  H   UNL     1      -4.078  -2.548   0.443  0.00  0.00    +0.148 HD
ATOM     24  H   UNL     1      -4.415   1.462  -0.260  0.00  0.00    +0.148 HD
ENDBRANCH  16  19
ENDBRANCH  15  16
ENDBRANCH  14  15
ENDBRANCH  13  14
ENDBRANCH   2  13
TORSDOF 5
