131752960
  -OEChem-03292013293D

 48 49  0     1  0  0  0  0  0999 V2000
   -1.8061    0.5739   -0.1514 O   0  0  0  0  0  0  0  0  0  0  0  0
   -5.8414   -0.2616   -0.5450 O   0  0  0  0  0  0  0  0  0  0  0  0
   -4.9683    1.8755    1.1915 O   0  0  0  0  0  0  0  0  0  0  0  0
   -1.2171   -1.5253   -1.0207 O   0  0  0  0  0  0  0  0  0  0  0  0
   -3.5470   -0.4781   -2.1156 O   0  0  0  0  0  0  0  0  0  0  0  0
   -0.8255    2.7561    1.2018 O   0  0  0  0  0  0  0  0  0  0  0  0
    2.1938   -2.4109    2.2092 O   0  0  0  0  0  0  0  0  0  0  0  0
    5.3050    1.9080   -0.1460 O   0  0  0  0  0  0  0  0  0  0  0  0
    3.0630    1.4925    0.2256 O   0  0  0  0  0  0  0  0  0  0  0  0
   -4.5558   -0.2197    0.0678 C   0  0  2  0  0  0  0  0  0  0  0  0
   -4.1252    1.2399    0.2342 C   0  0  2  0  0  0  0  0  0  0  0  0
   -2.6694    1.3177    0.7147 C   0  0  2  0  0  0  0  0  0  0  0  0
   -3.5450   -0.9920   -0.7799 C   0  0  2  0  0  0  0  0  0  0  0  0
   -2.1413   -0.8149   -0.2019 C   0  0  2  0  0  0  0  0  0  0  0  0
   -2.1642    2.7569    0.7410 C   0  0  0  0  0  0  0  0  0  0  0  0
    0.0983   -1.4830   -0.6424 C   0  0  0  0  0  0  0  0  0  0  0  0
    1.0560   -0.9519   -1.5064 C   0  0  0  0  0  0  0  0  0  0  0  0
    0.4807   -1.9729    0.6063 C   0  0  0  0  0  0  0  0  0  0  0  0
    2.3960   -0.9106   -1.1214 C   0  0  0  0  0  0  0  0  0  0  0  0
    1.8208   -1.9317    0.9912 C   0  0  0  0  0  0  0  0  0  0  0  0
    2.7785   -1.4005    0.1274 C   0  0  0  0  0  0  0  0  0  0  0  0
    3.3951   -0.3550   -2.0208 C   0  0  0  0  0  0  0  0  0  0  0  0
    4.1877    0.7050   -1.7478 C   0  0  0  0  0  0  0  0  0  0  0  0
    1.1630   -2.9399    3.0421 C   0  0  0  0  0  0  0  0  0  0  0  0
    4.0787    1.4005   -0.4454 C   0  0  0  0  0  0  0  0  0  0  0  0
    5.3896    2.6218    1.0919 C   0  0  0  0  0  0  0  0  0  0  0  0
   -4.6564   -0.6898    1.0540 H   0  0  0  0  0  0  0  0  0  0  0  0
   -4.2544    1.7766   -0.7129 H   0  0  0  0  0  0  0  0  0  0  0  0
   -2.5712    0.9073    1.7291 H   0  0  0  0  0  0  0  0  0  0  0  0
   -3.8179   -2.0496   -0.8555 H   0  0  0  0  0  0  0  0  0  0  0  0
   -2.1263   -1.2287    0.8145 H   0  0  0  0  0  0  0  0  0  0  0  0
   -2.7653    3.3817    1.4084 H   0  0  0  0  0  0  0  0  0  0  0  0
   -2.1706    3.1901   -0.2648 H   0  0  0  0  0  0  0  0  0  0  0  0
   -6.0852   -1.1972   -0.6489 H   0  0  0  0  0  0  0  0  0  0  0  0
   -4.8612    1.4135    2.0405 H   0  0  0  0  0  0  0  0  0  0  0  0
   -3.1232    0.3967   -2.1078 H   0  0  0  0  0  0  0  0  0  0  0  0
   -0.5224    3.6800    1.2052 H   0  0  0  0  0  0  0  0  0  0  0  0
    0.7476   -0.5712   -2.4776 H   0  0  0  0  0  0  0  0  0  0  0  0
   -0.2956   -2.3981    1.2322 H   0  0  0  0  0  0  0  0  0  0  0  0
    3.8212   -1.3889    0.4380 H   0  0  0  0  0  0  0  0  0  0  0  0
    3.4831   -0.8370   -2.9911 H   0  0  0  0  0  0  0  0  0  0  0  0
    4.9293    1.0439   -2.4625 H   0  0  0  0  0  0  0  0  0  0  0  0
    0.6964   -3.8232    2.5931 H   0  0  0  0  0  0  0  0  0  0  0  0
    0.4291   -2.1728    3.3120 H   0  0  0  0  0  0  0  0  0  0  0  0
    1.6372   -3.2685    3.9728 H   0  0  0  0  0  0  0  0  0  0  0  0
    6.4181    2.9720    1.2130 H   0  0  0  0  0  0  0  0  0  0  0  0
    5.1428    1.9602    1.9278 H   0  0  0  0  0  0  0  0  0  0  0  0
    4.7225    3.4890    1.0751 H   0  0  0  0  0  0  0  0  0  0  0  0
  1 12  1  0  0  0  0
  1 14  1  0  0  0  0
  2 10  1  0  0  0  0
  2 34  1  0  0  0  0
  3 11  1  0  0  0  0
  3 35  1  0  0  0  0
  4 14  1  0  0  0  0
  4 16  1  0  0  0  0
  5 13  1  0  0  0  0
  5 36  1  0  0  0  0
  6 15  1  0  0  0  0
  6 37  1  0  0  0  0
  7 20  1  0  0  0  0
  7 24  1  0  0  0  0
  8 25  1  0  0  0  0
  8 26  1  0  0  0  0
  9 25  2  0  0  0  0
 10 11  1  0  0  0  0
 10 13  1  0  0  0  0
 10 27  1  0  0  0  0
 11 12  1  0  0  0  0
 11 28  1  0  0  0  0
 12 15  1  0  0  0  0
 12 29  1  0  0  0  0
 13 14  1  0  0  0  0
 13 30  1  0  0  0  0
 14 31  1  0  0  0  0
 15 32  1  0  0  0  0
 15 33  1  0  0  0  0
 16 17  2  0  0  0  0
 16 18  1  0  0  0  0
 17 19  1  0  0  0  0
 17 38  1  0  0  0  0
 18 20  2  0  0  0  0
 18 39  1  0  0  0  0
 19 21  2  0  0  0  0
 19 22  1  0  0  0  0
 20 21  1  0  0  0  0
 21 40  1  0  0  0  0
 22 23  2  0  0  0  0
 22 41  1  0  0  0  0
 23 25  1  0  0  0  0
 23 42  1  0  0  0  0
 24 43  1  0  0  0  0
 24 44  1  0  0  0  0
 24 45  1  0  0  0  0
 26 46  1  0  0  0  0
 26 47  1  0  0  0  0
 26 48  1  0  0  0  0
M  END
> <PUBCHEM_COMPOUND_CID>
131752960

> <PUBCHEM_CONFORMER_RMSD>
1.4

> <PUBCHEM_CONFORMER_DIVERSEORDER>
1
84
86
38
20
35
5
23
88
99
75
97
64
45
42
44
41
79
37
98
54
40
74
76
62
80
51
26
18
4
94
60
19
67
68
52
50
95
16
34
58
49
55
22
78
43
90
29
57
15
73
92
32
85
48
27
61
28
91
72
30
96
14
8
93
71
25
82
69
13
81
87
10
53
63
3
2
66
31
24
11
89
17
65
6
36
70
47
56
46
12
21
59
7
9
33
77
83
39

> <PUBCHEM_MMFF94_PARTIAL_CHARGES>
35
1 -0.56
10 0.28
11 0.28
12 0.28
13 0.28
14 0.56
15 0.28
16 0.08
17 -0.15
18 -0.15
19 0.03
2 -0.68
20 0.08
21 -0.15
22 -0.18
23 -0.14
24 0.28
25 0.71
26 0.28
3 -0.68
34 0.4
35 0.4
36 0.4
37 0.4
38 0.15
39 0.15
4 -0.36
40 0.15
41 0.15
42 0.15
5 -0.68
6 -0.68
7 -0.36
8 -0.43
9 -0.57

> <PUBCHEM_EFFECTIVE_ROTOR_COUNT>
8.2

> <PUBCHEM_PHARMACOPHORE_FEATURES>
14
1 1 acceptor
1 2 acceptor
1 2 donor
1 3 acceptor
1 3 donor
1 4 acceptor
1 5 acceptor
1 5 donor
1 6 acceptor
1 6 donor
1 7 acceptor
1 9 acceptor
6 1 10 11 12 13 14 rings
6 16 17 18 19 20 21 rings

> <PUBCHEM_HEAVY_ATOM_COUNT>
26

> <PUBCHEM_ATOM_DEF_STEREO_COUNT>
0

> <PUBCHEM_ATOM_UDEF_STEREO_COUNT>
5

> <PUBCHEM_BOND_DEF_STEREO_COUNT>
1

> <PUBCHEM_BOND_UDEF_STEREO_COUNT>
0

> <PUBCHEM_ISOTOPIC_ATOM_COUNT>
0

> <PUBCHEM_COMPONENT_COUNT>
1

> <PUBCHEM_CACTVS_TAUTO_COUNT>
1

> <PUBCHEM_CONFORMER_ID>
07DA640000000001

> <PUBCHEM_MMFF94_ENERGY>
95.3705

> <PUBCHEM_FEATURE_SELFOVERLAP>
71.12

> <PUBCHEM_SHAPE_FINGERPRINT>
10498660 4 18272938180691637957
11578080 2 17824239550138975765
13224815 77 18341049627602661069
13402501 40 17917148428894504360
13533116 47 17604717634464238035
13583140 156 17534357634607964393
13726171 33 18131081406879882257
14251757 17 17489594497696258304
14739800 52 18341319068313097720
14787075 74 17901391409018184095
14790565 3 17555191159778624457
14849402 71 18334298656974565692
1813 80 17610900093547517266
20511986 3 18335975403247737973
20693207 138 15267048311527453167
21033648 29 16950559944117293463
21857420 4 14901365123568926037
21864079 5 18270966743378733077
22393880 68 18267594506936266444
23557571 272 17059756859261891243
23559900 14 17770785611280732975
2838139 119 17988077924176095476
34797466 226 17203621397140691629
35225 105 16807877596055101392
392239 28 18117574031007239859
4340502 62 17749393689033625147
46194498 28 17274557442142135540
469060 322 17242193442175485427
474 4 18041008370396274012
5104073 3 18334865982961767451
58807428 26 17313372487910688626
5895379 119 17700701649251693336
59755656 520 18187651336016207902
7097593 13 17467066354577776691
7288768 16 18046059634600435228
7808743 9 18060134374998166775
9981440 41 18268994374854971282

> <PUBCHEM_SHAPE_MULTIPOLES>
482.24
11.08
3.25
2.06
2.85
0.6
-0.59
7.63
1.08
-1.99
-2.59
-1.28
-1.31
-1.36

> <PUBCHEM_SHAPE_SELFOVERLAP>
1007.218

> <PUBCHEM_SHAPE_VOLUME>
272.6

> <PUBCHEM_COORDINATE_TYPE>
2
5
10

$$$$
