REMARK  Name = 131704
REMARK  7 active torsions:
REMARK  status: ('A' for Active; 'I' for Inactive)
REMARK    1  A    between atoms: C_3  and  C_13
REMARK    2  A    between atoms: C_5  and  O_31
REMARK    3  A    between atoms: C_8  and  O_33
REMARK    4  A    between atoms: C_10  and  C_23
REMARK    5  A    between atoms: C_14  and  O_19
REMARK    6  A    between atoms: C_16  and  O_21
REMARK    7  A    between atoms: C_28  and  O_29
REMARK                            x       y       z     vdW  Elec       q    Type
REMARK                         _______ _______ _______ _____ _____    ______ ____
ROOT
ATOM      1  O   UNL     1       0.898  -0.403  -0.061  0.00  0.00    -0.453 OA
ATOM      2  O   UNL     1       1.368  -4.433   0.312  0.00  0.00    -0.286 OA
ATOM      3  C   UNL     1      -1.453  -0.609  -0.139  0.00  0.00    +0.073 C 
ATOM      4  C   UNL     1      -0.204  -1.220  -0.033  0.00  0.00    +0.152 C 
ATOM      5  C   UNL     1      -2.611  -1.388  -0.117  0.00  0.00    +0.143 C 
ATOM      6  C   UNL     1      -0.115  -2.605   0.093  0.00  0.00    +0.107 C 
ATOM      7  C   UNL     1      -2.519  -2.775   0.010  0.00  0.00    +0.074 C 
ATOM      8  C   UNL     1      -1.271  -3.389   0.115  0.00  0.00    +0.143 C 
ATOM      9  C   UNL     1       1.216  -3.224   0.202  0.00  0.00    +0.205 C 
ATOM     10  C   UNL     1       2.153  -0.982   0.049  0.00  0.00    +0.148 C 
ATOM     11  C   UNL     1       2.369  -2.301   0.169  0.00  0.00    +0.080 C 
ENDROOT
BRANCH   3  13
ATOM     12  O   UNL     1      -2.701   1.195  -1.094  0.00  0.00    -0.351 OA
ATOM     13  C   UNL     1      -1.562   0.895  -0.279  0.00  0.00    +0.146 C 
ATOM     14  C   UNL     1      -1.879   3.071   0.926  0.00  0.00    +0.142 C 
ATOM     15  C   UNL     1      -1.668   1.569   1.092  0.00  0.00    +0.066 C 
ATOM     16  C   UNL     1      -3.074   3.348   0.013  0.00  0.00    +0.164 C 
ATOM     17  C   UNL     1      -2.957   2.589  -1.316  0.00  0.00    +0.145 C 
ATOM     18  C   UNL     1      -1.928   3.194  -2.268  0.00  0.00    +0.035 C 
BRANCH  14  19
ATOM     19  O   UNL     1      -2.080   3.659   2.206  0.00  0.00    -0.382 OA
ATOM     20  H   UNL     1      -1.314   3.473   2.771  0.00  0.00    +0.210 HD
ENDBRANCH  14  19
BRANCH  16  21
ATOM     21  O   UNL     1      -4.263   2.908   0.677  0.00  0.00    -0.380 OA
ATOM     22  H   UNL     1      -4.355   3.377   1.521  0.00  0.00    +0.211 HD
ENDBRANCH  16  21
ENDBRANCH   3  13
BRANCH  10  23
ATOM     23  C   UNL     1       3.266  -0.013   0.002  0.00  0.00    +0.035 C 
ATOM     24  C   UNL     1       4.501  -0.388  -0.534  0.00  0.00    +0.006 C 
ATOM     25  C   UNL     1       3.090   1.283   0.493  0.00  0.00    +0.006 C 
ATOM     26  C   UNL     1       5.553   0.527  -0.578  0.00  0.00    +0.037 C 
ATOM     27  C   UNL     1       4.142   2.198   0.448  0.00  0.00    +0.037 C 
ATOM     28  C   UNL     1       5.374   1.820  -0.087  0.00  0.00    +0.134 C 
BRANCH  28  29
ATOM     29  O   UNL     1       6.400   2.712  -0.130  0.00  0.00    -0.506 OA
ATOM     30  H   UNL     1       7.227   2.458  -0.489  0.00  0.00    +0.292 HD
ENDBRANCH  28  29
ENDBRANCH  10  23
BRANCH   5  31
ATOM     31  O   UNL     1      -3.841  -0.811  -0.219  0.00  0.00    -0.471 OA
ATOM     32  C   UNL     1      -4.968  -1.683  -0.188  0.00  0.00    +0.252 C 
ENDBRANCH   5  31
BRANCH   8  33
ATOM     33  O   UNL     1      -1.236  -4.745   0.236  0.00  0.00    -0.505 OA
ATOM     34  H   UNL     1      -0.414  -5.188   0.309  0.00  0.00    +0.292 HD
ENDBRANCH   8  33
TORSDOF 7
