REMARK  Name = 131704482
REMARK  3 active torsions:
REMARK  status: ('A' for Active; 'I' for Inactive)
REMARK    1  A    between atoms: C_8  and  O_23
REMARK    2  A    between atoms: C_14  and  C_18
REMARK    3  A    between atoms: C_18  and  O_21
REMARK                            x       y       z     vdW  Elec       q    Type
REMARK                         _______ _______ _______ _____ _____    ______ ____
ROOT
ATOM      1  O   UNL     1      -3.347  -0.751  -0.238  0.00  0.00    -0.345 OA
ATOM      2  O   UNL     1      -1.394   1.946   0.969  0.00  0.00    -0.447 OA
ATOM      3  O   UNL     1       0.660   1.390  -0.800  0.00  0.00    -0.448 OA
ATOM      4  O   UNL     1      -3.190   2.151  -0.478  0.00  0.00    -0.247 OA
ATOM      5  O   UNL     1       0.576   0.066  -2.675  0.00  0.00    -0.250 OA
ATOM      6  C   UNL     1      -1.154  -0.466   0.952  0.00  0.00    +0.098 C 
ATOM      7  C   UNL     1      -2.194   0.047   0.014  0.00  0.00    +0.211 C 
ATOM      8  C   UNL     1      -0.323  -1.483   0.090  0.00  0.00    +0.107 C 
ATOM      9  C   UNL     1      -2.274  -0.807  -1.189  0.00  0.00    +0.153 C 
ATOM     10  C   UNL     1      -0.457   0.880   1.311  0.00  0.00    +0.213 C 
ATOM     11  C   UNL     1      -1.312  -1.946  -1.021  0.00  0.00    +0.060 C 
ATOM     12  C   UNL     1       0.993  -0.899  -0.470  0.00  0.00    +0.130 C 
ATOM     13  C   UNL     1       0.879   1.143   0.601  0.00  0.00    +0.211 C 
ATOM     14  C   UNL     1       1.730  -0.115   0.618  0.00  0.00    +0.081 C 
ATOM     15  C   UNL     1      -2.348   1.485   0.101  0.00  0.00    +0.344 C 
ATOM     16  C   UNL     1      -1.805  -1.079   2.200  0.00  0.00    +0.009 C 
ATOM     17  C   UNL     1       0.730   0.200  -1.472  0.00  0.00    +0.319 C 
ENDROOT
BRANCH  14  18
ATOM     18  C   UNL     1       3.191   0.160   0.253  0.00  0.00    +0.093 C 
ATOM     19  C   UNL     1       3.980  -1.144   0.185  0.00  0.00    +0.029 C 
ATOM     20  C   UNL     1       3.827   1.125   1.251  0.00  0.00    +0.029 C 
BRANCH  18  21
ATOM     21  O   UNL     1       3.228   0.755  -1.044  0.00  0.00    -0.387 OA
ATOM     22  H   UNL     1       2.826   0.152  -1.689  0.00  0.00    +0.210 HD
ENDBRANCH  18  21
ENDBRANCH  14  18
BRANCH   8  23
ATOM     23  O   UNL     1       0.006  -2.655   0.841  0.00  0.00    -0.386 OA
ATOM     24  H   UNL     1      -0.804  -3.045   1.206  0.00  0.00    +0.210 HD
ENDBRANCH   8  23
TORSDOF 3
