REMARK  Name = 131752960
REMARK  11 active torsions:
REMARK  status: ('A' for Active; 'I' for Inactive)
REMARK    1  A    between atoms: O_1  and  C_7
REMARK    2  A    between atoms: O_1  and  C_17
REMARK    3  A    between atoms: C_3  and  O_8
REMARK    4  A    between atoms: C_4  and  O_10
REMARK    5  A    between atoms: C_5  and  C_14
REMARK    6  A    between atoms: C_6  and  O_12
REMARK    7  A    between atoms: C_14  and  O_15
REMARK    8  A    between atoms: C_20  and  C_25
REMARK    9  A    between atoms: C_21  and  O_23
REMARK   10  A    between atoms: C_26  and  C_28
REMARK   11  A    between atoms: C_28  and  O_29
REMARK                            x       y       z     vdW  Elec       q    Type
REMARK                         _______ _______ _______ _____ _____    ______ ____
ROOT
ATOM      1  O   UNL     1      -1.217  -1.525  -1.021  0.00  0.00    -0.450 OA
ENDROOT
BRANCH   1   7
ATOM      2  O   UNL     1      -1.806   0.574  -0.151  0.00  0.00    -0.316 OA
ATOM      3  C   UNL     1      -4.556  -0.220   0.068  0.00  0.00    +0.173 C 
ATOM      4  C   UNL     1      -4.125   1.240   0.234  0.00  0.00    +0.169 C 
ATOM      5  C   UNL     1      -2.669   1.318   0.715  0.00  0.00    +0.177 C 
ATOM      6  C   UNL     1      -3.545  -0.992  -0.780  0.00  0.00    +0.210 C 
ATOM      7  C   UNL     1      -2.141  -0.815  -0.202  0.00  0.00    +0.318 C 
BRANCH   3   8
ATOM      8  O   UNL     1      -5.841  -0.262  -0.545  0.00  0.00    -0.379 OA
ATOM      9  H   UNL     1      -6.475   0.231   0.000  0.00  0.00    +0.211 HD
ENDBRANCH   3   8
BRANCH   4  10
ATOM     10  O   UNL     1      -4.968   1.875   1.192  0.00  0.00    -0.379 OA
ATOM     11  H   UNL     1      -5.890   1.829   0.892  0.00  0.00    +0.211 HD
ENDBRANCH   4  10
BRANCH   6  12
ATOM     12  O   UNL     1      -3.547  -0.478  -2.116  0.00  0.00    -0.377 OA
ATOM     13  H   UNL     1      -4.431  -0.582  -2.501  0.00  0.00    +0.211 HD
ENDBRANCH   6  12
BRANCH   5  14
ATOM     14  C   UNL     1      -2.164   2.757   0.741  0.00  0.00    +0.169 C 
BRANCH  14  15
ATOM     15  O   UNL     1      -0.826   2.756   1.202  0.00  0.00    -0.379 OA
ATOM     16  H   UNL     1      -0.491   3.666   1.224  0.00  0.00    +0.211 HD
ENDBRANCH  14  15
ENDBRANCH   5  14
ENDBRANCH   1   7
BRANCH   1  17
ATOM     17  C   UNL     1       0.098  -1.483  -0.642  0.00  0.00    +0.144 C 
ATOM     18  C   UNL     1       1.056  -0.952  -1.506  0.00  0.00    +0.037 C 
ATOM     19  C   UNL     1       0.481  -1.973   0.606  0.00  0.00    +0.074 C 
ATOM     20  C   UNL     1       2.396  -0.911  -1.121  0.00  0.00    +0.006 C 
ATOM     21  C   UNL     1       1.821  -1.932   0.991  0.00  0.00    +0.142 C 
ATOM     22  C   UNL     1       2.779  -1.401   0.127  0.00  0.00    +0.037 C 
BRANCH  21  23
ATOM     23  O   UNL     1       2.194  -2.411   2.209  0.00  0.00    -0.471 OA
ATOM     24  C   UNL     1       1.163  -2.940   3.042  0.00  0.00    +0.252 C 
ENDBRANCH  21  23
BRANCH  20  25
ATOM     25  C   UNL     1       3.395  -0.355  -2.021  0.00  0.00    +0.007 C 
ATOM     26  C   UNL     1       4.188   0.705  -1.748  0.00  0.00    +0.082 C 
BRANCH  26  28
ATOM     27  O   UNL     1       3.063   1.492   0.226  0.00  0.00    -0.245 OA
ATOM     28  C   UNL     1       4.079   1.401  -0.445  0.00  0.00    +0.342 C 
BRANCH  28  29
ATOM     29  O   UNL     1       5.305   1.908  -0.146  0.00  0.00    -0.441 OA
ATOM     30  C   UNL     1       5.390   2.622   1.092  0.00  0.00    +0.256 C 
ENDBRANCH  28  29
ENDBRANCH  26  28
ENDBRANCH  20  25
ENDBRANCH   1  17
TORSDOF 11
