REMARK  Name = 131706149
REMARK  9 active torsions:
REMARK  status: ('A' for Active; 'I' for Inactive)
REMARK    1  A    between atoms: C_3  and  C_8
REMARK    2  A    between atoms: C_3  and  C_22
REMARK    3  A    between atoms: C_5  and  O_36
REMARK    4  A    between atoms: C_6  and  C_14
REMARK    5  A    between atoms: N_21  and  C_24
REMARK    6  A    between atoms: C_24  and  C_26
REMARK    7  A    between atoms: C_24  and  C_29
REMARK    8  A    between atoms: C_26  and  O_27
REMARK    9  A    between atoms: C_29  and  C_30
REMARK                            x       y       z     vdW  Elec       q    Type
REMARK                         _______ _______ _______ _____ _____    ______ ____
ROOT
ATOM      1  O   UNL     1       1.950   1.851  -0.598  0.00  0.00    -0.418 OA
ATOM      2  O   UNL     1       3.977   2.899  -0.818  0.00  0.00    -0.244 OA
ATOM      3  C   UNL     1       0.347   0.153  -0.138  0.00  0.00    +0.091 C 
ATOM      4  C   UNL     1       1.619   0.554  -0.219  0.00  0.00    +0.187 C 
ATOM      5  C   UNL     1       2.816  -0.174   0.038  0.00  0.00    +0.175 C 
ATOM      6  C   UNL     1       3.885   0.597  -0.153  0.00  0.00    +0.113 C 
ATOM      7  C   UNL     1       3.322   1.902  -0.561  0.00  0.00    +0.349 C 
ENDROOT
BRANCH   3   8
ATOM      8  C   UNL     1       0.049  -1.231   0.270  0.00  0.00    +0.007 C 
ATOM      9  C   UNL     1      -0.128  -1.538   1.619  0.00  0.00    +0.000 C 
ATOM     10  C   UNL     1      -0.056  -2.234  -0.693  0.00  0.00    +0.000 C 
ATOM     11  C   UNL     1      -0.410  -2.848   2.005  0.00  0.00    +0.000 C 
ATOM     12  C   UNL     1      -0.338  -3.545  -0.307  0.00  0.00    +0.000 C 
ATOM     13  C   UNL     1      -0.515  -3.852   1.042  0.00  0.00    +0.000 C 
ENDBRANCH   3   8
BRANCH   6  14
ATOM     14  C   UNL     1       5.302   0.261  -0.027  0.00  0.00    +0.009 C 
ATOM     15  C   UNL     1       5.807  -0.182   1.195  0.00  0.00    +0.000 C 
ATOM     16  C   UNL     1       6.149   0.384  -1.129  0.00  0.00    +0.000 C 
ATOM     17  C   UNL     1       7.160  -0.503   1.316  0.00  0.00    +0.000 C 
ATOM     18  C   UNL     1       7.501   0.063  -1.008  0.00  0.00    +0.000 C 
ATOM     19  C   UNL     1       8.006  -0.380   0.214  0.00  0.00    +0.000 C 
ENDBRANCH   6  14
BRANCH   3  22
ATOM     20  O   UNL     1      -0.488   2.052  -1.325  0.00  0.00    -0.270 OA
ATOM     21  N   UNL     1      -1.928   0.957   0.116  0.00  0.00    -0.293 N 
ATOM     22  C   UNL     1      -0.711   1.148  -0.521  0.00  0.00    +0.249 C 
ATOM     23  H   UNL     1      -2.025   0.207   0.747  0.00  0.00    +0.150 HD
BRANCH  21  24
ATOM     24  C   UNL     1      -3.056   1.823  -0.120  0.00  0.00    +0.176 C 
BRANCH  24  26
ATOM     25  O   UNL     1      -3.686   1.429   2.179  0.00  0.00    -0.248 OA
ATOM     26  C   UNL     1      -3.901   2.027   1.130  0.00  0.00    +0.335 C 
BRANCH  26  27
ATOM     27  O   UNL     1      -4.909   2.922   0.929  0.00  0.00    -0.443 OA
ATOM     28  C   UNL     1      -5.764   3.158   2.052  0.00  0.00    +0.256 C 
ENDBRANCH  26  27
ENDBRANCH  24  26
BRANCH  24  29
ATOM     29  C   UNL     1      -3.895   1.336  -1.310  0.00  0.00    +0.057 C 
BRANCH  29  30
ATOM     30  C   UNL     1      -4.550  -0.012  -1.112  0.00  0.00    -0.020 C 
ATOM     31  C   UNL     1      -3.878  -1.176  -1.486  0.00  0.00    -0.004 C 
ATOM     32  C   UNL     1      -5.826  -0.092  -0.555  0.00  0.00    -0.004 C 
ATOM     33  C   UNL     1      -4.482  -2.420  -1.304  0.00  0.00    -0.000 C 
ATOM     34  C   UNL     1      -6.431  -1.336  -0.372  0.00  0.00    -0.000 C 
ATOM     35  C   UNL     1      -5.759  -2.500  -0.747  0.00  0.00    -0.000 C 
ENDBRANCH  29  30
ENDBRANCH  24  29
ENDBRANCH  21  24
ENDBRANCH   3  22
BRANCH   5  36
ATOM     36  O   UNL     1       2.823  -1.492   0.398  0.00  0.00    -0.503 OA
ATOM     37  H   UNL     1       2.014  -1.952   0.509  0.00  0.00    +0.292 HD
ENDBRANCH   5  36
TORSDOF 9
