REMARK  Name = 131770027
REMARK  6 active torsions:
REMARK  status: ('A' for Active; 'I' for Inactive)
REMARK    1  A    between atoms: C_1  and  C_2
REMARK    2  A    between atoms: C_1  and  C_22
REMARK    3  A    between atoms: C_1  and  N_26
REMARK    4  A    between atoms: C_3  and  O_14
REMARK    5  A    between atoms: C_4  and  O_12
REMARK    6  A    between atoms: C_23  and  C_25
REMARK                            x       y       z     vdW  Elec       q    Type
REMARK                         _______ _______ _______ _____ _____    ______ ____
ROOT
ATOM      1  C   UNL     1       0.245   0.777   0.941  0.00  0.00    +0.013 C 
ENDROOT
BRANCH   1   2
ATOM      2  C   UNL     1      -1.123   0.420   0.355  0.00  0.00    -0.006 C 
ATOM      3  C   UNL     1      -3.575   0.052   0.880  0.00  0.00    +0.091 C 
ATOM      4  C   UNL     1      -2.454  -1.340  -0.890  0.00  0.00    +0.091 C 
ATOM      5  C   UNL     1      -2.910   1.102  -1.312  0.00  0.00    +0.005 C 
ATOM      6  C   UNL     1      -2.197   0.410   1.467  0.00  0.00    +0.026 C 
ATOM      7  C   UNL     1      -1.079  -0.980  -0.300  0.00  0.00    +0.026 C 
ATOM      8  C   UNL     1      -1.534   1.456  -0.719  0.00  0.00    -0.001 C 
ATOM      9  C   UNL     1      -3.507  -1.339   0.230  0.00  0.00    +0.054 C 
ATOM     10  C   UNL     1      -3.957   1.092  -0.187  0.00  0.00    +0.027 C 
ATOM     11  C   UNL     1      -2.841  -0.295  -1.950  0.00  0.00    +0.027 C 
BRANCH   4  12
ATOM     12  O   UNL     1      -2.399  -2.621  -1.502  0.00  0.00    -0.387 OA
ATOM     13  H   UNL     1      -2.156  -3.286  -0.839  0.00  0.00    +0.210 HD
ENDBRANCH   4  12
BRANCH   3  14
ATOM     14  O   UNL     1      -4.557   0.061   1.906  0.00  0.00    -0.387 OA
ATOM     15  H   UNL     1      -4.322  -0.593   2.583  0.00  0.00    +0.210 HD
ENDBRANCH   3  14
ENDBRANCH   1   2
BRANCH   1  22
ATOM     16  O   UNL     1       1.181   1.538  -1.113  0.00  0.00    -0.277 OA
ATOM     17  N   UNL     1       2.335  -0.112   0.025  0.00  0.00    -0.272 N 
ATOM     18  C   UNL     1       2.488  -1.046   1.112  0.00  0.00    +0.076 C 
ATOM     19  C   UNL     1       3.654  -1.945   0.817  0.00  0.00    +0.023 C 
ATOM     20  C   UNL     1       3.693  -1.034   2.011  0.00  0.00    +0.022 C 
ATOM     21  C   UNL     1       4.186  -1.556  -0.536  0.00  0.00    +0.037 C 
ATOM     22  C   UNL     1       1.289   0.780  -0.147  0.00  0.00    +0.206 C 
ATOM     23  C   UNL     1       3.447  -0.257  -0.935  0.00  0.00    +0.167 C 
BRANCH  23  25
ATOM     24  N   UNL     1       5.056   1.823  -0.812  0.00  0.00    -0.194 NA
ATOM     25  C   UNL     1       4.347   0.906  -0.867  0.00  0.00    +0.093 C 
ENDBRANCH  23  25
ENDBRANCH   1  22
BRANCH   1  26
ATOM     26  N   UNL     1       0.212   2.107   1.526  0.00  0.00    +0.387 N 
ATOM     27  H   UNL     1      -0.487   2.135   2.268  0.00  0.00    -0.089 HD
ATOM     28  H   UNL     1      -0.028   2.788   0.806  0.00  0.00    -0.089 HD
ATOM     29  H   UNL     1       1.129   2.330   1.913  0.00  0.00    -0.089 HD
ENDBRANCH   1  26
TORSDOF 6
