131770027
  -OEChem-03292013293D

 49 53  0     1  0  0  0  0  0999 V2000
   -2.3992   -2.6208   -1.5021 O   0  0  0  0  0  0  0  0  0  0  0  0
   -4.5567    0.0607    1.9064 O   0  0  0  0  0  0  0  0  0  0  0  0
    1.1808    1.5379   -1.1127 O   0  0  0  0  0  0  0  0  0  0  0  0
    2.3348   -0.1123    0.0253 N   0  0  0  0  0  0  0  0  0  0  0  0
    0.2123    2.1066    1.5256 N   0  0  0  0  0  0  0  0  0  0  0  0
    5.0565    1.8229   -0.8122 N   0  0  0  0  0  0  0  0  0  0  0  0
   -1.1230    0.4202    0.3552 C   0  0  0  0  0  0  0  0  0  0  0  0
   -3.5749    0.0524    0.8799 C   0  0  1  0  0  0  0  0  0  0  0  0
   -2.4544   -1.3401   -0.8901 C   0  0  2  0  0  0  0  0  0  0  0  0
   -2.9100    1.1018   -1.3121 C   0  0  0  0  0  0  0  0  0  0  0  0
   -2.1974    0.4105    1.4672 C   0  0  0  0  0  0  0  0  0  0  0  0
   -1.0789   -0.9796   -0.3000 C   0  0  0  0  0  0  0  0  0  0  0  0
   -1.5342    1.4555   -0.7194 C   0  0  0  0  0  0  0  0  0  0  0  0
   -3.5067   -1.3387    0.2299 C   0  0  0  0  0  0  0  0  0  0  0  0
   -3.9568    1.0919   -0.1871 C   0  0  0  0  0  0  0  0  0  0  0  0
   -2.8409   -0.2948   -1.9497 C   0  0  0  0  0  0  0  0  0  0  0  0
    0.2454    0.7768    0.9411 C   0  0  1  0  0  0  0  0  0  0  0  0
    2.4879   -1.0459    1.1117 C   0  0  1  0  0  0  0  0  0  0  0  0
    3.6535   -1.9454    0.8166 C   0  0  2  0  0  0  0  0  0  0  0  0
    3.6932   -1.0335    2.0115 C   0  0  0  0  0  0  0  0  0  0  0  0
    4.1855   -1.5558   -0.5356 C   0  0  0  0  0  0  0  0  0  0  0  0
    1.2887    0.7798   -0.1475 C   0  0  0  0  0  0  0  0  0  0  0  0
    3.4473   -0.2565   -0.9354 C   0  0  2  0  0  0  0  0  0  0  0  0
    4.3473    0.9063   -0.8665 C   0  0  0  0  0  0  0  0  0  0  0  0
   -3.1901    1.8416   -2.0705 H   0  0  0  0  0  0  0  0  0  0  0  0
   -0.7803   -1.7402    0.4340 H   0  0  0  0  0  0  0  0  0  0  0  0
   -2.2855    1.3825    1.9677 H   0  0  0  0  0  0  0  0  0  0  0  0
   -0.3288   -1.0334   -1.0994 H   0  0  0  0  0  0  0  0  0  0  0  0
   -1.9316   -0.3051    2.2570 H   0  0  0  0  0  0  0  0  0  0  0  0
   -0.8700    1.4774   -1.5833 H   0  0  0  0  0  0  0  0  0  0  0  0
   -1.5774    2.4718   -0.3097 H   0  0  0  0  0  0  0  0  0  0  0  0
   -3.2726   -2.1052    0.9811 H   0  0  0  0  0  0  0  0  0  0  0  0
   -4.4901   -1.6315   -0.1622 H   0  0  0  0  0  0  0  0  0  0  0  0
   -4.0399    2.0875    0.2678 H   0  0  0  0  0  0  0  0  0  0  0  0
   -4.9521    0.8680   -0.5925 H   0  0  0  0  0  0  0  0  0  0  0  0
   -3.8061   -0.5564   -2.4026 H   0  0  0  0  0  0  0  0  0  0  0  0
   -2.1157   -0.3059   -2.7737 H   0  0  0  0  0  0  0  0  0  0  0  0
    0.4772    0.0901    1.7548 H   0  0  0  0  0  0  0  0  0  0  0  0
    1.5938   -1.5786    1.4123 H   0  0  0  0  0  0  0  0  0  0  0  0
    3.5629   -3.0099    0.9742 H   0  0  0  0  0  0  0  0  0  0  0  0
    3.5891   -1.4831    2.9918 H   0  0  0  0  0  0  0  0  0  0  0  0
    4.3539   -0.1761    1.9881 H   0  0  0  0  0  0  0  0  0  0  0  0
    3.9308   -2.3480   -1.2499 H   0  0  0  0  0  0  0  0  0  0  0  0
    5.2760   -1.4551   -0.5252 H   0  0  0  0  0  0  0  0  0  0  0  0
    3.0311   -0.3364   -1.9462 H   0  0  0  0  0  0  0  0  0  0  0  0
   -4.3004   -0.6013    2.5709 H   0  0  0  0  0  0  0  0  0  0  0  0
   -2.1533   -3.2682   -0.8196 H   0  0  0  0  0  0  0  0  0  0  0  0
    1.1403    2.3524    1.8703 H   0  0  0  0  0  0  0  0  0  0  0  0
   -0.3903    2.1211    2.3465 H   0  0  0  0  0  0  0  0  0  0  0  0
  1  9  1  0  0  0  0
  1 47  1  0  0  0  0
  2  8  1  0  0  0  0
  2 46  1  0  0  0  0
  3 22  2  0  0  0  0
  4 18  1  0  0  0  0
  4 22  1  0  0  0  0
  4 23  1  0  0  0  0
  5 17  1  0  0  0  0
  5 48  1  0  0  0  0
  5 49  1  0  0  0  0
  6 24  3  0  0  0  0
  7 11  1  0  0  0  0
  7 12  1  0  0  0  0
  7 13  1  0  0  0  0
  7 17  1  0  0  0  0
  8 11  1  0  0  0  0
  8 14  1  0  0  0  0
  8 15  1  0  0  0  0
  9 12  1  0  0  0  0
  9 14  1  0  0  0  0
  9 16  1  0  0  0  0
 10 13  1  0  0  0  0
 10 15  1  0  0  0  0
 10 16  1  0  0  0  0
 10 25  1  0  0  0  0
 11 27  1  0  0  0  0
 11 29  1  0  0  0  0
 12 26  1  0  0  0  0
 12 28  1  0  0  0  0
 13 30  1  0  0  0  0
 13 31  1  0  0  0  0
 14 32  1  0  0  0  0
 14 33  1  0  0  0  0
 15 34  1  0  0  0  0
 15 35  1  0  0  0  0
 16 36  1  0  0  0  0
 16 37  1  0  0  0  0
 17 22  1  0  0  0  0
 17 38  1  0  0  0  0
 18 19  1  0  0  0  0
 18 20  1  0  0  0  0
 18 39  1  0  0  0  0
 19 20  1  0  0  0  0
 19 21  1  0  0  0  0
 19 40  1  0  0  0  0
 20 41  1  0  0  0  0
 20 42  1  0  0  0  0
 21 23  1  0  0  0  0
 21 43  1  0  0  0  0
 21 44  1  0  0  0  0
 23 24  1  0  0  0  0
 23 45  1  0  0  0  0
M  END
> <PUBCHEM_COMPOUND_CID>
131770027

> <PUBCHEM_CONFORMER_RMSD>
0.8

> <PUBCHEM_CONFORMER_DIVERSEORDER>
1
4
14
8
11
15
12
9
13
6
5
2
10
7
3

> <PUBCHEM_MMFF94_PARTIAL_CHARGES>
24
1 -0.68
17 0.33
18 0.05
19 -0.19
2 -0.68
20 -0.2
21 0.09
22 0.57
23 0.5
24 0.36
3 -0.57
39 0.1
4 -0.51
40 0.1
41 0.1
42 0.1
46 0.4
47 0.4
48 0.36
49 0.36
5 -0.99
6 -0.56
8 0.28
9 0.28

> <PUBCHEM_EFFECTIVE_ROTOR_COUNT>
5

> <PUBCHEM_PHARMACOPHORE_FEATURES>
13
1 1 acceptor
1 1 donor
1 2 acceptor
1 2 donor
1 3 acceptor
1 5 cation
1 5 donor
1 6 acceptor
6 4 18 19 20 21 23 rings
6 7 8 10 11 13 15 rings
6 7 8 9 11 12 14 rings
6 7 9 10 12 13 16 rings
6 8 9 10 14 15 16 rings

> <PUBCHEM_HEAVY_ATOM_COUNT>
24

> <PUBCHEM_ATOM_DEF_STEREO_COUNT>
4

> <PUBCHEM_ATOM_UDEF_STEREO_COUNT>
2

> <PUBCHEM_BOND_DEF_STEREO_COUNT>
0

> <PUBCHEM_BOND_UDEF_STEREO_COUNT>
0

> <PUBCHEM_ISOTOPIC_ATOM_COUNT>
0

> <PUBCHEM_COMPONENT_COUNT>
1

> <PUBCHEM_CACTVS_TAUTO_COUNT>
1

> <PUBCHEM_CONFORMER_ID>
07DAA6AB00000001

> <PUBCHEM_MMFF94_ENERGY>
83.5659

> <PUBCHEM_FEATURE_SELFOVERLAP>
78.501

> <PUBCHEM_SHAPE_FINGERPRINT>
11405975 8 17241320262017196264
11578080 2 18266435703348681544
121448 382 13479135726376489377
12173636 292 16443338724696391695
12236239 1 18411992359551842104
12403814 3 18259985951180882573
12553582 1 18131914849324942760
12616971 3 18407476657308037522
12633257 1 16128372610871869226
12670545 47 15554447388189746044
12714826 92 18338230475309699961
12788726 201 17845946116983868248
128620 24 16515407378122119442
13224815 77 18260263045169638466
13296908 3 17967530147342879912
13631057 29 18053944240914857438
14910302 57 15574714677123656411
15375462 189 18410859871365601624
15415430 112 18272936067657191326
15788980 27 17894343368033003594
16752209 62 18127683829649430385
16945 1 17632025208341271513
17349148 13 17274816961314541493
18186145 218 15213297474554239914
19862831 5 18408041788851566222
200 152 17895194355725943946
20281475 54 18272928332315615422
20600515 1 17489860540485891304
20645477 70 18114466673971889402
20775530 9 17693080178125015223
21033650 10 13335014929373719878
22393880 68 17604151424509371238
23559900 14 17704075080033198188
2838139 119 17389080280206541749
3082319 5 17822286851731173630
3268164 11 13984663663599188611
3323516 105 17022910038122953056
5104073 3 17676209026504491576
5161694 15 16371283303870016242
5281201 14 15936695869903999526
633830 44 17530960246366669066
74978 22 18059567044531368913
9709674 26 17385452020229542800

> <PUBCHEM_SHAPE_MULTIPOLES>
461.36
9.5
2.04
1.75
5.39
0.15
-0.22
0.86
0.27
0.98
0.34
-0.79
0.23
-1

> <PUBCHEM_SHAPE_SELFOVERLAP>
1015.934

> <PUBCHEM_SHAPE_VOLUME>
241.8

> <PUBCHEM_COORDINATE_TYPE>
2
5
10

$$$$
