REMARK  Name = 131779
REMARK  10 active torsions:
REMARK  status: ('A' for Active; 'I' for Inactive)
REMARK    1  A    between atoms: N_1  and  C_4
REMARK    2  A    between atoms: N_1  and  CA_18
REMARK    3  A    between atoms: C_4  and  C_7
REMARK    4  A    between atoms: C_4  and  C_10
REMARK    5  A    between atoms: C_10  and  N_11
REMARK    6  A    between atoms: C_10  and  C_15
REMARK    7  A    between atoms: CA_18  and  C_20
REMARK    8  A    between atoms: CA_18  and  CB_23
REMARK    9  A    between atoms: C_20  and  O_21
REMARK   10  A    between atoms: CB_23  and  CG_26
REMARK                            x       y       z     vdW  Elec       q    Type
REMARK                         _______ _______ _______ _____ _____    ______ ____
ROOT
ATOM      1  N   HIS A   1      -0.679   0.192  -0.829  0.00  0.00    +0.398 N 
ATOM      2  H1  HIS A   1      -0.852   1.196  -0.878  0.00  0.00    -0.083 HD
ATOM      3  H2  HIS A   1      -0.729  -0.220  -1.761  0.00  0.00    -0.083 HD
ENDROOT
BRANCH   1   4
ATOM      4  C   UNK A   0      -1.699  -0.431   0.017  0.00  0.00    -0.003 C 
BRANCH   4   7
ATOM      5  O   UNK A   0      -1.385  -2.613  -1.013  0.00  0.00    -0.278 OA
ATOM      6  N   UNK A   0      -1.025  -2.416   1.247  0.00  0.00    -0.331 N 
ATOM      7  C   UNK A   0      -1.351  -1.921   0.002  0.00  0.00    +0.197 C 
ATOM      8  H   UNK A   0      -0.783  -3.365   1.351  0.00  0.00    +0.145 HD
ATOM      9  H   UNK A   0      -1.033  -1.821   2.031  0.00  0.00    +0.145 HD
ENDBRANCH   4   7
BRANCH   4  10
ATOM     10  C   UNK A   0      -3.139  -0.164  -0.499  0.00  0.00    -0.077 C 
BRANCH  10  11
ATOM     11  N   UNK A   0      -4.082  -0.952   0.311  0.00  0.00    +0.381 N 
ATOM     12  H   UNK A   0      -3.800  -1.932   0.304  0.00  0.00    -0.089 HD
ATOM     13  H   UNK A   0      -5.021  -0.866  -0.080  0.00  0.00    -0.089 HD
ATOM     14  H   UNK A   0      -4.081  -0.604   1.269  0.00  0.00    -0.089 HD
ENDBRANCH  10  11
BRANCH  10  15
ATOM     15  C   UNK A   0      -3.553   1.339  -0.504  0.00  0.00    -0.021 C 
ATOM     16  C   UNK A   0      -3.371   1.990   0.875  0.00  0.00    -0.002 C 
ATOM     17  C   UNK A   0      -4.982   1.583  -1.000  0.00  0.00    -0.002 C 
ENDBRANCH  10  15
ENDBRANCH   4  10
ENDBRANCH   1   4
BRANCH   1  18
ATOM     18  CA  HIS A   1       0.649  -0.038  -0.286  0.00  0.00    +0.046 C 
BRANCH  18  20
ATOM     19  OXT HIS A   1       0.528   1.766   1.358  0.00  0.00    -0.253 OA
ATOM     20  C   HIS A   1       0.668   0.579   1.099  0.00  0.00    +0.294 C 
BRANCH  20  21
ATOM     21  O   HIS A   1       0.836  -0.379   2.046  0.00  0.00    -0.482 OA
ATOM     22  H   HIS A   1       0.939  -1.276   1.793  0.00  0.00    +0.295 HD
ENDBRANCH  20  21
ENDBRANCH  18  20
BRANCH  18  23
ATOM     23  CB  HIS A   1       1.698   0.612  -1.199  0.00  0.00    +0.032 C 
BRANCH  23  26
ATOM     24  ND1 HIS A   1       3.614  -0.826  -0.517  0.00  0.00    -0.319 N 
ATOM     25  NE2 HIS A   1       5.201   0.627   0.032  0.00  0.00    -0.315 N 
ATOM     26  CG  HIS A   1       3.111   0.407  -0.701  0.00  0.00    +0.036 C 
ATOM     27  CD2 HIS A   1       4.070   1.293  -0.369  0.00  0.00    +0.069 C 
ATOM     28  CE1 HIS A   1       4.893  -0.647  -0.068  0.00  0.00    +0.182 C 
ATOM     29  HD1 HIS A   1       3.155  -1.683  -0.673  0.00  0.00    +0.148 HD
ATOM     30  HE2 HIS A   1       6.055   1.017   0.329  0.00  0.00    +0.148 HD
ENDBRANCH  23  26
ENDBRANCH  18  23
ENDBRANCH   1  18
TORSDOF 10
