13175188
  -OEChem-03292013303D

 43 43  0     0  0  0  0  0  0999 V2000
   -2.2289   -1.0145    0.6016 O   0  0  0  0  0  0  0  0  0  0  0  0
   -0.1703    2.5921    0.6113 O   0  0  0  0  0  0  0  0  0  0  0  0
    2.0865   -0.0121    0.6409 O   0  0  0  0  0  0  0  0  0  0  0  0
   -2.5121    2.7293   -1.8261 O   0  0  0  0  0  0  0  0  0  0  0  0
   -0.4447   -2.0347    1.5393 O   0  0  0  0  0  0  0  0  0  0  0  0
    3.8407    0.1130    2.1395 O   0  0  0  0  0  0  0  0  0  0  0  0
   -6.4480   -2.8244   -0.6663 O   0  0  0  0  0  0  0  0  0  0  0  0
   -6.8292   -0.6660   -1.2999 O   0  0  0  0  0  0  0  0  0  0  0  0
   -2.2026    1.3360    0.0841 C   0  0  0  0  0  0  0  0  0  0  0  0
   -0.8449    1.3812    0.6130 C   0  0  0  0  0  0  0  0  0  0  0  0
   -0.2326    0.2886    1.1076 C   0  0  0  0  0  0  0  0  0  0  0  0
   -2.8428    0.1530    0.0959 C   0  0  0  0  0  0  0  0  0  0  0  0
    1.1579    0.2689    1.6712 C   0  0  0  0  0  0  0  0  0  0  0  0
   -2.8058    2.6119   -0.4496 C   0  0  0  0  0  0  0  0  0  0  0  0
   -0.9616   -1.0098    1.1050 C   0  0  0  0  0  0  0  0  0  0  0  0
   -4.1770   -0.1171   -0.3723 C   0  0  0  0  0  0  0  0  0  0  0  0
    0.5553    2.7533   -0.5892 C   0  0  0  0  0  0  0  0  0  0  0  0
   -4.7328   -1.3315   -0.3196 C   0  0  0  0  0  0  0  0  0  0  0  0
    3.4012   -0.0612    1.0140 C   0  0  0  0  0  0  0  0  0  0  0  0
    4.2119   -0.3644   -0.1861 C   0  0  0  0  0  0  0  0  0  0  0  0
   -6.1071   -1.5239   -0.8212 C   0  0  0  0  0  0  0  0  0  0  0  0
    5.5437   -0.4671   -0.0815 C   0  0  0  0  0  0  0  0  0  0  0  0
    6.3953   -0.7620   -1.2126 C   0  0  0  0  0  0  0  0  0  0  0  0
    7.7290   -0.8671   -1.1195 C   0  0  0  0  0  0  0  0  0  0  0  0
    8.6188   -1.1716   -2.2797 C   0  0  0  0  0  0  0  0  0  0  0  0
    1.2461   -0.4752    2.4722 H   0  0  0  0  0  0  0  0  0  0  0  0
    1.3988    1.2415    2.1190 H   0  0  0  0  0  0  0  0  0  0  0  0
   -2.4192    3.4955    0.0689 H   0  0  0  0  0  0  0  0  0  0  0  0
   -3.8914    2.6515   -0.3171 H   0  0  0  0  0  0  0  0  0  0  0  0
   -4.7411    0.7091   -0.7929 H   0  0  0  0  0  0  0  0  0  0  0  0
    1.3660    3.4636   -0.3986 H   0  0  0  0  0  0  0  0  0  0  0  0
   -0.0757    3.1846   -1.3702 H   0  0  0  0  0  0  0  0  0  0  0  0
    1.0089    1.8267   -0.9582 H   0  0  0  0  0  0  0  0  0  0  0  0
   -2.9321    1.9834   -2.2875 H   0  0  0  0  0  0  0  0  0  0  0  0
   -4.2285   -2.2042    0.0813 H   0  0  0  0  0  0  0  0  0  0  0  0
    3.6983   -0.4975   -1.1329 H   0  0  0  0  0  0  0  0  0  0  0  0
    6.0340   -0.3292    0.8790 H   0  0  0  0  0  0  0  0  0  0  0  0
    5.9130   -0.9023   -2.1769 H   0  0  0  0  0  0  0  0  0  0  0  0
    8.2209   -0.7286   -0.1596 H   0  0  0  0  0  0  0  0  0  0  0  0
   -7.3572   -3.0067   -0.9865 H   0  0  0  0  0  0  0  0  0  0  0  0
    8.0583   -1.2985   -3.2112 H   0  0  0  0  0  0  0  0  0  0  0  0
    9.1767   -2.0935   -2.0891 H   0  0  0  0  0  0  0  0  0  0  0  0
    9.3367   -0.3581   -2.4218 H   0  0  0  0  0  0  0  0  0  0  0  0
  1 12  1  0  0  0  0
  1 15  1  0  0  0  0
  2 10  1  0  0  0  0
  2 17  1  0  0  0  0
  3 13  1  0  0  0  0
  3 19  1  0  0  0  0
  4 14  1  0  0  0  0
  4 34  1  0  0  0  0
  5 15  2  0  0  0  0
  6 19  2  0  0  0  0
  7 21  1  0  0  0  0
  7 40  1  0  0  0  0
  8 21  2  0  0  0  0
  9 10  1  0  0  0  0
  9 12  2  0  0  0  0
  9 14  1  0  0  0  0
 10 11  2  0  0  0  0
 11 13  1  0  0  0  0
 11 15  1  0  0  0  0
 12 16  1  0  0  0  0
 13 26  1  0  0  0  0
 13 27  1  0  0  0  0
 14 28  1  0  0  0  0
 14 29  1  0  0  0  0
 16 18  2  0  0  0  0
 16 30  1  0  0  0  0
 17 31  1  0  0  0  0
 17 32  1  0  0  0  0
 17 33  1  0  0  0  0
 18 21  1  0  0  0  0
 18 35  1  0  0  0  0
 19 20  1  0  0  0  0
 20 22  2  0  0  0  0
 20 36  1  0  0  0  0
 22 23  1  0  0  0  0
 22 37  1  0  0  0  0
 23 24  2  0  0  0  0
 23 38  1  0  0  0  0
 24 25  1  0  0  0  0
 24 39  1  0  0  0  0
 25 41  1  0  0  0  0
 25 42  1  0  0  0  0
 25 43  1  0  0  0  0
M  END
> <PUBCHEM_COMPOUND_CID>
13175188

> <PUBCHEM_CONFORMER_RMSD>
1

> <PUBCHEM_CONFORMER_DIVERSEORDER>
1
14
10
6
20
5
26
42
35
30
4
37
31
12
9
46
11
19
17
45
16
34
33
29
43
15
25
8
23
27
39
32
21
18
44
7
40
41
22
28
36
47
13
24
38
3
2

> <PUBCHEM_MMFF94_PARTIAL_CHARGES>
33
1 -0.23
10 0.08
11 -0.12
12 0.08
13 0.42
14 0.42
15 0.71
16 -0.15
17 0.28
18 -0.14
19 0.71
2 -0.36
20 -0.14
21 0.71
22 -0.15
23 -0.15
24 -0.29
25 0.14
3 -0.43
30 0.15
34 0.4
35 0.15
36 0.15
37 0.15
38 0.15
39 0.15
4 -0.68
40 0.5
5 -0.57
6 -0.57
7 -0.65
8 -0.57
9 -0.14

> <PUBCHEM_EFFECTIVE_ROTOR_COUNT>
9

> <PUBCHEM_PHARMACOPHORE_FEATURES>
10
1 2 acceptor
1 25 hydrophobe
1 4 acceptor
1 4 donor
1 5 acceptor
1 6 acceptor
1 7 acceptor
1 8 acceptor
3 7 8 21 anion
6 1 9 10 11 12 15 rings

> <PUBCHEM_HEAVY_ATOM_COUNT>
25

> <PUBCHEM_ATOM_DEF_STEREO_COUNT>
0

> <PUBCHEM_ATOM_UDEF_STEREO_COUNT>
0

> <PUBCHEM_BOND_DEF_STEREO_COUNT>
3

> <PUBCHEM_BOND_UDEF_STEREO_COUNT>
0

> <PUBCHEM_ISOTOPIC_ATOM_COUNT>
0

> <PUBCHEM_COMPONENT_COUNT>
1

> <PUBCHEM_CACTVS_TAUTO_COUNT>
1

> <PUBCHEM_CONFORMER_ID>
00C9099400000001

> <PUBCHEM_MMFF94_ENERGY>
62.7004

> <PUBCHEM_FEATURE_SELFOVERLAP>
50.805

> <PUBCHEM_SHAPE_FINGERPRINT>
10670039 82 18040999506058619372
11135609 201 12180389203735680399
12954195 1 18341890750019810753
13540713 5 17679287577594548713
13668630 136 17489312962869593142
13673619 4 17846779619727204976
13685833 64 16988563507365184306
13757389 114 18194966236526228517
14294032 229 18044089060861638461
14767858 380 17821726139165803603
14931854 50 18040434374119549198
15183329 4 17968101889822707242
16110190 28 11023812969359008306
16994733 274 13695857156297453399
17492 54 17240198833107946936
17780758 139 11887380354107172028
18643901 69 18273221880324108671
19784866 240 18060421356724077835
2026 5 17916596315697771326
20871999 31 18260828172386869768
21267235 1 18337105770437721027
21307412 95 18342738563558320351
21637258 2 16702014297007920307
21792965 96 18334574647874282223
2297311 6 18413388730887445049
23198884 109 17968104097156127582
23559900 14 18336829805418858640
3004659 81 18260261984006852068
312425 54 10592042441233473180
484989 97 17605848125533228635
5104073 3 11599420534772116986
6058803 2 17389930163654731456
999808 66 17203892950769237782

> <PUBCHEM_SHAPE_MULTIPOLES>
467.53
19.11
2.62
1.71
27.76
1.29
0.04
-15.77
-14.48
-4.01
-0.89
1.8
-0.09
1.06

> <PUBCHEM_SHAPE_SELFOVERLAP>
960.994

> <PUBCHEM_SHAPE_VOLUME>
265.6

> <PUBCHEM_COORDINATE_TYPE>
2
5
10

$$$$
