131865667
  -OEChem-03292013293D

 37 36  0     1  0  0  0  0  0999 V2000
    0.8354   -0.2068    0.6067 O   0  0  0  0  0  0  0  0  0  0  0  0
    2.2674   -2.5003    1.3659 O   0  5  0  0  0  0  0  0  0  0  0  0
    2.1576   -2.8243   -0.8913 O   0  0  0  0  0  0  0  0  0  0  0  0
   -0.3160   -0.6533   -1.3415 O   0  0  0  0  0  0  0  0  0  0  0  0
   -6.3624    0.7275    0.6935 O   0  0  0  0  0  0  0  0  0  0  0  0
   -5.4113   -0.1037   -1.1938 O   0  0  0  0  0  0  0  0  0  0  0  0
    3.2936    1.5081   -0.0651 N   0  3  0  0  0  0  0  0  0  0  0  0
    3.2021    0.1796    0.5944 C   0  0  0  0  0  0  0  0  0  0  0  0
    2.0572   -0.6070   -0.0223 C   0  0  1  0  0  0  0  0  0  0  0  0
    4.4145    2.3489    0.5599 C   0  0  0  0  0  0  0  0  0  0  0  0
    1.9762    2.2801    0.0839 C   0  0  0  0  0  0  0  0  0  0  0  0
    3.5904    1.3521   -1.5622 C   0  0  0  0  0  0  0  0  0  0  0  0
    2.1712   -2.1274    0.1605 C   0  0  0  0  0  0  0  0  0  0  0  0
   -1.4832    0.1398    0.6399 C   0  0  0  0  0  0  0  0  0  0  0  0
   -0.2813   -0.2812   -0.1766 C   0  0  0  0  0  0  0  0  0  0  0  0
   -2.8030    0.0044   -0.1184 C   0  0  0  0  0  0  0  0  0  0  0  0
   -4.0061    0.4478    0.7165 C   0  0  0  0  0  0  0  0  0  0  0  0
   -5.3023    0.3156   -0.0500 C   0  0  0  0  0  0  0  0  0  0  0  0
    4.1623   -0.3311    0.4545 H   0  0  0  0  0  0  0  0  0  0  0  0
    3.0461    0.3478    1.6671 H   0  0  0  0  0  0  0  0  0  0  0  0
    1.9963   -0.4624   -1.1022 H   0  0  0  0  0  0  0  0  0  0  0  0
    4.4552    3.3181    0.0541 H   0  0  0  0  0  0  0  0  0  0  0  0
    1.2265    1.8811   -0.6005 H   0  0  0  0  0  0  0  0  0  0  0  0
    2.1658    3.3215   -0.1978 H   0  0  0  0  0  0  0  0  0  0  0  0
    1.6580    2.2372    1.1294 H   0  0  0  0  0  0  0  0  0  0  0  0
    3.9208    2.3243   -1.9430 H   0  0  0  0  0  0  0  0  0  0  0  0
    2.6905    1.0661   -2.1106 H   0  0  0  0  0  0  0  0  0  0  0  0
    4.3901    0.6161   -1.6851 H   0  0  0  0  0  0  0  0  0  0  0  0
    5.3566    1.8081    0.4303 H   0  0  0  0  0  0  0  0  0  0  0  0
    4.1887    2.4803    1.6222 H   0  0  0  0  0  0  0  0  0  0  0  0
   -1.3369    1.1839    0.9390 H   0  0  0  0  0  0  0  0  0  0  0  0
   -1.5176   -0.4846    1.5401 H   0  0  0  0  0  0  0  0  0  0  0  0
   -2.9374   -1.0379   -0.4355 H   0  0  0  0  0  0  0  0  0  0  0  0
   -2.7573    0.5978   -1.0408 H   0  0  0  0  0  0  0  0  0  0  0  0
   -4.0781   -0.1689    1.6190 H   0  0  0  0  0  0  0  0  0  0  0  0
   -3.8871    1.4971    1.0077 H   0  0  0  0  0  0  0  0  0  0  0  0
   -7.2074    0.6453    0.2019 H   0  0  0  0  0  0  0  0  0  0  0  0
  1  9  1  0  0  0  0
  1 15  1  0  0  0  0
  2 13  1  0  0  0  0
  3 13  2  0  0  0  0
  4 15  2  0  0  0  0
  5 18  1  0  0  0  0
  5 37  1  0  0  0  0
  6 18  2  0  0  0  0
  7  8  1  0  0  0  0
  7 10  1  0  0  0  0
  7 11  1  0  0  0  0
  7 12  1  0  0  0  0
  8  9  1  0  0  0  0
  8 19  1  0  0  0  0
  8 20  1  0  0  0  0
  9 13  1  0  0  0  0
  9 21  1  0  0  0  0
 10 22  1  0  0  0  0
 10 29  1  0  0  0  0
 10 30  1  0  0  0  0
 11 23  1  0  0  0  0
 11 24  1  0  0  0  0
 11 25  1  0  0  0  0
 12 26  1  0  0  0  0
 12 27  1  0  0  0  0
 12 28  1  0  0  0  0
 14 15  1  0  0  0  0
 14 16  1  0  0  0  0
 14 31  1  0  0  0  0
 14 32  1  0  0  0  0
 16 17  1  0  0  0  0
 16 33  1  0  0  0  0
 16 34  1  0  0  0  0
 17 18  1  0  0  0  0
 17 35  1  0  0  0  0
 17 36  1  0  0  0  0
M  CHG  2   2  -1   7   1
M  END
> <PUBCHEM_COMPOUND_CID>
131865667

> <PUBCHEM_CONFORMER_RMSD>
0.8

> <PUBCHEM_CONFORMER_DIVERSEORDER>
1
219
186
216
192
195
251
199
181
25
250
108
201
48
197
237
204
165
190
150
228
146
91
65
105
24
89
223
212
122
256
138
18
41
255
203
245
187
168
42
22
33
163
139
14
207
152
242
155
94
73
200
111
23
227
114
188
194
96
93
137
72
225
183
39
196
112
248
106
162
147
87
103
27
247
140
182
53
229
174
141
71
167
10
35
206
126
9
249
144
239
17
161
20
21
202
56
173
51
55
104
218
99
198
77
208
221
74
258
34
214
116
131
110
97
254
217
86
63
92
49
43
209
246
66
58
235
100
40
178
81
257
244
5
125
230
148
82
211
159
45
15
241
38
222
157
90
164
32
130
185
136
226
57
231
252
154
170
6
8
189
166
127
123
121
7
64
243
253
151
134
3
70
175
220
172
102
95
238
120
52
128
11
232
47
31
44
210
30
101
37
149
29
16
85
88
19
50
129
177
83
205
118
240
124
224
79
78
132
26
191
60
80
36
12
98
113
215
84
109
145
46
153
76
2
236
75
143
171
133
62
67
142
233
193
184
107
180
179
115
13
117
4
61
169
28
158
54
213
119
135
160
176
59
68
234
69
156

> <PUBCHEM_MMFF94_PARTIAL_CHARGES>
18
1 -0.43
10 0.5
11 0.5
12 0.5
13 0.91
14 0.06
15 0.66
17 0.06
18 0.66
2 -0.9
3 -0.9
37 0.5
4 -0.57
5 -0.65
6 -0.57
7 -1.01
8 0.5
9 0.17

> <PUBCHEM_EFFECTIVE_ROTOR_COUNT>
9

> <PUBCHEM_PHARMACOPHORE_FEATURES>
8
1 2 acceptor
1 3 acceptor
1 4 acceptor
1 5 acceptor
1 6 acceptor
1 7 cation
3 2 3 13 anion
3 5 6 18 anion

> <PUBCHEM_HEAVY_ATOM_COUNT>
18

> <PUBCHEM_ATOM_DEF_STEREO_COUNT>
0

> <PUBCHEM_ATOM_UDEF_STEREO_COUNT>
1

> <PUBCHEM_BOND_DEF_STEREO_COUNT>
0

> <PUBCHEM_BOND_UDEF_STEREO_COUNT>
0

> <PUBCHEM_ISOTOPIC_ATOM_COUNT>
0

> <PUBCHEM_COMPONENT_COUNT>
1

> <PUBCHEM_CACTVS_TAUTO_COUNT>
1

> <PUBCHEM_CONFORMER_ID>
07DC1C4300000001

> <PUBCHEM_MMFF94_ENERGY>
41.3593

> <PUBCHEM_FEATURE_SELFOVERLAP>
40.712

> <PUBCHEM_SHAPE_FINGERPRINT>
10912923 1 18131348592995692411
10980938 120 18410575080642593616
11823591 26 18262797505740650116
12616999 72 16917353627637594575
12644460 14 18341620291185626675
12730499 353 18334586762531507747
13167823 11 18343017753912654799
13533116 47 18262242123498232595
13760787 19 18201718487808048719
13955234 65 18409448055391321866
14528608 73 18201438116585237493
14774955 27 18262799686866689637
15375358 24 17458346359917455171
17834072 33 18341328972613319799
17844677 252 18189058608210591473
20157964 124 18408880720898250349
20369508 70 17968935262805260322
20559304 39 18272648996390718064
20645477 70 18410294670934102819
21054139 6 18128522963343449223
21618674 25 18334012830156696083
22289505 5 18261386707082424781
23532345 1 18409169917587907921
23557571 272 16226321517415255383
23559900 14 17749117664043242034
268830 7 18339923706701296305
3060560 45 18341900722907232148
31174 14 18115018598412088902
312423 11 18198917919906727217
4340502 62 18260831518361578875
449060 50 18187085070357998457
474 4 18335983185137984912
495365 180 18187366523422380514
4990 188 14620800400910064069
5104073 3 18334583408889861937
5281201 14 18262234405167708061
6025842 7 18341613694089732991
633830 44 18269838786304206620
7164475 11 18057607564387038553
7364860 26 18341334409931198606
81539 233 18334861644854673030
8272917 22 18412547587148913767
90127 26 18188216386556406569
9841814 1 18115866296139098930
9999458 23 18113621192664516518

> <PUBCHEM_SHAPE_MULTIPOLES>
330.23
11.51
2.47
1.13
20.71
1.1
-0.26
-5.46
0.04
-4.35
0.17
-0.29
0.11
-0.44

> <PUBCHEM_SHAPE_SELFOVERLAP>
637.383

> <PUBCHEM_SHAPE_VOLUME>
201.3

> <PUBCHEM_COORDINATE_TYPE>
2
5
10

$$$$
