REMARK  Name = 131866
REMARK  8 active torsions:
REMARK  status: ('A' for Active; 'I' for Inactive)
REMARK    1  A    between atoms: C_3  and  O_15
REMARK    2  A    between atoms: C_4  and  O_17
REMARK    3  A    between atoms: C_6  and  O_21
REMARK    4  A    between atoms: C_10  and  C_20
REMARK    5  A    between atoms: O_21  and  C_23
REMARK    6  A    between atoms: C_23  and  C_24
REMARK    7  A    between atoms: C_26  and  O_31
REMARK    8  A    between atoms: C_30  and  O_33
REMARK                            x       y       z     vdW  Elec       q    Type
REMARK                         _______ _______ _______ _____ _____    ______ ____
ROOT
ATOM      1  C   UNL     1       2.120  -0.962   0.860  0.00  0.00    +0.036 C 
ATOM      2  C   UNL     1       3.266   0.037   0.838  0.00  0.00    +0.031 C 
ATOM      3  C   UNL     1       1.268  -1.127  -0.429  0.00  0.00    +0.146 C 
ATOM      4  C   UNL     1       3.017   1.274  -0.051  0.00  0.00    +0.107 C 
ATOM      5  C   UNL     1       0.816  -0.556   1.599  0.00  0.00    +0.049 C 
ATOM      6  C   UNL     1       0.042  -1.319   0.506  0.00  0.00    +0.197 C 
ATOM      7  C   UNL     1       4.530  -0.597   0.254  0.00  0.00    +0.003 C 
ATOM      8  C   UNL     1       5.409   0.604  -0.115  0.00  0.00    +0.003 C 
ATOM      9  C   UNL     1       4.390   1.605  -0.697  0.00  0.00    +0.031 C 
ATOM     10  C   UNL     1       1.190   0.056  -1.319  0.00  0.00    +0.045 C 
ATOM     11  C   UNL     1       2.503  -2.376   1.389  0.00  0.00    +0.003 C 
ATOM     12  C   UNL     1       1.969   1.129  -1.129  0.00  0.00    +0.001 C 
ATOM     13  C   UNL     1       6.473   0.213  -1.145  0.00  0.00    +0.000 C 
ATOM     14  C   UNL     1       6.109   1.196   1.121  0.00  0.00    +0.000 C 
ENDROOT
BRANCH   3  15
ATOM     15  O   UNL     1       1.560  -2.317  -1.188  0.00  0.00    -0.379 OA
ATOM     16  H   UNL     1       1.607  -3.078  -0.589  0.00  0.00    +0.211 HD
ENDBRANCH   3  15
BRANCH   4  17
ATOM     17  O   UNL     1       2.626   2.355   0.798  0.00  0.00    -0.383 OA
ATOM     18  H   UNL     1       3.285   2.468   1.501  0.00  0.00    +0.211 HD
ENDBRANCH   4  17
BRANCH  10  20
ATOM     19  O   UNL     1      -0.504  -0.849  -2.691  0.00  0.00    -0.283 OA
ATOM     20  C   UNL     1       0.246   0.085  -2.440  0.00  0.00    +0.232 C 
ENDBRANCH  10  20
BRANCH   6  21
ATOM     21  O   UNL     1      -1.208  -0.717   0.082  0.00  0.00    -0.446 OA
BRANCH  21  23
ATOM     22  O   UNL     1      -2.103  -1.233   2.129  0.00  0.00    -0.245 OA
ATOM     23  C   UNL     1      -2.210  -0.745   1.008  0.00  0.00    +0.344 C 
BRANCH  23  24
ATOM     24  C   UNL     1      -3.445  -0.123   0.524  0.00  0.00    +0.105 C 
ATOM     25  C   UNL     1      -3.664   1.237   0.724  0.00  0.00    -0.010 C 
ATOM     26  C   UNL     1      -4.393  -0.902  -0.133  0.00  0.00    +0.143 C 
ATOM     27  C   UNL     1      -4.842   1.823   0.261  0.00  0.00    +0.033 C 
ATOM     28  C   UNL     1      -5.571  -0.315  -0.596  0.00  0.00    +0.073 C 
ATOM     29  C   UNL     1      -2.662   2.093   1.427  0.00  0.00    +0.031 C 
ATOM     30  C   UNL     1      -5.795   1.048  -0.399  0.00  0.00    +0.136 C 
BRANCH  26  31
ATOM     31  O   UNL     1      -4.194  -2.235  -0.337  0.00  0.00    -0.505 OA
ATOM     32  H   UNL     1      -3.408  -2.643  -0.032  0.00  0.00    +0.292 HD
ENDBRANCH  26  31
BRANCH  30  33
ATOM     33  O   UNL     1      -6.944   1.620  -0.851  0.00  0.00    -0.505 OA
ATOM     34  H   UNL     1      -7.095   2.535  -0.719  0.00  0.00    +0.292 HD
ENDBRANCH  30  33
ENDBRANCH  23  24
ENDBRANCH  21  23
ENDBRANCH   6  21
TORSDOF 8
