REMARK  Name = 131840
REMARK  10 active torsions:
REMARK  status: ('A' for Active; 'I' for Inactive)
REMARK    1  A    between atoms: C_4  and  C_23
REMARK    2  A    between atoms: C_10  and  O_19
REMARK    3  A    between atoms: C_17  and  O_21
REMARK    4  A    between atoms: C_23  and  O_24
REMARK    5  A    between atoms: C_23  and  C_26
REMARK    6  A    between atoms: C_26  and  C_27
REMARK    7  A    between atoms: C_28  and  C_29
REMARK    8  A    between atoms: C_28  and  C_32
REMARK    9  A    between atoms: C_29  and  O_30
REMARK   10  A    between atoms: C_32  and  O_33
REMARK                            x       y       z     vdW  Elec       q    Type
REMARK                         _______ _______ _______ _____ _____    ______ ____
ROOT
ATOM      1  O   UNL     1       0.376   2.053  -0.057  0.00  0.00    -0.479 OA
ATOM      2  O   UNL     1       2.827   2.277  -1.141  0.00  0.00    -0.287 OA
ATOM      3  O   UNL     1       4.060  -2.677   0.436  0.00  0.00    -0.283 OA
ATOM      4  C   UNL     1      -1.360   0.799   1.094  0.00  0.00    +0.086 C 
ATOM      5  C   UNL     1      -0.821   2.218   0.753  0.00  0.00    +0.172 C 
ATOM      6  C   UNL     1      -0.077   0.040   0.964  0.00  0.00    +0.051 C 
ATOM      7  C   UNL     1      -2.022   0.675   2.467  0.00  0.00    +0.011 C 
ATOM      8  C   UNL     1       0.856   0.808   0.275  0.00  0.00    +0.141 C 
ATOM      9  C   UNL     1      -0.449   3.108   1.940  0.00  0.00    +0.048 C 
ATOM     10  C   UNL     1       0.233  -1.246   1.374  0.00  0.00    +0.133 C 
ATOM     11  C   UNL     1       2.119   0.322  -0.039  0.00  0.00    +0.076 C 
ATOM     12  C   UNL     1       2.439  -0.972   0.376  0.00  0.00    +0.051 C 
ATOM     13  C   UNL     1       1.501  -1.751   1.082  0.00  0.00    +0.040 C 
ATOM     14  C   UNL     1       3.101   1.138  -0.778  0.00  0.00    +0.198 C 
ATOM     15  C   UNL     1       3.764  -1.542   0.079  0.00  0.00    +0.229 C 
ATOM     16  C   UNL     1       4.437   0.541  -1.070  0.00  0.00    +0.054 C 
ATOM     17  C   UNL     1       4.735  -0.703  -0.668  0.00  0.00    +0.176 C 
ATOM     18  C   UNL     1       5.391   1.422  -1.827  0.00  0.00    +0.038 C 
ENDROOT
BRANCH  10  19
ATOM     19  O   UNL     1      -0.664  -2.030   2.026  0.00  0.00    -0.506 OA
ATOM     20  H   UNL     1      -1.517  -1.698   2.227  0.00  0.00    +0.292 HD
ENDBRANCH  10  19
BRANCH  17  21
ATOM     21  O   UNL     1       5.970  -1.264  -0.935  0.00  0.00    -0.468 OA
ATOM     22  C   UNL     1       6.880  -0.987   0.110  0.00  0.00    +0.253 C 
ENDBRANCH  17  21
BRANCH   4  23
ATOM     23  C   UNL     1      -2.341   0.326   0.006  0.00  0.00    +0.122 C 
BRANCH  23  24
ATOM     24  O   UNL     1      -1.722   0.529  -1.257  0.00  0.00    -0.384 OA
ATOM     25  H   UNL     1      -0.897   0.021  -1.299  0.00  0.00    +0.210 HD
ENDBRANCH  23  24
BRANCH  23  26
ATOM     26  C   UNL     1      -3.638   1.126   0.070  0.00  0.00    +0.055 C 
BRANCH  26  27
ATOM     27  C   UNL     1      -4.596   0.689  -1.006  0.00  0.00    -0.027 C 
ATOM     28  C   UNL     1      -5.533  -0.278  -0.944  0.00  0.00    +0.010 C 
BRANCH  28  29
ATOM     29  C   UNL     1      -6.454  -0.651  -2.075  0.00  0.00    +0.161 C 
BRANCH  29  30
ATOM     30  O   UNL     1      -6.261  -2.019  -2.409  0.00  0.00    -0.377 OA
ATOM     31  H   UNL     1      -6.853  -2.261  -3.138  0.00  0.00    +0.211 HD
ENDBRANCH  29  30
ENDBRANCH  28  29
BRANCH  28  32
ATOM     32  C   UNL     1      -5.713  -1.064   0.334  0.00  0.00    +0.161 C 
BRANCH  32  33
ATOM     33  O   UNL     1      -7.038  -0.889   0.819  0.00  0.00    -0.377 OA
ATOM     34  H   UNL     1      -7.152  -1.394   1.639  0.00  0.00    +0.211 HD
ENDBRANCH  32  33
ENDBRANCH  28  32
ENDBRANCH  26  27
ENDBRANCH  23  26
ENDBRANCH   4  23
TORSDOF 10
