REMARK  Name = 131866044
REMARK  6 active torsions:
REMARK  status: ('A' for Active; 'I' for Inactive)
REMARK    1  A    between atoms: C_2  and  C_13
REMARK    2  A    between atoms: C_6  and  C_12
REMARK    3  A    between atoms: C_13  and  CA_14
REMARK    4  A    between atoms: CA_14  and  N_15
REMARK    5  A    between atoms: CA_14  and  C_20
REMARK    6  A    between atoms: C_20  and  O_21
REMARK                            x       y       z     vdW  Elec       q    Type
REMARK                         _______ _______ _______ _____ _____    ______ ____
ROOT
ATOM      1  N   UNL     1      -1.911  -2.283   0.291  0.00  0.00    -0.312 N 
ATOM      2  C   UNL     1      -0.127  -0.989   0.552  0.00  0.00    -0.007 C 
ATOM      3  C   UNL     1      -1.227  -0.161   0.192  0.00  0.00    +0.020 C 
ATOM      4  C   UNL     1      -2.334  -0.998   0.035  0.00  0.00    +0.049 C 
ATOM      5  C   UNL     1      -0.579  -2.287   0.605  0.00  0.00    +0.058 C 
ATOM      6  C   UNL     1      -1.388   1.223  -0.015  0.00  0.00    +0.069 C 
ATOM      7  C   UNL     1      -3.600  -0.517  -0.322  0.00  0.00    +0.015 C 
ATOM      8  C   UNL     1      -2.648   1.718  -0.372  0.00  0.00    +0.010 C 
ATOM      9  C   UNL     1      -3.735   0.859  -0.522  0.00  0.00    +0.002 C 
ATOM     10  H   UNL     1      -2.484  -3.082   0.255  0.00  0.00    +0.152 HD
ENDROOT
BRANCH   6  12
ATOM     11  N   UNL     1       0.633   2.811   0.267  0.00  0.00    -0.191 NA
ATOM     12  C   UNL     1      -0.274   2.098   0.140  0.00  0.00    +0.100 C 
ENDBRANCH   6  12
BRANCH   2  13
ATOM     13  C   UNL     1       1.262  -0.566   0.826  0.00  0.00    +0.017 C 
BRANCH  13  14
ATOM     14  CA  UNL     1       2.101  -0.291  -0.448  0.00  0.00    +0.040 C 
BRANCH  14  15
ATOM     15  N   UNL     1       2.193  -1.489  -1.280  0.00  0.00    +0.389 N 
ATOM     16  H1  UNL     1       1.255  -1.798  -1.536  0.00  0.00    -0.088 HD
ATOM     17  H2  UNL     1       2.665  -2.229  -0.760  0.00  0.00    -0.088 HD
ATOM     18  H3  UNL     1       2.723  -1.276  -2.125  0.00  0.00    -0.088 HD
ENDBRANCH  14  15
BRANCH  14  20
ATOM     19  OXT UNL     1       4.528  -0.502  -0.452  0.00  0.00    -0.253 OA
ATOM     20  C   UNL     1       3.526   0.111  -0.107  0.00  0.00    +0.293 C 
BRANCH  20  21
ATOM     21  O   UNL     1       3.580   1.264   0.609  0.00  0.00    -0.482 OA
ATOM     22  H   UNL     1       2.788   1.701   0.853  0.00  0.00    +0.295 HD
ENDBRANCH  20  21
ENDBRANCH  14  20
ENDBRANCH  13  14
ENDBRANCH   2  13
TORSDOF 6
