131890
  -OEChem-03292013323D

 80 81  0     1  0  0  0  0  0999 V2000
   -2.1592   -0.3218    0.5486 O   0  0  0  0  0  0  0  0  0  0  0  0
   -3.3286    0.7096   -1.2399 O   0  0  0  0  0  0  0  0  0  0  0  0
   -4.9228   -1.7720   -1.3425 O   0  0  0  0  0  0  0  0  0  0  0  0
   -6.2740    0.8003   -1.1892 O   0  0  0  0  0  0  0  0  0  0  0  0
    4.0698    1.9937   -1.6432 O   0  0  0  0  0  0  0  0  0  0  0  0
   -6.4475   -1.0709    0.9578 N   0  0  0  0  0  0  0  0  0  0  0  0
    2.9604    2.1477    0.3889 N   0  0  0  0  0  0  0  0  0  0  0  0
   -0.7795   -0.2885    0.1837 C   0  0  1  0  0  0  0  0  0  0  0  0
   -0.0053    0.6357    1.1667 C   0  0  1  0  0  0  0  0  0  0  0  0
   -0.2280   -1.7241    0.1665 C   0  0  0  0  0  0  0  0  0  0  0  0
    2.0764   -2.8411   -0.0693 C   0  0  2  0  0  0  0  0  0  0  0  0
    1.0769   -1.8178   -0.6370 C   0  0  0  0  0  0  0  0  0  0  0  0
   -2.9919   -0.5211   -0.5894 C   0  0  2  0  0  0  0  0  0  0  0  0
   -0.2090    2.1241    0.8101 C   0  0  0  0  0  0  0  0  0  0  0  0
   -4.2559   -1.2866   -0.1772 C   0  0  1  0  0  0  0  0  0  0  0  0
   -5.1910   -0.3883    0.6500 C   0  0  1  0  0  0  0  0  0  0  0  0
    3.4312   -2.8076   -0.8100 C   0  0  0  0  0  0  0  0  0  0  0  0
   -0.4225    0.4100    2.6276 C   0  0  0  0  0  0  0  0  0  0  0  0
   -5.4447    0.9617   -0.0394 C   0  0  1  0  0  0  0  0  0  0  0  0
   -4.1057    1.6049   -0.4344 C   0  0  2  0  0  0  0  0  0  0  0  0
    1.5078   -4.2639   -0.1165 C   0  0  0  0  0  0  0  0  0  0  0  0
    0.6272    2.5966   -0.3917 C   0  0  0  0  0  0  0  0  0  0  0  0
    4.1020   -1.4330   -0.9547 C   0  0  0  0  0  0  0  0  0  0  0  0
    4.3107   -0.6939    0.3736 C   0  0  0  0  0  0  0  0  0  0  0  0
    4.9218    0.7127    0.2308 C   0  0  2  0  0  0  0  0  0  0  0  0
    1.9971    3.1608   -0.0057 C   0  0  0  0  0  0  0  0  0  0  0  0
    0.3837    1.2811    3.5682 C   0  0  0  0  0  0  0  0  0  0  0  0
   -4.2919    2.8894   -1.2345 C   0  0  0  0  0  0  0  0  0  0  0  0
    2.4314   -5.2460    0.5737 C   0  0  0  0  0  0  0  0  0  0  0  0
    3.9544    1.6788   -0.4602 C   0  0  0  0  0  0  0  0  0  0  0  0
    6.2779    0.7006   -0.4736 C   0  0  0  0  0  0  0  0  0  0  0  0
    6.9285    2.0687   -0.4377 C   0  0  0  0  0  0  0  0  0  0  0  0
   -0.6850    0.1285   -0.8273 H   0  0  0  0  0  0  0  0  0  0  0  0
    1.0633    0.4139    1.0913 H   0  0  0  0  0  0  0  0  0  0  0  0
   -0.9597   -2.4186   -0.2631 H   0  0  0  0  0  0  0  0  0  0  0  0
   -0.0792   -2.0677    1.1962 H   0  0  0  0  0  0  0  0  0  0  0  0
    2.2580   -2.5833    0.9824 H   0  0  0  0  0  0  0  0  0  0  0  0
    0.8370   -2.0682   -1.6785 H   0  0  0  0  0  0  0  0  0  0  0  0
    1.5474   -0.8319   -0.6711 H   0  0  0  0  0  0  0  0  0  0  0  0
   -2.4783   -1.1271   -1.3462 H   0  0  0  0  0  0  0  0  0  0  0  0
   -1.2669    2.2816    0.5705 H   0  0  0  0  0  0  0  0  0  0  0  0
    0.0012    2.8041    1.6372 H   0  0  0  0  0  0  0  0  0  0  0  0
   -3.9751   -2.1632    0.4190 H   0  0  0  0  0  0  0  0  0  0  0  0
   -4.6895   -0.1796    1.6047 H   0  0  0  0  0  0  0  0  0  0  0  0
    3.3072   -3.2284   -1.8163 H   0  0  0  0  0  0  0  0  0  0  0  0
    4.1500   -3.4512   -0.2898 H   0  0  0  0  0  0  0  0  0  0  0  0
   -1.4882    0.6177    2.7778 H   0  0  0  0  0  0  0  0  0  0  0  0
   -0.2587   -0.6381    2.9008 H   0  0  0  0  0  0  0  0  0  0  0  0
   -5.9814    1.6251    0.6507 H   0  0  0  0  0  0  0  0  0  0  0  0
   -3.5400    1.8456    0.4733 H   0  0  0  0  0  0  0  0  0  0  0  0
    1.3335   -4.5812   -1.1514 H   0  0  0  0  0  0  0  0  0  0  0  0
    0.5384   -4.2989    0.3930 H   0  0  0  0  0  0  0  0  0  0  0  0
    0.0699    3.4097   -0.8748 H   0  0  0  0  0  0  0  0  0  0  0  0
    0.7400    1.8063   -1.1411 H   0  0  0  0  0  0  0  0  0  0  0  0
    3.5211   -0.8151   -1.6479 H   0  0  0  0  0  0  0  0  0  0  0  0
    5.0728   -1.5956   -1.4376 H   0  0  0  0  0  0  0  0  0  0  0  0
    3.3576   -0.6021    0.9044 H   0  0  0  0  0  0  0  0  0  0  0  0
    4.9630   -1.3008    1.0142 H   0  0  0  0  0  0  0  0  0  0  0  0
    5.0812    1.0937    1.2499 H   0  0  0  0  0  0  0  0  0  0  0  0
    1.9079    3.8646    0.8286 H   0  0  0  0  0  0  0  0  0  0  0  0
    2.4062    3.7162   -0.8571 H   0  0  0  0  0  0  0  0  0  0  0  0
    0.2990    0.8882    4.5879 H   0  0  0  0  0  0  0  0  0  0  0  0
    0.0147    2.3093    3.6120 H   0  0  0  0  0  0  0  0  0  0  0  0
    1.4475    1.2911    3.3106 H   0  0  0  0  0  0  0  0  0  0  0  0
   -4.7236    2.6926   -2.2216 H   0  0  0  0  0  0  0  0  0  0  0  0
   -3.3188    3.3597   -1.4164 H   0  0  0  0  0  0  0  0  0  0  0  0
   -4.9257    3.6040   -0.7011 H   0  0  0  0  0  0  0  0  0  0  0  0
   -7.0170   -0.4837    1.5655 H   0  0  0  0  0  0  0  0  0  0  0  0
   -6.2549   -1.9255    1.4784 H   0  0  0  0  0  0  0  0  0  0  0  0
    2.7248   -4.8960    1.5685 H   0  0  0  0  0  0  0  0  0  0  0  0
    3.3339   -5.4454   -0.0113 H   0  0  0  0  0  0  0  0  0  0  0  0
    1.9205   -6.2070    0.6985 H   0  0  0  0  0  0  0  0  0  0  0  0
   -5.1291   -1.0077   -1.9071 H   0  0  0  0  0  0  0  0  0  0  0  0
    6.1824    0.3911   -1.5205 H   0  0  0  0  0  0  0  0  0  0  0  0
    6.9412   -0.0212    0.0178 H   0  0  0  0  0  0  0  0  0  0  0  0
    2.9311    1.8191    1.3493 H   0  0  0  0  0  0  0  0  0  0  0  0
   -6.5972    1.6795   -1.4483 H   0  0  0  0  0  0  0  0  0  0  0  0
    7.9339    2.0121   -0.8686 H   0  0  0  0  0  0  0  0  0  0  0  0
    7.0303    2.4312    0.5906 H   0  0  0  0  0  0  0  0  0  0  0  0
    6.3746    2.8169   -1.0109 H   0  0  0  0  0  0  0  0  0  0  0  0
  1  8  1  0  0  0  0
  1 13  1  0  0  0  0
  2 13  1  0  0  0  0
  2 20  1  0  0  0  0
  3 15  1  0  0  0  0
  3 73  1  0  0  0  0
  4 19  1  0  0  0  0
  4 77  1  0  0  0  0
  5 30  2  0  0  0  0
  6 16  1  0  0  0  0
  6 68  1  0  0  0  0
  6 69  1  0  0  0  0
  7 26  1  0  0  0  0
  7 30  1  0  0  0  0
  7 76  1  0  0  0  0
  8  9  1  0  0  0  0
  8 10  1  0  0  0  0
  8 33  1  0  0  0  0
  9 14  1  0  0  0  0
  9 18  1  0  0  0  0
  9 34  1  0  0  0  0
 10 12  1  0  0  0  0
 10 35  1  0  0  0  0
 10 36  1  0  0  0  0
 11 12  1  0  0  0  0
 11 17  1  0  0  0  0
 11 21  1  0  0  0  0
 11 37  1  0  0  0  0
 12 38  1  0  0  0  0
 12 39  1  0  0  0  0
 13 15  1  0  0  0  0
 13 40  1  0  0  0  0
 14 22  1  0  0  0  0
 14 41  1  0  0  0  0
 14 42  1  0  0  0  0
 15 16  1  0  0  0  0
 15 43  1  0  0  0  0
 16 19  1  0  0  0  0
 16 44  1  0  0  0  0
 17 23  1  0  0  0  0
 17 45  1  0  0  0  0
 17 46  1  0  0  0  0
 18 27  1  0  0  0  0
 18 47  1  0  0  0  0
 18 48  1  0  0  0  0
 19 20  1  0  0  0  0
 19 49  1  0  0  0  0
 20 28  1  0  0  0  0
 20 50  1  0  0  0  0
 21 29  1  0  0  0  0
 21 51  1  0  0  0  0
 21 52  1  0  0  0  0
 22 26  1  0  0  0  0
 22 53  1  0  0  0  0
 22 54  1  0  0  0  0
 23 24  1  0  0  0  0
 23 55  1  0  0  0  0
 23 56  1  0  0  0  0
 24 25  1  0  0  0  0
 24 57  1  0  0  0  0
 24 58  1  0  0  0  0
 25 30  1  0  0  0  0
 25 31  1  0  0  0  0
 25 59  1  0  0  0  0
 26 60  1  0  0  0  0
 26 61  1  0  0  0  0
 27 62  1  0  0  0  0
 27 63  1  0  0  0  0
 27 64  1  0  0  0  0
 28 65  1  0  0  0  0
 28 66  1  0  0  0  0
 28 67  1  0  0  0  0
 29 70  1  0  0  0  0
 29 71  1  0  0  0  0
 29 72  1  0  0  0  0
 31 32  1  0  0  0  0
 31 74  1  0  0  0  0
 31 75  1  0  0  0  0
 32 78  1  0  0  0  0
 32 79  1  0  0  0  0
 32 80  1  0  0  0  0
M  END
> <PUBCHEM_COMPOUND_CID>
131890

> <PUBCHEM_CONFORMER_RMSD>
1

> <PUBCHEM_CONFORMER_DIVERSEORDER>
2
3
116
90
120
74
115
69
125
129
131
97
124
48
49
89
62
108
135
24
63
127
128
65
4
133
66
22
92
32
88
26
9
50
81
98
46
72
91
117
28
61
130
58
87
137
60
43
41
83
8
82
52
113
71
54
29
107
68
114
30
132
21
73
35
34
105
27
11
78
45
122
5
76
101
100
102
31
99
70
20
134
106
10
121
18
103
79
38
36
119
86
93
118
123
55
16
44
7
13
12
111
67
25
94
37
110
96
64
80
84
112
95
57
75
14
40
15
85
1
19
109
104
53
126
33
136
56
77
17
51
23
47
42
6
59
39

> <PUBCHEM_MMFF94_PARTIAL_CHARGES>
21
1 -0.56
13 0.56
15 0.28
16 0.27
19 0.28
2 -0.56
20 0.28
25 0.06
26 0.3
3 -0.68
30 0.57
4 -0.68
5 -0.57
6 -0.99
68 0.36
69 0.36
7 -0.73
73 0.4
76 0.37
77 0.4
8 0.28

> <PUBCHEM_EFFECTIVE_ROTOR_COUNT>
8.8

> <PUBCHEM_PHARMACOPHORE_FEATURES>
14
1 1 acceptor
1 2 acceptor
1 27 hydrophobe
1 29 hydrophobe
1 3 acceptor
1 3 donor
1 32 hydrophobe
1 4 acceptor
1 4 donor
1 5 acceptor
1 6 cation
1 6 donor
1 7 donor
6 2 13 15 16 19 20 rings

> <PUBCHEM_HEAVY_ATOM_COUNT>
32

> <PUBCHEM_ATOM_DEF_STEREO_COUNT>
9

> <PUBCHEM_ATOM_UDEF_STEREO_COUNT>
0

> <PUBCHEM_BOND_DEF_STEREO_COUNT>
0

> <PUBCHEM_BOND_UDEF_STEREO_COUNT>
0

> <PUBCHEM_ISOTOPIC_ATOM_COUNT>
0

> <PUBCHEM_COMPONENT_COUNT>
1

> <PUBCHEM_CACTVS_TAUTO_COUNT>
2

> <PUBCHEM_CONFORMER_ID>
0002033200000002

> <PUBCHEM_MMFF94_ENERGY>
67.3053

> <PUBCHEM_FEATURE_SELFOVERLAP>
71.095

> <PUBCHEM_SHAPE_FINGERPRINT>
10090160 65 18411134745125888350
10675989 125 18272934951056041072
11135609 187 18340771528671160000
11578080 2 16010408194808566685
12788726 201 17203053975936443424
12838862 33 18341036515695773248
13402501 40 18335138700484356532
1361 2 18409450310660140616
13636023 20 18343294856005717518
14028597 1 17774461433165254985
14117953 113 18410014339025186052
14251757 17 18263078825560389717
14840074 17 17561365067179421429
14931854 50 17988374736660179812
15183329 4 18411415133159290565
15297060 5 16487260992932772806
15328829 1 17416711118922952971
16728300 4 17534312602509096634
19319366 153 18343295955365293646
20775438 99 17470689279661113452
2132832 1 17840301117297766466
23559900 14 18050560751214755042
244849 19 17678202415679206115
3298306 158 18340767134428680798
4058900 60 18261120664513837610
463206 1 18199748209957102222
5265222 85 18264775544239012644
59755656 215 18408882949675398133
6669772 16 17343764148405465584

> <PUBCHEM_SHAPE_MULTIPOLES>
619.24
14.51
4.79
1.72
6.15
5.11
1.73
-4.3
-4.88
-5.12
-0.38
0.53
-0.82
0.23

> <PUBCHEM_SHAPE_SELFOVERLAP>
1219.257

> <PUBCHEM_SHAPE_VOLUME>
365.2

> <PUBCHEM_COORDINATE_TYPE>
2
5
10

$$$$
