REMARK  Name = 131830
REMARK  8 active torsions:
REMARK  status: ('A' for Active; 'I' for Inactive)
REMARK    1  A    between atoms: N_1  and  C1*_11
REMARK    2  A    between atoms: C_5  and  C_25
REMARK    3  A    between atoms: C2*_12  and  O2*_15
REMARK    4  A    between atoms: C3*_13  and  O3*_17
REMARK    5  A    between atoms: C4*_14  and  C5*_19
REMARK    6  A    between atoms: C5*_19  and  O5*_20
REMARK    7  A    between atoms: C_25  and  C_26
REMARK    8  A    between atoms: C_26  and  O_28
REMARK                            x       y       z     vdW  Elec       q    Type
REMARK                         _______ _______ _______ _____ _____    ______ ____
ROOT
ATOM      1  N   UNL     1      -0.363   0.244  -0.171  0.00  0.00    -0.224 N 
ATOM      2  N   UNL     1      -2.583   0.403  -0.399  0.00  0.00    -0.385 NA
ATOM      3  N   UNL     1      -0.171  -2.135   0.285  0.00  0.00    -0.227 NA
ATOM      4  N   UNL     1      -2.355  -3.224   0.289  0.00  0.00    -0.227 NA
ATOM      5  C   UNL     1      -1.442   1.060  -0.416  0.00  0.00    +0.169 C 
ATOM      6  C   UNL     1      -0.863  -1.018   0.017  0.00  0.00    +0.169 C 
ATOM      7  C   UNL     1      -2.236  -0.897  -0.129  0.00  0.00    +0.195 C 
ATOM      8  C   UNL     1      -2.989  -2.058   0.017  0.00  0.00    +0.155 C 
ATOM      9  C   UNL     1      -1.006  -3.191   0.404  0.00  0.00    +0.253 C 
ATOM     10  N   UNL     1      -4.388  -2.027  -0.115  0.00  0.00    -0.341 N 
ATOM     11  H   UNL     1      -4.910  -2.855  -0.010  0.00  0.00    +0.144 HD
ATOM     12  H   UNL     1      -4.846  -1.178  -0.312  0.00  0.00    +0.144 HD
ENDROOT
BRANCH   1  14
ATOM     13  O4* UNL     1       1.748  -0.142   0.873  0.00  0.00    -0.333 OA
ATOM     14  C1* UNL     1       1.040   0.637  -0.117  0.00  0.00    +0.229 C 
ATOM     15  C2* UNL     1       1.818   0.497  -1.423  0.00  0.00    +0.187 C 
ATOM     16  C3* UNL     1       3.232   0.419  -0.882  0.00  0.00    +0.171 C 
ATOM     17  C4* UNL     1       3.045  -0.471   0.340  0.00  0.00    +0.175 C 
BRANCH  15  18
ATOM     18  O2* UNL     1       1.482  -0.721  -2.082  0.00  0.00    -0.378 OA
ATOM     19  H2* UNL     1       0.576  -0.663  -2.425  0.00  0.00    +0.211 HD
ENDBRANCH  15  18
BRANCH  16  20
ATOM     20  O3* UNL     1       4.153  -0.129  -1.800  0.00  0.00    -0.379 OA
ATOM     21  H3* UNL     1       4.244   0.465  -2.562  0.00  0.00    +0.211 HD
ENDBRANCH  16  20
BRANCH  17  22
ATOM     22  C5* UNL     1       4.104  -0.257   1.406  0.00  0.00    +0.169 C 
BRANCH  22  23
ATOM     23  O5* UNL     1       3.835  -1.121   2.498  0.00  0.00    -0.379 OA
ATOM     24  H5* UNL     1       4.507  -0.991   3.186  0.00  0.00    +0.211 HD
ENDBRANCH  22  23
ENDBRANCH  17  22
ENDBRANCH   1  14
BRANCH   5  25
ATOM     25  C   UNL     1      -1.281   2.507  -0.667  0.00  0.00    +0.104 C 
BRANCH  25  26
ATOM     26  C   UNL     1      -1.340   3.362   0.620  0.00  0.00    +0.119 C 
ATOM     27  C   UNL     1      -0.744   4.750   0.423  0.00  0.00    +0.032 C 
BRANCH  26  28
ATOM     28  O   UNL     1      -2.697   3.509   1.031  0.00  0.00    -0.384 OA
ATOM     29  H   UNL     1      -3.093   2.633   1.161  0.00  0.00    +0.210 HD
ENDBRANCH  26  28
ENDBRANCH  25  26
ENDBRANCH   5  25
TORSDOF 8
