REMARK  Name = 131869
REMARK  6 active torsions:
REMARK  status: ('A' for Active; 'I' for Inactive)
REMARK    1  A    between atoms: C_4  and  C_7
REMARK    2  A    between atoms: C_5  and  S_14
REMARK    3  A    between atoms: C_8  and  N_13
REMARK    4  A    between atoms: S_14  and  C_15
REMARK    5  A    between atoms: C_15  and  C_18
REMARK    6  A    between atoms: N_17  and  N_20
REMARK                            x       y       z     vdW  Elec       q    Type
REMARK                         _______ _______ _______ _____ _____    ______ ____
ROOT
ATOM      1  O   UNL     1      -0.119   0.073  -0.417  0.00  0.00    -0.408 OA
ATOM      2  N   UNL     1       1.187  -1.022  -1.865  0.00  0.00    -0.103 NA
ATOM      3  N   UNL     1      -0.107  -1.480  -2.027  0.00  0.00    -0.101 NA
ATOM      4  C   UNL     1       1.133  -0.118  -0.915  0.00  0.00    +0.287 A 
ATOM      5  C   UNL     1      -0.783  -0.807  -1.167  0.00  0.00    +0.279 A 
ENDROOT
BRANCH   4   7
ATOM      6  O   UNL     1       2.647   1.773  -1.012  0.00  0.00    -0.444 OA
ATOM      7  C   UNL     1       2.267   0.593  -0.451  0.00  0.00    +0.222 C 
ATOM      8  C   UNL     1       3.127   0.252   0.572  0.00  0.00    +0.185 C 
ATOM      9  C   UNL     1       4.091   1.286   0.640  0.00  0.00    +0.068 C 
ATOM     10  C   UNL     1       3.756   2.187  -0.344  0.00  0.00    +0.182 C 
BRANCH   8  13
ATOM     11  O   UNL     1       3.902  -1.088   2.280  0.00  0.00    -0.126 OA
ATOM     12  O   UNL     1       2.113  -1.727   1.180  0.00  0.00    -0.126 OA
ATOM     13  N   UNL     1       3.044  -0.900   1.376  0.00  0.00    +0.061 N 
ENDBRANCH   8  13
ENDBRANCH   4   7
BRANCH   5  14
ATOM     14  S   UNL     1      -2.549  -1.032  -0.970  0.00  0.00    -0.045 S 
BRANCH  14  15
ATOM     15  C   UNL     1      -2.924   0.152   0.344  0.00  0.00    +0.153 C 
BRANCH  15  18
ATOM     16  O   UNL     1      -4.949  -0.944   1.015  0.00  0.00    -0.273 OA
ATOM     17  N   UNL     1      -5.036   1.308   0.446  0.00  0.00    -0.252 N 
ATOM     18  C   UNL     1      -4.403   0.095   0.645  0.00  0.00    +0.247 C 
ATOM     19  H   UNL     1      -4.525   2.096   0.148  0.00  0.00    +0.169 HD
BRANCH  17  20
ATOM     20  N   UNL     1      -6.394   1.399   0.670  0.00  0.00    -0.254 NA
ATOM     21  H   UNL     1      -6.751   0.492   0.971  0.00  0.00    +0.140 HD
ATOM     22  H   UNL     1      -6.864   1.680  -0.191  0.00  0.00    +0.140 HD
ENDBRANCH  17  20
ENDBRANCH  15  18
ENDBRANCH  14  15
ENDBRANCH   5  14
TORSDOF 6
