REMARK  Name = 131890
REMARK  8 active torsions:
REMARK  status: ('A' for Active; 'I' for Inactive)
REMARK    1  A    between atoms: C_3  and  O_23
REMARK    2  A    between atoms: C_4  and  C_17
REMARK    3  A    between atoms: C_6  and  C_19
REMARK    4  A    between atoms: C_13  and  C_21
REMARK    5  A    between atoms: O_23  and  C_25
REMARK    6  A    between atoms: C_26  and  O_35
REMARK    7  A    between atoms: C_27  and  N_31
REMARK    8  A    between atoms: C_28  and  O_37
REMARK                            x       y       z     vdW  Elec       q    Type
REMARK                         _______ _______ _______ _____ _____    ______ ____
ROOT
ATOM      1  O   UNL     1       4.070   1.994  -1.643  0.00  0.00    -0.275 OA
ATOM      2  N   UNL     1       2.960   2.148   0.389  0.00  0.00    -0.304 N 
ATOM      3  C   UNL     1      -0.779  -0.288   0.184  0.00  0.00    +0.118 C 
ATOM      4  C   UNL     1      -0.005   0.636   1.167  0.00  0.00    +0.027 C 
ATOM      5  C   UNL     1      -0.228  -1.724   0.167  0.00  0.00    +0.030 C 
ATOM      6  C   UNL     1       2.076  -2.841  -0.069  0.00  0.00    +0.000 C 
ATOM      7  C   UNL     1       1.077  -1.818  -0.637  0.00  0.00    +0.002 C 
ATOM      8  C   UNL     1      -0.209   2.124   0.810  0.00  0.00    +0.004 C 
ATOM      9  C   UNL     1       3.431  -2.808  -0.810  0.00  0.00    +0.000 C 
ATOM     10  C   UNL     1       0.627   2.597  -0.392  0.00  0.00    +0.021 C 
ATOM     11  C   UNL     1       4.102  -1.433  -0.955  0.00  0.00    +0.000 C 
ATOM     12  C   UNL     1       4.311  -0.694   0.374  0.00  0.00    +0.009 C 
ATOM     13  C   UNL     1       4.922   0.713   0.231  0.00  0.00    +0.076 C 
ATOM     14  C   UNL     1       1.997   3.161  -0.006  0.00  0.00    +0.089 C 
ATOM     15  C   UNL     1       3.954   1.679  -0.460  0.00  0.00    +0.222 C 
ATOM     16  H   UNL     1       2.906   1.777   1.299  0.00  0.00    +0.149 HD
ENDROOT
BRANCH   4  17
ATOM     17  C   UNL     1      -0.422   0.410   2.628  0.00  0.00    +0.002 C 
ATOM     18  C   UNL     1       0.384   1.281   3.568  0.00  0.00    +0.000 C 
ENDBRANCH   4  17
BRANCH   6  19
ATOM     19  C   UNL     1       1.508  -4.264  -0.117  0.00  0.00    +0.000 C 
ATOM     20  C   UNL     1       2.431  -5.246   0.574  0.00  0.00    +0.000 C 
ENDBRANCH   6  19
BRANCH  13  21
ATOM     21  C   UNL     1       6.278   0.701  -0.474  0.00  0.00    +0.009 C 
ATOM     22  C   UNL     1       6.928   2.069  -0.438  0.00  0.00    +0.001 C 
ENDBRANCH  13  21
BRANCH   3  23
ATOM     23  O   UNL     1      -2.159  -0.322   0.549  0.00  0.00    -0.331 OA
BRANCH  23  25
ATOM     24  O   UNL     1      -3.329   0.710  -1.240  0.00  0.00    -0.329 OA
ATOM     25  C   UNL     1      -2.992  -0.521  -0.589  0.00  0.00    +0.261 C 
ATOM     26  C   UNL     1      -4.256  -1.287  -0.177  0.00  0.00    +0.149 C 
ATOM     27  C   UNL     1      -5.191  -0.388   0.650  0.00  0.00    -0.003 C 
ATOM     28  C   UNL     1      -5.445   0.962  -0.039  0.00  0.00    +0.120 C 
ATOM     29  C   UNL     1      -4.106   1.605  -0.434  0.00  0.00    +0.143 C 
ATOM     30  C   UNL     1      -4.292   2.889  -1.234  0.00  0.00    +0.035 C 
BRANCH  27  31
ATOM     31  N   UNL     1      -6.447  -1.071   0.958  0.00  0.00    +0.385 N 
ATOM     32  H   UNL     1      -6.248  -1.961   1.413  0.00  0.00    -0.089 HD
ATOM     33  H   UNL     1      -6.964  -1.239   0.094  0.00  0.00    -0.089 HD
ATOM     34  H   UNL     1      -7.007  -0.488   1.580  0.00  0.00    -0.089 HD
ENDBRANCH  27  31
BRANCH  26  35
ATOM     35  O   UNL     1      -4.923  -1.772  -1.343  0.00  0.00    -0.381 OA
ATOM     36  H   UNL     1      -4.318  -2.335  -1.850  0.00  0.00    +0.210 HD
ENDBRANCH  26  35
BRANCH  28  37
ATOM     37  O   UNL     1      -6.274   0.800  -1.189  0.00  0.00    -0.384 OA
ATOM     38  H   UNL     1      -7.115   0.394  -0.927  0.00  0.00    +0.210 HD
ENDBRANCH  28  37
ENDBRANCH  23  25
ENDBRANCH   3  23
TORSDOF 8
