REMARK  Name = 131826
REMARK  12 active torsions:
REMARK  status: ('A' for Active; 'I' for Inactive)
REMARK    1  A    between atoms: CA_1  and  C_4
REMARK    2  A    between atoms: CA_1  and  N_15
REMARK    3  A    between atoms: CA_1  and  C_19
REMARK    4  A    between atoms: N_3  and  CA_6
REMARK    5  A    between atoms: CA_6  and  C_8
REMARK    6  A    between atoms: CA_6  and  CB_11
REMARK    7  A    between atoms: C_8  and  O_9
REMARK    8  A    between atoms: CB_11  and  CG_12
REMARK    9  A    between atoms: C_19  and  C_20
REMARK   10  A    between atoms: C_23  and  C_27
REMARK   11  A    between atoms: C_27  and  C_28
REMARK   12  A    between atoms: C_28  and  C_31
REMARK                            x       y       z     vdW  Elec       q    Type
REMARK                         _______ _______ _______ _____ _____    ______ ____
ROOT
ATOM      1  CA  UNL     1      -2.325   2.378  -1.132  0.00  0.00    +0.017 C 
ENDROOT
BRANCH   1   4
ATOM      2  O   UNL     1      -4.014   1.746   0.487  0.00  0.00    -0.277 OA
ATOM      3  N   UNL     1      -2.317   0.237   0.014  0.00  0.00    -0.298 N 
ATOM      4  C   ACE A   1      -2.995   1.441  -0.131  0.00  0.00    +0.203 C 
ATOM      5  H   UNL     1      -1.508   0.080  -0.524  0.00  0.00    +0.150 HD
BRANCH   3   6
ATOM      6  CA  UNL     1      -2.757  -0.788   0.924  0.00  0.00    +0.171 C 
BRANCH   6   8
ATOM      7  OXT UNL     1      -1.772  -2.357   2.480  0.00  0.00    -0.248 OA
ATOM      8  C   UNL     1      -1.609  -1.533   1.586  0.00  0.00    +0.332 C 
BRANCH   8   9
ATOM      9  O   UNL     1      -0.379  -1.175   1.147  0.00  0.00    -0.479 OA
ATOM     10  H   UNL     1      -0.292  -0.541   0.462  0.00  0.00    +0.295 HD
ENDBRANCH   8   9
ENDBRANCH   6   8
BRANCH   6  11
ATOM     11  CB  UNL     1      -3.792  -1.727   0.286  0.00  0.00    +0.031 C 
BRANCH  11  12
ATOM     12  CG  UNL     1      -3.471  -2.308  -1.109  0.00  0.00    +0.002 C 
ATOM     13  CD1 UNL     1      -2.176  -3.124  -1.031  0.00  0.00    +0.000 C 
ATOM     14  CD2 UNL     1      -4.585  -3.178  -1.687  0.00  0.00    +0.000 C 
ENDBRANCH  11  12
ENDBRANCH   6  11
ENDBRANCH   3   6
ENDBRANCH   1   4
BRANCH   1  15
ATOM     15  N   UNL     1      -3.391   3.163  -1.755  0.00  0.00    +0.388 N 
ATOM     16  H1  UNL     1      -2.987   3.806  -2.435  0.00  0.00    -0.089 HD
ATOM     17  H2  UNL     1      -3.887   3.693  -1.038  0.00  0.00    -0.089 HD
ATOM     18  H3  UNL     1      -4.044   2.536  -2.226  0.00  0.00    -0.089 HD
ENDBRANCH   1  15
BRANCH   1  19
ATOM     19  C   UNL     1      -1.334   3.312  -0.423  0.00  0.00    +0.013 C 
BRANCH  19  20
ATOM     20  C   UNL     1      -0.195   2.569   0.235  0.00  0.00    -0.024 C 
ATOM     21  C   UNL     1       0.976   2.313  -0.478  0.00  0.00    -0.001 C 
ATOM     22  C   UNL     1      -0.315   2.139   1.557  0.00  0.00    -0.004 C 
ATOM     23  C   UNL     1       2.027   1.627   0.131  0.00  0.00    +0.039 C 
ATOM     24  C   UNL     1       0.736   1.454   2.166  0.00  0.00    -0.000 C 
ATOM     25  C   UNL     1       1.907   1.198   1.452  0.00  0.00    +0.003 C 
BRANCH  23  27
ATOM     26  O   UNL     1       3.607   2.135  -1.510  0.00  0.00    -0.286 OA
ATOM     27  C   UNL     1       3.248   1.360  -0.612  0.00  0.00    +0.198 C 
BRANCH  27  28
ATOM     28  C   UNL     1       4.061   0.128  -0.293  0.00  0.00    +0.073 C 
ATOM     29  C   UNL     1       5.346   0.301   0.056  0.00  0.00    +0.006 C 
BRANCH  28  31
ATOM     30  O   UNL     1       3.963  -2.232   0.333  0.00  0.00    -0.450 OA
ATOM     31  C   UNL     1       3.512  -1.190  -0.413  0.00  0.00    +0.149 C 
ATOM     32  C   UNL     1       2.499  -1.597  -1.249  0.00  0.00    +0.041 C 
ATOM     33  C   UNL     1       2.316  -2.978  -1.001  0.00  0.00    +0.044 C 
ATOM     34  C   UNL     1       3.230  -3.316  -0.031  0.00  0.00    +0.180 C 
ENDBRANCH  28  31
ENDBRANCH  27  28
ENDBRANCH  23  27
ENDBRANCH  19  20
ENDBRANCH   1  19
TORSDOF 12
