REMARK  Name = 131849
REMARK  6 active torsions:
REMARK  status: ('A' for Active; 'I' for Inactive)
REMARK    1  A    between atoms: N_3  and  C_34
REMARK    2  A    between atoms: C_4  and  N_14
REMARK    3  A    between atoms: C_12  and  C_31
REMARK    4  A    between atoms: C_20  and  C_21
REMARK    5  A    between atoms: C_26  and  N_29
REMARK    6  A    between atoms: C_31  and  O_32
REMARK                            x       y       z     vdW  Elec       q    Type
REMARK                         _______ _______ _______ _____ _____    ______ ____
ROOT
ATOM      1  F   UNL     1      -1.863   3.409   0.813  0.00  0.00    -0.203 F 
ATOM      2  O   UNL     1      -6.391   1.250   0.528  0.00  0.00    -0.286 OA
ATOM      3  N   UNL     1      -3.745  -1.703  -0.427  0.00  0.00    -0.286 N 
ATOM      4  C   UNL     1      -1.400   1.169   0.187  0.00  0.00    +0.077 C 
ATOM      5  C   UNL     1      -1.862  -0.114  -0.125  0.00  0.00    +0.032 C 
ATOM      6  C   UNL     1      -3.235  -0.420  -0.118  0.00  0.00    +0.056 C 
ATOM      7  C   UNL     1      -2.300   2.178   0.514  0.00  0.00    +0.153 C 
ATOM      8  C   UNL     1      -4.127   0.624   0.217  0.00  0.00    +0.055 C 
ATOM      9  C   UNL     1      -3.665   1.910   0.530  0.00  0.00    +0.035 C 
ATOM     10  C   UNL     1      -5.592   0.367   0.242  0.00  0.00    +0.204 C 
ATOM     11  C   UNL     1      -5.112  -1.915  -0.397  0.00  0.00    +0.075 C 
ATOM     12  C   UNL     1      -6.044  -1.004  -0.095  0.00  0.00    +0.129 C 
ENDROOT
BRANCH   4  14
ATOM     13  O   UNL     1       4.388   2.752  -1.476  0.00  0.00    -0.270 OA
ATOM     14  N   UNL     1      -0.026   1.435   0.171  0.00  0.00    -0.302 N 
ATOM     15  N   UNL     1       2.741   1.928  -0.040  0.00  0.00    -0.273 N 
ATOM     16  C   UNL     1       0.457   2.473  -0.755  0.00  0.00    +0.112 C 
ATOM     17  C   UNL     1       0.924   0.359   0.491  0.00  0.00    +0.112 C 
ATOM     18  C   UNL     1       1.805   3.019  -0.290  0.00  0.00    +0.115 C 
ATOM     19  C   UNL     1       2.260   0.949   0.938  0.00  0.00    +0.115 C 
ATOM     20  C   UNL     1       3.979   1.907  -0.682  0.00  0.00    +0.249 C 
BRANCH  20  21
ATOM     21  C   UNL     1       4.881   0.781  -0.408  0.00  0.00    +0.054 C 
ATOM     22  C   UNL     1       4.819  -0.364  -1.198  0.00  0.00    +0.006 C 
ATOM     23  C   UNL     1       5.791   0.864   0.642  0.00  0.00    +0.006 C 
ATOM     24  C   UNL     1       5.675  -1.433  -0.936  0.00  0.00    +0.024 C 
ATOM     25  C   UNL     1       6.647  -0.205   0.903  0.00  0.00    +0.024 C 
ATOM     26  C   UNL     1       6.589  -1.354   0.115  0.00  0.00    +0.143 C 
BRANCH  26  29
ATOM     27  O   UNL     1       7.389  -3.469  -0.338  0.00  0.00    -0.126 OA
ATOM     28  O   UNL     1       8.274  -2.353   1.332  0.00  0.00    -0.126 OA
ATOM     29  N   UNL     1       7.459  -2.444   0.382  0.00  0.00    +0.058 N 
ENDBRANCH  26  29
ENDBRANCH  20  21
ENDBRANCH   4  14
BRANCH  12  31
ATOM     30  O   UNL     1      -7.847  -2.538   0.128  0.00  0.00    -0.245 OA
ATOM     31  C   UNL     1      -7.449  -1.412  -0.116  0.00  0.00    +0.342 C 
BRANCH  31  32
ATOM     32  O   UNL     1      -8.224  -0.356  -0.445  0.00  0.00    -0.477 OA
ATOM     33  H   UNL     1      -7.831   0.477  -0.617  0.00  0.00    +0.295 HD
ENDBRANCH  31  32
ENDBRANCH  12  31
BRANCH   3  34
ATOM     34  C   UNL     1      -2.809  -2.770  -0.770  0.00  0.00    +0.096 C 
ATOM     35  C   UNL     1      -2.386  -3.517   0.481  0.00  0.00    +0.024 C 
ENDBRANCH   3  34
TORSDOF 6
