131881
  -OEChem-03292013323D

 50 52  0     0  0  0  0  0  0999 V2000
    2.5123    1.4731    0.2649 O   0  0  0  0  0  0  0  0  0  0  0  0
    4.6063    1.2770    2.7669 O   0  0  0  0  0  0  0  0  0  0  0  0
    4.2886   -3.1773   -2.7047 O   0  0  0  0  0  0  0  0  0  0  0  0
    4.0759   -0.9325    2.8064 O   0  0  0  0  0  0  0  0  0  0  0  0
    3.8584   -0.9459   -2.6812 O   0  0  0  0  0  0  0  0  0  0  0  0
   -7.0377    2.1773   -1.0052 O   0  0  0  0  0  0  0  0  0  0  0  0
   -8.5180    0.6605   -0.1840 O   0  0  0  0  0  0  0  0  0  0  0  0
    2.8600    4.5336   -1.5724 O   0  0  0  0  0  0  0  0  0  0  0  0
    3.8703    3.8332    0.3449 O   0  0  0  0  0  0  0  0  0  0  0  0
   -2.4502    0.1755   -0.2070 N   0  0  0  0  0  0  0  0  0  0  0  0
    3.9224   -0.9538    0.0644 N   0  0  0  0  0  0  0  0  0  0  0  0
   -1.7171   -0.8709    0.2847 C   0  0  0  0  0  0  0  0  0  0  0  0
   -0.2755   -0.8881    0.2290 C   0  0  0  0  0  0  0  0  0  0  0  0
    2.5120   -0.9217    0.1203 C   0  0  0  0  0  0  0  0  0  0  0  0
   -3.7946   -0.0615   -0.0296 C   0  0  0  0  0  0  0  0  0  0  0  0
   -3.9135   -1.3040    0.5970 C   0  0  0  0  0  0  0  0  0  0  0  0
   -2.5947   -1.8025    0.7897 C   0  0  0  0  0  0  0  0  0  0  0  0
    1.8325    0.2924    0.2196 C   0  0  0  0  0  0  0  0  0  0  0  0
    0.4387    0.3092    0.2738 C   0  0  0  0  0  0  0  0  0  0  0  0
    0.4040   -2.1022    0.1298 C   0  0  0  0  0  0  0  0  0  0  0  0
    1.7977   -2.1190    0.0752 C   0  0  0  0  0  0  0  0  0  0  0  0
   -4.9032    0.7207   -0.3722 C   0  0  0  0  0  0  0  0  0  0  0  0
    4.7047    0.0799    0.7113 C   0  0  0  0  0  0  0  0  0  0  0  0
    4.6032   -2.0127   -0.6521 C   0  0  0  0  0  0  0  0  0  0  0  0
   -5.2010   -1.7920    0.8965 C   0  0  0  0  0  0  0  0  0  0  0  0
   -6.1701    0.2165   -0.0647 C   0  0  0  0  0  0  0  0  0  0  0  0
   -6.3191   -1.0202    0.5598 C   0  0  0  0  0  0  0  0  0  0  0  0
    4.4218    0.0646    2.1862 C   0  0  0  0  0  0  0  0  0  0  0  0
    4.2060   -1.9656   -2.0996 C   0  0  0  0  0  0  0  0  0  0  0  0
    2.2431    2.4152   -0.7710 C   0  0  0  0  0  0  0  0  0  0  0  0
   -7.3503    0.9974   -0.4033 C   0  0  0  0  0  0  0  0  0  0  0  0
    3.0871    3.6437   -0.5735 C   0  0  0  0  0  0  0  0  0  0  0  0
   -2.0745    1.0016   -0.6524 H   0  0  0  0  0  0  0  0  0  0  0  0
   -2.3310   -2.7436    1.2544 H   0  0  0  0  0  0  0  0  0  0  0  0
   -0.0774    1.2595    0.3858 H   0  0  0  0  0  0  0  0  0  0  0  0
   -0.1277   -3.0497    0.0890 H   0  0  0  0  0  0  0  0  0  0  0  0
    2.2824   -3.0878    0.0150 H   0  0  0  0  0  0  0  0  0  0  0  0
    4.6235    1.0651    0.2533 H   0  0  0  0  0  0  0  0  0  0  0  0
    5.7750   -0.1541    0.6334 H   0  0  0  0  0  0  0  0  0  0  0  0
    4.3869   -2.9944   -0.2192 H   0  0  0  0  0  0  0  0  0  0  0  0
    5.6922   -1.8919   -0.6197 H   0  0  0  0  0  0  0  0  0  0  0  0
   -4.7468    1.6781   -0.8577 H   0  0  0  0  0  0  0  0  0  0  0  0
   -5.3312   -2.7543    1.3834 H   0  0  0  0  0  0  0  0  0  0  0  0
   -7.3058   -1.4106    0.7980 H   0  0  0  0  0  0  0  0  0  0  0  0
    2.4941    1.9694   -1.7400 H   0  0  0  0  0  0  0  0  0  0  0  0
    1.1942    2.7276   -0.7482 H   0  0  0  0  0  0  0  0  0  0  0  0
    4.4244    1.2525    3.7306 H   0  0  0  0  0  0  0  0  0  0  0  0
    4.0328   -3.1320   -3.6506 H   0  0  0  0  0  0  0  0  0  0  0  0
   -7.8393    2.6966   -1.2291 H   0  0  0  0  0  0  0  0  0  0  0  0
    3.3994    5.3462   -1.4683 H   0  0  0  0  0  0  0  0  0  0  0  0
  1 18  1  0  0  0  0
  1 30  1  0  0  0  0
  2 28  1  0  0  0  0
  2 47  1  0  0  0  0
  3 29  1  0  0  0  0
  3 48  1  0  0  0  0
  4 28  2  0  0  0  0
  5 29  2  0  0  0  0
  6 31  1  0  0  0  0
  6 49  1  0  0  0  0
  7 31  2  0  0  0  0
  8 32  1  0  0  0  0
  8 50  1  0  0  0  0
  9 32  2  0  0  0  0
 10 12  1  0  0  0  0
 10 15  1  0  0  0  0
 10 33  1  0  0  0  0
 11 14  1  0  0  0  0
 11 23  1  0  0  0  0
 11 24  1  0  0  0  0
 12 13  1  0  0  0  0
 12 17  2  0  0  0  0
 13 19  2  0  0  0  0
 13 20  1  0  0  0  0
 14 18  2  0  0  0  0
 14 21  1  0  0  0  0
 15 16  2  0  0  0  0
 15 22  1  0  0  0  0
 16 17  1  0  0  0  0
 16 25  1  0  0  0  0
 17 34  1  0  0  0  0
 18 19  1  0  0  0  0
 19 35  1  0  0  0  0
 20 21  2  0  0  0  0
 20 36  1  0  0  0  0
 21 37  1  0  0  0  0
 22 26  2  0  0  0  0
 22 42  1  0  0  0  0
 23 28  1  0  0  0  0
 23 38  1  0  0  0  0
 23 39  1  0  0  0  0
 24 29  1  0  0  0  0
 24 40  1  0  0  0  0
 24 41  1  0  0  0  0
 25 27  2  0  0  0  0
 25 43  1  0  0  0  0
 26 27  1  0  0  0  0
 26 31  1  0  0  0  0
 27 44  1  0  0  0  0
 30 32  1  0  0  0  0
 30 45  1  0  0  0  0
 30 46  1  0  0  0  0
M  END
> <PUBCHEM_COMPOUND_CID>
131881

> <PUBCHEM_CONFORMER_RMSD>
1

> <PUBCHEM_CONFORMER_DIVERSEORDER>
1
15
9
8
4
20
7
19
11
5
18
21
12
14
2
17
16
3
6
10
13

> <PUBCHEM_MMFF94_PARTIAL_CHARGES>
43
1 -0.36
10 0.03
11 -0.84
12 -0.2
13 0.05
14 0.1
15 -0.15
17 -0.15
18 0.08
19 -0.15
2 -0.65
20 -0.15
21 -0.15
22 -0.15
23 0.43
24 0.43
25 -0.15
26 0.09
27 -0.15
28 0.66
29 0.66
3 -0.65
30 0.34
31 0.63
32 0.66
33 0.27
34 0.15
35 0.15
36 0.15
37 0.15
4 -0.57
42 0.15
43 0.15
44 0.15
47 0.5
48 0.5
49 0.5
5 -0.57
50 0.5
6 -0.65
7 -0.57
8 -0.65
9 -0.57

> <PUBCHEM_EFFECTIVE_ROTOR_COUNT>
10

> <PUBCHEM_PHARMACOPHORE_FEATURES>
19
1 1 acceptor
1 10 cation
1 10 donor
1 11 cation
1 2 acceptor
1 3 acceptor
1 4 acceptor
1 5 acceptor
1 6 acceptor
1 7 acceptor
1 8 acceptor
1 9 acceptor
3 2 4 28 anion
3 3 5 29 anion
3 6 7 31 anion
3 8 9 32 anion
5 10 12 15 16 17 rings
6 13 14 18 19 20 21 rings
6 15 16 22 25 26 27 rings

> <PUBCHEM_HEAVY_ATOM_COUNT>
32

> <PUBCHEM_ATOM_DEF_STEREO_COUNT>
0

> <PUBCHEM_ATOM_UDEF_STEREO_COUNT>
0

> <PUBCHEM_BOND_DEF_STEREO_COUNT>
0

> <PUBCHEM_BOND_UDEF_STEREO_COUNT>
0

> <PUBCHEM_ISOTOPIC_ATOM_COUNT>
0

> <PUBCHEM_COMPONENT_COUNT>
1

> <PUBCHEM_CACTVS_TAUTO_COUNT>
2

> <PUBCHEM_CONFORMER_ID>
0002032900000001

> <PUBCHEM_MMFF94_ENERGY>
99.2404

> <PUBCHEM_FEATURE_SELFOVERLAP>
96.758

> <PUBCHEM_SHAPE_FINGERPRINT>
10554248 39 18131074840254103125
10763959 59 18410018706431743919
10816530 90 18261399970511153692
11297750 10 18056475042595283754
11505856 67 15902595938629906888
12236239 1 16200431347887958651
12617007 42 18341061752743847566
13150687 139 12534772946902795026
13533116 47 16988564571884402178
13540713 4 18117859890924273187
15082195 135 18342186561133092708
15183329 4 18261111842766725049
15238133 3 17822008687884487827
15420108 30 17909535500873280932
15439362 3 18120944060639207540
17844677 252 18334864939469031563
17980427 23 17982425369420506528
20715895 44 18409722976337382081
20721686 146 18058155306510514376
21033648 29 18409163325156441715
21859007 373 18336815391371359053
23081809 10 16660647358621005923
23522609 53 16226911955792465119
23559900 14 18411989043842883907
239999 70 18411984676267247954
25223398 141 16444448110253879381
29717793 49 17131834218744590207
3004659 81 18261111876683637529
3044373 193 18272937137404611575
3411729 13 18116152358420507980
34797466 226 18342466975775198647
4073 2 17458911568886518091
5104073 3 17895475933929608857
5109719 28 18336272331490276035
5219985 13 17617386516419370132
9841814 1 18186516623089109832

> <PUBCHEM_SHAPE_MULTIPOLES>
595.76
18.06
3.69
1.89
36.12
4.36
-0.03
3.25
0.87
-5.58
1.79
-4.57
-0.67
2.63

> <PUBCHEM_SHAPE_SELFOVERLAP>
1300.919

> <PUBCHEM_SHAPE_VOLUME>
321.7

> <PUBCHEM_COORDINATE_TYPE>
2
5
10

$$$$
