REMARK  Name = 131839
REMARK  4 active torsions:
REMARK  status: ('A' for Active; 'I' for Inactive)
REMARK    1  A    between atoms: C_4  and  C_20
REMARK    2  A    between atoms: C_10  and  O_28
REMARK    3  A    between atoms: C_17  and  O_30
REMARK    4  A    between atoms: C_22  and  O_26
REMARK                            x       y       z     vdW  Elec       q    Type
REMARK                         _______ _______ _______ _____ _____    ______ ____
ROOT
ATOM      1  O   UNL     1      -0.485   0.740  -1.762  0.00  0.00    -0.479 OA
ATOM      2  O   UNL     1       1.894  -0.171  -2.622  0.00  0.00    -0.287 OA
ATOM      3  O   UNL     1       3.871   0.087   2.335  0.00  0.00    -0.283 OA
ATOM      4  C   UNL     1      -2.003   1.466  -0.009  0.00  0.00    +0.087 C 
ATOM      5  C   UNL     1      -1.685   1.529  -1.529  0.00  0.00    +0.172 C 
ATOM      6  C   UNL     1      -0.623   1.180   0.493  0.00  0.00    +0.051 C 
ATOM      7  C   UNL     1      -2.627   2.736   0.572  0.00  0.00    +0.011 C 
ATOM      8  C   UNL     1       0.178   0.746  -0.558  0.00  0.00    +0.141 C 
ATOM      9  C   UNL     1      -1.436   2.920  -2.115  0.00  0.00    +0.048 C 
ATOM     10  C   UNL     1      -0.120   1.246   1.782  0.00  0.00    +0.133 C 
ATOM     11  C   UNL     1       1.497   0.353  -0.363  0.00  0.00    +0.076 C 
ATOM     12  C   UNL     1       2.011   0.423   0.933  0.00  0.00    +0.051 C 
ATOM     13  C   UNL     1       1.206   0.870   2.000  0.00  0.00    +0.040 C 
ATOM     14  C   UNL     1       2.339  -0.115  -1.481  0.00  0.00    +0.198 C 
ATOM     15  C   UNL     1       3.404   0.028   1.203  0.00  0.00    +0.229 C 
ATOM     16  C   UNL     1       3.745  -0.516  -1.184  0.00  0.00    +0.054 C 
ATOM     17  C   UNL     1       4.229  -0.446   0.064  0.00  0.00    +0.176 C 
ATOM     18  C   UNL     1       4.547  -0.990  -2.363  0.00  0.00    +0.038 C 
ENDROOT
BRANCH   4  20
ATOM     19  O   UNL     1      -2.340  -0.879  -0.337  0.00  0.00    -0.329 OA
ATOM     20  C   UNL     1      -2.902   0.275   0.293  0.00  0.00    +0.130 C 
ATOM     21  C   UNL     1      -4.317   0.498  -0.247  0.00  0.00    +0.056 C 
ATOM     22  C   UNL     1      -3.019  -2.094   0.014  0.00  0.00    +0.252 C 
ATOM     23  C   UNL     1      -5.112  -0.771  -0.210  0.00  0.00    -0.027 C 
ATOM     24  C   UNL     1      -4.524  -1.970  -0.070  0.00  0.00    +0.007 C 
ATOM     25  C   UNL     1      -5.315  -3.244  -0.011  0.00  0.00    +0.031 C 
BRANCH  22  26
ATOM     26  O   UNL     1      -2.660  -2.538   1.319  0.00  0.00    -0.357 OA
ATOM     27  H   UNL     1      -1.696  -2.619   1.379  0.00  0.00    +0.213 HD
ENDBRANCH  22  26
ENDBRANCH   4  20
BRANCH  10  28
ATOM     28  O   UNL     1      -0.884   1.640   2.833  0.00  0.00    -0.506 OA
ATOM     29  H   UNL     1      -1.775   1.895   2.696  0.00  0.00    +0.292 HD
ENDBRANCH  10  28
BRANCH  17  30
ATOM     30  O   UNL     1       5.531  -0.816   0.347  0.00  0.00    -0.468 OA
ATOM     31  C   UNL     1       5.601  -2.189   0.675  0.00  0.00    +0.253 C 
ENDBRANCH  17  30
TORSDOF 4
