REMARK  Name = 131865667
REMARK  10 active torsions:
REMARK  status: ('A' for Active; 'I' for Inactive)
REMARK    1  A    between atoms: O_1  and  C_3
REMARK    2  A    between atoms: O_1  and  C_11
REMARK    3  A    between atoms: C_3  and  C_4
REMARK    4  A    between atoms: C_4  and  C_5
REMARK    5  A    between atoms: C_5  and  C_6
REMARK    6  A    between atoms: C_6  and  C_8
REMARK    7  A    between atoms: C_8  and  O_9
REMARK    8  A    between atoms: C_11  and  C_14
REMARK    9  A    between atoms: C_11  and  C_15
REMARK   10  A    between atoms: C_15  and  N_16
REMARK                            x       y       z     vdW  Elec       q    Type
REMARK                         _______ _______ _______ _____ _____    ______ ____
ROOT
ATOM      1  O   UNL     1       0.835  -0.207   0.607  0.00  0.00    -0.443 OA
ENDROOT
BRANCH   1   3
ATOM      2  O   UNL     1      -0.316  -0.653  -1.341  0.00  0.00    -0.250 OA
ATOM      3  C   UNL     1      -0.281  -0.281  -0.177  0.00  0.00    +0.317 C 
BRANCH   3   4
ATOM      4  C   UNL     1      -1.483   0.140   0.640  0.00  0.00    +0.110 C 
BRANCH   4   5
ATOM      5  C   UNL     1      -2.803   0.004  -0.118  0.00  0.00    +0.023 C 
BRANCH   5   6
ATOM      6  C   UNL     1      -4.006   0.448   0.717  0.00  0.00    +0.110 C 
BRANCH   6   8
ATOM      7  O   UNL     1      -5.411  -0.104  -1.194  0.00  0.00    -0.250 OA
ATOM      8  C   UNL     1      -5.302   0.316  -0.050  0.00  0.00    +0.314 C 
BRANCH   8   9
ATOM      9  O   UNL     1      -6.362   0.728   0.694  0.00  0.00    -0.480 OA
ATOM     10  H   UNL     1      -6.229   1.041   1.566  0.00  0.00    +0.295 HD
ENDBRANCH   8   9
ENDBRANCH   6   8
ENDBRANCH   5   6
ENDBRANCH   4   5
ENDBRANCH   3   4
ENDBRANCH   1   3
BRANCH   1  11
ATOM     11  C   UNL     1       2.057  -0.607  -0.022  0.00  0.00    +0.251 C 
BRANCH  11  14
ATOM     12  O   UNL     1       2.267  -2.500   1.366  0.00  0.00    -0.242 OA
ATOM     13  O   UNL     1       2.158  -2.824  -0.891  0.00  0.00    -0.242 OA
ATOM     14  C   UNL     1       2.171  -2.127   0.161  0.00  0.00    +0.402 C 
ENDBRANCH  11  14
BRANCH  11  15
ATOM     15  C   UNL     1       3.202   0.180   0.594  0.00  0.00    -0.017 C 
BRANCH  15  16
ATOM     16  N   UNL     1       3.294   1.508  -0.065  0.00  0.00    +0.389 N 
ATOM     17  C   UNL     1       4.415   2.349   0.560  0.00  0.00    -0.096 C 
ATOM     18  C   UNL     1       1.976   2.280   0.084  0.00  0.00    -0.096 C 
ATOM     19  C   UNL     1       3.590   1.352  -1.562  0.00  0.00    -0.096 C 
ENDBRANCH  15  16
ENDBRANCH  11  15
ENDBRANCH   1  11
TORSDOF 10
