REMARK  Name = 131881
REMARK  14 active torsions:
REMARK  status: ('A' for Active; 'I' for Inactive)
REMARK    1  A    between atoms: C_1  and  C_8
REMARK    2  A    between atoms: C_2  and  N_27
REMARK    3  A    between atoms: C_3  and  O_21
REMARK    4  A    between atoms: C_14  and  C_18
REMARK    5  A    between atoms: C_18  and  O_19
REMARK    6  A    between atoms: O_21  and  C_22
REMARK    7  A    between atoms: C_22  and  C_24
REMARK    8  A    between atoms: C_24  and  O_25
REMARK    9  A    between atoms: N_27  and  C_28
REMARK   10  A    between atoms: N_27  and  C_33
REMARK   11  A    between atoms: C_28  and  C_30
REMARK   12  A    between atoms: C_30  and  O_31
REMARK   13  A    between atoms: C_33  and  C_35
REMARK   14  A    between atoms: C_35  and  O_36
REMARK                            x       y       z     vdW  Elec       q    Type
REMARK                         _______ _______ _______ _____ _____    ______ ____
ROOT
ATOM      1  C   UNL     1      -0.276  -0.888   0.229  0.00  0.00    +0.017 C 
ATOM      2  C   UNL     1       2.512  -0.922   0.120  0.00  0.00    +0.083 C 
ATOM      3  C   UNL     1       1.833   0.292   0.220  0.00  0.00    +0.153 C 
ATOM      4  C   UNL     1       0.439   0.309   0.274  0.00  0.00    +0.039 C 
ATOM      5  C   UNL     1       0.404  -2.102   0.130  0.00  0.00    +0.003 C 
ATOM      6  C   UNL     1       1.798  -2.119   0.075  0.00  0.00    +0.018 C 
ENDROOT
BRANCH   1   8
ATOM      7  N   UNL     1      -2.450   0.175  -0.207  0.00  0.00    -0.313 N 
ATOM      8  C   UNL     1      -1.717  -0.871   0.285  0.00  0.00    +0.048 C 
ATOM      9  C   UNL     1      -3.795  -0.061  -0.030  0.00  0.00    +0.049 C 
ATOM     10  C   UNL     1      -3.913  -1.304   0.597  0.00  0.00    +0.015 C 
ATOM     11  C   UNL     1      -2.595  -1.802   0.790  0.00  0.00    +0.016 C 
ATOM     12  C   UNL     1      -4.903   0.721  -0.372  0.00  0.00    +0.021 C 
ATOM     13  C   UNL     1      -5.201  -1.792   0.896  0.00  0.00    +0.001 C 
ATOM     14  C   UNL     1      -6.170   0.216  -0.065  0.00  0.00    +0.077 C 
ATOM     15  C   UNL     1      -6.319  -1.020   0.560  0.00  0.00    +0.007 C 
ATOM     16  H   UNL     1      -2.071   0.981  -0.627  0.00  0.00    +0.152 HD
BRANCH  14  18
ATOM     17  O   UNL     1      -8.518   0.660  -0.184  0.00  0.00    -0.245 OA
ATOM     18  C   UNL     1      -7.350   0.997  -0.403  0.00  0.00    +0.338 C 
BRANCH  18  19
ATOM     19  O   UNL     1      -7.038   2.177  -1.005  0.00  0.00    -0.477 OA
ATOM     20  H   UNL     1      -6.141   2.403  -1.157  0.00  0.00    +0.295 HD
ENDBRANCH  18  19
ENDBRANCH  14  18
ENDBRANCH   1   8
BRANCH   3  21
ATOM     21  O   UNL     1       2.512   1.473   0.265  0.00  0.00    -0.463 OA
BRANCH  21  22
ATOM     22  C   UNL     1       2.243   2.415  -0.771  0.00  0.00    +0.314 C 
BRANCH  22  24
ATOM     23  O   UNL     1       3.870   3.833   0.345  0.00  0.00    -0.246 OA
ATOM     24  C   UNL     1       3.087   3.644  -0.574  0.00  0.00    +0.359 C 
BRANCH  24  25
ATOM     25  O   UNL     1       2.860   4.534  -1.572  0.00  0.00    -0.478 OA
ATOM     26  H   UNL     1       2.246   4.330  -2.250  0.00  0.00    +0.295 HD
ENDBRANCH  24  25
ENDBRANCH  22  24
ENDBRANCH  21  22
ENDBRANCH   3  21
BRANCH   2  27
ATOM     27  N   UNL     1       3.922  -0.954   0.064  0.00  0.00    -0.286 N 
BRANCH  27  28
ATOM     28  C   UNL     1       4.705   0.080   0.711  0.00  0.00    +0.202 C 
BRANCH  28  30
ATOM     29  O   UNL     1       4.076  -0.932   2.806  0.00  0.00    -0.248 OA
ATOM     30  C   UNL     1       4.422   0.065   2.186  0.00  0.00    +0.334 C 
BRANCH  30  31
ATOM     31  O   UNL     1       4.606   1.277   2.767  0.00  0.00    -0.479 OA
ATOM     32  H   UNL     1       4.872   2.010   2.247  0.00  0.00    +0.295 HD
ENDBRANCH  30  31
ENDBRANCH  28  30
ENDBRANCH  27  28
BRANCH  27  33
ATOM     33  C   UNL     1       4.603  -2.013  -0.652  0.00  0.00    +0.202 C 
BRANCH  33  35
ATOM     34  O   UNL     1       3.858  -0.946  -2.681  0.00  0.00    -0.248 OA
ATOM     35  C   UNL     1       4.206  -1.966  -2.100  0.00  0.00    +0.334 C 
BRANCH  35  36
ATOM     36  O   UNL     1       4.289  -3.177  -2.705  0.00  0.00    -0.479 OA
ATOM     37  H   UNL     1       4.560  -3.928  -2.215  0.00  0.00    +0.295 HD
ENDBRANCH  35  36
ENDBRANCH  33  35
ENDBRANCH  27  33
ENDBRANCH   2  27
TORSDOF 14
