REMARK  Name = 131841495
REMARK  6 active torsions:
REMARK  status: ('A' for Active; 'I' for Inactive)
REMARK    1  A    between atoms: C_1  and  C_8
REMARK    2  A    between atoms: C_1  and  N_15
REMARK    3  A    between atoms: C_1  and  C_25
REMARK    4  A    between atoms: C_4  and  C_11
REMARK    5  A    between atoms: C_16  and  C_20
REMARK    6  A    between atoms: C_25  and  C_28
REMARK                            x       y       z     vdW  Elec       q    Type
REMARK                         _______ _______ _______ _____ _____    ______ ____
ROOT
ATOM      1  C   UNL     1      -0.307  -0.766   0.206  0.00  0.00    +0.155 C 
ENDROOT
BRANCH   1   8
ATOM      2  O   UNL     1      -0.437   1.252   1.463  0.00  0.00    -0.273 OA
ATOM      3  N   UNL     1      -1.850   1.049  -0.358  0.00  0.00    -0.272 N 
ATOM      4  C   UNL     1      -2.376   2.407  -0.313  0.00  0.00    +0.152 C 
ATOM      5  C   UNL     1      -3.058   2.603  -1.662  0.00  0.00    +0.031 C 
ATOM      6  C   UNL     1      -2.380   0.317  -1.506  0.00  0.00    +0.094 C 
ATOM      7  C   UNL     1      -3.501   1.193  -2.045  0.00  0.00    +0.024 C 
ATOM      8  C   UNL     1      -0.859   0.605   0.503  0.00  0.00    +0.244 C 
BRANCH   4  11
ATOM      9  O   UNL     1      -3.610   1.482   1.513  0.00  0.00    -0.274 OA
ATOM     10  N   UNL     1      -3.942   3.697   0.985  0.00  0.00    -0.327 N 
ATOM     11  C   UNL     1      -3.356   2.464   0.820  0.00  0.00    +0.237 C 
ATOM     12  H   UNL     1      -4.601   3.836   1.703  0.00  0.00    +0.145 HD
ATOM     13  H   UNL     1      -3.703   4.440   0.385  0.00  0.00    +0.145 HD
ENDBRANCH   4  11
ENDBRANCH   1   8
BRANCH   1  15
ATOM     14  O   UNL     1       1.869   0.244  -1.428  0.00  0.00    -0.273 OA
ATOM     15  N   UNL     1       1.077  -0.656   0.569  0.00  0.00    -0.297 N 
ATOM     16  C   UNL     1       2.056  -0.158  -0.283  0.00  0.00    +0.241 C 
ATOM     17  H   UNL     1       1.347  -0.950   1.468  0.00  0.00    +0.150 HD
BRANCH  16  20
ATOM     18  O   UNL     1       5.332   2.466  -1.085  0.00  0.00    -0.275 OA
ATOM     19  N   UNL     1       4.313   0.408  -0.624  0.00  0.00    -0.298 N 
ATOM     20  C   UNL     1       3.410  -0.130   0.352  0.00  0.00    +0.149 C 
ATOM     21  C   UNL     1       3.497   0.852   1.506  0.00  0.00    +0.039 C 
ATOM     22  C   UNL     1       3.887   2.175   0.847  0.00  0.00    +0.087 C 
ATOM     23  C   UNL     1       4.625   1.745  -0.397  0.00  0.00    +0.223 C 
ATOM     24  H   UNL     1       4.675  -0.114  -1.377  0.00  0.00    +0.150 HD
ENDBRANCH  16  20
ENDBRANCH   1  15
BRANCH   1  25
ATOM     25  C   UNL     1      -1.058  -1.821   1.008  0.00  0.00    +0.071 C 
BRANCH  25  28
ATOM     26  N   UNL     1       0.341  -3.788   0.268  0.00  0.00    -0.319 N 
ATOM     27  N   UNL     1      -1.142  -5.270  -0.466  0.00  0.00    -0.315 N 
ATOM     28  C   UNL     1      -0.884  -3.204   0.431  0.00  0.00    +0.040 C 
ATOM     29  C   UNL     1      -1.783  -4.138  -0.028  0.00  0.00    +0.069 C 
ATOM     30  C   UNL     1       0.136  -5.027  -0.274  0.00  0.00    +0.182 C 
ATOM     31  H   UNL     1       1.211  -3.389   0.497  0.00  0.00    +0.148 HD
ATOM     32  H   UNL     1      -1.549  -6.084  -0.841  0.00  0.00    +0.148 HD
ENDBRANCH  25  28
ENDBRANCH   1  25
TORSDOF 6
