REMARK  Name = 131815
REMARK  9 active torsions:
REMARK  status: ('A' for Active; 'I' for Inactive)
REMARK    1  A    between atoms: C_3  and  C_10
REMARK    2  A    between atoms: C_8  and  C_15
REMARK    3  A    between atoms: C_10  and  O_11
REMARK    4  A    between atoms: O_11  and  C_12
REMARK    5  A    between atoms: C_12  and  C_13
REMARK    6  A    between atoms: C_15  and  N_16
REMARK    7  A    between atoms: C_15  and  C_20
REMARK    8  A    between atoms: C_20  and  C_22
REMARK    9  A    between atoms: C_22  and  O_23
REMARK                            x       y       z     vdW  Elec       q    Type
REMARK                         _______ _______ _______ _____ _____    ______ ____
ROOT
ATOM      1  O   UNL     1       0.304   0.949  -0.867  0.00  0.00    -0.277 OA
ATOM      2  N   UNL     1       0.733  -1.207  -0.155  0.00  0.00    -0.252 N 
ATOM      3  C   UNL     1      -0.641  -1.607  -0.008  0.00  0.00    +0.157 C 
ATOM      4  C   UNL     1      -0.684  -3.015   0.511  0.00  0.00    +0.053 C 
ATOM      5  C   UNL     1      -1.246  -2.699  -0.847  0.00  0.00    +0.036 C 
ATOM      6  C   UNL     1       0.735  -3.462   0.713  0.00  0.00    -0.008 C 
ATOM      7  C   UNL     1       1.625  -2.330   0.171  0.00  0.00    +0.063 C 
ATOM      8  C   UNL     1       1.101   0.045  -0.610  0.00  0.00    +0.210 C 
ENDROOT
BRANCH   3  10
ATOM      9  O   UNL     1      -1.578  -0.503   1.857  0.00  0.00    -0.248 OA
ATOM     10  C   UNL     1      -1.545  -0.639   0.643  0.00  0.00    +0.334 C 
BRANCH  10  11
ATOM     11  O   UNL     1      -2.284   0.040  -0.277  0.00  0.00    -0.447 OA
BRANCH  11  12
ATOM     12  C   UNL     1      -3.188   1.012   0.258  0.00  0.00    +0.208 C 
BRANCH  12  13
ATOM     13  C   UNL     1      -3.931   1.677  -0.891  0.00  0.00    +0.047 C 
ATOM     14  C   UNL     1      -4.902   2.735  -0.398  0.00  0.00    +0.004 C 
ENDBRANCH  12  13
ENDBRANCH  11  12
ENDBRANCH  10  11
ENDBRANCH   3  10
BRANCH   8  15
ATOM     15  C   UNL     1       2.583   0.261  -0.779  0.00  0.00    +0.025 C 
BRANCH  15  16
ATOM     16  N   UNL     1       2.901  -0.192  -2.124  0.00  0.00    +0.388 N 
ATOM     17  H   UNL     1       2.665  -1.180  -2.215  0.00  0.00    -0.089 HD
ATOM     18  H   UNL     1       3.897  -0.062  -2.300  0.00  0.00    -0.089 HD
ATOM     19  H   UNL     1       2.363   0.350  -2.801  0.00  0.00    -0.089 HD
ENDBRANCH  15  16
BRANCH  15  20
ATOM     20  C   UNL     1       2.913   1.732  -0.579  0.00  0.00    +0.096 C 
BRANCH  20  22
ATOM     21  O   UNL     1       2.423   1.475   1.773  0.00  0.00    -0.250 OA
ATOM     22  C   UNL     1       2.483   2.201   0.789  0.00  0.00    +0.312 C 
BRANCH  22  23
ATOM     23  O   UNL     1       2.197   3.526   0.821  0.00  0.00    -0.480 OA
ATOM     24  H   UNL     1       2.259   4.038   0.039  0.00  0.00    +0.295 HD
ENDBRANCH  22  23
ENDBRANCH  20  22
ENDBRANCH  15  20
ENDBRANCH   8  15
TORSDOF 9
