REMARK  Name = 131848
REMARK  11 active torsions:
REMARK  status: ('A' for Active; 'I' for Inactive)
REMARK    1  A    between atoms: C_1  and  C_4
REMARK    2  A    between atoms: C_1  and  C_17
REMARK    3  A    between atoms: C_1  and  C_27
REMARK    4  A    between atoms: N_3  and  C_6
REMARK    5  A    between atoms: C_6  and  C_8
REMARK    6  A    between atoms: C_8  and  O_9
REMARK    7  A    between atoms: O_9  and  C_10
REMARK    8  A    between atoms: C_10  and  C_11
REMARK    9  A    between atoms: C_17  and  C_20
REMARK   10  A    between atoms: C_27  and  S_28
REMARK   11  A    between atoms: S_28  and  C_30
REMARK                            x       y       z     vdW  Elec       q    Type
REMARK                         _______ _______ _______ _____ _____    ______ ____
ROOT
ATOM      1  C   UNL     1      -2.250   0.328  -0.436  0.00  0.00    +0.092 C 
ENDROOT
BRANCH   1   4
ATOM      2  O   UNL     1      -2.242  -0.025   1.968  0.00  0.00    -0.275 OA
ATOM      3  N   UNL     1      -1.506  -1.745   0.598  0.00  0.00    -0.295 N 
ATOM      4  C   UNL     1      -2.007  -0.476   0.849  0.00  0.00    +0.224 C 
ATOM      5  H   UNL     1      -1.351  -2.013  -0.337  0.00  0.00    +0.150 HD
BRANCH   3   6
ATOM      6  C   UNL     1      -1.202  -2.689   1.648  0.00  0.00    +0.201 C 
BRANCH   6   8
ATOM      7  O   UNL     1       0.686  -3.901   2.497  0.00  0.00    -0.248 OA
ATOM      8  C   UNL     1       0.248  -3.111   1.668  0.00  0.00    +0.338 C 
BRANCH   8   9
ATOM      9  O   UNL     1       0.975  -2.517   0.682  0.00  0.00    -0.442 OA
BRANCH   9  10
ATOM     10  C   UNL     1       2.363  -2.867   0.636  0.00  0.00    +0.235 C 
BRANCH  10  11
ATOM     11  C   UNL     1       3.015  -2.133  -0.499  0.00  0.00    +0.021 C 
ATOM     12  C   UNL     1       3.062  -2.711  -1.768  0.00  0.00    -0.001 C 
ATOM     13  C   UNL     1       3.575  -0.874  -0.285  0.00  0.00    -0.001 C 
ATOM     14  C   UNL     1       3.669  -2.030  -2.822  0.00  0.00    -0.000 C 
ATOM     15  C   UNL     1       4.181  -0.192  -1.340  0.00  0.00    -0.000 C 
ATOM     16  C   UNL     1       4.228  -0.770  -2.609  0.00  0.00    -0.000 C 
ENDBRANCH  10  11
ENDBRANCH   9  10
ENDBRANCH   8   9
ENDBRANCH   6   8
ENDBRANCH   3   6
ENDBRANCH   1   4
BRANCH   1  17
ATOM     17  C   UNL     1      -1.981   1.830  -0.191  0.00  0.00    +0.036 C 
BRANCH  17  20
ATOM     18  O   UNL     1       2.263   2.522   2.267  0.00  0.00    -0.435 OA
ATOM     19  O   UNL     1       3.461   3.131   0.266  0.00  0.00    -0.435 OA
ATOM     20  C   UNL     1      -0.516   2.185  -0.105  0.00  0.00    -0.018 C 
ATOM     21  C   UNL     1       0.132   2.158   1.132  0.00  0.00    +0.036 C 
ATOM     22  C   UNL     1       0.182   2.541  -1.272  0.00  0.00    -0.001 C 
ATOM     23  C   UNL     1       1.471   2.491   1.160  0.00  0.00    +0.176 C 
ATOM     24  C   UNL     1       2.155   2.839   0.018  0.00  0.00    +0.176 C 
ATOM     25  C   UNL     1       1.538   2.873  -1.216  0.00  0.00    +0.040 C 
ATOM     26  C   UNL     1       3.522   2.927   1.692  0.00  0.00    +0.429 C 
ENDBRANCH  17  20
ENDBRANCH   1  17
BRANCH   1  27
ATOM     27  C   UNL     1      -3.636   0.013  -1.032  0.00  0.00    +0.074 C 
BRANCH  27  28
ATOM     28  S   UNL     1      -5.044   0.416   0.052  0.00  0.00    -0.077 S 
BRANCH  28  30
ATOM     29  O   UNL     1      -6.234  -0.435  -2.152  0.00  0.00    -0.285 OA
ATOM     30  C   UNL     1      -6.380  -0.003  -1.015  0.00  0.00    +0.199 C 
ATOM     31  C   UNL     1      -7.729   0.224  -0.392  0.00  0.00    +0.085 C 
ENDBRANCH  28  30
ENDBRANCH  27  28
ENDBRANCH   1  27
TORSDOF 11
