REMARK  Name = 131953434
REMARK  8 active torsions:
REMARK  status: ('A' for Active; 'I' for Inactive)
REMARK    1  A    between atoms: CA_1  and  N_2
REMARK    2  A    between atoms: CA_1  and  C_12
REMARK    3  A    between atoms: CA_1  and  CB_15
REMARK    4  A    between atoms: N_2  and  CA_5
REMARK    5  A    between atoms: CA_5  and  C_8
REMARK    6  A    between atoms: C_8  and  O_9
REMARK    7  A    between atoms: C_12  and  O_13
REMARK    8  A    between atoms: CB_15  and  CG_18
REMARK                            x       y       z     vdW  Elec       q    Type
REMARK                         _______ _______ _______ _____ _____    ______ ____
ROOT
ATOM      1  CA  ALA A   1      -0.090   0.169   0.036  0.00  0.00    +0.046 C 
ENDROOT
BRANCH   1   2
ATOM      2  N   ALA A   1      -1.412   0.248   0.653  0.00  0.00    +0.401 N 
ATOM      3  H1  ALA A   1      -1.429   1.029   1.309  0.00  0.00    -0.083 HD
ATOM      4  H2  ALA A   1      -1.599  -0.629   1.140  0.00  0.00    -0.083 HD
BRANCH   2   5
ATOM      5  CA  ALA A   1      -2.441   0.450  -0.355  0.00  0.00    +0.040 C 
ATOM      6  CB  ALA A   1      -2.473   1.914  -0.772  0.00  0.00    -0.012 C 
BRANCH   5   8
ATOM      7  OXT ALA A   1      -3.962  -0.369   1.377  0.00  0.00    -0.253 OA
ATOM      8  C   ALA A   1      -3.769   0.031   0.238  0.00  0.00    +0.293 C 
BRANCH   8   9
ATOM      9  O   ALA A   1      -4.762   0.169  -0.680  0.00  0.00    -0.482 OA
ATOM     10  H   ALA A   1      -4.564   0.479  -1.542  0.00  0.00    +0.295 HD
ENDBRANCH   8   9
ENDBRANCH   5   8
ENDBRANCH   2   5
ENDBRANCH   1   2
BRANCH   1  12
ATOM     11  OXT ALA A   1      -0.467  -2.236  -0.030  0.00  0.00    -0.253 OA
ATOM     12  C   ALA A   1       0.047  -1.239  -0.518  0.00  0.00    +0.294 C 
BRANCH  12  13
ATOM     13  O   ALA A   1       0.787  -1.275  -1.657  0.00  0.00    -0.482 OA
ATOM     14  H   ALA A   1       1.163  -0.487  -1.997  0.00  0.00    +0.295 HD
ENDBRANCH  12  13
ENDBRANCH   1  12
BRANCH   1  15
ATOM     15  CB  ALA A   1       0.991   0.486   1.081  0.00  0.00    +0.032 C 
BRANCH  15  18
ATOM     16  ND1 ALA A   1       3.369  -0.369   1.037  0.00  0.00    -0.319 N 
ATOM     17  NE2 ALA A   1       4.302   0.694  -0.675  0.00  0.00    -0.315 N 
ATOM     18  CG  ALA A   1       2.391   0.430   0.514  0.00  0.00    +0.036 C 
ATOM     19  CD2 ALA A   1       2.991   1.075  -0.541  0.00  0.00    +0.069 C 
ATOM     20  CE1 ALA A   1       4.498  -0.177   0.291  0.00  0.00    +0.182 C 
ATOM     21  HD1 ALA A   1       3.277  -0.972   1.810  0.00  0.00    +0.148 HD
ATOM     22  HE2 ALA A   1       4.953   1.003  -1.346  0.00  0.00    +0.148 HD
ENDBRANCH  15  18
ENDBRANCH   1  15
TORSDOF 8
