REMARK  Name = 1319471
REMARK  5 active torsions:
REMARK  status: ('A' for Active; 'I' for Inactive)
REMARK    1  A    between atoms: C_8  and  C_17
REMARK    2  A    between atoms: C_17  and  S_18
REMARK    3  A    between atoms: S_18  and  C_22
REMARK    4  A    between atoms: N_19  and  C_29
REMARK    5  A    between atoms: C_23  and  C_25
REMARK                            x       y       z     vdW  Elec       q    Type
REMARK                         _______ _______ _______ _____ _____    ______ ____
ROOT
ATOM      1  S   UNL     1       4.942  -0.601   1.728  0.00  0.00    -0.084 S 
ATOM      2  O   UNL     1       1.871   0.347  -2.677  0.00  0.00    -0.273 OA
ATOM      3  N   UNL     1       2.773   0.063  -0.536  0.00  0.00    -0.236 N 
ATOM      4  C   UNL     1       3.697   1.095  -0.127  0.00  0.00    +0.064 C 
ATOM      5  C   UNL     1       2.935  -1.304  -0.095  0.00  0.00    +0.064 C 
ATOM      6  C   UNL     1       4.707   0.900   0.826  0.00  0.00    +0.043 C 
ATOM      7  C   UNL     1       3.849  -1.703   0.888  0.00  0.00    +0.043 C 
ATOM      8  C   UNL     1       1.755   0.376  -1.451  0.00  0.00    +0.245 C 
ATOM      9  C   UNL     1       3.576   2.396  -0.671  0.00  0.00    +0.016 C 
ATOM     10  C   UNL     1       2.165  -2.323  -0.704  0.00  0.00    +0.016 C 
ATOM     11  C   UNL     1       5.581   1.953   1.168  0.00  0.00    +0.008 C 
ATOM     12  C   UNL     1       3.945  -3.059   1.266  0.00  0.00    +0.008 C 
ATOM     13  C   UNL     1       4.445   3.435  -0.326  0.00  0.00    +0.001 C 
ATOM     14  C   UNL     1       2.267  -3.665  -0.328  0.00  0.00    +0.001 C 
ATOM     15  C   UNL     1       5.457   3.211   0.590  0.00  0.00    +0.001 C 
ATOM     16  C   UNL     1       3.156  -4.033   0.665  0.00  0.00    +0.001 C 
ENDROOT
BRANCH   8  17
ATOM     17  C   UNL     1       0.470   0.849  -0.805  0.00  0.00    +0.151 C 
BRANCH  17  18
ATOM     18  S   UNL     1      -0.832  -0.288  -1.295  0.00  0.00    -0.066 S 
BRANCH  18  22
ATOM     19  N   UNL     1      -3.440  -0.104  -0.529  0.00  0.00    -0.288 N 
ATOM     20  N   UNL     1      -2.170   1.482   0.281  0.00  0.00    -0.122 NA
ATOM     21  N   UNL     1      -3.457   1.679   0.738  0.00  0.00    -0.125 NA
ATOM     22  C   UNL     1      -2.216   0.427  -0.455  0.00  0.00    +0.194 A 
ATOM     23  C   UNL     1      -4.204   0.719   0.241  0.00  0.00    +0.202 A 
BRANCH  23  25
ATOM     24  O   UNL     1      -6.199  -0.651   0.479  0.00  0.00    -0.447 OA
ATOM     25  C   UNL     1      -5.591   0.567   0.471  0.00  0.00    +0.181 C 
ATOM     26  C   UNL     1      -6.515   1.561   0.716  0.00  0.00    +0.044 C 
ATOM     27  C   UNL     1      -7.762   0.913   0.882  0.00  0.00    +0.044 C 
ATOM     28  C   UNL     1      -7.516  -0.432   0.729  0.00  0.00    +0.180 C 
ENDBRANCH  23  25
BRANCH  19  29
ATOM     29  C   UNL     1      -3.892  -1.272  -1.253  0.00  0.00    +0.110 C 
ATOM     30  C   UNL     1      -3.801  -2.537  -0.418  0.00  0.00    +0.027 C 
ENDBRANCH  19  29
ENDBRANCH  18  22
ENDBRANCH  17  18
ENDBRANCH   8  17
TORSDOF 5
