REMARK  Name = 131938
REMARK  6 active torsions:
REMARK  status: ('A' for Active; 'I' for Inactive)
REMARK    1  A    between atoms: C_5  and  C_17
REMARK    2  A    between atoms: CA_10  and  C_14
REMARK    3  A    between atoms: C_14  and  O_15
REMARK    4  A    between atoms: C_17  and  P_18
REMARK    5  A    between atoms: P_18  and  O_20
REMARK    6  A    between atoms: P_18  and  O_22
REMARK                            x       y       z     vdW  Elec       q    Type
REMARK                         _______ _______ _______ _____ _____    ______ ____
ROOT
ATOM      1  N   UNL     1       2.899  -1.069  -0.711  0.00  0.00    +0.392 N 
ATOM      2  C   UNL     1       0.811  -0.047   1.109  0.00  0.00    -0.004 C 
ATOM      3  C   UNL     1       0.834  -1.505   0.604  0.00  0.00    -0.021 C 
ATOM      4  C   UNL     1      -0.215   0.816   0.352  0.00  0.00    +0.000 C 
ATOM      5  C   UNL     1      -1.617   0.193   0.384  0.00  0.00    +0.012 C 
ATOM      6  C   UNL     1      -0.578  -2.106   0.571  0.00  0.00    -0.002 C 
ATOM      7  C   UNL     1      -1.590  -1.236  -0.170  0.00  0.00    +0.001 C 
ATOM      8  C   UNL     1       2.222   0.557   1.034  0.00  0.00    -0.011 C 
ATOM      9  C   UNL     1       1.540  -1.618  -0.760  0.00  0.00    -0.081 C 
ATOM     10  CA  UNL     1       2.875   0.344  -0.333  0.00  0.00    +0.040 C 
ATOM     11  H1  UNL     1       3.331  -1.162  -1.631  0.00  0.00    -0.084 HD
ATOM     12  H2  UNL     1       3.436  -1.585  -0.014  0.00  0.00    -0.084 HD
ENDROOT
BRANCH  10  14
ATOM     13  OXT UNL     1       5.269   0.079  -0.514  0.00  0.00    -0.253 OA
ATOM     14  C   UNL     1       4.301   0.795  -0.303  0.00  0.00    +0.293 C 
BRANCH  14  15
ATOM     15  O   UNL     1       4.380   2.115  -0.007  0.00  0.00    -0.482 OA
ATOM     16  H   UNL     1       3.598   2.609   0.144  0.00  0.00    +0.295 HD
ENDBRANCH  14  15
ENDBRANCH  10  14
BRANCH   5  17
ATOM     17  C   UNL     1      -2.608   1.054  -0.396  0.00  0.00    +0.116 C 
BRANCH  17  18
ATOM     18  P   UNL     1      -4.289   0.417  -0.287  0.00  0.00    +0.337 P 
ATOM     19  O   UNL     1      -4.445  -0.966  -0.820  0.00  0.00    -0.258 OA
BRANCH  18  20
ATOM     20  O   UNL     1      -5.149   1.561  -1.026  0.00  0.00    -0.324 OA
ATOM     21  H   UNL     1      -6.087   1.313  -1.023  0.00  0.00    +0.220 HD
ENDBRANCH  18  20
BRANCH  18  22
ATOM     22  O   UNL     1      -4.641   0.616   1.273  0.00  0.00    -0.324 OA
ATOM     23  H   UNL     1      -5.541   0.299   1.444  0.00  0.00    +0.220 HD
ENDBRANCH  18  22
ENDBRANCH  17  18
ENDBRANCH   5  17
TORSDOF 6
