1319216
  -OEChem-03292013313D

 36 39  0     0  0  0  0  0  0999 V2000
   -1.4728    1.1875    0.0066 S   0  0  0  0  0  0  0  0  0  0  0  0
   -4.3584    1.8389    0.0190 S   0  0  0  0  0  0  0  0  0  0  0  0
    1.8682   -1.6045    0.0097 S   0  0  0  0  0  0  0  0  0  0  0  0
   -1.2911    1.8785   -1.2559 O   0  0  0  0  0  0  0  0  0  0  0  0
   -1.2612    1.8552    1.2767 O   0  0  0  0  0  0  0  0  0  0  0  0
    3.7809    0.3280   -0.0097 O   0  0  0  0  0  0  0  0  0  0  0  0
   -3.5208   -0.6004   -0.0084 N   0  0  0  0  0  0  0  0  0  0  0  0
    4.5527   -1.8027    0.0181 N   0  0  0  0  0  0  0  0  0  0  0  0
   -0.5543   -0.3214   -0.0112 C   0  0  0  0  0  0  0  0  0  0  0  0
   -3.1778    0.6353    0.0041 C   0  0  0  0  0  0  0  0  0  0  0  0
    0.9384   -0.0484   -0.0112 C   0  0  0  0  0  0  0  0  0  0  0  0
   -5.5481    0.5909    0.0076 C   0  0  0  0  0  0  0  0  0  0  0  0
   -4.9071   -0.6516   -0.0067 C   0  0  0  0  0  0  0  0  0  0  0  0
   -6.9478    0.7033    0.0109 C   0  0  0  0  0  0  0  0  0  0  0  0
   -5.6973   -1.8214   -0.0178 C   0  0  0  0  0  0  0  0  0  0  0  0
    3.5064   -1.0064    0.0062 C   0  0  0  0  0  0  0  0  0  0  0  0
    5.1456    0.3747   -0.0086 C   0  0  0  0  0  0  0  0  0  0  0  0
    5.6142   -0.9306    0.0087 C   0  0  0  0  0  0  0  0  0  0  0  0
   -7.7063   -0.4699   -0.0004 C   0  0  0  0  0  0  0  0  0  0  0  0
   -7.0913   -1.7169   -0.0145 C   0  0  0  0  0  0  0  0  0  0  0  0
    5.9527    1.5056   -0.0216 C   0  0  0  0  0  0  0  0  0  0  0  0
    6.9986   -1.1536    0.0138 C   0  0  0  0  0  0  0  0  0  0  0  0
    7.3310    1.2659   -0.0163 C   0  0  0  0  0  0  0  0  0  0  0  0
    7.8459   -0.0362    0.0010 C   0  0  0  0  0  0  0  0  0  0  0  0
   -0.8484   -0.8890    0.8784 H   0  0  0  0  0  0  0  0  0  0  0  0
   -0.8513   -0.8737   -0.9094 H   0  0  0  0  0  0  0  0  0  0  0  0
    1.2130    0.5450    0.8679 H   0  0  0  0  0  0  0  0  0  0  0  0
    1.2152    0.5268   -0.9017 H   0  0  0  0  0  0  0  0  0  0  0  0
   -7.4349    1.6735    0.0220 H   0  0  0  0  0  0  0  0  0  0  0  0
   -5.2273   -2.8007   -0.0290 H   0  0  0  0  0  0  0  0  0  0  0  0
   -8.7912   -0.4051    0.0020 H   0  0  0  0  0  0  0  0  0  0  0  0
   -7.6976   -2.6185   -0.0231 H   0  0  0  0  0  0  0  0  0  0  0  0
    5.5443    2.5084   -0.0348 H   0  0  0  0  0  0  0  0  0  0  0  0
    7.4085   -2.1580    0.0272 H   0  0  0  0  0  0  0  0  0  0  0  0
    8.0172    2.1094   -0.0258 H   0  0  0  0  0  0  0  0  0  0  0  0
    8.9230   -0.1846    0.0047 H   0  0  0  0  0  0  0  0  0  0  0  0
  1  4  2  0  0  0  0
  1  5  2  0  0  0  0
  1  9  1  0  0  0  0
  1 10  1  0  0  0  0
  2 10  1  0  0  0  0
  2 12  1  0  0  0  0
  3 11  1  0  0  0  0
  3 16  1  0  0  0  0
  6 16  1  0  0  0  0
  6 17  1  0  0  0  0
  7 10  2  0  0  0  0
  7 13  1  0  0  0  0
  8 16  2  0  0  0  0
  8 18  1  0  0  0  0
  9 11  1  0  0  0  0
  9 25  1  0  0  0  0
  9 26  1  0  0  0  0
 11 27  1  0  0  0  0
 11 28  1  0  0  0  0
 12 13  1  0  0  0  0
 12 14  2  0  0  0  0
 13 15  2  0  0  0  0
 14 19  1  0  0  0  0
 14 29  1  0  0  0  0
 15 20  1  0  0  0  0
 15 30  1  0  0  0  0
 17 18  1  0  0  0  0
 17 21  2  0  0  0  0
 18 22  2  0  0  0  0
 19 20  2  0  0  0  0
 19 31  1  0  0  0  0
 20 32  1  0  0  0  0
 21 23  1  0  0  0  0
 21 33  1  0  0  0  0
 22 24  1  0  0  0  0
 22 34  1  0  0  0  0
 23 24  2  0  0  0  0
 23 35  1  0  0  0  0
 24 36  1  0  0  0  0
M  END
> <PUBCHEM_COMPOUND_CID>
1319216

> <PUBCHEM_CONFORMER_RMSD>
0.8

> <PUBCHEM_CONFORMER_DIVERSEORDER>
1
423
345
20
456
12
192
14
32
194
439
30
335
360
72
479
113
127
84
473
438
49
148
369
50
421
112
88
149
40
142
220
44
155
68
159
64
74
195
236
119
69
103
282
118
309
182
6
96
284
299
116
407
104
389
11
80
406
175
18
143
28
323
141
161
333
63
417
7
97
272
366
170
5
24
205
268
144
23
463
418
77
83
152
193
65
27
173
216
377
256
302
121
427
466
99
241
244
330
223
405
98
260
75
264
15
139
180
78
227
110
162
446
129
379
403
235
145
174
4
34
140
48
117
146
123
212
157
55
166
47
163
91
237
3
288
9
313
33
167
171
317
325
190
342
29
328
39
429
396
233
210
126
93
376
66
247
135
61
111
292
81
2
359
17
54
471
432
242
320
419
37
398
186
25
158
153
481
70
341
231
31
339
86
262
131
90
222
183
445
45
217
410
79
380
301
267
208
263
239
411
76
41
36
254
187
214
246
136
266
176
42
314
327
133
35
229
184
412
134
277
271
89
476
221
413
392
13
460
399
154
361
138
458
234
324
19
106
38
164
350
444
300
10
382
441
8
253
151
465
16
177
125
472
243
397
203
343
85
196
315
291
137
71
57
470
461
414
120
59
21
67
22
469
443
209
435
189
228
395
26
150
482
147
185
455
433
450
62
95
356
430
368
226
370
297
191
338
252
124
224
278
265
340
178
199
245
60
294
285
165
311
351
230
454
269
480
383
82
259
296
215
331
58
384
280
114
334
232
349
122
250
307
353
43
358
390
385
289
273
415
102
442
56
281
326
128
408
393
464
219
53
211
448
92
447
274
202
474
394
332
416
52
312
424
478
213
225
319
107
286
132
197
404
420
440
198
304
270
115
276
357
257
475
249
451
101
321
453
477
374
46
206
316
100
201
381
130
108
391
401
375
306
261
248
362
168
73
305
51
109
431
364
181
179
200
87
287
218
459
344
347
169
449
204
468
434
322
400
437
188
372
367
402
388
207
329
425
156
373
240
275
308
409
279
172
365
238
371
452
258
428
318
386
255
160
337
346
105
378
336
348
295
462
290
457
426
310
363
283
94
355
303
467
354
251
298
387
436
293
352
422

> <PUBCHEM_MMFF94_PARTIAL_CHARGES>
32
1 1.26
10 0.32
11 0.23
12 0.04
13 0.23
14 -0.15
15 -0.15
16 0.53
17 0.14
18 0.23
19 -0.15
2 -0.08
20 -0.15
21 -0.15
22 -0.15
23 -0.15
24 -0.15
29 0.15
3 -0.29
30 0.15
31 0.15
32 0.15
33 0.15
34 0.15
35 0.15
36 0.15
4 -0.65
5 -0.65
6 -0.28
7 -0.57
8 -0.57
9 0.11

> <PUBCHEM_EFFECTIVE_ROTOR_COUNT>
5

> <PUBCHEM_PHARMACOPHORE_FEATURES>
7
1 4 acceptor
1 5 acceptor
1 7 acceptor
5 2 7 10 12 13 rings
5 6 8 16 17 18 rings
6 12 13 14 15 19 20 rings
6 17 18 21 22 23 24 rings

> <PUBCHEM_HEAVY_ATOM_COUNT>
24

> <PUBCHEM_ATOM_DEF_STEREO_COUNT>
0

> <PUBCHEM_ATOM_UDEF_STEREO_COUNT>
0

> <PUBCHEM_BOND_DEF_STEREO_COUNT>
0

> <PUBCHEM_BOND_UDEF_STEREO_COUNT>
0

> <PUBCHEM_ISOTOPIC_ATOM_COUNT>
0

> <PUBCHEM_COMPONENT_COUNT>
1

> <PUBCHEM_CACTVS_TAUTO_COUNT>
1

> <PUBCHEM_CONFORMER_ID>
0014213000000001

> <PUBCHEM_MMFF94_ENERGY>
36.0942

> <PUBCHEM_FEATURE_SELFOVERLAP>
35.732

> <PUBCHEM_SHAPE_FINGERPRINT>
10050765 1 18122344571104263590
10299344 5 18343865519609645531
10595046 47 18410575041977228314
10835480 77 18337104550065791461
10968037 39 18408885136108929679
11315181 36 18343585140825392257
11524674 6 16415477173364056423
11719270 70 18273211972431259630
11724838 91 18333731334480543806
12166972 35 18333734615825742524
12516196 113 18343019991210567649
13533116 47 17095514042680776554
13885169 127 18409729539443217741
13914758 101 15647046036772075949
14123256 10 18410293613991911066
14251732 16 18410855468728652406
14251764 18 18412545422411361751
14251764 46 16370727028284931099
14394314 77 18261395503982509713
14461889 52 18409164437695409490
1454969 45 18411417323550186367
14856354 85 16343702158220021437
14933364 13 18413108355411728108
15142383 8 8935001469535573826
15183329 4 18260828185160709810
15338160 23 16701752532042502489
15537594 2 16200144370335033574
15716309 27 18344144791437029471
15840311 113 18113904897425716604
15927050 60 17482262017564185664
18006028 8 17989486321156097329
18335252 98 18342741818715814238
18608769 82 18342452668874794570
20238998 120 18260545619901649037
21049683 271 18342176708573665745
21150785 3 18040715874375264928
21315763 28 18409729539300370674
21365058 27 16128658561172549631
22224240 67 17967249806411992178
22896161 15 18410575097558660239
23559900 14 18339635746350563377
3009799 131 16081085982877874917
34797466 226 17704078404290588108
4073 2 18113623425615260506
4325135 7 18411982464078996014
437795 51 17846491591042039504
59682541 35 18411981403079753282
5969126 39 17313097536825582637
999808 66 18187374259650426547

> <PUBCHEM_SHAPE_MULTIPOLES>
477.89
26.16
1.99
0.71
9.17
0.08
0
-3.46
-0.04
-0.66
0
-0.14
0.18
-0.06

> <PUBCHEM_SHAPE_SELFOVERLAP>
1013.831

> <PUBCHEM_SHAPE_VOLUME>
268.9

> <PUBCHEM_COORDINATE_TYPE>
2
5
10

$$$$
