REMARK  Name = 131978
REMARK  12 active torsions:
REMARK  status: ('A' for Active; 'I' for Inactive)
REMARK    1  A    between atoms: C_1  and  O_2
REMARK    2  A    between atoms: C_1  and  C_17
REMARK    3  A    between atoms: O_2  and  C_6
REMARK    4  A    between atoms: C_3  and  C_9
REMARK    5  A    between atoms: C_9  and  N_10
REMARK    6  A    between atoms: C_17  and  C_18
REMARK    7  A    between atoms: C_18  and  N_20
REMARK    8  A    between atoms: C_21  and  C_23
REMARK    9  A    between atoms: C_23  and  C_24
REMARK   10  A    between atoms: C_24  and  C_25
REMARK   11  A    between atoms: C_25  and  S_26
REMARK   12  A    between atoms: S_26  and  C_31
REMARK                            x       y       z     vdW  Elec       q    Type
REMARK                         _______ _______ _______ _____ _____    ______ ____
ROOT
ATOM      1  C   UNL     1       3.513   1.631   1.041  0.00  0.00    +0.207 C 
ENDROOT
BRANCH   1   2
ATOM      2  O   UNL     1       3.066   0.672   1.999  0.00  0.00    -0.475 OA
BRANCH   2   6
ATOM      3  C   UNL     1      -0.532   1.330   1.936  0.00  0.00    -0.040 C 
ATOM      4  C   UNL     1       0.845   1.528   1.829  0.00  0.00    +0.031 C 
ATOM      5  C   UNL     1      -1.030   0.084   2.317  0.00  0.00    -0.006 C 
ATOM      6  C   UNL     1       1.723   0.479   2.103  0.00  0.00    +0.138 C 
ATOM      7  C   UNL     1      -0.152  -0.964   2.591  0.00  0.00    +0.003 C 
ATOM      8  C   UNL     1       1.225  -0.767   2.484  0.00  0.00    +0.037 C 
BRANCH   3   9
ATOM      9  C   UNL     1      -1.480   2.462   1.640  0.00  0.00    -0.050 C 
BRANCH   9  10
ATOM     10  N   UNL     1      -1.871   2.491   0.231  0.00  0.00    +0.390 N 
ATOM     11  C   UNL     1      -3.155   3.187   0.068  0.00  0.00    -0.077 C 
ATOM     12  C   UNL     1      -0.819   3.120  -0.581  0.00  0.00    -0.077 C 
ATOM     13  C   UNL     1      -3.602   3.184  -1.394  0.00  0.00    -0.023 C 
ATOM     14  C   UNL     1      -1.190   3.115  -2.064  0.00  0.00    -0.023 C 
ATOM     15  C   UNL     1      -2.537   3.789  -2.301  0.00  0.00    -0.004 C 
ATOM     16  H   UNL     1      -1.989   1.533  -0.096  0.00  0.00    -0.079 HD
ENDBRANCH   9  10
ENDBRANCH   3   9
ENDBRANCH   2   6
ENDBRANCH   1   2
BRANCH   1  17
ATOM     17  C   UNL     1       4.875   1.198   0.512  0.00  0.00    +0.069 C 
BRANCH  17  18
ATOM     18  C   UNL     1       4.836  -0.159  -0.179  0.00  0.00    +0.093 C 
BRANCH  18  20
ATOM     19  O   UNL     1       3.338  -2.410  -1.221  0.00  0.00    -0.275 OA
ATOM     20  N   UNL     1       3.961  -0.171  -1.319  0.00  0.00    -0.304 N 
ATOM     21  C   UNL     1       3.277  -1.304  -1.752  0.00  0.00    +0.222 C 
ATOM     22  H   UNL     1       3.838   0.667  -1.821  0.00  0.00    +0.149 HD
BRANCH  21  23
ATOM     23  C   UNL     1       2.424  -1.014  -2.975  0.00  0.00    +0.086 C 
BRANCH  23  24
ATOM     24  C   UNL     1       1.009  -0.567  -2.605  0.00  0.00    +0.022 C 
BRANCH  24  25
ATOM     25  C   UNL     1       0.225  -1.598  -1.794  0.00  0.00    +0.066 C 
BRANCH  25  26
ATOM     26  S   UNL     1      -1.447  -1.040  -1.352  0.00  0.00    -0.074 S 
BRANCH  26  31
ATOM     27  N   UNL     1      -3.241  -2.554   0.107  0.00  0.00    -0.206 N 
ATOM     28  N   UNL     1      -1.349  -3.563  -0.215  0.00  0.00    -0.101 NA
ATOM     29  N   UNL     1      -3.368  -3.742   0.714  0.00  0.00    -0.042 NA
ATOM     30  N   UNL     1      -2.208  -4.355   0.514  0.00  0.00    -0.022 NA
ATOM     31  C   UNL     1      -2.009  -2.454  -0.456  0.00  0.00    +0.211 A 
ATOM     32  C   UNL     1      -4.329  -1.608   0.123  0.00  0.00    +0.158 C 
ENDBRANCH  26  31
ENDBRANCH  25  26
ENDBRANCH  24  25
ENDBRANCH  23  24
ENDBRANCH  21  23
ENDBRANCH  18  20
ENDBRANCH  17  18
ENDBRANCH   1  17
TORSDOF 12
