REMARK  Name = 131923
REMARK  3 active torsions:
REMARK  status: ('A' for Active; 'I' for Inactive)
REMARK    1  A    between atoms: N_6  and  C_28
REMARK    2  A    between atoms: C_10  and  N_19
REMARK    3  A    between atoms: C_20  and  N_24
REMARK                            x       y       z     vdW  Elec       q    Type
REMARK                         _______ _______ _______ _____ _____    ______ ____
ROOT
ATOM      1  S   UNL     1      -4.309  -1.729  -0.299  0.00  0.00    +0.008 S 
ATOM      2  F   UNL     1       1.258  -1.741  -0.342  0.00  0.00    -0.201 F 
ATOM      3  F   UNL     1       2.479   2.793   0.089  0.00  0.00    -0.203 F 
ATOM      4  O   UNL     1      -2.545   2.834   0.276  0.00  0.00    -0.286 OA
ATOM      5  O   UNL     1      -5.247   1.898   0.080  0.00  0.00    -0.267 OA
ATOM      6  N   UNL     1      -1.537  -1.103  -0.150  0.00  0.00    -0.321 N 
ATOM      7  N   UNL     1      -5.344  -0.407  -0.177  0.00  0.00    -0.291 N 
ATOM      8  C   UNL     1      -0.493  -0.125  -0.096  0.00  0.00    +0.092 A 
ATOM      9  C   UNL     1      -2.878  -0.699  -0.144  0.00  0.00    +0.114 A 
ATOM     10  C   UNL     1       1.867   0.510  -0.119  0.00  0.00    +0.105 C 
ATOM     11  C   UNL     1      -0.812   1.241   0.045  0.00  0.00    +0.059 A 
ATOM     12  C   UNL     1       0.868  -0.467  -0.182  0.00  0.00    +0.171 C 
ATOM     13  C   UNL     1      -3.242   0.595  -0.016  0.00  0.00    +0.119 A 
ATOM     14  C   UNL     1      -2.229   1.662   0.119  0.00  0.00    +0.204 A 
ATOM     15  C   UNL     1       1.527   1.850   0.029  0.00  0.00    +0.156 C 
ATOM     16  C   UNL     1       0.188   2.221   0.110  0.00  0.00    +0.036 C 
ATOM     17  C   UNL     1      -4.712   0.805  -0.027  0.00  0.00    +0.268 A 
ATOM     18  H   UNL     1      -6.324  -0.495  -0.211  0.00  0.00    +0.177 HD
ENDROOT
BRANCH  10  19
ATOM     19  N   UNL     1       3.193   0.144  -0.206  0.00  0.00    -0.306 N 
ATOM     20  C   UNL     1       5.377  -0.466   0.415  0.00  0.00    -0.044 C 
ATOM     21  C   UNL     1       4.188   0.407   0.833  0.00  0.00    +0.069 C 
ATOM     22  C   UNL     1       3.779  -0.549  -1.352  0.00  0.00    +0.089 C 
ATOM     23  C   UNL     1       5.285  -0.448  -1.107  0.00  0.00    +0.001 C 
BRANCH  20  24
ATOM     24  N   UNL     1       6.654   0.016   0.912  0.00  0.00    +0.383 N 
ATOM     25  H   UNL     1       6.657  -0.019   1.931  0.00  0.00    -0.089 HD
ATOM     26  H   UNL     1       6.797   0.978   0.604  0.00  0.00    -0.089 HD
ATOM     27  H   UNL     1       7.404  -0.572   0.549  0.00  0.00    -0.089 HD
ENDBRANCH  20  24
ENDBRANCH  10  19
BRANCH   6  28
ATOM     28  C   UNL     1      -1.215  -2.550  -0.229  0.00  0.00    +0.086 C 
ATOM     29  C   UNL     1      -0.317  -3.184   0.777  0.00  0.00    +0.024 C 
ATOM     30  C   UNL     1      -1.782  -3.509   0.760  0.00  0.00    +0.024 C 
ENDBRANCH   6  28
TORSDOF 3
