REMARK  Name = 131965
REMARK  13 active torsions:
REMARK  status: ('A' for Active; 'I' for Inactive)
REMARK    1  A    between atoms: C_1  and  C_4
REMARK    2  A    between atoms: C_1  and  C_16
REMARK    3  A    between atoms: C_1  and  C_24
REMARK    4  A    between atoms: N_3  and  C_6
REMARK    5  A    between atoms: C_6  and  C_8
REMARK    6  A    between atoms: C_6  and  C_12
REMARK    7  A    between atoms: C_8  and  O_9
REMARK    8  A    between atoms: O_9  and  C_10
REMARK    9  A    between atoms: C_12  and  C_13
REMARK   10  A    between atoms: C_13  and  S_14
REMARK   11  A    between atoms: C_16  and  C_17
REMARK   12  A    between atoms: C_24  and  S_25
REMARK   13  A    between atoms: S_25  and  C_27
REMARK                            x       y       z     vdW  Elec       q    Type
REMARK                         _______ _______ _______ _____ _____    ______ ____
ROOT
ATOM      1  C   UNL     1      -0.901  -0.093   0.369  0.00  0.00    +0.092 C 
ENDROOT
BRANCH   1   4
ATOM      2  O   UNL     1       0.440  -0.292   2.385  0.00  0.00    -0.275 OA
ATOM      3  N   UNL     1       1.453   0.522   0.464  0.00  0.00    -0.297 N 
ATOM      4  C   UNL     1       0.384   0.026   1.199  0.00  0.00    +0.224 C 
ATOM      5  H   UNL     1       1.307   0.750  -0.483  0.00  0.00    +0.150 HD
BRANCH   3   6
ATOM      6  C   UNL     1       2.766   0.719   1.026  0.00  0.00    +0.172 C 
BRANCH   6   8
ATOM      7  O   UNL     1       4.542   2.339   0.782  0.00  0.00    -0.248 OA
ATOM      8  C   UNL     1       3.449   1.931   0.405  0.00  0.00    +0.335 C 
BRANCH   8   9
ATOM      9  O   UNL     1       2.708   2.489  -0.594  0.00  0.00    -0.447 OA
BRANCH   9  10
ATOM     10  C   UNL     1       3.281   3.637  -1.228  0.00  0.00    +0.209 C 
ATOM     11  C   UNL     1       2.337   4.128  -2.305  0.00  0.00    +0.051 C 
ENDBRANCH   9  10
ENDBRANCH   8   9
ENDBRANCH   6   8
BRANCH   6  12
ATOM     12  C   UNL     1       3.642  -0.528   0.851  0.00  0.00    +0.043 C 
BRANCH  12  13
ATOM     13  C   UNL     1       3.932  -0.827  -0.620  0.00  0.00    +0.060 C 
BRANCH  13  14
ATOM     14  S   UNL     1       4.969  -2.310  -0.780  0.00  0.00    -0.139 S 
ATOM     15  C   UNL     1       3.687  -3.556  -0.517  0.00  0.00    +0.069 C 
ENDBRANCH  13  14
ENDBRANCH  12  13
ENDBRANCH   6  12
ENDBRANCH   3   6
ENDBRANCH   1   4
BRANCH   1  16
ATOM     16  C   UNL     1      -2.140   0.184   1.250  0.00  0.00    +0.036 C 
BRANCH  16  17
ATOM     17  C   UNL     1      -3.344   0.670   0.481  0.00  0.00    -0.026 C 
ATOM     18  C   UNL     1      -3.556   2.032   0.267  0.00  0.00    -0.026 C 
ATOM     19  C   UNL     1      -4.252  -0.264  -0.018  0.00  0.00    -0.005 C 
ATOM     20  C   UNL     1      -4.676   2.460  -0.447  0.00  0.00    -0.005 C 
ATOM     21  C   UNL     1      -2.599   3.051   0.792  0.00  0.00    +0.031 C 
ATOM     22  C   UNL     1      -5.371   0.164  -0.732  0.00  0.00    -0.000 C 
ATOM     23  C   UNL     1      -5.584   1.525  -0.946  0.00  0.00    -0.000 C 
ENDBRANCH  16  17
ENDBRANCH   1  16
BRANCH   1  24
ATOM     24  C   UNL     1      -0.944  -1.431  -0.396  0.00  0.00    +0.074 C 
BRANCH  24  25
ATOM     25  S   UNL     1      -0.922  -2.916   0.659  0.00  0.00    -0.077 S 
BRANCH  25  27
ATOM     26  O   UNL     1      -1.153  -3.934  -1.771  0.00  0.00    -0.285 OA
ATOM     27  C   UNL     1      -1.067  -4.167  -0.571  0.00  0.00    +0.199 C 
ATOM     28  C   UNL     1      -1.079  -5.558  -0.003  0.00  0.00    +0.085 C 
ENDBRANCH  25  27
ENDBRANCH  24  25
ENDBRANCH   1  24
TORSDOF 13
