131947
  -OEChem-03292013323D

 56 56  0     1  0  0  0  0  0999 V2000
   -5.2504    0.1014    0.2046 O   0  0  0  0  0  0  0  0  0  0  0  0
   -3.1470    1.5571    1.9611 O   0  0  0  0  0  0  0  0  0  0  0  0
   -4.9993    2.3250   -0.2758 O   0  0  0  0  0  0  0  0  0  0  0  0
   -1.2682   -1.7572   -0.2217 O   0  0  0  0  0  0  0  0  0  0  0  0
   -2.7958   -0.8621   -1.7096 O   0  0  0  0  0  0  0  0  0  0  0  0
   -4.1620   -3.2363    0.7761 O   0  0  0  0  0  0  0  0  0  0  0  0
   -5.6188   -2.3389   -0.7301 O   0  0  0  0  0  0  0  0  0  0  0  0
   -0.6962   -2.2706   -1.4557 O   0  0  0  0  0  0  0  0  0  0  0  0
   -3.1360    1.0458    0.6317 C   0  0  2  0  0  0  0  0  0  0  0  0
   -3.0183   -0.4742    0.6594 C   0  0  1  0  0  0  0  0  0  0  0  0
   -2.0912    1.7987   -0.1765 C   0  0  0  0  0  0  0  0  0  0  0  0
   -4.4619   -0.9104    0.8344 C   0  0  2  0  0  0  0  0  0  0  0  0
   -0.6787    1.5210    0.3372 C   0  0  0  0  0  0  0  0  0  0  0  0
   -4.5400    1.2675    0.1282 C   0  0  0  0  0  0  0  0  0  0  0  0
    0.3665    2.3066   -0.4567 C   0  0  0  0  0  0  0  0  0  0  0  0
    1.7835    2.0029    0.0355 C   0  0  0  0  0  0  0  0  0  0  0  0
   -2.3724   -1.0382   -0.5750 C   0  0  0  0  0  0  0  0  0  0  0  0
    2.8238    2.8187   -0.7353 C   0  0  0  0  0  0  0  0  0  0  0  0
    4.2634    2.5446   -0.2908 C   0  0  0  0  0  0  0  0  0  0  0  0
   -4.8278   -2.2100    0.1925 C   0  0  0  0  0  0  0  0  0  0  0  0
    4.6788    1.0788   -0.4430 C   0  0  0  0  0  0  0  0  0  0  0  0
    6.1198    0.8630    0.0277 C   0  0  0  0  0  0  0  0  0  0  0  0
    6.5837   -0.5933   -0.0813 C   0  0  0  0  0  0  0  0  0  0  0  0
    8.0332   -0.8016    0.3654 C   0  0  0  0  0  0  0  0  0  0  0  0
    8.4984   -2.2551    0.2443 C   0  0  0  0  0  0  0  0  0  0  0  0
    9.9132   -2.4832    0.7534 C   0  0  0  0  0  0  0  0  0  0  0  0
   -2.4438   -0.8094    1.5333 H   0  0  0  0  0  0  0  0  0  0  0  0
   -2.1636    1.5704   -1.2458 H   0  0  0  0  0  0  0  0  0  0  0  0
   -2.2784    2.8779   -0.0886 H   0  0  0  0  0  0  0  0  0  0  0  0
   -4.7634   -0.9466    1.8880 H   0  0  0  0  0  0  0  0  0  0  0  0
   -0.6069    1.8082    1.3936 H   0  0  0  0  0  0  0  0  0  0  0  0
   -0.4241    0.4625    0.2862 H   0  0  0  0  0  0  0  0  0  0  0  0
    0.1662    3.3808   -0.3637 H   0  0  0  0  0  0  0  0  0  0  0  0
    0.2873    2.0528   -1.5209 H   0  0  0  0  0  0  0  0  0  0  0  0
    1.8627    2.2253    1.1062 H   0  0  0  0  0  0  0  0  0  0  0  0
    1.9637    0.9304   -0.0910 H   0  0  0  0  0  0  0  0  0  0  0  0
    2.7344    2.6042   -1.8075 H   0  0  0  0  0  0  0  0  0  0  0  0
    2.6160    3.8882   -0.6085 H   0  0  0  0  0  0  0  0  0  0  0  0
   -3.7362    1.0112    2.5082 H   0  0  0  0  0  0  0  0  0  0  0  0
    4.3772    2.8496    0.7568 H   0  0  0  0  0  0  0  0  0  0  0  0
    4.9383    3.1779   -0.8795 H   0  0  0  0  0  0  0  0  0  0  0  0
    4.0291    0.4295    0.1524 H   0  0  0  0  0  0  0  0  0  0  0  0
    4.5799    0.7718   -1.4907 H   0  0  0  0  0  0  0  0  0  0  0  0
    6.7909    1.4975   -0.5645 H   0  0  0  0  0  0  0  0  0  0  0  0
    6.2139    1.1894    1.0710 H   0  0  0  0  0  0  0  0  0  0  0  0
    5.9244   -1.2272    0.5243 H   0  0  0  0  0  0  0  0  0  0  0  0
    6.4769   -0.9269   -1.1209 H   0  0  0  0  0  0  0  0  0  0  0  0
    8.6933   -0.1619   -0.2329 H   0  0  0  0  0  0  0  0  0  0  0  0
    8.1361   -0.4760    1.4080 H   0  0  0  0  0  0  0  0  0  0  0  0
    7.8148   -2.9030    0.8059 H   0  0  0  0  0  0  0  0  0  0  0  0
    8.4423   -2.5679   -0.8051 H   0  0  0  0  0  0  0  0  0  0  0  0
   -4.3887   -4.0992    0.3682 H   0  0  0  0  0  0  0  0  0  0  0  0
   10.6316   -1.8773    0.1924 H   0  0  0  0  0  0  0  0  0  0  0  0
   10.1928   -3.5354    0.6416 H   0  0  0  0  0  0  0  0  0  0  0  0
    9.9941   -2.2192    1.8125 H   0  0  0  0  0  0  0  0  0  0  0  0
   -0.0080   -1.5882   -1.5382 H   0  0  0  0  0  0  0  0  0  0  0  0
  1 12  1  0  0  0  0
  1 14  1  0  0  0  0
  2  9  1  0  0  0  0
  2 39  1  0  0  0  0
  3 14  2  0  0  0  0
  4  8  1  0  0  0  0
  4 17  1  0  0  0  0
  5 17  2  0  0  0  0
  6 20  1  0  0  0  0
  6 52  1  0  0  0  0
  7 20  2  0  0  0  0
  8 56  1  0  0  0  0
  9 10  1  0  0  0  0
  9 11  1  0  0  0  0
  9 14  1  0  0  0  0
 10 12  1  0  0  0  0
 10 17  1  0  0  0  0
 10 27  1  0  0  0  0
 11 13  1  0  0  0  0
 11 28  1  0  0  0  0
 11 29  1  0  0  0  0
 12 20  1  0  0  0  0
 12 30  1  0  0  0  0
 13 15  1  0  0  0  0
 13 31  1  0  0  0  0
 13 32  1  0  0  0  0
 15 16  1  0  0  0  0
 15 33  1  0  0  0  0
 15 34  1  0  0  0  0
 16 18  1  0  0  0  0
 16 35  1  0  0  0  0
 16 36  1  0  0  0  0
 18 19  1  0  0  0  0
 18 37  1  0  0  0  0
 18 38  1  0  0  0  0
 19 21  1  0  0  0  0
 19 40  1  0  0  0  0
 19 41  1  0  0  0  0
 21 22  1  0  0  0  0
 21 42  1  0  0  0  0
 21 43  1  0  0  0  0
 22 23  1  0  0  0  0
 22 44  1  0  0  0  0
 22 45  1  0  0  0  0
 23 24  1  0  0  0  0
 23 46  1  0  0  0  0
 23 47  1  0  0  0  0
 24 25  1  0  0  0  0
 24 48  1  0  0  0  0
 24 49  1  0  0  0  0
 25 26  1  0  0  0  0
 25 50  1  0  0  0  0
 25 51  1  0  0  0  0
 26 53  1  0  0  0  0
 26 54  1  0  0  0  0
 26 55  1  0  0  0  0
M  END
> <PUBCHEM_COMPOUND_CID>
131947

> <PUBCHEM_CONFORMER_RMSD>
1.2

> <PUBCHEM_CONFORMER_DIVERSEORDER>
2
20
1
17
6
50
28
47
37
9
5
48
24
45
41
35
39
3
10
27
38
33
7
14
15
25
18
46
29
30
43
23
12
13
40
49
31
34
52
42
36
4
51
22
8
44
32
19
26
16
21
11

> <PUBCHEM_MMFF94_PARTIAL_CHARGES>
17
1 -0.43
10 0.06
12 0.34
14 0.66
17 0.66
2 -0.68
20 0.66
3 -0.57
39 0.4
4 -0.15
5 -0.57
52 0.5
56 0.4
6 -0.65
7 -0.57
8 -0.4
9 0.34

> <PUBCHEM_EFFECTIVE_ROTOR_COUNT>
14.8

> <PUBCHEM_PHARMACOPHORE_FEATURES>
9
1 2 acceptor
1 2 donor
1 26 hydrophobe
1 3 acceptor
1 5 acceptor
1 6 acceptor
1 7 acceptor
3 6 7 20 anion
5 1 9 10 12 14 rings

> <PUBCHEM_HEAVY_ATOM_COUNT>
26

> <PUBCHEM_ATOM_DEF_STEREO_COUNT>
3

> <PUBCHEM_ATOM_UDEF_STEREO_COUNT>
0

> <PUBCHEM_BOND_DEF_STEREO_COUNT>
0

> <PUBCHEM_BOND_UDEF_STEREO_COUNT>
0

> <PUBCHEM_ISOTOPIC_ATOM_COUNT>
0

> <PUBCHEM_COMPONENT_COUNT>
1

> <PUBCHEM_CACTVS_TAUTO_COUNT>
1

> <PUBCHEM_CONFORMER_ID>
0002036B00000002

> <PUBCHEM_MMFF94_ENERGY>
23.9141

> <PUBCHEM_FEATURE_SELFOVERLAP>
45.729

> <PUBCHEM_SHAPE_FINGERPRINT>
10669705 251 18200881670014610966
10939801 23 18200031884964818868
13551218 46 18340774861117024805
1361 4 18263365957673264714
14420673 8 18408042905427070616
15183329 4 18040716949167122434
15230672 131 18187921716949578208
16120349 21 18339646638350598420
16728300 4 18269278031147762343
208703 8 18335414686862095466
20982279 24 17604442924283163147
21585483 132 18261661662905825002
229767 44 18273212002712036190
23522609 53 18048071595188812700
23559900 14 18196648725924678697
2748736 6 10231747869953067768
5104073 3 18059023902667132104
531348 171 18334016086090806145
559249 180 18411138034616967981
5718773 13 18408322186340079312
6138700 20 18335139790946834288
96874 4 18334010563521947402

> <PUBCHEM_SHAPE_MULTIPOLES>
488.11
23.54
3.81
1.05
63.91
0.67
0
19.37
-4.18
0.71
0.24
-0.84
0.16
-1.7

> <PUBCHEM_SHAPE_SELFOVERLAP>
968.352

> <PUBCHEM_SHAPE_VOLUME>
290.4

> <PUBCHEM_COORDINATE_TYPE>
2
5
10

$$$$
