131954791
  -OEChem-03292013293D

 51 53  0     0  0  0  0  0  0999 V2000
   -7.6971    1.0057    0.6079 F   0  0  0  0  0  0  0  0  0  0  0  0
    7.1179   -0.4815   -1.4705 F   0  0  0  0  0  0  0  0  0  0  0  0
   -0.3454   -2.9043    1.4265 O   0  0  0  0  0  0  0  0  0  0  0  0
    2.6433    1.7757   -0.9883 O   0  0  0  0  0  0  0  0  0  0  0  0
   -5.8185    0.1128   -2.8612 O   0  5  0  0  0  0  0  0  0  0  0  0
   -7.5464    0.9810   -1.8219 O   0  0  0  0  0  0  0  0  0  0  0  0
    5.5901    1.6924    1.5792 O   0  5  0  0  0  0  0  0  0  0  0  0
    7.2217    1.3264    0.1568 O   0  0  0  0  0  0  0  0  0  0  0  0
    0.5049    0.9349   -0.6090 N   0  0  0  0  0  0  0  0  0  0  0  0
   -6.4312    0.4065   -1.8065 N   0  3  0  0  0  0  0  0  0  0  0  0
    6.0963    1.0422    0.6332 N   0  3  0  0  0  0  0  0  0  0  0  0
   -0.9121    1.2188   -0.3451 C   0  0  0  0  0  0  0  0  0  0  0  0
   -1.3832    0.5560    0.9464 C   0  0  0  0  0  0  0  0  0  0  0  0
    0.8034   -0.4302   -1.0434 C   0  0  0  0  0  0  0  0  0  0  0  0
   -1.5248   -0.9368    0.8158 C   0  0  0  0  0  0  0  0  0  0  0  0
    0.9092   -1.3282    0.1569 C   0  0  0  0  0  0  0  0  0  0  0  0
   -0.3205   -1.8185    0.8515 C   0  0  0  0  0  0  0  0  0  0  0  0
   -2.7158   -1.5507    0.7553 C   0  0  0  0  0  0  0  0  0  0  0  0
    2.0839   -1.8029    0.5987 C   0  0  0  0  0  0  0  0  0  0  0  0
    1.5661    1.8158   -0.3912 C   0  0  0  0  0  0  0  0  0  0  0  0
   -4.0244   -0.8814    0.7116 C   0  0  0  0  0  0  0  0  0  0  0  0
    3.4066   -1.4536    0.0601 C   0  0  0  0  0  0  0  0  0  0  0  0
    1.3917    2.8613    0.6374 C   0  0  0  0  0  0  0  0  0  0  0  0
   -4.6038   -0.5593   -0.5157 C   0  0  0  0  0  0  0  0  0  0  0  0
    4.1194   -0.3823    0.5983 C   0  0  0  0  0  0  0  0  0  0  0  0
   -4.6850   -0.5658    1.8990 C   0  0  0  0  0  0  0  0  0  0  0  0
    3.9474   -2.1927   -0.9921 C   0  0  0  0  0  0  0  0  0  0  0  0
   -5.8438    0.0781   -0.5557 C   0  0  0  0  0  0  0  0  0  0  0  0
    5.3730   -0.0501    0.0847 C   0  0  0  0  0  0  0  0  0  0  0  0
   -5.9250    0.0716    1.8591 C   0  0  0  0  0  0  0  0  0  0  0  0
    5.2009   -1.8607   -1.5059 C   0  0  0  0  0  0  0  0  0  0  0  0
   -6.5044    0.3935    0.6317 C   0  0  0  0  0  0  0  0  0  0  0  0
    5.9137   -0.7894   -0.9674 C   0  0  0  0  0  0  0  0  0  0  0  0
    2.3919    3.7155    0.8639 C   0  0  0  0  0  0  0  0  0  0  0  0
   -1.5005    0.8870   -1.2091 H   0  0  0  0  0  0  0  0  0  0  0  0
   -1.0493    2.3027   -0.2733 H   0  0  0  0  0  0  0  0  0  0  0  0
   -2.3271    1.0251    1.2435 H   0  0  0  0  0  0  0  0  0  0  0  0
   -0.6848    0.7723    1.7651 H   0  0  0  0  0  0  0  0  0  0  0  0
    1.7187   -0.4208   -1.6426 H   0  0  0  0  0  0  0  0  0  0  0  0
    0.0113   -0.7761   -1.7184 H   0  0  0  0  0  0  0  0  0  0  0  0
   -2.7816   -2.6349    0.6895 H   0  0  0  0  0  0  0  0  0  0  0  0
    2.1304   -2.4753    1.4526 H   0  0  0  0  0  0  0  0  0  0  0  0
    0.4851    2.9198    1.2246 H   0  0  0  0  0  0  0  0  0  0  0  0
   -4.0703   -0.8135   -1.4295 H   0  0  0  0  0  0  0  0  0  0  0  0
    3.6805    0.1787    1.4211 H   0  0  0  0  0  0  0  0  0  0  0  0
   -4.2459   -0.8101    2.8632 H   0  0  0  0  0  0  0  0  0  0  0  0
    3.4035   -3.0302   -1.4224 H   0  0  0  0  0  0  0  0  0  0  0  0
   -6.4395    0.3175    2.7833 H   0  0  0  0  0  0  0  0  0  0  0  0
    5.6220   -2.4359   -2.3251 H   0  0  0  0  0  0  0  0  0  0  0  0
    2.2829    4.4778    1.6290 H   0  0  0  0  0  0  0  0  0  0  0  0
    3.3303    3.6995    0.3213 H   0  0  0  0  0  0  0  0  0  0  0  0
  1 32  1  0  0  0  0
  2 33  1  0  0  0  0
  3 17  2  0  0  0  0
  4 20  2  0  0  0  0
  5 10  1  0  0  0  0
  6 10  2  0  0  0  0
  7 11  1  0  0  0  0
  8 11  2  0  0  0  0
  9 12  1  0  0  0  0
  9 14  1  0  0  0  0
  9 20  1  0  0  0  0
 10 28  1  0  0  0  0
 11 29  1  0  0  0  0
 12 13  1  0  0  0  0
 12 35  1  0  0  0  0
 12 36  1  0  0  0  0
 13 15  1  0  0  0  0
 13 37  1  0  0  0  0
 13 38  1  0  0  0  0
 14 16  1  0  0  0  0
 14 39  1  0  0  0  0
 14 40  1  0  0  0  0
 15 17  1  0  0  0  0
 15 18  2  3  0  0  0
 16 17  1  0  0  0  0
 16 19  2  0  0  0  0
 18 21  1  0  0  0  0
 18 41  1  0  0  0  0
 19 22  1  0  0  0  0
 19 42  1  0  0  0  0
 20 23  1  0  0  0  0
 21 24  2  0  0  0  0
 21 26  1  0  0  0  0
 22 25  2  0  0  0  0
 22 27  1  0  0  0  0
 23 34  2  0  0  0  0
 23 43  1  0  0  0  0
 24 28  1  0  0  0  0
 24 44  1  0  0  0  0
 25 29  1  0  0  0  0
 25 45  1  0  0  0  0
 26 30  2  0  0  0  0
 26 46  1  0  0  0  0
 27 31  2  0  0  0  0
 27 47  1  0  0  0  0
 28 32  2  0  0  0  0
 29 33  2  0  0  0  0
 30 32  1  0  0  0  0
 30 48  1  0  0  0  0
 31 33  1  0  0  0  0
 31 49  1  0  0  0  0
 34 50  1  0  0  0  0
 34 51  1  0  0  0  0
M  CHG  4   5  -1   7  -1  10   1  11   1
M  END
> <PUBCHEM_COMPOUND_CID>
131954791

> <PUBCHEM_CONFORMER_RMSD>
1

> <PUBCHEM_CONFORMER_DIVERSEORDER>
1
89
76
102
15
99
68
103
53
33
95
18
24
10
45
6
63
64
72
35
36
94
14
87
39
84
88
79
101
37
71
54
4
67
22
85
52
74
27
97
86
106
28
13
49
42
104
107
70
73
46
55
78
105
81
62
77
40
69
25
56
83
50
41
11
61
44
100
91
92
31
66
57
58
5
34
16
9
60
59
48
8
65
20
2
80
90
23
43
21
32
82
96
98
47
19
26
7
12
93
75
38
29
30
3
51
17

> <PUBCHEM_MMFF94_PARTIAL_CHARGES>
45
1 -0.19
10 0.91
11 0.91
12 0.3
13 0.14
14 0.44
15 -0.12
16 -0.12
17 0.54
18 -0.18
19 -0.18
2 -0.19
20 0.62
21 0.03
22 0.03
23 -0.14
24 -0.15
25 -0.15
26 -0.15
27 -0.15
28 0.13
29 0.13
3 -0.57
30 -0.15
31 -0.15
32 0.19
33 0.19
34 -0.3
4 -0.57
41 0.15
42 0.15
43 0.15
44 0.15
45 0.15
46 0.15
47 0.15
48 0.15
49 0.15
5 -0.52
50 0.15
51 0.15
6 -0.52
7 -0.52
8 -0.52
9 -0.66

> <PUBCHEM_EFFECTIVE_ROTOR_COUNT>
6.8

> <PUBCHEM_PHARMACOPHORE_FEATURES>
12
1 3 acceptor
1 34 hydrophobe
1 4 acceptor
1 5 acceptor
1 5 anion
1 6 acceptor
1 7 acceptor
1 7 anion
1 8 acceptor
6 21 24 26 28 30 32 rings
6 22 25 27 29 31 33 rings
7 9 12 13 14 15 16 17 rings

> <PUBCHEM_HEAVY_ATOM_COUNT>
34

> <PUBCHEM_ATOM_DEF_STEREO_COUNT>
0

> <PUBCHEM_ATOM_UDEF_STEREO_COUNT>
0

> <PUBCHEM_BOND_DEF_STEREO_COUNT>
1

> <PUBCHEM_BOND_UDEF_STEREO_COUNT>
1

> <PUBCHEM_ISOTOPIC_ATOM_COUNT>
0

> <PUBCHEM_COMPONENT_COUNT>
1

> <PUBCHEM_CACTVS_TAUTO_COUNT>
1

> <PUBCHEM_CONFORMER_ID>
07DD786700000001

> <PUBCHEM_MMFF94_ENERGY>
110.5285

> <PUBCHEM_FEATURE_SELFOVERLAP>
61.063

> <PUBCHEM_SHAPE_FINGERPRINT>
10 15 16443070491246617035
10006869 2 18336540526539559018
10319926 262 16950285148320954881
10816530 90 18187374272350595004
11621639 179 18043232558783774269
12011746 2 18408609158400402530
12166972 35 17632577145539630073
12236239 1 17346598573449071591
12516196 113 18413112757610924818
12717326 135 16517343562670572269
12838862 33 18337379522746670496
13165053 68 15767778053252759220
1361 2 18131071524149486638
14028597 1 13190333552411659100
14040221 97 18043538428916522812
14170010 4 18411143540769920184
14840074 17 18131350791254349695
14856354 85 15626504991329382905
15183329 4 18040718052298334453
15328829 1 17059767918465146869
21033648 29 17749666389539446713
21223535 225 18268993099324017853
21279426 13 18335425698303414004
21792934 111 18261667078763918610
21859007 373 17749377170520833325
22121540 332 17751054982119721269
22393880 68 18187922915678399011
23522609 53 16342883008423620371
23559900 14 18341331201047329601
24771293 8 18201995564917843600
24771750 20 17900564550266611268
3009799 131 18334296452743862863
350125 39 18260271845357544517
3633792 109 18343300349643546001
394071 54 18343027713677771840
4093350 32 17846504712008853198
4169191 19 18338803436879887272
58902169 19 17561363976231269836
59755656 215 18260823787135557093
6081469 158 18187088313628357454
6086070 43 18128824216697298665
77296 10 17773872189195518295

> <PUBCHEM_SHAPE_MULTIPOLES>
635
19.87
2.73
1.73
12.27
1.59
0.62
2.61
4.9
-3.7
-0.65
2.49
-0.12
2.02

> <PUBCHEM_SHAPE_SELFOVERLAP>
1377.718

> <PUBCHEM_SHAPE_VOLUME>
345.5

> <PUBCHEM_COORDINATE_TYPE>
2
5
10

$$$$
