REMARK  Name = 131945
REMARK  17 active torsions:
REMARK  status: ('A' for Active; 'I' for Inactive)
REMARK    1  A    between atoms: C_2  and  C_6
REMARK    2  A    between atoms: C_2  and  O_16
REMARK    3  A    between atoms: C_5  and  C_12
REMARK    4  A    between atoms: C_7  and  O_9
REMARK    5  A    between atoms: C_12  and  O_13
REMARK    6  A    between atoms: O_13  and  O_14
REMARK    7  A    between atoms: O_16  and  C_17
REMARK    8  A    between atoms: C_17  and  C_18
REMARK    9  A    between atoms: C_18  and  C_19
REMARK   10  A    between atoms: C_19  and  C_20
REMARK   11  A    between atoms: C_20  and  C_21
REMARK   12  A    between atoms: C_21  and  C_22
REMARK   13  A    between atoms: C_22  and  C_23
REMARK   14  A    between atoms: C_23  and  C_24
REMARK   15  A    between atoms: C_24  and  C_25
REMARK   16  A    between atoms: C_25  and  C_26
REMARK   17  A    between atoms: C_26  and  C_27
REMARK                            x       y       z     vdW  Elec       q    Type
REMARK                         _______ _______ _______ _____ _____    ______ ____
ROOT
ATOM      1  O   UNL     1      -3.723   1.582  -1.118  0.00  0.00    -0.246 OA
ATOM      2  C   UNL     1      -3.567   1.003  -0.052  0.00  0.00    +0.358 C 
ENDROOT
BRANCH   2   6
ATOM      3  O   UNL     1      -5.683   1.623   0.706  0.00  0.00    -0.438 OA
ATOM      4  O   UNL     1      -7.791   1.758  -0.183  0.00  0.00    -0.247 OA
ATOM      5  C   UNL     1      -5.377  -0.706   0.532  0.00  0.00    +0.191 C 
ATOM      6  C   UNL     1      -4.688   0.606   0.859  0.00  0.00    +0.280 C 
ATOM      7  C   UNL     1      -6.490  -0.281  -0.405  0.00  0.00    +0.225 C 
ATOM      8  C   UNL     1      -6.766   1.131   0.033  0.00  0.00    +0.345 C 
BRANCH   7   9
ATOM      9  O   UNL     1      -7.628  -1.094  -0.246  0.00  0.00    -0.374 OA
ATOM     10  H   UNL     1      -7.422  -1.997  -0.535  0.00  0.00    +0.211 HD
ENDBRANCH   7   9
BRANCH   5  12
ATOM     11  O   UNL     1      -4.627  -2.163  -1.230  0.00  0.00    -0.247 OA
ATOM     12  C   UNL     1      -4.468  -1.713  -0.104  0.00  0.00    +0.358 C 
BRANCH  12  13
ATOM     13  O   UNL     1      -3.463  -2.029   0.763  0.00  0.00    -0.299 OA
BRANCH  13  14
ATOM     14  O   UNL     1      -2.624  -3.004   0.087  0.00  0.00    -0.198 OA
ATOM     15  H   UNL     1      -1.892  -3.260   0.669  0.00  0.00    +0.268 HD
ENDBRANCH  13  14
ENDBRANCH  12  13
ENDBRANCH   5  12
ENDBRANCH   2   6
BRANCH   2  16
ATOM     16  O   UNL     1      -2.370   0.621   0.488  0.00  0.00    -0.446 OA
BRANCH  16  17
ATOM     17  C   UNL     1      -1.216   0.938  -0.277  0.00  0.00    +0.209 C 
BRANCH  17  18
ATOM     18  C   UNL     1       0.036   0.455   0.445  0.00  0.00    +0.047 C 
BRANCH  18  19
ATOM     19  C   UNL     1       1.313   0.753  -0.348  0.00  0.00    +0.004 C 
BRANCH  19  20
ATOM     20  C   UNL     1       2.553   0.236   0.387  0.00  0.00    +0.000 C 
BRANCH  20  21
ATOM     21  C   UNL     1       3.863   0.532  -0.350  0.00  0.00    +0.000 C 
BRANCH  21  22
ATOM     22  C   UNL     1       5.103   0.036   0.396  0.00  0.00    +0.000 C 
BRANCH  22  23
ATOM     23  C   UNL     1       6.415   0.343  -0.334  0.00  0.00    +0.000 C 
BRANCH  23  24
ATOM     24  C   UNL     1       7.689  -0.206   0.317  0.00  0.00    +0.000 C 
BRANCH  24  25
ATOM     25  C   UNL     1       8.969   0.185  -0.426  0.00  0.00    +0.000 C 
BRANCH  25  26
ATOM     26  C   UNL     1      10.247  -0.290   0.274  0.00  0.00    +0.000 C 
BRANCH  26  27
ATOM     27  C   UNL     1      11.529   0.121  -0.452  0.00  0.00    +0.000 C 
ATOM     28  C   UNL     1      12.762  -0.438   0.242  0.00  0.00    +0.000 C 
ENDBRANCH  26  27
ENDBRANCH  25  26
ENDBRANCH  24  25
ENDBRANCH  23  24
ENDBRANCH  22  23
ENDBRANCH  21  22
ENDBRANCH  20  21
ENDBRANCH  19  20
ENDBRANCH  18  19
ENDBRANCH  17  18
ENDBRANCH  16  17
ENDBRANCH   2  16
TORSDOF 17
