REMARK  Name = 131943
REMARK  13 active torsions:
REMARK  status: ('A' for Active; 'I' for Inactive)
REMARK    1  A    between atoms: C_6  and  O_12
REMARK    2  A    between atoms: C_6  and  C_17
REMARK    3  A    between atoms: C_8  and  C_20
REMARK    4  A    between atoms: C_9  and  O_14
REMARK    5  A    between atoms: C_17  and  O_18
REMARK    6  A    between atoms: C_20  and  C_21
REMARK    7  A    between atoms: C_21  and  C_22
REMARK    8  A    between atoms: C_22  and  C_23
REMARK    9  A    between atoms: C_23  and  C_24
REMARK   10  A    between atoms: C_24  and  C_25
REMARK   11  A    between atoms: C_25  and  C_26
REMARK   12  A    between atoms: C_26  and  C_27
REMARK   13  A    between atoms: C_27  and  C_28
REMARK                            x       y       z     vdW  Elec       q    Type
REMARK                         _______ _______ _______ _____ _____    ______ ____
ROOT
ATOM      1  O   UNL     1       3.916  -1.301   0.045  0.00  0.00    -0.440 OA
ATOM      2  O   UNL     1       1.056  -1.196   1.198  0.00  0.00    -0.450 OA
ATOM      3  O   UNL     1       2.593  -0.275   2.621  0.00  0.00    -0.246 OA
ATOM      4  O   UNL     1       5.996  -1.516  -0.904  0.00  0.00    -0.247 OA
ATOM      5  C   UNL     1       2.960  -0.235   0.203  0.00  0.00    +0.262 C 
ATOM      6  C   UNL     1       3.805   1.033   0.129  0.00  0.00    +0.256 C 
ATOM      7  C   UNL     1       1.865  -0.402  -0.843  0.00  0.00    +0.098 C 
ATOM      8  C   UNL     1       0.985  -1.463  -0.209  0.00  0.00    +0.173 C 
ATOM      9  C   UNL     1       4.842   0.628  -0.910  0.00  0.00    +0.249 C 
ATOM     10  C   UNL     1       2.223  -0.537   1.488  0.00  0.00    +0.357 C 
ATOM     11  C   UNL     1       5.025  -0.838  -0.614  0.00  0.00    +0.348 C 
ENDROOT
BRANCH   6  12
ATOM     12  O   UNL     1       4.465   1.320   1.351  0.00  0.00    -0.371 OA
ATOM     13  H   UNL     1       4.956   0.537   1.645  0.00  0.00    +0.211 HD
ENDBRANCH   6  12
BRANCH   9  14
ATOM     14  O   UNL     1       6.049   1.343  -0.821  0.00  0.00    -0.372 OA
ATOM     15  H   UNL     1       5.887   2.278  -1.018  0.00  0.00    +0.211 HD
ENDBRANCH   9  14
BRANCH   6  17
ATOM     16  O   UNL     1       3.259   2.903  -1.303  0.00  0.00    -0.247 OA
ATOM     17  C   UNL     1       3.068   2.275  -0.272  0.00  0.00    +0.345 C 
BRANCH  17  18
ATOM     18  O   UNL     1       2.154   2.614   0.670  0.00  0.00    -0.478 OA
ATOM     19  H   UNL     1       2.057   2.088   1.439  0.00  0.00    +0.295 HD
ENDBRANCH  17  18
ENDBRANCH   6  17
BRANCH   8  20
ATOM     20  C   UNL     1      -0.458  -1.400  -0.672  0.00  0.00    +0.044 C 
BRANCH  20  21
ATOM     21  C   UNL     1      -1.349  -2.474  -0.043  0.00  0.00    +0.004 C 
BRANCH  21  22
ATOM     22  C   UNL     1      -2.827  -2.426  -0.441  0.00  0.00    +0.000 C 
BRANCH  22  23
ATOM     23  C   UNL     1      -3.586  -1.160  -0.032  0.00  0.00    +0.000 C 
BRANCH  23  24
ATOM     24  C   UNL     1      -5.061  -1.178  -0.438  0.00  0.00    +0.000 C 
BRANCH  24  25
ATOM     25  C   UNL     1      -5.771   0.106  -0.001  0.00  0.00    +0.000 C 
BRANCH  25  26
ATOM     26  C   UNL     1      -7.255   0.075  -0.379  0.00  0.00    +0.005 C 
BRANCH  26  27
ATOM     27  C   UNL     1      -8.015   1.329   0.066  0.00  0.00    +0.026 C 
BRANCH  27  28
ATOM     28  C   UNL     1      -9.452   1.328  -0.365  0.00  0.00    -0.026 C 
ATOM     29  C   UNL     1     -10.485   1.450   0.476  0.00  0.00    -0.005 C 
ENDBRANCH  27  28
ENDBRANCH  26  27
ENDBRANCH  25  26
ENDBRANCH  24  25
ENDBRANCH  23  24
ENDBRANCH  22  23
ENDBRANCH  21  22
ENDBRANCH  20  21
ENDBRANCH   8  20
TORSDOF 13
