REMARK  Name = 1319216
REMARK  5 active torsions:
REMARK  status: ('A' for Active; 'I' for Inactive)
REMARK    1  A    between atoms: S_1  and  C_6
REMARK    2  A    between atoms: S_1  and  C_13
REMARK    3  A    between atoms: C_13  and  C_14
REMARK    4  A    between atoms: C_14  and  S_15
REMARK    5  A    between atoms: S_15  and  C_18
REMARK                            x       y       z     vdW  Elec       q    Type
REMARK                         _______ _______ _______ _____ _____    ______ ____
ROOT
ATOM      1  S   UNL     1      -1.473   1.188   0.007  0.00  0.00    +0.043 S 
ATOM      2  O   UNL     1      -1.291   1.879  -1.256  0.00  0.00    -0.166 OA
ATOM      3  O   UNL     1      -1.261   1.855   1.277  0.00  0.00    -0.166 OA
ENDROOT
BRANCH   1   6
ATOM      4  S   UNL     1      -4.358   1.839   0.019  0.00  0.00    -0.053 S 
ATOM      5  N   UNL     1      -3.521  -0.600  -0.008  0.00  0.00    -0.381 NA
ATOM      6  C   UNL     1      -3.178   0.635   0.004  0.00  0.00    +0.262 C 
ATOM      7  C   UNL     1      -5.548   0.591   0.008  0.00  0.00    +0.130 C 
ATOM      8  C   UNL     1      -4.907  -0.652  -0.007  0.00  0.00    +0.125 C 
ATOM      9  C   UNL     1      -6.948   0.703   0.011  0.00  0.00    -0.008 C 
ATOM     10  C   UNL     1      -5.697  -1.821  -0.018  0.00  0.00    +0.029 C 
ATOM     11  C   UNL     1      -7.706  -0.470   0.000  0.00  0.00    -0.003 C 
ATOM     12  C   UNL     1      -7.091  -1.717  -0.015  0.00  0.00    +0.002 C 
ENDBRANCH   1   6
BRANCH   1  13
ATOM     13  C   UNL     1      -0.554  -0.321  -0.011  0.00  0.00    +0.172 C 
BRANCH  13  14
ATOM     14  C   UNL     1       0.938  -0.048  -0.011  0.00  0.00    +0.094 C 
BRANCH  14  15
ATOM     15  S   UNL     1       1.868  -1.605   0.010  0.00  0.00    -0.041 S 
BRANCH  15  18
ATOM     16  O   UNL     1       3.781   0.328  -0.010  0.00  0.00    -0.421 OA
ATOM     17  N   UNL     1       4.553  -1.803   0.018  0.00  0.00    -0.363 NA
ATOM     18  C   UNL     1       3.506  -1.006   0.006  0.00  0.00    +0.312 C 
ATOM     19  C   UNL     1       5.146   0.375  -0.009  0.00  0.00    +0.174 C 
ATOM     20  C   UNL     1       5.614  -0.931   0.009  0.00  0.00    +0.152 C 
ATOM     21  C   UNL     1       5.953   1.506  -0.022  0.00  0.00    +0.040 C 
ATOM     22  C   UNL     1       6.999  -1.154   0.014  0.00  0.00    +0.088 C 
ATOM     23  C   UNL     1       7.331   1.266  -0.016  0.00  0.00    -0.001 C 
ATOM     24  C   UNL     1       7.846  -0.036   0.001  0.00  0.00    -0.018 C 
ENDBRANCH  15  18
ENDBRANCH  14  15
ENDBRANCH  13  14
ENDBRANCH   1  13
TORSDOF 5
