REMARK  Name = 131947
REMARK  17 active torsions:
REMARK  status: ('A' for Active; 'I' for Inactive)
REMARK    1  A    between atoms: C_3  and  O_7
REMARK    2  A    between atoms: C_3  and  C_18
REMARK    3  A    between atoms: C_4  and  C_10
REMARK    4  A    between atoms: C_5  and  C_15
REMARK    5  A    between atoms: C_10  and  O_11
REMARK    6  A    between atoms: O_11  and  O_12
REMARK    7  A    between atoms: C_15  and  O_16
REMARK    8  A    between atoms: C_18  and  C_19
REMARK    9  A    between atoms: C_19  and  C_20
REMARK   10  A    between atoms: C_20  and  C_21
REMARK   11  A    between atoms: C_21  and  C_22
REMARK   12  A    between atoms: C_22  and  C_23
REMARK   13  A    between atoms: C_23  and  C_24
REMARK   14  A    between atoms: C_24  and  C_25
REMARK   15  A    between atoms: C_25  and  C_26
REMARK   16  A    between atoms: C_26  and  C_27
REMARK   17  A    between atoms: C_27  and  C_28
REMARK                            x       y       z     vdW  Elec       q    Type
REMARK                         _______ _______ _______ _____ _____    ______ ____
ROOT
ATOM      1  O   UNL     1      -5.250   0.101   0.205  0.00  0.00    -0.438 OA
ATOM      2  O   UNL     1      -4.999   2.325  -0.276  0.00  0.00    -0.247 OA
ATOM      3  C   UNL     1      -3.136   1.046   0.632  0.00  0.00    +0.191 C 
ATOM      4  C   UNL     1      -3.018  -0.474   0.659  0.00  0.00    +0.188 C 
ATOM      5  C   UNL     1      -4.462  -0.910   0.834  0.00  0.00    +0.280 C 
ATOM      6  C   UNL     1      -4.540   1.268   0.128  0.00  0.00    +0.342 C 
ENDROOT
BRANCH   3   7
ATOM      7  O   UNL     1      -3.147   1.557   1.961  0.00  0.00    -0.376 OA
ATOM      8  H   UNL     1      -2.268   1.449   2.356  0.00  0.00    +0.211 HD
ENDBRANCH   3   7
BRANCH   4  10
ATOM      9  O   UNL     1      -2.796  -0.862  -1.710  0.00  0.00    -0.247 OA
ATOM     10  C   UNL     1      -2.372  -1.038  -0.575  0.00  0.00    +0.358 C 
BRANCH  10  11
ATOM     11  O   UNL     1      -1.268  -1.757  -0.222  0.00  0.00    -0.299 OA
BRANCH  11  12
ATOM     12  O   UNL     1      -0.696  -2.271  -1.456  0.00  0.00    -0.198 OA
ATOM     13  H   UNL     1       0.096  -2.792  -1.252  0.00  0.00    +0.268 HD
ENDBRANCH  11  12
ENDBRANCH  10  11
ENDBRANCH   4  10
BRANCH   5  15
ATOM     14  O   UNL     1      -5.619  -2.339  -0.730  0.00  0.00    -0.246 OA
ATOM     15  C   UNL     1      -4.828  -2.210   0.193  0.00  0.00    +0.355 C 
BRANCH  15  16
ATOM     16  O   UNL     1      -4.162  -3.236   0.776  0.00  0.00    -0.478 OA
ATOM     17  H   UNL     1      -3.568  -3.069   1.481  0.00  0.00    +0.295 HD
ENDBRANCH  15  16
ENDBRANCH   5  15
BRANCH   3  18
ATOM     18  C   UNL     1      -2.091   1.799  -0.176  0.00  0.00    +0.039 C 
BRANCH  18  19
ATOM     19  C   UNL     1      -0.679   1.521   0.337  0.00  0.00    +0.003 C 
BRANCH  19  20
ATOM     20  C   UNL     1       0.366   2.307  -0.457  0.00  0.00    +0.000 C 
BRANCH  20  21
ATOM     21  C   UNL     1       1.784   2.003   0.035  0.00  0.00    +0.000 C 
BRANCH  21  22
ATOM     22  C   UNL     1       2.824   2.819  -0.735  0.00  0.00    +0.000 C 
BRANCH  22  23
ATOM     23  C   UNL     1       4.263   2.545  -0.291  0.00  0.00    +0.000 C 
BRANCH  23  24
ATOM     24  C   UNL     1       4.679   1.079  -0.443  0.00  0.00    +0.000 C 
BRANCH  24  25
ATOM     25  C   UNL     1       6.120   0.863   0.028  0.00  0.00    +0.000 C 
BRANCH  25  26
ATOM     26  C   UNL     1       6.584  -0.593  -0.081  0.00  0.00    +0.000 C 
BRANCH  26  27
ATOM     27  C   UNL     1       8.033  -0.802   0.365  0.00  0.00    +0.000 C 
BRANCH  27  28
ATOM     28  C   UNL     1       8.498  -2.255   0.244  0.00  0.00    +0.000 C 
ATOM     29  C   UNL     1       9.913  -2.483   0.753  0.00  0.00    +0.000 C 
ENDBRANCH  27  28
ENDBRANCH  26  27
ENDBRANCH  25  26
ENDBRANCH  24  25
ENDBRANCH  23  24
ENDBRANCH  22  23
ENDBRANCH  21  22
ENDBRANCH  20  21
ENDBRANCH  19  20
ENDBRANCH  18  19
ENDBRANCH   3  18
TORSDOF 17
