REMARK  Name = 131929
REMARK  9 active torsions:
REMARK  status: ('A' for Active; 'I' for Inactive)
REMARK    1  A    between atoms: C_2  and  C_10
REMARK    2  A    between atoms: C_3  and  C_20
REMARK    3  A    between atoms: C_4  and  O_8
REMARK    4  A    between atoms: C_10  and  C_13
REMARK    5  A    between atoms: C_10  and  N_16
REMARK    6  A    between atoms: C_20  and  O_21
REMARK    7  A    between atoms: O_21  and  P_22
REMARK    8  A    between atoms: P_22  and  O_24
REMARK    9  A    between atoms: P_22  and  O_26
REMARK                            x       y       z     vdW  Elec       q    Type
REMARK                         _______ _______ _______ _____ _____    ______ ____
ROOT
ATOM      1  N   UNL     1       1.838   2.498  -0.551  0.00  0.00    -0.245 NA
ATOM      2  C   UNL     1       0.979  -0.068   0.150  0.00  0.00    +0.001 C 
ATOM      3  C   UNL     1       0.094   0.828  -0.441  0.00  0.00    +0.024 C 
ATOM      4  C   UNL     1       2.292   0.319   0.391  0.00  0.00    +0.141 C 
ATOM      5  C   UNL     1       2.669   1.601   0.025  0.00  0.00    +0.092 C 
ATOM      6  C   UNL     1       0.569   2.087  -0.770  0.00  0.00    +0.096 C 
ATOM      7  C   UNL     1       4.068   2.067   0.262  0.00  0.00    +0.055 C 
ENDROOT
BRANCH   4   8
ATOM      8  O   UNL     1       3.179  -0.536   0.968  0.00  0.00    -0.505 OA
ATOM      9  H   UNL     1       2.908  -1.400   1.209  0.00  0.00    +0.292 HD
ENDBRANCH   4   8
BRANCH   2  10
ATOM     10  C   UNL     1       0.522  -1.440   0.526  0.00  0.00    +0.039 C 
BRANCH  10  13
ATOM     11  O   UNL     1       1.625  -2.321  -1.458  0.00  0.00    -0.277 OA
ATOM     12  N   UNL     1      -0.178  -3.467  -0.617  0.00  0.00    -0.330 N 
ATOM     13  C   UNL     1       0.740  -2.438  -0.613  0.00  0.00    +0.203 C 
ATOM     14  H   UNL     1      -0.130  -4.167  -1.307  0.00  0.00    +0.145 HD
ATOM     15  H   UNL     1      -0.881  -3.502   0.072  0.00  0.00    +0.145 HD
ENDBRANCH  10  13
BRANCH  10  16
ATOM     16  N   UNL     1       1.219  -1.982   1.706  0.00  0.00    +0.390 N 
ATOM     17  H   UNL     1       1.099  -1.345   2.494  0.00  0.00    -0.088 HD
ATOM     18  H   UNL     1       2.212  -2.083   1.498  0.00  0.00    -0.088 HD
ATOM     19  H   UNL     1       0.827  -2.893   1.944  0.00  0.00    -0.088 HD
ENDBRANCH  10  16
ENDBRANCH   2  10
BRANCH   3  20
ATOM     20  C   UNL     1      -1.323   0.468  -0.723  0.00  0.00    +0.181 C 
BRANCH  20  21
ATOM     21  O   UNL     1      -2.130   0.803   0.400  0.00  0.00    -0.268 OA
BRANCH  21  22
ATOM     22  P   UNL     1      -3.716   0.501   0.322  0.00  0.00    +0.473 P 
ATOM     23  O   UNL     1      -4.498   0.883   1.544  0.00  0.00    -0.227 OA
BRANCH  22  24
ATOM     24  O   UNL     1      -3.790  -1.063  -0.086  0.00  0.00    -0.303 OA
ATOM     25  H   UNL     1      -3.259  -1.214  -0.883  0.00  0.00    +0.222 HD
ENDBRANCH  22  24
BRANCH  22  26
ATOM     26  O   UNL     1      -4.157   1.260  -1.036  0.00  0.00    -0.303 OA
ATOM     27  H   UNL     1      -3.604   0.955  -1.772  0.00  0.00    +0.222 HD
ENDBRANCH  22  26
ENDBRANCH  21  22
ENDBRANCH  20  21
ENDBRANCH   3  20
TORSDOF 9
