REMARK  Name = 131954791
REMARK  5 active torsions:
REMARK  status: ('A' for Active; 'I' for Inactive)
REMARK    1  A    between atoms: C_10  and  C_14
REMARK    2  A    between atoms: C_11  and  C_24
REMARK    3  A    between atoms: C_12  and  C_33
REMARK    4  A    between atoms: C_17  and  N_22
REMARK    5  A    between atoms: C_27  and  N_32
REMARK                            x       y       z     vdW  Elec       q    Type
REMARK                         _______ _______ _______ _____ _____    ______ ____
ROOT
ATOM      1  O   UNL     1      -0.345  -2.904   1.427  0.00  0.00    -0.287 OA
ATOM      2  O   UNL     1       2.643   1.776  -0.988  0.00  0.00    -0.270 OA
ATOM      3  N   UNL     1       0.505   0.935  -0.609  0.00  0.00    -0.272 N 
ATOM      4  C   UNL     1      -0.912   1.219  -0.345  0.00  0.00    +0.099 C 
ATOM      5  C   UNL     1      -1.383   0.556   0.946  0.00  0.00    +0.051 C 
ATOM      6  C   UNL     1       0.803  -0.430  -1.043  0.00  0.00    +0.124 C 
ATOM      7  C   UNL     1      -1.525  -0.937   0.816  0.00  0.00    +0.018 C 
ATOM      8  C   UNL     1       0.909  -1.328   0.157  0.00  0.00    +0.036 C 
ATOM      9  C   UNL     1      -0.321  -1.819   0.852  0.00  0.00    +0.189 C 
ATOM     10  C   UNL     1      -2.716  -1.551   0.755  0.00  0.00    -0.001 C 
ATOM     11  C   UNL     1       2.084  -1.803   0.599  0.00  0.00    +0.001 C 
ATOM     12  C   UNL     1       1.566   1.816  -0.391  0.00  0.00    +0.249 C 
ENDROOT
BRANCH  10  14
ATOM     13  F   UNL     1      -7.697   1.006   0.608  0.00  0.00    -0.202 F 
ATOM     14  C   UNL     1      -4.024  -0.881   0.712  0.00  0.00    +0.002 C 
ATOM     15  C   UNL     1      -4.604  -0.559  -0.516  0.00  0.00    +0.026 C 
ATOM     16  C   UNL     1      -4.685  -0.566   1.899  0.00  0.00    +0.002 C 
ATOM     17  C   UNL     1      -5.844   0.078  -0.556  0.00  0.00    +0.170 C 
ATOM     18  C   UNL     1      -5.925   0.072   1.859  0.00  0.00    +0.031 C 
ATOM     19  C   UNL     1      -6.504   0.394   0.632  0.00  0.00    +0.162 C 
BRANCH  17  22
ATOM     20  O   UNL     1      -5.819   0.113  -2.861  0.00  0.00    -0.126 OA
ATOM     21  O   UNL     1      -7.546   0.981  -1.822  0.00  0.00    -0.126 OA
ATOM     22  N   UNL     1      -6.431   0.406  -1.806  0.00  0.00    +0.060 N 
ENDBRANCH  17  22
ENDBRANCH  10  14
BRANCH  11  24
ATOM     23  F   UNL     1       7.118  -0.481  -1.470  0.00  0.00    -0.202 F 
ATOM     24  C   UNL     1       3.407  -1.454   0.060  0.00  0.00    +0.002 C 
ATOM     25  C   UNL     1       4.119  -0.382   0.598  0.00  0.00    +0.026 C 
ATOM     26  C   UNL     1       3.947  -2.193  -0.992  0.00  0.00    +0.002 C 
ATOM     27  C   UNL     1       5.373  -0.050   0.085  0.00  0.00    +0.170 C 
ATOM     28  C   UNL     1       5.201  -1.861  -1.506  0.00  0.00    +0.031 C 
ATOM     29  C   UNL     1       5.914  -0.789  -0.967  0.00  0.00    +0.162 C 
BRANCH  27  32
ATOM     30  O   UNL     1       5.590   1.692   1.579  0.00  0.00    -0.126 OA
ATOM     31  O   UNL     1       7.222   1.326   0.157  0.00  0.00    -0.126 OA
ATOM     32  N   UNL     1       6.096   1.042   0.633  0.00  0.00    +0.060 N 
ENDBRANCH  27  32
ENDBRANCH  11  24
BRANCH  12  33
ATOM     33  C   UNL     1       1.392   2.861   0.637  0.00  0.00    +0.058 C 
ATOM     34  C   UNL     1       2.392   3.716   0.864  0.00  0.00    +0.005 C 
ENDBRANCH  12  33
TORSDOF 5
