131943
  -OEChem-03292013323D

 52 53  0     1  0  0  0  0  0999 V2000
    3.9164   -1.3012    0.0449 O   0  0  0  0  0  0  0  0  0  0  0  0
    1.0558   -1.1958    1.1980 O   0  0  0  0  0  0  0  0  0  0  0  0
    4.4655    1.3201    1.3514 O   0  0  0  0  0  0  0  0  0  0  0  0
    6.0493    1.3427   -0.8213 O   0  0  0  0  0  0  0  0  0  0  0  0
    2.5928   -0.2754    2.6213 O   0  0  0  0  0  0  0  0  0  0  0  0
    2.1536    2.6137    0.6698 O   0  0  0  0  0  0  0  0  0  0  0  0
    5.9964   -1.5165   -0.9041 O   0  0  0  0  0  0  0  0  0  0  0  0
    3.2590    2.9028   -1.3026 O   0  0  0  0  0  0  0  0  0  0  0  0
    2.9600   -0.2347    0.2025 C   0  0  1  0  0  0  0  0  0  0  0  0
    3.8046    1.0330    0.1286 C   0  0  2  0  0  0  0  0  0  0  0  0
    1.8646   -0.4023   -0.8431 C   0  0  0  0  0  0  0  0  0  0  0  0
    0.9852   -1.4634   -0.2094 C   0  0  2  0  0  0  0  0  0  0  0  0
    4.8417    0.6283   -0.9097 C   0  0  2  0  0  0  0  0  0  0  0  0
    2.2232   -0.5375    1.4877 C   0  0  0  0  0  0  0  0  0  0  0  0
   -0.4583   -1.3999   -0.6720 C   0  0  0  0  0  0  0  0  0  0  0  0
    5.0246   -0.8375   -0.6139 C   0  0  0  0  0  0  0  0  0  0  0  0
   -1.3485   -2.4739   -0.0428 C   0  0  0  0  0  0  0  0  0  0  0  0
    3.0676    2.2746   -0.2719 C   0  0  0  0  0  0  0  0  0  0  0  0
   -2.8273   -2.4264   -0.4411 C   0  0  0  0  0  0  0  0  0  0  0  0
   -3.5860   -1.1602   -0.0322 C   0  0  0  0  0  0  0  0  0  0  0  0
   -5.0611   -1.1778   -0.4382 C   0  0  0  0  0  0  0  0  0  0  0  0
   -5.7714    0.1060   -0.0006 C   0  0  0  0  0  0  0  0  0  0  0  0
   -7.2554    0.0747   -0.3790 C   0  0  0  0  0  0  0  0  0  0  0  0
   -8.0147    1.3285    0.0663 C   0  0  0  0  0  0  0  0  0  0  0  0
   -9.4521    1.3280   -0.3648 C   0  0  0  0  0  0  0  0  0  0  0  0
  -10.4854    1.4502    0.4760 C   0  0  0  0  0  0  0  0  0  0  0  0
    1.2920    0.5226   -0.9718 H   0  0  0  0  0  0  0  0  0  0  0  0
    2.2295   -0.7261   -1.8229 H   0  0  0  0  0  0  0  0  0  0  0  0
    1.3936   -2.4671   -0.3817 H   0  0  0  0  0  0  0  0  0  0  0  0
    4.4535    0.7101   -1.9325 H   0  0  0  0  0  0  0  0  0  0  0  0
   -0.5005   -1.4938   -1.7637 H   0  0  0  0  0  0  0  0  0  0  0  0
   -0.8660   -0.4155   -0.4138 H   0  0  0  0  0  0  0  0  0  0  0  0
   -0.9524   -3.4606   -0.3142 H   0  0  0  0  0  0  0  0  0  0  0  0
   -1.2855   -2.4063    1.0503 H   0  0  0  0  0  0  0  0  0  0  0  0
    3.7894    1.4879    2.0298 H   0  0  0  0  0  0  0  0  0  0  0  0
   -2.9022   -2.5516   -1.5286 H   0  0  0  0  0  0  0  0  0  0  0  0
   -3.3284   -3.2945    0.0052 H   0  0  0  0  0  0  0  0  0  0  0  0
    6.6356    1.0181   -1.5259 H   0  0  0  0  0  0  0  0  0  0  0  0
   -3.5082   -1.0339    1.0546 H   0  0  0  0  0  0  0  0  0  0  0  0
   -3.1107   -0.2848   -0.4889 H   0  0  0  0  0  0  0  0  0  0  0  0
   -5.1415   -1.2922   -1.5258 H   0  0  0  0  0  0  0  0  0  0  0  0
   -5.5538   -2.0457    0.0163 H   0  0  0  0  0  0  0  0  0  0  0  0
    1.6592    3.4247    0.4253 H   0  0  0  0  0  0  0  0  0  0  0  0
   -5.2913    0.9733   -0.4693 H   0  0  0  0  0  0  0  0  0  0  0  0
   -5.6749    0.2288    1.0849 H   0  0  0  0  0  0  0  0  0  0  0  0
   -7.3451   -0.0395   -1.4670 H   0  0  0  0  0  0  0  0  0  0  0  0
   -7.7260   -0.8094    0.0698 H   0  0  0  0  0  0  0  0  0  0  0  0
   -7.9378    1.4296    1.1560 H   0  0  0  0  0  0  0  0  0  0  0  0
   -7.5321    2.2136   -0.3659 H   0  0  0  0  0  0  0  0  0  0  0  0
   -9.6544    1.2392   -1.4290 H   0  0  0  0  0  0  0  0  0  0  0  0
  -11.5025    1.4509    0.0995 H   0  0  0  0  0  0  0  0  0  0  0  0
  -10.3382    1.5502    1.5456 H   0  0  0  0  0  0  0  0  0  0  0  0
  1  9  1  0  0  0  0
  1 16  1  0  0  0  0
  2 12  1  0  0  0  0
  2 14  1  0  0  0  0
  3 10  1  0  0  0  0
  3 35  1  0  0  0  0
  4 13  1  0  0  0  0
  4 38  1  0  0  0  0
  5 14  2  0  0  0  0
  6 18  1  0  0  0  0
  6 43  1  0  0  0  0
  7 16  2  0  0  0  0
  8 18  2  0  0  0  0
  9 10  1  0  0  0  0
  9 11  1  0  0  0  0
  9 14  1  0  0  0  0
 10 13  1  0  0  0  0
 10 18  1  0  0  0  0
 11 12  1  0  0  0  0
 11 27  1  0  0  0  0
 11 28  1  0  0  0  0
 12 15  1  0  0  0  0
 12 29  1  0  0  0  0
 13 16  1  0  0  0  0
 13 30  1  0  0  0  0
 15 17  1  0  0  0  0
 15 31  1  0  0  0  0
 15 32  1  0  0  0  0
 17 19  1  0  0  0  0
 17 33  1  0  0  0  0
 17 34  1  0  0  0  0
 19 20  1  0  0  0  0
 19 36  1  0  0  0  0
 19 37  1  0  0  0  0
 20 21  1  0  0  0  0
 20 39  1  0  0  0  0
 20 40  1  0  0  0  0
 21 22  1  0  0  0  0
 21 41  1  0  0  0  0
 21 42  1  0  0  0  0
 22 23  1  0  0  0  0
 22 44  1  0  0  0  0
 22 45  1  0  0  0  0
 23 24  1  0  0  0  0
 23 46  1  0  0  0  0
 23 47  1  0  0  0  0
 24 25  1  0  0  0  0
 24 48  1  0  0  0  0
 24 49  1  0  0  0  0
 25 26  2  0  0  0  0
 25 50  1  0  0  0  0
 26 51  1  0  0  0  0
 26 52  1  0  0  0  0
M  END
> <PUBCHEM_COMPOUND_CID>
131943

> <PUBCHEM_CONFORMER_RMSD>
1.2

> <PUBCHEM_CONFORMER_DIVERSEORDER>
1
24
16
124
166
168
102
143
145
161
36
92
69
105
53
137
46
132
42
6
110
13
157
115
104
20
95
32
52
165
158
114
67
103
57
131
58
134
163
83
99
9
3
159
78
139
116
154
153
171
61
77
40
66
122
18
129
19
167
2
146
73
64
149
85
82
47
23
142
28
89
91
45
27
109
112
170
118
31
156
113
130
138
41
55
8
39
87
29
169
26
93
94
97
140
30
14
34
33
59
150
75
144
123
128
160
62
10
7
136
126
21
101
119
120
22
151
133
88
70
49
38
86
108
164
50
17
90
141
80
5
121
56
44
54
76
15
135
148
68
111
63
127
147
125
71
37
96
100
79
106
60
162
81
84
48
12
51
35
74
117
11
25
152
107
4
72
155
43
98
65

> <PUBCHEM_MMFF94_PARTIAL_CHARGES>
24
1 -0.43
10 0.34
12 0.28
13 0.34
14 0.66
16 0.66
18 0.66
2 -0.43
24 0.14
25 -0.29
26 -0.3
3 -0.68
35 0.4
38 0.4
4 -0.68
43 0.5
5 -0.57
50 0.15
51 0.15
52 0.15
6 -0.65
7 -0.57
8 -0.57
9 0.34

> <PUBCHEM_EFFECTIVE_ROTOR_COUNT>
11.2

> <PUBCHEM_PHARMACOPHORE_FEATURES>
12
1 26 hydrophobe
1 3 acceptor
1 3 donor
1 4 acceptor
1 4 donor
1 5 acceptor
1 6 acceptor
1 7 acceptor
1 8 acceptor
3 6 8 18 anion
5 1 9 10 13 16 rings
5 2 9 11 12 14 rings

> <PUBCHEM_HEAVY_ATOM_COUNT>
26

> <PUBCHEM_ATOM_DEF_STEREO_COUNT>
2

> <PUBCHEM_ATOM_UDEF_STEREO_COUNT>
2

> <PUBCHEM_BOND_DEF_STEREO_COUNT>
0

> <PUBCHEM_BOND_UDEF_STEREO_COUNT>
0

> <PUBCHEM_ISOTOPIC_ATOM_COUNT>
0

> <PUBCHEM_COMPONENT_COUNT>
1

> <PUBCHEM_CACTVS_TAUTO_COUNT>
3

> <PUBCHEM_CONFORMER_ID>
0002036700000001

> <PUBCHEM_MMFF94_ENERGY>
34.9491

> <PUBCHEM_FEATURE_SELFOVERLAP>
61.005

> <PUBCHEM_SHAPE_FINGERPRINT>
10 15 18040437669150606547
12778500 126 18334296474260696326
13685833 64 8502368937189592831
14400156 260 18186799214853185056
15183329 4 15339121235052570619
15188451 53 10807938158911653095
16087824 20 18411140220955970372
17492 89 8501564098134225388
18335252 114 18343298150672791157
190975 80 11530487731474297279
20721686 124 17917152702324038207
21033648 29 18188484795540872395
21503847 285 18188488094434549142
22149856 69 11530753770312068903
4340502 62 10737279178345572838
474113 269 15912778168117230630
54076057 255 17603879918046013660
5911458 16 18272938185957341553
59682541 52 16343706508821523327
633830 44 18116706512138599286
6438161 24 9799682698418028923

> <PUBCHEM_SHAPE_MULTIPOLES>
488.11
25.01
2.68
1.24
78.17
0.66
-0.66
15.26
2.14
-0.71
0.4
-1.68
0.11
-0.56

> <PUBCHEM_SHAPE_SELFOVERLAP>
1002.823

> <PUBCHEM_SHAPE_VOLUME>
281.8

> <PUBCHEM_COORDINATE_TYPE>
2
5
10

$$$$
