REMARK  Name = 131944
REMARK  13 active torsions:
REMARK  status: ('A' for Active; 'I' for Inactive)
REMARK    1  A    between atoms: C_6  and  O_12
REMARK    2  A    between atoms: C_6  and  C_17
REMARK    3  A    between atoms: C_8  and  C_20
REMARK    4  A    between atoms: C_9  and  O_14
REMARK    5  A    between atoms: C_17  and  O_18
REMARK    6  A    between atoms: C_20  and  C_21
REMARK    7  A    between atoms: C_21  and  C_22
REMARK    8  A    between atoms: C_22  and  C_23
REMARK    9  A    between atoms: C_23  and  C_24
REMARK   10  A    between atoms: C_24  and  C_25
REMARK   11  A    between atoms: C_25  and  C_26
REMARK   12  A    between atoms: C_26  and  C_27
REMARK   13  A    between atoms: C_27  and  C_28
REMARK                            x       y       z     vdW  Elec       q    Type
REMARK                         _______ _______ _______ _____ _____    ______ ____
ROOT
ATOM      1  O   UNL     1      -3.497   1.129   0.925  0.00  0.00    -0.440 OA
ATOM      2  O   UNL     1      -1.001  -0.683   0.711  0.00  0.00    -0.450 OA
ATOM      3  O   UNL     1      -2.827  -1.794   1.518  0.00  0.00    -0.246 OA
ATOM      4  O   UNL     1      -5.265   2.576   1.141  0.00  0.00    -0.247 OA
ATOM      5  C   UNL     1      -3.104   0.107  -0.009  0.00  0.00    +0.262 C 
ATOM      6  C   UNL     1      -4.403  -0.302  -0.696  0.00  0.00    +0.256 C 
ATOM      7  C   UNL     1      -2.005   0.642  -0.919  0.00  0.00    +0.098 C 
ATOM      8  C   UNL     1      -0.774   0.512  -0.046  0.00  0.00    +0.173 C 
ATOM      9  C   UNL     1      -5.164   1.015  -0.722  0.00  0.00    +0.249 C 
ATOM     10  C   UNL     1      -2.349  -0.914   0.819  0.00  0.00    +0.357 C 
ATOM     11  C   UNL     1      -4.689   1.683   0.541  0.00  0.00    +0.348 C 
ENDROOT
BRANCH   6  12
ATOM     12  O   UNL     1      -4.186  -0.789  -2.009  0.00  0.00    -0.371 OA
ATOM     13  H   UNL     1      -3.699  -0.126  -2.523  0.00  0.00    +0.211 HD
ENDBRANCH   6  12
BRANCH   9  14
ATOM     14  O   UNL     1      -6.559   0.854  -0.768  0.00  0.00    -0.372 OA
ATOM     15  H   UNL     1      -6.807   0.421  -1.599  0.00  0.00    +0.211 HD
ENDBRANCH   9  14
BRANCH   6  17
ATOM     16  O   UNL     1      -5.504  -2.451  -0.502  0.00  0.00    -0.247 OA
ATOM     17  C   UNL     1      -5.159  -1.396   0.009  0.00  0.00    +0.345 C 
BRANCH  17  18
ATOM     18  O   UNL     1      -5.411  -1.052   1.295  0.00  0.00    -0.478 OA
ATOM     19  H   UNL     1      -5.119  -0.225   1.625  0.00  0.00    +0.295 HD
ENDBRANCH  17  18
ENDBRANCH   6  17
BRANCH   8  20
ATOM     20  C   UNL     1       0.513   0.383  -0.838  0.00  0.00    +0.044 C 
BRANCH  20  21
ATOM     21  C   UNL     1       1.730   0.294   0.082  0.00  0.00    +0.004 C 
BRANCH  21  22
ATOM     22  C   UNL     1       3.029   0.197  -0.722  0.00  0.00    +0.000 C 
BRANCH  22  23
ATOM     23  C   UNL     1       4.249   0.146   0.201  0.00  0.00    +0.000 C 
BRANCH  23  24
ATOM     24  C   UNL     1       5.582   0.121  -0.552  0.00  0.00    +0.000 C 
BRANCH  24  25
ATOM     25  C   UNL     1       6.802   0.045   0.370  0.00  0.00    +0.000 C 
BRANCH  25  26
ATOM     26  C   UNL     1       8.103   0.011  -0.437  0.00  0.00    +0.000 C 
BRANCH  26  27
ATOM     27  C   UNL     1       9.358  -0.096   0.434  0.00  0.00    +0.000 C 
BRANCH  27  28
ATOM     28  C   UNL     1      10.660  -0.057  -0.367  0.00  0.00    +0.000 C 
ATOM     29  C   UNL     1      11.873  -0.180   0.542  0.00  0.00    +0.000 C 
ENDBRANCH  27  28
ENDBRANCH  26  27
ENDBRANCH  25  26
ENDBRANCH  24  25
ENDBRANCH  23  24
ENDBRANCH  22  23
ENDBRANCH  21  22
ENDBRANCH  20  21
ENDBRANCH   8  20
TORSDOF 13
