REMARK  Name = 131953098
REMARK  12 active torsions:
REMARK  status: ('A' for Active; 'I' for Inactive)
REMARK    1  A    between atoms: C_1  and  C_24
REMARK    2  A    between atoms: C_2  and  C_5
REMARK    3  A    between atoms: C_5  and  O_6
REMARK    4  A    between atoms: O_6  and  C_12
REMARK    5  A    between atoms: C_8  and  O_13
REMARK    6  A    between atoms: C_9  and  O_15
REMARK    7  A    between atoms: C_10  and  O_17
REMARK    8  A    between atoms: C_11  and  C_20
REMARK    9  A    between atoms: C_20  and  O_21
REMARK   10  A    between atoms: C_23  and  C_27
REMARK   11  A    between atoms: C_25  and  C_29
REMARK   12  A    between atoms: C_28  and  C_31
REMARK                            x       y       z     vdW  Elec       q    Type
REMARK                         _______ _______ _______ _____ _____    ______ ____
ROOT
ATOM      1  C   UNL     1      -1.185   0.137   0.915  0.00  0.00    -0.015 C 
ATOM      2  C   UNL     1      -2.281   0.839   0.561  0.00  0.00    +0.078 C 
ATOM      3  C   UNL     1      -1.368  -1.073   1.803  0.00  0.00    +0.031 C 
ENDROOT
BRANCH   2   5
ATOM      4  O   UNL     1      -4.035   0.075   2.034  0.00  0.00    -0.245 OA
ATOM      5  C   UNL     1      -3.681   0.577   0.980  0.00  0.00    +0.343 C 
BRANCH   5   6
ATOM      6  O   UNL     1      -4.488   0.981  -0.040  0.00  0.00    -0.419 OA
BRANCH   6  12
ATOM      7  O   UNL     1      -6.229  -0.572  -0.089  0.00  0.00    -0.307 OA
ATOM      8  C   UNL     1      -8.148   1.472  -0.716  0.00  0.00    +0.173 C 
ATOM      9  C   UNL     1      -8.477  -0.017  -0.827  0.00  0.00    +0.178 C 
ATOM     10  C   UNL     1      -6.640   1.716  -0.782  0.00  0.00    +0.211 C 
ATOM     11  C   UNL     1      -7.611  -0.834   0.124  0.00  0.00    +0.246 C 
ATOM     12  C   UNL     1      -5.886   0.787   0.170  0.00  0.00    +0.321 C 
BRANCH   8  13
ATOM     13  O   UNL     1      -8.788   2.147  -1.800  0.00  0.00    -0.379 OA
ATOM     14  H   UNL     1      -9.744   1.992  -1.758  0.00  0.00    +0.211 HD
ENDBRANCH   8  13
BRANCH   9  15
ATOM     15  O   UNL     1      -9.847  -0.218  -0.485  0.00  0.00    -0.379 OA
ATOM     16  H   UNL     1     -10.409   0.297  -1.085  0.00  0.00    +0.211 HD
ENDBRANCH   9  15
BRANCH  10  17
ATOM     17  O   UNL     1      -6.362   3.064  -0.405  0.00  0.00    -0.377 OA
ATOM     18  H   UNL     1      -6.832   3.669  -0.999  0.00  0.00    +0.211 HD
ENDBRANCH  10  17
BRANCH  11  20
ATOM     19  O   UNL     1      -6.822  -3.014  -0.544  0.00  0.00    -0.247 OA
ATOM     20  C   UNL     1      -7.733  -2.295  -0.162  0.00  0.00    +0.344 C 
BRANCH  20  21
ATOM     21  O   UNL     1      -9.001  -2.722   0.058  0.00  0.00    -0.478 OA
ATOM     22  H   UNL     1      -9.654  -2.118   0.352  0.00  0.00    +0.295 HD
ENDBRANCH  20  21
ENDBRANCH  11  20
ENDBRANCH   6  12
ENDBRANCH   5   6
ENDBRANCH   2   5
BRANCH   1  24
ATOM     23  C   UNL     1       1.292  -0.229   0.798  0.00  0.00    -0.001 C 
ATOM     24  C   UNL     1       0.174   0.444   0.470  0.00  0.00    -0.004 C 
BRANCH  23  27
ATOM     25  C   UNL     1       3.795  -0.442   0.548  0.00  0.00    -0.022 C 
ATOM     26  C   UNL     1       3.829  -1.645   1.461  0.00  0.00    +0.031 C 
ATOM     27  C   UNL     1       2.603   0.143   0.298  0.00  0.00    -0.004 C 
BRANCH  25  29
ATOM     28  C   UNL     1       6.279  -0.524   0.202  0.00  0.00    +0.002 C 
ATOM     29  C   UNL     1       5.066   0.016  -0.010  0.00  0.00    -0.006 C 
BRANCH  28  31
ATOM     30  O   UNL     1       7.633   0.184  -1.797  0.00  0.00    -0.354 OA
ATOM     31  C   UNL     1       7.544  -0.031  -0.379  0.00  0.00    +0.133 C 
ATOM     32  C   UNL     1       8.313  -0.986  -1.313  0.00  0.00    +0.119 C 
ATOM     33  C   UNL     1       8.313   1.025   0.436  0.00  0.00    +0.029 C 
ATOM     34  C   UNL     1       9.808  -0.878  -1.476  0.00  0.00    +0.030 C 
ATOM     35  C   UNL     1       9.732   1.259  -0.148  0.00  0.00    +0.003 C 
ATOM     36  C   UNL     1      10.481  -0.046  -0.394  0.00  0.00    +0.003 C 
ATOM     37  C   UNL     1       7.700  -2.255  -1.834  0.00  0.00    +0.032 C 
ATOM     38  C   UNL     1       7.547   2.368   0.449  0.00  0.00    +0.003 C 
ATOM     39  C   UNL     1       8.471   0.549   1.896  0.00  0.00    +0.003 C 
ENDBRANCH  28  31
ENDBRANCH  25  29
ENDBRANCH  23  27
ENDBRANCH   1  24
TORSDOF 12
