REMARK  Name = 131946
REMARK  17 active torsions:
REMARK  status: ('A' for Active; 'I' for Inactive)
REMARK    1  A    between atoms: C_3  and  C_16
REMARK    2  A    between atoms: C_4  and  C_8
REMARK    3  A    between atoms: C_5  and  C_13
REMARK    4  A    between atoms: C_8  and  O_9
REMARK    5  A    between atoms: O_9  and  O_10
REMARK    6  A    between atoms: C_13  and  O_14
REMARK    7  A    between atoms: C_16  and  O_17
REMARK    8  A    between atoms: C_16  and  C_19
REMARK    9  A    between atoms: C_19  and  C_20
REMARK   10  A    between atoms: C_20  and  C_21
REMARK   11  A    between atoms: C_21  and  C_22
REMARK   12  A    between atoms: C_22  and  C_23
REMARK   13  A    between atoms: C_23  and  C_24
REMARK   14  A    between atoms: C_24  and  C_25
REMARK   15  A    between atoms: C_25  and  C_26
REMARK   16  A    between atoms: C_26  and  C_27
REMARK   17  A    between atoms: C_27  and  C_28
REMARK                            x       y       z     vdW  Elec       q    Type
REMARK                         _______ _______ _______ _____ _____    ______ ____
ROOT
ATOM      1  O   UNL     1      -4.994  -0.236   1.146  0.00  0.00    -0.440 OA
ATOM      2  O   UNL     1      -3.790  -0.382   3.080  0.00  0.00    -0.250 OA
ATOM      3  C   UNL     1      -2.696   0.293   1.025  0.00  0.00    +0.141 C 
ATOM      4  C   UNL     1      -3.329   0.579  -0.328  0.00  0.00    +0.166 C 
ATOM      5  C   UNL     1      -4.745   0.052  -0.228  0.00  0.00    +0.277 C 
ATOM      6  C   UNL     1      -3.854  -0.138   1.883  0.00  0.00    +0.320 C 
ENDROOT
BRANCH   4   8
ATOM      7  O   UNL     1      -4.238   2.808  -0.237  0.00  0.00    -0.247 OA
ATOM      8  C   UNL     1      -3.338   2.057  -0.588  0.00  0.00    +0.356 C 
BRANCH   8   9
ATOM      9  O   UNL     1      -2.205   2.406  -1.264  0.00  0.00    -0.299 OA
BRANCH   9  10
ATOM     10  O   UNL     1      -2.279   3.842  -1.481  0.00  0.00    -0.198 OA
ATOM     11  H   UNL     1      -1.489   4.137  -1.961  0.00  0.00    +0.268 HD
ENDBRANCH   9  10
ENDBRANCH   8   9
ENDBRANCH   4   8
BRANCH   5  13
ATOM     12  O   UNL     1      -5.176  -2.313  -0.445  0.00  0.00    -0.246 OA
ATOM     13  C   UNL     1      -4.929  -1.235  -0.965  0.00  0.00    +0.355 C 
BRANCH  13  14
ATOM     14  O   UNL     1      -4.783  -1.048  -2.300  0.00  0.00    -0.478 OA
ATOM     15  H   UNL     1      -4.594  -0.194  -2.635  0.00  0.00    +0.295 HD
ENDBRANCH  13  14
ENDBRANCH   5  13
BRANCH   3  16
ATOM     16  C   UNL     1      -1.653  -0.813   0.959  0.00  0.00    +0.122 C 
BRANCH  16  17
ATOM     17  O   UNL     1      -2.259  -2.003   0.462  0.00  0.00    -0.384 OA
ATOM     18  H   UNL     1      -3.025  -2.230   1.011  0.00  0.00    +0.210 HD
ENDBRANCH  16  17
BRANCH  16  19
ATOM     19  C   UNL     1      -0.442  -0.461   0.086  0.00  0.00    +0.030 C 
BRANCH  19  20
ATOM     20  C   UNL     1       0.829  -1.251   0.421  0.00  0.00    +0.002 C 
BRANCH  20  21
ATOM     21  C   UNL     1       2.008  -0.790  -0.440  0.00  0.00    +0.000 C 
BRANCH  21  22
ATOM     22  C   UNL     1       3.286  -1.552  -0.085  0.00  0.00    +0.000 C 
BRANCH  22  23
ATOM     23  C   UNL     1       4.473  -1.069  -0.922  0.00  0.00    +0.000 C 
BRANCH  23  24
ATOM     24  C   UNL     1       5.756  -1.809  -0.543  0.00  0.00    +0.000 C 
BRANCH  24  25
ATOM     25  C   UNL     1       6.984  -1.343  -1.330  0.00  0.00    +0.000 C 
BRANCH  25  26
ATOM     26  C   UNL     1       7.348   0.123  -1.079  0.00  0.00    +0.000 C 
BRANCH  26  27
ATOM     27  C   UNL     1       7.672   0.367   0.397  0.00  0.00    +0.000 C 
BRANCH  27  28
ATOM     28  C   UNL     1       7.998   1.838   0.658  0.00  0.00    +0.000 C 
ATOM     29  C   UNL     1       8.354   2.078   2.117  0.00  0.00    +0.000 C 
ENDBRANCH  27  28
ENDBRANCH  26  27
ENDBRANCH  25  26
ENDBRANCH  24  25
ENDBRANCH  23  24
ENDBRANCH  22  23
ENDBRANCH  21  22
ENDBRANCH  20  21
ENDBRANCH  19  20
ENDBRANCH  16  19
ENDBRANCH   3  16
TORSDOF 17
