1319471
  -OEChem-03292013313D

 48 52  0     0  0  0  0  0  0999 V2000
    4.9423   -0.6009    1.7280 S   0  0  0  0  0  0  0  0  0  0  0  0
   -0.8323   -0.2878   -1.2953 S   0  0  0  0  0  0  0  0  0  0  0  0
    1.8715    0.3471   -2.6766 O   0  0  0  0  0  0  0  0  0  0  0  0
   -6.1986   -0.6514    0.4789 O   0  0  0  0  0  0  0  0  0  0  0  0
    2.7735    0.0628   -0.5356 N   0  0  0  0  0  0  0  0  0  0  0  0
   -3.4404   -0.1043   -0.5294 N   0  0  0  0  0  0  0  0  0  0  0  0
   -2.1696    1.4816    0.2813 N   0  0  0  0  0  0  0  0  0  0  0  0
   -3.4574    1.6791    0.7380 N   0  0  0  0  0  0  0  0  0  0  0  0
    3.6973    1.0951   -0.1270 C   0  0  0  0  0  0  0  0  0  0  0  0
    2.9346   -1.3039   -0.0947 C   0  0  0  0  0  0  0  0  0  0  0  0
    4.7074    0.9000    0.8260 C   0  0  0  0  0  0  0  0  0  0  0  0
    3.8495   -1.7033    0.8882 C   0  0  0  0  0  0  0  0  0  0  0  0
    1.7548    0.3763   -1.4511 C   0  0  0  0  0  0  0  0  0  0  0  0
    0.4696    0.8493   -0.8052 C   0  0  0  0  0  0  0  0  0  0  0  0
    3.5765    2.3958   -0.6707 C   0  0  0  0  0  0  0  0  0  0  0  0
    2.1647   -2.3230   -0.7044 C   0  0  0  0  0  0  0  0  0  0  0  0
   -3.8918   -1.2715   -1.2532 C   0  0  0  0  0  0  0  0  0  0  0  0
   -2.2159    0.4269   -0.4545 C   0  0  0  0  0  0  0  0  0  0  0  0
   -4.2041    0.7188    0.2414 C   0  0  0  0  0  0  0  0  0  0  0  0
    5.5814    1.9528    1.1681 C   0  0  0  0  0  0  0  0  0  0  0  0
    3.9454   -3.0588    1.2655 C   0  0  0  0  0  0  0  0  0  0  0  0
    4.4453    3.4349   -0.3256 C   0  0  0  0  0  0  0  0  0  0  0  0
    2.2674   -3.6647   -0.3283 C   0  0  0  0  0  0  0  0  0  0  0  0
    5.4572    3.2106    0.5903 C   0  0  0  0  0  0  0  0  0  0  0  0
    3.1564   -4.0333    0.6652 C   0  0  0  0  0  0  0  0  0  0  0  0
   -5.5907    0.5671    0.4715 C   0  0  0  0  0  0  0  0  0  0  0  0
   -3.8011   -2.5369   -0.4177 C   0  0  0  0  0  0  0  0  0  0  0  0
   -6.5148    1.5611    0.7156 C   0  0  0  0  0  0  0  0  0  0  0  0
   -7.7618    0.9126    0.8822 C   0  0  0  0  0  0  0  0  0  0  0  0
   -7.5162   -0.4321    0.7291 C   0  0  0  0  0  0  0  0  0  0  0  0
    0.2593    1.8644   -1.1562 H   0  0  0  0  0  0  0  0  0  0  0  0
    0.5691    0.8667    0.2848 H   0  0  0  0  0  0  0  0  0  0  0  0
   -4.9167   -1.1004   -1.5972 H   0  0  0  0  0  0  0  0  0  0  0  0
   -3.2922   -1.3745   -2.1635 H   0  0  0  0  0  0  0  0  0  0  0  0
    2.8059    2.6327   -1.4009 H   0  0  0  0  0  0  0  0  0  0  0  0
    1.4742   -2.1058   -1.5135 H   0  0  0  0  0  0  0  0  0  0  0  0
    6.3689    1.8048    1.9054 H   0  0  0  0  0  0  0  0  0  0  0  0
    4.6481   -3.3733    2.0356 H   0  0  0  0  0  0  0  0  0  0  0  0
    4.3251    4.4149   -0.7779 H   0  0  0  0  0  0  0  0  0  0  0  0
    1.6558   -4.4148   -0.8208 H   0  0  0  0  0  0  0  0  0  0  0  0
    6.1371    4.0104    0.8661 H   0  0  0  0  0  0  0  0  0  0  0  0
    3.2458   -5.0726    0.9654 H   0  0  0  0  0  0  0  0  0  0  0  0
   -2.7634   -2.7537   -0.1429 H   0  0  0  0  0  0  0  0  0  0  0  0
   -4.1839   -3.3911   -0.9848 H   0  0  0  0  0  0  0  0  0  0  0  0
   -4.3748   -2.4603    0.5105 H   0  0  0  0  0  0  0  0  0  0  0  0
   -6.3214    2.6236    0.7681 H   0  0  0  0  0  0  0  0  0  0  0  0
   -8.7195    1.3681    1.0880 H   0  0  0  0  0  0  0  0  0  0  0  0
   -8.1377   -1.3147    0.7662 H   0  0  0  0  0  0  0  0  0  0  0  0
  1 11  1  0  0  0  0
  1 12  1  0  0  0  0
  2 14  1  0  0  0  0
  2 18  1  0  0  0  0
  3 13  2  0  0  0  0
  4 26  1  0  0  0  0
  4 30  1  0  0  0  0
  5  9  1  0  0  0  0
  5 10  1  0  0  0  0
  5 13  1  0  0  0  0
  6 17  1  0  0  0  0
  6 18  1  0  0  0  0
  6 19  1  0  0  0  0
  7  8  1  0  0  0  0
  7 18  2  0  0  0  0
  8 19  2  0  0  0  0
  9 11  1  0  0  0  0
  9 15  2  0  0  0  0
 10 12  1  0  0  0  0
 10 16  2  0  0  0  0
 11 20  2  0  0  0  0
 12 21  2  0  0  0  0
 13 14  1  0  0  0  0
 14 31  1  0  0  0  0
 14 32  1  0  0  0  0
 15 22  1  0  0  0  0
 15 35  1  0  0  0  0
 16 23  1  0  0  0  0
 16 36  1  0  0  0  0
 17 27  1  0  0  0  0
 17 33  1  0  0  0  0
 17 34  1  0  0  0  0
 19 26  1  0  0  0  0
 20 24  1  0  0  0  0
 20 37  1  0  0  0  0
 21 25  1  0  0  0  0
 21 38  1  0  0  0  0
 22 24  2  0  0  0  0
 22 39  1  0  0  0  0
 23 25  2  0  0  0  0
 23 40  1  0  0  0  0
 24 41  1  0  0  0  0
 25 42  1  0  0  0  0
 26 28  2  0  0  0  0
 27 43  1  0  0  0  0
 27 44  1  0  0  0  0
 27 45  1  0  0  0  0
 28 29  1  0  0  0  0
 28 46  1  0  0  0  0
 29 30  2  0  0  0  0
 29 47  1  0  0  0  0
 30 48  1  0  0  0  0
M  END
> <PUBCHEM_COMPOUND_CID>
1319471

> <PUBCHEM_CONFORMER_RMSD>
0.8

> <PUBCHEM_CONFORMER_DIVERSEORDER>
1
32
6
198
21
172
163
182
126
160
97
144
51
50
94
150
156
180
27
106
149
186
71
63
109
88
112
74
91
187
140
26
154
75
2
161
137
55
162
5
184
22
145
114
28
166
199
169
57
157
89
37
127
95
121
19
92
93
132
65
177
82
115
131
76
73
4
125
101
83
8
181
23
133
59
49
152
81
185
174
20
135
155
183
102
38
158
193
78
171
128
70
103
30
139
146
7
147
84
111
87
25
107
100
39
191
123
119
42
118
67
96
195
134
176
68
196
120
170
33
14
173
122
52
165
54
98
16
129
110
179
99
164
141
175
77
72
117
43
143
45
197
10
188
48
153
190
47
104
31
9
44
90
69
192
58
80
124
12
130
189
142
62
3
178
34
61
85
151
79
66
46
29
148
136
194
53
35
24
116
159
11
168
17
86
15
40
64
56
138
36
18
167
13
113
105
60
41
108

> <PUBCHEM_MMFF94_PARTIAL_CHARGES>
40
1 -0.2
10 0.12
11 0.1
12 0.1
13 0.57
14 0.29
15 -0.15
16 -0.15
17 0.26
18 0.24
19 0.19
2 -0.29
20 -0.15
21 -0.15
22 -0.15
23 -0.15
24 -0.15
25 -0.15
26 0.14
28 -0.15
29 -0.15
3 -0.57
30 -0.01
35 0.15
36 0.15
37 0.15
38 0.15
39 0.15
4 -0.28
40 0.15
41 0.15
42 0.15
46 0.15
47 0.15
48 0.15
5 -0.29
6 0.05
7 -0.34
8 -0.34
9 0.12

> <PUBCHEM_EFFECTIVE_ROTOR_COUNT>
6.4

> <PUBCHEM_PHARMACOPHORE_FEATURES>
9
1 3 acceptor
1 4 acceptor
3 6 7 18 cation
3 6 8 19 cation
5 4 26 28 29 30 rings
5 6 7 8 18 19 rings
6 1 5 9 10 11 12 rings
6 10 12 16 21 23 25 rings
6 9 11 15 20 22 24 rings

> <PUBCHEM_HEAVY_ATOM_COUNT>
30

> <PUBCHEM_ATOM_DEF_STEREO_COUNT>
0

> <PUBCHEM_ATOM_UDEF_STEREO_COUNT>
0

> <PUBCHEM_BOND_DEF_STEREO_COUNT>
0

> <PUBCHEM_BOND_UDEF_STEREO_COUNT>
0

> <PUBCHEM_ISOTOPIC_ATOM_COUNT>
0

> <PUBCHEM_COMPONENT_COUNT>
1

> <PUBCHEM_CACTVS_TAUTO_COUNT>
1

> <PUBCHEM_CONFORMER_ID>
0014222F00000001

> <PUBCHEM_MMFF94_ENERGY>
92.6421

> <PUBCHEM_FEATURE_SELFOVERLAP>
48.292

> <PUBCHEM_SHAPE_FINGERPRINT>
10 15 18343307006953760809
10165383 225 18260553355759545972
10190108 129 18335420150208403372
10939801 23 18199468947421844639
11135926 11 18337943579999749260
11505856 67 14647029533953035780
12107183 9 17908144274412562009
12373685 5 18341040896630740543
12788726 201 17203338767081509689
13533116 47 18261680281171496283
13782708 43 14851897975962025945
14211702 104 17604447283674552419
14341114 328 18201718483127998356
14347424 109 18338234856587558249
14394314 77 18413111663328317857
14400156 188 18189335676509438698
14565420 104 18340484577679744696
14849402 71 18408884028207847002
15001296 14 18408039598556090587
15250474 111 18270388499369154447
15392192 104 17677911182795455961
15475509 35 16806155563361969714
15950262 2 15838418385925390466
16992610 120 18117852208552257148
19377110 9 18272082825259375303
1979834 28 18113901576339687156
20505436 4 18059572546753701916
21049683 271 18189341170114767278
21130935 74 18335991883480604707
21421861 104 18411696556880788686
21792934 111 18114745928983686869
21859007 373 17460582638020468477
221357 26 10663828476814858018
22899556 105 17764888896948482166
23559900 14 17488477277411581367
23572383 38 17895202120857978083
239999 70 18202292381422380798
3178227 256 18335414661376888074
3411729 13 18343023306835565134
3663271 9 18412830179608250265
4073 2 18264212572467168099
4340502 62 18408887355842104756
5104073 3 18335139817165492395
6176135 31 18410284800814628475
86090 222 17096094562760285282

> <PUBCHEM_SHAPE_MULTIPOLES>
593.42
18.67
4.1
1.47
33.7
2.29
-0.4
-7.29
8.76
-7.81
0.54
-0.86
0.08
-1.53

> <PUBCHEM_SHAPE_SELFOVERLAP>
1284.985

> <PUBCHEM_SHAPE_VOLUME>
326.3

> <PUBCHEM_COORDINATE_TYPE>
2
5
10

$$$$
