131953434
  -OEChem-03292013293D

 29 29  0     1  0  0  0  0  0999 V2000
    0.7874   -1.2754   -1.6568 O   0  0  0  0  0  0  0  0  0  0  0  0
   -0.4672   -2.2365   -0.0297 O   0  0  0  0  0  0  0  0  0  0  0  0
   -4.7623    0.1687   -0.6801 O   0  0  0  0  0  0  0  0  0  0  0  0
   -3.9616   -0.3686    1.3774 O   0  0  0  0  0  0  0  0  0  0  0  0
   -1.4121    0.2478    0.6533 N   0  0  0  0  0  0  0  0  0  0  0  0
    3.3686   -0.3690    1.0370 N   0  0  0  0  0  0  0  0  0  0  0  0
    4.3024    0.6936   -0.6748 N   0  0  0  0  0  0  0  0  0  0  0  0
   -0.0900    0.1689    0.0364 C   0  0  1  0  0  0  0  0  0  0  0  0
    0.9911    0.4864    1.0812 C   0  0  0  0  0  0  0  0  0  0  0  0
   -2.4412    0.4498   -0.3552 C   0  0  2  0  0  0  0  0  0  0  0  0
    2.3908    0.4296    0.5140 C   0  0  0  0  0  0  0  0  0  0  0  0
    0.0472   -1.2386   -0.5183 C   0  0  0  0  0  0  0  0  0  0  0  0
   -2.4725    1.9140   -0.7718 C   0  0  0  0  0  0  0  0  0  0  0  0
   -3.7695    0.0306    0.2378 C   0  0  0  0  0  0  0  0  0  0  0  0
    2.9909    1.0754   -0.5412 C   0  0  0  0  0  0  0  0  0  0  0  0
    4.4978   -0.1767    0.2908 C   0  0  0  0  0  0  0  0  0  0  0  0
    0.0115    0.8773   -0.7931 H   0  0  0  0  0  0  0  0  0  0  0  0
    0.9179   -0.2161    1.9224 H   0  0  0  0  0  0  0  0  0  0  0  0
    0.8343    1.4930    1.4903 H   0  0  0  0  0  0  0  0  0  0  0  0
   -1.4415    1.0088    1.3316 H   0  0  0  0  0  0  0  0  0  0  0  0
   -2.2801   -0.1955   -1.2277 H   0  0  0  0  0  0  0  0  0  0  0  0
   -2.6906    2.5688    0.0805 H   0  0  0  0  0  0  0  0  0  0  0  0
   -1.5362    2.2503   -1.2259 H   0  0  0  0  0  0  0  0  0  0  0  0
   -3.2607    2.0904   -1.5128 H   0  0  0  0  0  0  0  0  0  0  0  0
    3.2770   -0.9899    1.8301 H   0  0  0  0  0  0  0  0  0  0  0  0
    2.5476    1.7965   -1.2127 H   0  0  0  0  0  0  0  0  0  0  0  0
    5.4210   -0.6974    0.5016 H   0  0  0  0  0  0  0  0  0  0  0  0
    0.8601   -2.1852   -2.0161 H   0  0  0  0  0  0  0  0  0  0  0  0
   -5.6352   -0.0916   -0.3160 H   0  0  0  0  0  0  0  0  0  0  0  0
  1 12  1  0  0  0  0
  1 28  1  0  0  0  0
  2 12  2  0  0  0  0
  3 14  1  0  0  0  0
  3 29  1  0  0  0  0
  4 14  2  0  0  0  0
  5  8  1  0  0  0  0
  5 10  1  0  0  0  0
  5 20  1  0  0  0  0
  6 11  1  0  0  0  0
  6 16  1  0  0  0  0
  6 25  1  0  0  0  0
  7 15  1  0  0  0  0
  7 16  2  0  0  0  0
  8  9  1  0  0  0  0
  8 12  1  0  0  0  0
  8 17  1  0  0  0  0
  9 11  1  0  0  0  0
  9 18  1  0  0  0  0
  9 19  1  0  0  0  0
 10 13  1  0  0  0  0
 10 14  1  0  0  0  0
 10 21  1  0  0  0  0
 11 15  2  0  0  0  0
 13 22  1  0  0  0  0
 13 23  1  0  0  0  0
 13 24  1  0  0  0  0
 15 26  1  0  0  0  0
 16 27  1  0  0  0  0
M  END
> <PUBCHEM_COMPOUND_CID>
131953434

> <PUBCHEM_CONFORMER_RMSD>
0.8

> <PUBCHEM_CONFORMER_DIVERSEORDER>
1
52
58
41
3
26
14
57
7
22
38
49
9
13
16
10
29
34
18
23
47
6
25
2
55
11
45
44
28
17
53
30
19
33
15
20
24
56
32
40
12
51
54
8
50
4
35
36
27
5
39
46
48
42
31
43
21
37

> <PUBCHEM_MMFF94_PARTIAL_CHARGES>
21
1 -0.65
10 0.33
11 -0.33
12 0.66
14 0.66
15 0.08
16 0.04
2 -0.57
20 0.36
25 0.27
26 0.15
27 0.15
28 0.5
29 0.5
3 -0.65
4 -0.57
5 -0.9
6 0.03
7 -0.57
8 0.33
9 0.18

> <PUBCHEM_EFFECTIVE_ROTOR_COUNT>
6

> <PUBCHEM_PHARMACOPHORE_FEATURES>
11
1 1 acceptor
1 2 acceptor
1 3 acceptor
1 4 acceptor
1 5 cation
1 5 donor
1 6 donor
3 1 2 12 anion
3 3 4 14 anion
3 6 7 16 cation
5 6 7 11 15 16 rings

> <PUBCHEM_HEAVY_ATOM_COUNT>
16

> <PUBCHEM_ATOM_DEF_STEREO_COUNT>
2

> <PUBCHEM_ATOM_UDEF_STEREO_COUNT>
0

> <PUBCHEM_BOND_DEF_STEREO_COUNT>
0

> <PUBCHEM_BOND_UDEF_STEREO_COUNT>
0

> <PUBCHEM_ISOTOPIC_ATOM_COUNT>
0

> <PUBCHEM_COMPONENT_COUNT>
1

> <PUBCHEM_CACTVS_TAUTO_COUNT>
6

> <PUBCHEM_CONFORMER_ID>
07DD731A00000001

> <PUBCHEM_MMFF94_ENERGY>
15.3177

> <PUBCHEM_FEATURE_SELFOVERLAP>
55.937

> <PUBCHEM_SHAPE_FINGERPRINT>
10922049 32 18409168809402202610
11132069 177 18202278134604357207
12592029 89 18409168775237844826
13296909 8 15864063239916540061
13380535 76 18202848759501248183
14123238 8 14117515458628162777
14943859 89 18410290341543323330
14993402 34 18409729581881057876
15219456 202 18267305339741102413
15375462 478 17530965786853453573
15375462 6 17968091980346341432
17834072 33 16443356407034590310
18186145 218 17346589785909164856
19422 9 17531242825408600136
20645476 183 18336547213623939798
20645477 56 18339635754697768200
21524375 3 18272086101902937630
22713019 99 16702311148167770716
23402539 116 18187639219991976295
23557571 272 17894911772542559461
23559900 14 17823688673069383578
265663 24 17967811643546494368
366044 4 17847058900186812062
4990 188 16486978396689327356
57003041 33 18334849516199410309
69090 78 15554441916327694564
81228 2 17694758011129816083
81539 233 18410008797546942734

> <PUBCHEM_SHAPE_MULTIPOLES>
290.85
8.66
1.45
1.14
0.41
0.22
-0.03
-1.49
0.47
0.37
-0.42
0.04
0.15
0.21

> <PUBCHEM_SHAPE_SELFOVERLAP>
592.904

> <PUBCHEM_SHAPE_VOLUME>
168.7

> <PUBCHEM_COORDINATE_TYPE>
2
5
10

$$$$
