REMARK  Name = 132030
REMARK  5 active torsions:
REMARK  status: ('A' for Active; 'I' for Inactive)
REMARK    1  A    between atoms: C_14  and  O_23
REMARK    2  A    between atoms: O_23  and  C_29
REMARK    3  A    between atoms: C_25  and  O_31
REMARK    4  A    between atoms: C_26  and  O_33
REMARK    5  A    between atoms: C_27  and  O_35
REMARK                            x       y       z     vdW  Elec       q    Type
REMARK                         _______ _______ _______ _____ _____    ______ ____
ROOT
ATOM      1  O   UNL     1       4.659  -1.813   0.983  0.00  0.00    -0.291 OA
ATOM      2  O   UNL     1       2.841  -2.482  -0.680  0.00  0.00    -0.287 OA
ATOM      3  O   UNL     1      -0.655   1.411  -0.853  0.00  0.00    -0.286 OA
ATOM      4  C   UNL     1       6.655   0.961   0.618  0.00  0.00    +0.012 C 
ATOM      5  C   UNL     1       5.753   1.970  -0.096  0.00  0.00    +0.027 C 
ATOM      6  C   UNL     1       4.308   1.534  -0.177  0.00  0.00    -0.019 C 
ATOM      7  C   UNL     1       6.382  -0.436   0.075  0.00  0.00    +0.069 C 
ATOM      8  C   UNL     1       3.904   0.187  -0.062  0.00  0.00    +0.034 C 
ATOM      9  C   UNL     1       2.550  -0.165  -0.262  0.00  0.00    +0.044 C 
ATOM     10  C   UNL     1       4.946  -0.791   0.368  0.00  0.00    +0.173 C 
ATOM     11  C   UNL     1       1.601   0.850  -0.465  0.00  0.00    +0.042 C 
ATOM     12  C   UNL     1      -0.292  -0.841  -0.319  0.00  0.00    +0.076 C 
ATOM     13  C   UNL     1       8.126   1.335   0.456  0.00  0.00    +0.001 C 
ATOM     14  C   UNL     1      -1.657  -1.124  -0.198  0.00  0.00    +0.144 C 
ATOM     15  C   UNL     1       3.345   2.519  -0.439  0.00  0.00    -0.004 C 
ATOM     16  C   UNL     1       0.645  -1.866  -0.214  0.00  0.00    +0.045 C 
ATOM     17  C   UNL     1       2.080  -1.571  -0.379  0.00  0.00    +0.196 C 
ATOM     18  C   UNL     1       0.158   0.538  -0.575  0.00  0.00    +0.199 C 
ATOM     19  C   UNL     1       2.000   2.186  -0.554  0.00  0.00    +0.003 C 
ATOM     20  C   UNL     1      -2.076  -2.435   0.030  0.00  0.00    +0.037 C 
ATOM     21  C   UNL     1       0.223  -3.181   0.008  0.00  0.00    +0.003 C 
ATOM     22  C   UNL     1      -1.138  -3.461   0.133  0.00  0.00    +0.003 C 
ENDROOT
BRANCH  14  23
ATOM     23  O   UNL     1      -2.619  -0.162  -0.282  0.00  0.00    -0.450 OA
BRANCH  23  29
ATOM     24  O   UNL     1      -4.585  -0.854   0.854  0.00  0.00    -0.319 OA
ATOM     25  C   UNL     1      -4.893   1.812  -0.167  0.00  0.00    +0.173 C 
ATOM     26  C   UNL     1      -6.046   0.808  -0.187  0.00  0.00    +0.167 C 
ATOM     27  C   UNL     1      -3.896   1.479   0.944  0.00  0.00    +0.210 C 
ATOM     28  C   UNL     1      -5.498  -0.625  -0.224  0.00  0.00    +0.148 C 
ATOM     29  C   UNL     1      -3.451   0.021   0.859  0.00  0.00    +0.318 C 
ATOM     30  C   UNL     1      -6.607  -1.665  -0.097  0.00  0.00    +0.035 C 
BRANCH  25  31
ATOM     31  O   UNL     1      -5.416   3.124   0.026  0.00  0.00    -0.379 OA
ATOM     32  H   UNL     1      -6.047   3.329  -0.681  0.00  0.00    +0.211 HD
ENDBRANCH  25  31
BRANCH  26  33
ATOM     33  O   UNL     1      -6.838   1.064  -1.345  0.00  0.00    -0.379 OA
ATOM     34  H   UNL     1      -7.178   1.972  -1.310  0.00  0.00    +0.211 HD
ENDBRANCH  26  33
BRANCH  27  35
ATOM     35  O   UNL     1      -4.507   1.673   2.221  0.00  0.00    -0.377 OA
ATOM     36  H   UNL     1      -4.801   2.594   2.302  0.00  0.00    +0.211 HD
ENDBRANCH  27  35
ENDBRANCH  23  29
ENDBRANCH  14  23
TORSDOF 5
