REMARK  Name = 132059
REMARK  8 active torsions:
REMARK  status: ('A' for Active; 'I' for Inactive)
REMARK    1  A    between atoms: C_4  and  C_12
REMARK    2  A    between atoms: C_5  and  C_22
REMARK    3  A    between atoms: C_8  and  C_16
REMARK    4  A    between atoms: C_16  and  C_17
REMARK    5  A    between atoms: C_17  and  N_18
REMARK    6  A    between atoms: C_22  and  C_23
REMARK    7  A    between atoms: C_24  and  N_29
REMARK    8  A    between atoms: N_29  and  S_31
REMARK                            x       y       z     vdW  Elec       q    Type
REMARK                         _______ _______ _______ _____ _____    ______ ____
ROOT
ATOM      1  O   UNL     1      -0.565   2.911  -0.712  0.00  0.00    -0.311 OA
ATOM      2  N   UNL     1      -0.345   1.561   1.061  0.00  0.00    -0.313 NA
ATOM      3  N   UNL     1       0.637   3.275  -0.092  0.00  0.00    -0.011 NA
ATOM      4  C   UNL     1      -1.071   1.899   0.033  0.00  0.00    +0.317 C 
ATOM      5  C   UNL     1       0.697   2.434   0.945  0.00  0.00    +0.108 C 
ENDROOT
BRANCH   4  12
ATOM      6  N   UNL     1      -5.913  -0.333  -1.556  0.00  0.00    -0.312 N 
ATOM      7  C   UNL     1      -4.159  -0.205  -0.182  0.00  0.00    +0.011 C 
ATOM      8  C   UNL     1      -5.030  -1.236   0.270  0.00  0.00    -0.009 C 
ATOM      9  C   UNL     1      -4.736   0.345  -1.329  0.00  0.00    +0.048 C 
ATOM     10  C   UNL     1      -2.932   0.314   0.275  0.00  0.00    +0.007 C 
ATOM     11  C   UNL     1      -6.099  -1.290  -0.595  0.00  0.00    +0.057 C 
ATOM     12  C   UNL     1      -2.328   1.362  -0.430  0.00  0.00    +0.069 C 
ATOM     13  C   UNL     1      -4.145   1.393  -2.043  0.00  0.00    +0.015 C 
ATOM     14  C   UNL     1      -2.928   1.892  -1.571  0.00  0.00    +0.007 C 
ATOM     15  H   UNL     1      -6.531  -0.155  -2.301  0.00  0.00    +0.152 HD
BRANCH   8  16
ATOM     16  C   UNL     1      -4.831  -2.100   1.451  0.00  0.00    +0.004 C 
BRANCH  16  17
ATOM     17  C   UNL     1      -4.052  -3.387   1.120  0.00  0.00    -0.081 C 
BRANCH  17  18
ATOM     18  N   UNL     1      -3.888  -4.245   2.288  0.00  0.00    +0.381 N 
ATOM     19  H   UNL     1      -3.369  -5.083   2.025  0.00  0.00    -0.089 HD
ATOM     20  H   UNL     1      -4.806  -4.511   2.646  0.00  0.00    -0.089 HD
ATOM     21  H   UNL     1      -3.375  -3.740   3.011  0.00  0.00    -0.089 HD
ENDBRANCH  17  18
ENDBRANCH  16  17
ENDBRANCH   8  16
ENDBRANCH   4  12
BRANCH   5  22
ATOM     22  C   UNL     1       1.813   2.450   1.896  0.00  0.00    +0.142 C 
BRANCH  22  23
ATOM     23  C   UNL     1       2.876   1.497   1.377  0.00  0.00    -0.006 C 
ATOM     24  C   UNL     1       4.807  -0.238   0.431  0.00  0.00    +0.064 C 
ATOM     25  C   UNL     1       3.856   1.981   0.532  0.00  0.00    -0.002 C 
ATOM     26  C   UNL     1       2.833   0.171   1.762  0.00  0.00    -0.002 C 
ATOM     27  C   UNL     1       4.831   1.105   0.055  0.00  0.00    +0.016 C 
ATOM     28  C   UNL     1       3.808  -0.705   1.285  0.00  0.00    +0.016 C 
BRANCH  24  29
ATOM     29  N   UNL     1       5.805  -1.134  -0.057  0.00  0.00    -0.219 N 
ATOM     30  H   UNL     1       6.736  -1.073   0.258  0.00  0.00    +0.173 HD
BRANCH  29  31
ATOM     31  S   UNL     1       5.337  -2.324  -1.210  0.00  0.00    +0.056 S 
ATOM     32  O   UNL     1       6.428  -3.270  -1.361  0.00  0.00    -0.154 OA
ATOM     33  O   UNL     1       3.988  -2.789  -0.957  0.00  0.00    -0.154 OA
ATOM     34  C   UNL     1       5.305  -1.334  -2.688  0.00  0.00    +0.200 C 
ENDBRANCH  29  31
ENDBRANCH  24  29
ENDBRANCH  22  23
ENDBRANCH   5  22
TORSDOF 8
