13208200
  -OEChem-03292013303D

 48 48  0     1  0  0  0  0  0999 V2000
   -2.6410   -2.0481    1.1424 O   0  0  0  0  0  0  0  0  0  0  0  0
   -1.2158   -0.7744   -1.6956 O   0  0  0  0  0  0  0  0  0  0  0  0
    0.6894    0.4516    1.5694 O   0  0  0  0  0  0  0  0  0  0  0  0
   -0.6658   -3.9119   -1.2066 O   0  0  0  0  0  0  0  0  0  0  0  0
   -0.1568   -3.1651    0.8934 O   0  0  0  0  0  0  0  0  0  0  0  0
   -1.6906    0.4605    0.2217 N   0  0  0  0  0  0  0  0  0  0  0  0
    1.6231    1.6016   -0.2189 N   0  0  0  0  0  0  0  0  0  0  0  0
   -2.8226   -1.6316   -0.2066 C   0  0  2  0  0  0  0  0  0  0  0  0
   -2.3822   -3.0159    0.1172 C   0  0  1  0  0  0  0  0  0  0  0  0
   -0.7843    1.5553   -0.0086 C   0  0  1  0  0  0  0  0  0  0  0  0
   -1.2646    2.8550    0.6497 C   0  0  0  0  0  0  0  0  0  0  0  0
   -2.6517    3.3421    0.1835 C   0  0  0  0  0  0  0  0  0  0  0  0
   -1.8260   -0.6106   -0.6456 C   0  0  0  0  0  0  0  0  0  0  0  0
    0.5699    1.1447    0.5612 C   0  0  0  0  0  0  0  0  0  0  0  0
   -0.9616   -3.3612   -0.0047 C   0  0  0  0  0  0  0  0  0  0  0  0
    3.4879    0.0260   -0.6042 C   0  0  0  0  0  0  0  0  0  0  0  0
    3.0087    1.3093    0.0702 C   0  0  0  0  0  0  0  0  0  0  0  0
   -3.6970    2.2557    0.4511 C   0  0  0  0  0  0  0  0  0  0  0  0
   -2.6690    3.7197   -1.2984 C   0  0  0  0  0  0  0  0  0  0  0  0
    4.9523   -0.3571   -0.3112 C   0  0  0  0  0  0  0  0  0  0  0  0
    5.1524   -0.5151    1.1986 C   0  0  0  0  0  0  0  0  0  0  0  0
    5.9454    0.6693   -0.8580 C   0  0  0  0  0  0  0  0  0  0  0  0
   -3.8349   -1.4951   -0.5670 H   0  0  0  0  0  0  0  0  0  0  0  0
   -3.0974   -3.8205    0.0000 H   0  0  0  0  0  0  0  0  0  0  0  0
   -0.6864    1.6922   -1.0916 H   0  0  0  0  0  0  0  0  0  0  0  0
   -1.2912    2.7212    1.7402 H   0  0  0  0  0  0  0  0  0  0  0  0
   -0.5274    3.6475    0.4657 H   0  0  0  0  0  0  0  0  0  0  0  0
   -2.9088    4.2315    0.7722 H   0  0  0  0  0  0  0  0  0  0  0  0
   -2.1311    0.3854    1.1338 H   0  0  0  0  0  0  0  0  0  0  0  0
    2.8383   -0.8037   -0.2948 H   0  0  0  0  0  0  0  0  0  0  0  0
    3.3528    0.1188   -1.6898 H   0  0  0  0  0  0  0  0  0  0  0  0
    3.5862    2.1703   -0.2799 H   0  0  0  0  0  0  0  0  0  0  0  0
    3.1151    1.2489    1.1572 H   0  0  0  0  0  0  0  0  0  0  0  0
    5.1510   -1.3221   -0.7938 H   0  0  0  0  0  0  0  0  0  0  0  0
   -3.7456    1.4864   -0.3230 H   0  0  0  0  0  0  0  0  0  0  0  0
   -3.6022    1.8188    1.4497 H   0  0  0  0  0  0  0  0  0  0  0  0
   -4.6893    2.7262    0.4309 H   0  0  0  0  0  0  0  0  0  0  0  0
   -1.9027    4.4712   -1.5148 H   0  0  0  0  0  0  0  0  0  0  0  0
   -3.6406    4.1451   -1.5723 H   0  0  0  0  0  0  0  0  0  0  0  0
   -2.4921    2.8561   -1.9473 H   0  0  0  0  0  0  0  0  0  0  0  0
    1.4265    2.1662   -1.0401 H   0  0  0  0  0  0  0  0  0  0  0  0
    6.1354   -0.9543    1.4025 H   0  0  0  0  0  0  0  0  0  0  0  0
    4.3984   -1.1826    1.6290 H   0  0  0  0  0  0  0  0  0  0  0  0
    5.1127    0.4420    1.7279 H   0  0  0  0  0  0  0  0  0  0  0  0
    5.7913    0.8232   -1.9311 H   0  0  0  0  0  0  0  0  0  0  0  0
    6.9737    0.3200   -0.7151 H   0  0  0  0  0  0  0  0  0  0  0  0
    5.8532    1.6383   -0.3574 H   0  0  0  0  0  0  0  0  0  0  0  0
    0.2854   -4.1398   -1.2812 H   0  0  0  0  0  0  0  0  0  0  0  0
  1  8  1  0  0  0  0
  1  9  1  0  0  0  0
  2 13  2  0  0  0  0
  3 14  2  0  0  0  0
  4 15  1  0  0  0  0
  4 48  1  0  0  0  0
  5 15  2  0  0  0  0
  6 10  1  0  0  0  0
  6 13  1  0  0  0  0
  6 29  1  0  0  0  0
  7 14  1  0  0  0  0
  7 17  1  0  0  0  0
  7 41  1  0  0  0  0
  8  9  1  0  0  0  0
  8 13  1  0  0  0  0
  8 23  1  0  0  0  0
  9 15  1  0  0  0  0
  9 24  1  0  0  0  0
 10 11  1  0  0  0  0
 10 14  1  0  0  0  0
 10 25  1  0  0  0  0
 11 12  1  0  0  0  0
 11 26  1  0  0  0  0
 11 27  1  0  0  0  0
 12 18  1  0  0  0  0
 12 19  1  0  0  0  0
 12 28  1  0  0  0  0
 16 17  1  0  0  0  0
 16 20  1  0  0  0  0
 16 30  1  0  0  0  0
 16 31  1  0  0  0  0
 17 32  1  0  0  0  0
 17 33  1  0  0  0  0
 18 35  1  0  0  0  0
 18 36  1  0  0  0  0
 18 37  1  0  0  0  0
 19 38  1  0  0  0  0
 19 39  1  0  0  0  0
 19 40  1  0  0  0  0
 20 21  1  0  0  0  0
 20 22  1  0  0  0  0
 20 34  1  0  0  0  0
 21 42  1  0  0  0  0
 21 43  1  0  0  0  0
 21 44  1  0  0  0  0
 22 45  1  0  0  0  0
 22 46  1  0  0  0  0
 22 47  1  0  0  0  0
M  END
> <PUBCHEM_COMPOUND_CID>
13208200

> <PUBCHEM_CONFORMER_RMSD>
1

> <PUBCHEM_CONFORMER_DIVERSEORDER>
1
123
48
74
120
37
51
65
16
76
84
78
96
80
97
11
68
13
22
33
104
112
71
40
62
91
59
119
66
58
117
23
95
121
128
110
105
98
52
72
92
35
18
41
3
32
39
60
77
124
69
31
122
85
38
63
56
61
44
17
103
70
101
47
21
25
28
6
106
50
42
102
116
79
57
86
55
24
75
114
90
82
126
94
99
27
43
2
127
118
83
81
67
53
45
29
26
54
108
8
115
109
87
107
30
88
129
14
125
36
15
113
100
111
20
9
5
64
12
73
46
34
10
4
93
7
19
49
89

> <PUBCHEM_MMFF94_PARTIAL_CHARGES>
19
1 -0.3
10 0.36
13 0.63
14 0.57
15 0.72
17 0.3
2 -0.57
23 0.1
24 0.1
29 0.37
3 -0.57
4 -0.65
41 0.37
48 0.5
5 -0.57
6 -0.73
7 -0.73
8 0.05
9 0.05

> <PUBCHEM_EFFECTIVE_ROTOR_COUNT>
11.6

> <PUBCHEM_PHARMACOPHORE_FEATURES>
10
1 1 acceptor
1 2 acceptor
1 3 acceptor
1 4 acceptor
1 5 acceptor
1 6 donor
1 7 donor
3 12 18 19 hydrophobe
3 20 21 22 hydrophobe
3 4 5 15 anion

> <PUBCHEM_HEAVY_ATOM_COUNT>
22

> <PUBCHEM_ATOM_DEF_STEREO_COUNT>
3

> <PUBCHEM_ATOM_UDEF_STEREO_COUNT>
0

> <PUBCHEM_BOND_DEF_STEREO_COUNT>
0

> <PUBCHEM_BOND_UDEF_STEREO_COUNT>
0

> <PUBCHEM_ISOTOPIC_ATOM_COUNT>
0

> <PUBCHEM_COMPONENT_COUNT>
1

> <PUBCHEM_CACTVS_TAUTO_COUNT>
4

> <PUBCHEM_CONFORMER_ID>
00C98A8800000001

> <PUBCHEM_MMFF94_ENERGY>
35.431

> <PUBCHEM_FEATURE_SELFOVERLAP>
50.807

> <PUBCHEM_SHAPE_FINGERPRINT>
107951 10 18340211765045012614
12523318 42 18341033186947874424
12553582 1 17907018735140131135
12788726 201 18336269050045746690
138480 1 16825591384917815406
14251751 93 18337956696782450152
14251757 5 18411423925189200696
14866123 147 18412267237875848995
15422964 175 17691960879376417593
15463212 79 18260824869884144640
15927050 60 18126288541473585655
16752209 62 18339063943693695098
167882 2 17687741641012521421
18785283 64 17471863498076980033
19784866 135 18339644554526231563
20645476 183 18263358101413793433
22224240 67 18200322001115646849
23559900 14 18270394010039132832
23728640 28 18411699867957637154
3027735 51 18343298145940441511
3298306 158 18050288059477254796
3759504 43 18338235946977001732
394222 165 15688745874159835201
532947 4 17690841155489927068
7097593 13 17405439178981029819
81228 2 18126544925156998633

> <PUBCHEM_SHAPE_MULTIPOLES>
413.44
8.89
5.13
1.19
17.67
2.7
0.07
-3.41
0.52
-6.91
0.55
0.11
0.07
-0.03

> <PUBCHEM_SHAPE_SELFOVERLAP>
812.498

> <PUBCHEM_SHAPE_VOLUME>
247.8

> <PUBCHEM_COORDINATE_TYPE>
2
5
10

$$$$
