REMARK  Name = 132027
REMARK  5 active torsions:
REMARK  status: ('A' for Active; 'I' for Inactive)
REMARK    1  A    between atoms: C_8  and  O_23
REMARK    2  A    between atoms: C_11  and  C_29
REMARK    3  A    between atoms: C_20  and  O_25
REMARK    4  A    between atoms: C_21  and  O_27
REMARK    5  A    between atoms: C_29  and  O_30
REMARK                            x       y       z     vdW  Elec       q    Type
REMARK                         _______ _______ _______ _____ _____    ______ ____
ROOT
ATOM      1  O   UNL     1      -0.706   2.373  -0.250  0.00  0.00    -0.480 OA
ATOM      2  O   UNL     1       0.624  -1.671   1.884  0.00  0.00    -0.287 OA
ATOM      3  O   UNL     1       1.866   2.603  -0.989  0.00  0.00    -0.283 OA
ATOM      4  C   UNL     1      -2.617   0.990   0.436  0.00  0.00    +0.048 C 
ATOM      5  C   UNL     1      -1.658  -0.066   1.062  0.00  0.00    +0.053 C 
ATOM      6  C   UNL     1      -1.953   2.394   0.465  0.00  0.00    +0.134 C 
ATOM      7  C   UNL     1      -3.028   0.557  -0.994  0.00  0.00    +0.038 C 
ATOM      8  C   UNL     1      -3.724  -0.807  -1.006  0.00  0.00    +0.131 C 
ATOM      9  C   UNL     1      -0.211   0.194   0.655  0.00  0.00    +0.058 C 
ATOM     10  C   UNL     1      -2.116  -1.480   0.769  0.00  0.00    -0.026 C 
ATOM     11  C   UNL     1      -3.049  -1.825  -0.134  0.00  0.00    +0.007 C 
ATOM     12  C   UNL     1      -2.817   3.456  -0.236  0.00  0.00    +0.044 C 
ATOM     13  C   UNL     1      -1.707   2.893   1.905  0.00  0.00    +0.044 C 
ATOM     14  C   UNL     1       0.150   1.322   0.015  0.00  0.00    +0.176 C 
ATOM     15  C   UNL     1       0.841  -0.788   1.062  0.00  0.00    +0.195 C 
ATOM     16  C   UNL     1       1.544   1.550  -0.449  0.00  0.00    +0.232 C 
ATOM     17  C   UNL     1       2.183  -0.661   0.470  0.00  0.00    +0.048 C 
ATOM     18  C   UNL     1       2.525   0.472  -0.260  0.00  0.00    +0.079 C 
ATOM     19  C   UNL     1       3.126  -1.679   0.661  0.00  0.00    +0.040 C 
ATOM     20  C   UNL     1       3.809   0.595  -0.804  0.00  0.00    +0.140 C 
ATOM     21  C   UNL     1       4.404  -1.557   0.115  0.00  0.00    +0.137 C 
ATOM     22  C   UNL     1       4.745  -0.422  -0.617  0.00  0.00    +0.073 C 
ENDROOT
BRANCH   8  23
ATOM     23  O   UNL     1      -5.070  -0.661  -0.553  0.00  0.00    -0.380 OA
ATOM     24  H   UNL     1      -5.527  -0.006  -1.103  0.00  0.00    +0.211 HD
ENDBRANCH   8  23
BRANCH  20  25
ATOM     25  O   UNL     1       4.201   1.678  -1.534  0.00  0.00    -0.505 OA
ATOM     26  H   UNL     1       3.602   2.384  -1.684  0.00  0.00    +0.292 HD
ENDBRANCH  20  25
BRANCH  21  27
ATOM     27  O   UNL     1       5.319  -2.549   0.297  0.00  0.00    -0.505 OA
ATOM     28  H   UNL     1       5.090  -3.313   0.789  0.00  0.00    +0.292 HD
ENDBRANCH  21  27
BRANCH  11  29
ATOM     29  C   UNL     1      -3.474  -3.254  -0.321  0.00  0.00    +0.161 C 
BRANCH  29  30
ATOM     30  O   UNL     1      -3.206  -3.659  -1.649  0.00  0.00    -0.377 OA
ATOM     31  H   UNL     1      -3.482  -4.581  -1.768  0.00  0.00    +0.211 HD
ENDBRANCH  29  30
ENDBRANCH  11  29
TORSDOF 5
