REMARK  Name = 132086
REMARK  8 active torsions:
REMARK  status: ('A' for Active; 'I' for Inactive)
REMARK    1  A    between atoms: C_1  and  C_9
REMARK    2  A    between atoms: C_1  and  N_10
REMARK    3  A    between atoms: C_1  and  C_22
REMARK    4  A    between atoms: N_10  and  S_12
REMARK    5  A    between atoms: S_12  and  C_15
REMARK    6  A    between atoms: C_22  and  C_23
REMARK    7  A    between atoms: C_28  and  N_29
REMARK    8  A    between atoms: N_29  and  C_32
REMARK                            x       y       z     vdW  Elec       q    Type
REMARK                         _______ _______ _______ _____ _____    ______ ____
ROOT
ATOM      1  C   UNL     1       1.681  -0.292   0.947  0.00  0.00    +0.156 C 
ENDROOT
BRANCH   1   9
ATOM      2  O   UNL     1       3.765   0.179   1.971  0.00  0.00    -0.273 OA
ATOM      3  N   UNL     1       3.836  -1.005  -0.028  0.00  0.00    -0.278 N 
ATOM      4  C   UNL     1       3.173  -1.678  -1.151  0.00  0.00    +0.093 C 
ATOM      5  C   UNL     1       5.298  -1.098  -0.032  0.00  0.00    +0.093 C 
ATOM      6  C   UNL     1       3.710  -1.163  -2.485  0.00  0.00    +0.022 C 
ATOM      7  C   UNL     1       5.874  -0.571  -1.343  0.00  0.00    +0.022 C 
ATOM      8  C   UNL     1       5.234  -1.262  -2.546  0.00  0.00    +0.004 C 
ATOM      9  C   UNL     1       3.186  -0.348   1.017  0.00  0.00    +0.242 C 
ENDBRANCH   1   9
BRANCH   1  10
ATOM     10  N   UNL     1       1.357   1.012   1.553  0.00  0.00    -0.172 NA
ATOM     11  H   UNL     1       0.416   0.933   1.936  0.00  0.00    +0.149 HD
BRANCH  10  12
ATOM     12  S   UNL     1       1.382   2.425   0.602  0.00  0.00    +0.061 S 
ATOM     13  O   UNL     1       2.255   2.219  -0.538  0.00  0.00    -0.153 OA
ATOM     14  O   UNL     1       1.570   3.574   1.467  0.00  0.00    -0.153 OA
BRANCH  12  15
ATOM     15  C   UNL     1      -0.282   2.491   0.011  0.00  0.00    +0.122 C 
ATOM     16  C   UNL     1      -1.235   3.171   0.749  0.00  0.00    +0.020 C 
ATOM     17  C   UNL     1      -0.601   1.862  -1.180  0.00  0.00    +0.020 C 
ATOM     18  C   UNL     1      -2.548   3.224   0.281  0.00  0.00    -0.003 C 
ATOM     19  C   UNL     1      -1.914   1.915  -1.648  0.00  0.00    -0.003 C 
ATOM     20  C   UNL     1      -2.888   2.596  -0.917  0.00  0.00    -0.022 C 
ATOM     21  C   UNL     1      -4.292   2.653  -1.417  0.00  0.00    +0.031 C 
ENDBRANCH  12  15
ENDBRANCH  10  12
ENDBRANCH   1  10
BRANCH   1  22
ATOM     22  C   UNL     1       1.072  -1.441   1.736  0.00  0.00    +0.053 C 
BRANCH  22  23
ATOM     23  C   UNL     1      -0.360  -1.709   1.341  0.00  0.00    -0.020 C 
ATOM     24  C   UNL     1      -0.625  -2.609   0.321  0.00  0.00    -0.003 C 
ATOM     25  C   UNL     1      -1.383  -1.049   2.003  0.00  0.00    -0.003 C 
ATOM     26  C   UNL     1      -1.948  -2.856  -0.046  0.00  0.00    +0.019 C 
ATOM     27  C   UNL     1      -2.706  -1.296   1.636  0.00  0.00    +0.019 C 
ATOM     28  C   UNL     1      -2.989  -2.200   0.611  0.00  0.00    +0.084 C 
BRANCH  28  29
ATOM     29  N   UNL     1      -4.315  -2.448   0.244  0.00  0.00    -0.214 NA
BRANCH  29  32
ATOM     30  N   UNL     1      -4.278  -0.671  -1.385  0.00  0.00    -0.370 N 
ATOM     31  N   UNL     1      -6.165  -1.918  -1.080  0.00  0.00    -0.370 N 
ATOM     32  C   UNL     1      -4.864  -1.707  -0.690  0.00  0.00    +0.193 C 
ATOM     33  H   UNL     1      -3.345  -0.419  -1.199  0.00  0.00    +0.159 HD
ATOM     34  H   UNL     1      -4.793  -0.184  -2.069  0.00  0.00    +0.159 HD
ATOM     35  H   UNL     1      -6.696  -2.632  -0.658  0.00  0.00    +0.159 HD
ATOM     36  H   UNL     1      -6.566  -1.356  -1.782  0.00  0.00    +0.159 HD
ENDBRANCH  29  32
ENDBRANCH  28  29
ENDBRANCH  22  23
ENDBRANCH   1  22
TORSDOF 8
