REMARK  Name = 132060
REMARK  3 active torsions:
REMARK  status: ('A' for Active; 'I' for Inactive)
REMARK    1  A    between atoms: N_1  and  C_13
REMARK    2  A    between atoms: C_13  and  C_18
REMARK    3  A    between atoms: P_14  and  O_21
REMARK                            x       y       z     vdW  Elec       q    Type
REMARK                         _______ _______ _______ _____ _____    ______ ____
ROOT
ATOM      1  N   UNL     1       0.797  -0.265  -0.971  0.00  0.00    -0.242 NA
ATOM      2  N   UNL     1       2.219  -1.845  -0.362  0.00  0.00    -0.252 NA
ATOM      3  N   UNL     1       4.200   1.048   0.836  0.00  0.00    -0.229 NA
ATOM      4  N   UNL     1       4.830  -1.252   0.996  0.00  0.00    -0.342 N 
ATOM      5  C   UNL     1       1.840   0.401  -0.399  0.00  0.00    +0.126 C 
ATOM      6  C   UNL     1       2.720  -0.609  -0.025  0.00  0.00    +0.105 C 
ATOM      7  C   UNL     1       1.060  -1.599  -0.929  0.00  0.00    +0.201 C 
ATOM      8  C   UNL     1       2.095   1.748  -0.179  0.00  0.00    +0.016 C 
ATOM      9  C   UNL     1       3.916  -0.258   0.603  0.00  0.00    +0.140 C 
ATOM     10  C   UNL     1       3.307   1.993   0.449  0.00  0.00    +0.097 C 
ATOM     11  H   UNL     1       5.672  -0.998   1.439  0.00  0.00    +0.144 HD
ATOM     12  H   UNL     1       4.628  -2.200   0.830  0.00  0.00    +0.144 HD
ENDROOT
BRANCH   1  13
ATOM     13  C   UNL     1      -0.404   0.337  -1.535  0.00  0.00    +0.107 C 
BRANCH  13  18
ATOM     14  P   UNL     1      -4.194  -0.065   0.699  0.00  0.00    +0.370 P 
ATOM     15  O   UNL     1      -1.818  -0.820  -0.002  0.00  0.00    -0.341 OA
ATOM     16  O   UNL     1      -3.764   1.256  -0.131  0.00  0.00    -0.290 OA
ATOM     17  O   UNL     1      -5.132   0.186   1.842  0.00  0.00    -0.255 OA
ATOM     18  C   UNL     1      -1.510   0.488  -0.501  0.00  0.00    +0.162 C 
ATOM     19  C   UNL     1      -2.757   1.106  -1.126  0.00  0.00    +0.182 C 
ATOM     20  C   UNL     1      -2.637  -0.780   1.164  0.00  0.00    +0.258 C 
BRANCH  14  21
ATOM     21  O   UNL     1      -4.769  -1.070  -0.430  0.00  0.00    -0.322 OA
ATOM     22  H   UNL     1      -5.630  -0.748  -0.742  0.00  0.00    +0.220 HD
ENDBRANCH  14  21
ENDBRANCH  13  18
ENDBRANCH   1  13
TORSDOF 3
