132028
  -OEChem-03292013323D

 43 46  0     0  0  0  0  0  0999 V2000
   -0.3302    2.4160    0.2539 O   0  0  0  0  0  0  0  0  0  0  0  0
   -5.7093   -0.4094    0.2680 O   0  0  0  0  0  0  0  0  0  0  0  0
    0.4383   -2.1938   -0.6982 O   0  0  0  0  0  0  0  0  0  0  0  0
    2.3419    2.6716    0.2007 O   0  0  0  0  0  0  0  0  0  0  0  0
    4.7425    1.7893    0.4344 O   0  0  0  0  0  0  0  0  0  0  0  0
   -4.3950   -3.4047   -0.5807 O   0  0  0  0  0  0  0  0  0  0  0  0
    5.3779   -2.8797   -0.0830 O   0  0  0  0  0  0  0  0  0  0  0  0
   -1.6761    2.3843   -0.2662 C   0  0  0  0  0  0  0  0  0  0  0  0
   -2.3514    1.0391   -0.0481 C   0  0  0  0  0  0  0  0  0  0  0  0
   -1.5464   -0.1097    0.0855 C   0  0  0  0  0  0  0  0  0  0  0  0
   -0.0759    0.0406   -0.0239 C   0  0  0  0  0  0  0  0  0  0  0  0
    0.4341    1.2782    0.1138 C   0  0  0  0  0  0  0  0  0  0  0  0
   -2.3845    3.5316    0.4759 C   0  0  0  0  0  0  0  0  0  0  0  0
   -1.6217    2.7178   -1.7663 C   0  0  0  0  0  0  0  0  0  0  0  0
   -3.7514    0.9126   -0.0034 C   0  0  0  0  0  0  0  0  0  0  0  0
   -2.1689   -1.3423    0.3437 C   0  0  0  0  0  0  0  0  0  0  0  0
    0.8434   -1.1076   -0.3000 C   0  0  0  0  0  0  0  0  0  0  0  0
    1.8990    1.5303    0.1305 C   0  0  0  0  0  0  0  0  0  0  0  0
    2.2921   -0.9033   -0.1221 C   0  0  0  0  0  0  0  0  0  0  0  0
   -3.5591   -1.4486    0.4095 C   0  0  0  0  0  0  0  0  0  0  0  0
    2.8038    0.3741    0.0811 C   0  0  0  0  0  0  0  0  0  0  0  0
   -4.3508   -0.3239    0.2236 C   0  0  0  0  0  0  0  0  0  0  0  0
    4.1833    0.5630    0.2281 C   0  0  0  0  0  0  0  0  0  0  0  0
    3.1609   -2.0005   -0.1796 C   0  0  0  0  0  0  0  0  0  0  0  0
   -4.1772   -2.7811    0.6785 C   0  0  0  0  0  0  0  0  0  0  0  0
    4.5352   -1.8119   -0.0294 C   0  0  0  0  0  0  0  0  0  0  0  0
    5.0457   -0.5319    0.1739 C   0  0  0  0  0  0  0  0  0  0  0  0
   -3.3837    3.7401    0.0811 H   0  0  0  0  0  0  0  0  0  0  0  0
   -2.4766    3.3061    1.5453 H   0  0  0  0  0  0  0  0  0  0  0  0
   -1.8011    4.4578    0.4050 H   0  0  0  0  0  0  0  0  0  0  0  0
   -1.0896    3.6610   -1.9365 H   0  0  0  0  0  0  0  0  0  0  0  0
   -1.0777    1.9500   -2.3288 H   0  0  0  0  0  0  0  0  0  0  0  0
   -2.6242    2.8019   -2.2004 H   0  0  0  0  0  0  0  0  0  0  0  0
   -4.3900    1.7800   -0.1470 H   0  0  0  0  0  0  0  0  0  0  0  0
   -1.5792   -2.2383    0.5146 H   0  0  0  0  0  0  0  0  0  0  0  0
    2.7745   -3.0044   -0.3384 H   0  0  0  0  0  0  0  0  0  0  0  0
   -3.4989   -3.4167    1.2583 H   0  0  0  0  0  0  0  0  0  0  0  0
   -5.1117   -2.7335    1.2457 H   0  0  0  0  0  0  0  0  0  0  0  0
    6.1172   -0.3881    0.2904 H   0  0  0  0  0  0  0  0  0  0  0  0
   -6.0005   -1.3248    0.1349 H   0  0  0  0  0  0  0  0  0  0  0  0
    4.0560    2.4624    0.5561 H   0  0  0  0  0  0  0  0  0  0  0  0
   -5.0286   -2.8629   -1.0812 H   0  0  0  0  0  0  0  0  0  0  0  0
    4.8560   -3.6872   -0.2299 H   0  0  0  0  0  0  0  0  0  0  0  0
  1  8  1  0  0  0  0
  1 12  1  0  0  0  0
  2 22  1  0  0  0  0
  2 40  1  0  0  0  0
  3 17  2  0  0  0  0
  4 18  2  0  0  0  0
  5 23  1  0  0  0  0
  5 41  1  0  0  0  0
  6 25  1  0  0  0  0
  6 42  1  0  0  0  0
  7 26  1  0  0  0  0
  7 43  1  0  0  0  0
  8  9  1  0  0  0  0
  8 13  1  0  0  0  0
  8 14  1  0  0  0  0
  9 10  2  0  0  0  0
  9 15  1  0  0  0  0
 10 11  1  0  0  0  0
 10 16  1  0  0  0  0
 11 12  2  0  0  0  0
 11 17  1  0  0  0  0
 12 18  1  0  0  0  0
 13 28  1  0  0  0  0
 13 29  1  0  0  0  0
 13 30  1  0  0  0  0
 14 31  1  0  0  0  0
 14 32  1  0  0  0  0
 14 33  1  0  0  0  0
 15 22  2  0  0  0  0
 15 34  1  0  0  0  0
 16 20  2  0  0  0  0
 16 35  1  0  0  0  0
 17 19  1  0  0  0  0
 18 21  1  0  0  0  0
 19 21  2  0  0  0  0
 19 24  1  0  0  0  0
 20 22  1  0  0  0  0
 20 25  1  0  0  0  0
 21 23  1  0  0  0  0
 23 27  2  0  0  0  0
 24 26  2  0  0  0  0
 24 36  1  0  0  0  0
 25 37  1  0  0  0  0
 25 38  1  0  0  0  0
 26 27  1  0  0  0  0
 27 39  1  0  0  0  0
M  END
> <PUBCHEM_COMPOUND_CID>
132028

> <PUBCHEM_CONFORMER_RMSD>
0.6

> <PUBCHEM_CONFORMER_DIVERSEORDER>
1
2

> <PUBCHEM_MMFF94_PARTIAL_CHARGES>
33
1 -0.36
10 0.03
11 -0.01
12 0.09
15 -0.15
16 -0.15
17 0.47
18 0.47
19 0.09
2 -0.53
20 -0.14
21 0.09
22 0.08
23 0.08
24 -0.15
25 0.42
26 0.08
27 -0.15
3 -0.57
34 0.15
35 0.15
36 0.15
39 0.15
4 -0.57
40 0.45
41 0.45
42 0.4
43 0.45
5 -0.53
6 -0.68
7 -0.53
8 0.42
9 -0.14

> <PUBCHEM_EFFECTIVE_ROTOR_COUNT>
1.4

> <PUBCHEM_PHARMACOPHORE_FEATURES>
13
1 1 acceptor
1 2 donor
1 3 acceptor
1 4 acceptor
1 5 donor
1 6 acceptor
1 6 donor
1 7 donor
3 8 13 14 hydrophobe
6 1 8 9 10 11 12 rings
6 11 12 17 18 19 21 rings
6 19 21 23 24 26 27 rings
6 9 10 15 16 20 22 rings

> <PUBCHEM_HEAVY_ATOM_COUNT>
27

> <PUBCHEM_ATOM_DEF_STEREO_COUNT>
0

> <PUBCHEM_ATOM_UDEF_STEREO_COUNT>
0

> <PUBCHEM_BOND_DEF_STEREO_COUNT>
0

> <PUBCHEM_BOND_UDEF_STEREO_COUNT>
0

> <PUBCHEM_ISOTOPIC_ATOM_COUNT>
0

> <PUBCHEM_COMPONENT_COUNT>
1

> <PUBCHEM_CACTVS_TAUTO_COUNT>
69

> <PUBCHEM_CONFORMER_ID>
000203BC00000001

> <PUBCHEM_MMFF94_ENERGY>
93.5367

> <PUBCHEM_FEATURE_SELFOVERLAP>
66.045

> <PUBCHEM_SHAPE_FINGERPRINT>
10 15 18340473553147107592
10319926 262 18195511624795434298
10411042 1 18338800117128513243
10616163 171 18411983537588698271
10967382 1 18050851314426081889
1100329 8 17255399323780223267
11135609 12 17824556390224294971
11578080 2 16734937926929152814
11963148 33 18120369019699272330
12403259 226 18410852170415614008
12422481 6 18268730345697657889
12633257 1 18270130006593126361
13140716 1 18410864278265888851
13402501 40 18411138017616167531
13544653 18 18335145344693021291
138480 1 15383874256746855465
14223421 5 18410290311404932864
14341114 176 18409735049210629115
14787075 74 18116152349529399410
14790565 3 17328309554615476804
15131766 46 15480670252392208200
15196674 1 18339361868648558176
15352361 1 18410012165080604755
17357779 13 18335968835979095701
17492 89 18410292506392119338
1813 80 17385725815562369101
18608769 82 18340486764039130954
19141452 34 18412549816912050291
19591789 44 18339923813337019598
21033648 29 17487592170936492810
21065198 57 18339080367980957154
21236236 1 18340206263455857801
21267235 1 18339931415924953686
21279426 13 18336260133667467789
221490 88 18411139113317968810
22182313 1 18339061736571498364
23402539 116 18335978765969948199
23557571 272 18271250395898620564
23558518 356 18261965067336312433
23559900 14 18410285887562289872
335352 9 18338518526298091965
3380486 145 18336558208998680713
350125 39 18411140225366845484
4214541 1 18265615390379935496
46194498 28 17245530537586440183
5104073 3 18270113501403099440
59554788 248 17703788089981006430
59755656 215 18338517417795648423
9709674 26 18198063577659959294

> <PUBCHEM_SHAPE_MULTIPOLES>
514.56
10.83
3.89
0.8
4.05
0.36
-0.2
-6.55
1.04
-2.05
-0.27
-0.32
0.25
0.69

> <PUBCHEM_SHAPE_SELFOVERLAP>
1161.438

> <PUBCHEM_SHAPE_VOLUME>
268.8

> <PUBCHEM_COORDINATE_TYPE>
2
5
10

$$$$
