REMARK  Name = 132029
REMARK  6 active torsions:
REMARK  status: ('A' for Active; 'I' for Inactive)
REMARK    1  A    between atoms: C_15  and  O_25
REMARK    2  A    between atoms: C_18  and  O_23
REMARK    3  A    between atoms: O_25  and  C_31
REMARK    4  A    between atoms: C_27  and  O_33
REMARK    5  A    between atoms: C_28  and  O_35
REMARK    6  A    between atoms: C_29  and  O_37
REMARK                            x       y       z     vdW  Elec       q    Type
REMARK                         _______ _______ _______ _____ _____    ______ ____
ROOT
ATOM      1  O   UNL     1       4.609  -1.967   0.963  0.00  0.00    -0.291 OA
ATOM      2  O   UNL     1       2.790  -2.578  -0.721  0.00  0.00    -0.287 OA
ATOM      3  O   UNL     1      -0.674   1.345  -0.801  0.00  0.00    -0.286 OA
ATOM      4  C   UNL     1       6.628   0.799   0.674  0.00  0.00    +0.012 C 
ATOM      5  C   UNL     1       5.736   1.833  -0.015  0.00  0.00    +0.027 C 
ATOM      6  C   UNL     1       4.287   1.412  -0.111  0.00  0.00    -0.016 C 
ATOM      7  C   UNL     1       3.873   0.065  -0.032  0.00  0.00    +0.034 C 
ATOM      8  C   UNL     1       6.345  -0.581   0.095  0.00  0.00    +0.069 C 
ATOM      9  C   UNL     1       2.516  -0.270  -0.244  0.00  0.00    +0.047 C 
ATOM     10  C   UNL     1       4.905  -0.932   0.376  0.00  0.00    +0.173 C 
ATOM     11  C   UNL     1       1.576   0.757  -0.423  0.00  0.00    +0.076 C 
ATOM     12  C   UNL     1      -0.331  -0.922  -0.325  0.00  0.00    +0.076 C 
ATOM     13  C   UNL     1       8.102   1.165   0.525  0.00  0.00    +0.001 C 
ATOM     14  C   UNL     1       3.333   2.410  -0.350  0.00  0.00    +0.033 C 
ATOM     15  C   UNL     1      -1.698  -1.197  -0.215  0.00  0.00    +0.144 C 
ATOM     16  C   UNL     1       0.598  -1.957  -0.245  0.00  0.00    +0.045 C 
ATOM     17  C   UNL     1       2.035  -1.670  -0.398  0.00  0.00    +0.196 C 
ATOM     18  C   UNL     1       1.985   2.092  -0.477  0.00  0.00    +0.136 C 
ATOM     19  C   UNL     1       0.131   0.459  -0.544  0.00  0.00    +0.202 C 
ATOM     20  C   UNL     1      -2.129  -2.510  -0.021  0.00  0.00    +0.037 C 
ATOM     21  C   UNL     1       0.164  -3.274  -0.057  0.00  0.00    +0.003 C 
ATOM     22  C   UNL     1      -1.199  -3.547   0.058  0.00  0.00    +0.003 C 
ENDROOT
BRANCH  18  23
ATOM     23  O   UNL     1       1.122   3.132  -0.655  0.00  0.00    -0.505 OA
ATOM     24  H   UNL     1       0.204   2.968  -0.746  0.00  0.00    +0.292 HD
ENDBRANCH  18  23
BRANCH  15  25
ATOM     25  O   UNL     1      -2.655  -0.228  -0.272  0.00  0.00    -0.450 OA
BRANCH  25  31
ATOM     26  O   UNL     1      -4.624  -0.939   0.846  0.00  0.00    -0.319 OA
ATOM     27  C   UNL     1      -4.918   1.755  -0.104  0.00  0.00    +0.173 C 
ATOM     28  C   UNL     1      -6.077   0.759  -0.150  0.00  0.00    +0.167 C 
ATOM     29  C   UNL     1      -3.923   1.387   0.998  0.00  0.00    +0.210 C 
ATOM     30  C   UNL     1      -5.536  -0.676  -0.225  0.00  0.00    +0.148 C 
ATOM     31  C   UNL     1      -3.486  -0.071   0.873  0.00  0.00    +0.318 C 
ATOM     32  C   UNL     1      -6.652  -1.713  -0.126  0.00  0.00    +0.035 C 
BRANCH  27  33
ATOM     33  O   UNL     1      -5.433   3.064   0.125  0.00  0.00    -0.379 OA
ATOM     34  H   UNL     1      -6.063   3.291  -0.576  0.00  0.00    +0.211 HD
ENDBRANCH  27  33
BRANCH  28  35
ATOM     35  O   UNL     1      -6.867   1.050  -1.300  0.00  0.00    -0.379 OA
ATOM     36  H   UNL     1      -7.202   1.958  -1.240  0.00  0.00    +0.211 HD
ENDBRANCH  28  35
BRANCH  29  37
ATOM     37  O   UNL     1      -4.532   1.550   2.279  0.00  0.00    -0.377 OA
ATOM     38  H   UNL     1      -4.820   2.470   2.386  0.00  0.00    +0.211 HD
ENDBRANCH  29  37
ENDBRANCH  25  31
ENDBRANCH  15  25
TORSDOF 6
