132086
  -OEChem-03292013323D

 60 62  0     1  0  0  0  0  0999 V2000
    1.3824    2.4245    0.6021 S   0  0  0  0  0  0  0  0  0  0  0  0
    3.7652    0.1787    1.9706 O   0  0  0  0  0  0  0  0  0  0  0  0
    2.2546    2.2191   -0.5384 O   0  0  0  0  0  0  0  0  0  0  0  0
    1.5701    3.5738    1.4668 O   0  0  0  0  0  0  0  0  0  0  0  0
    3.8364   -1.0046   -0.0276 N   0  0  0  0  0  0  0  0  0  0  0  0
    1.3575    1.0124    1.5526 N   0  0  0  0  0  0  0  0  0  0  0  0
   -4.3148   -2.4477    0.2437 N   0  0  0  0  0  0  0  0  0  0  0  0
   -4.2781   -0.6714   -1.3855 N   0  0  0  0  0  0  0  0  0  0  0  0
   -6.1650   -1.9182   -1.0801 N   0  0  0  0  0  0  0  0  0  0  0  0
    3.1733   -1.6784   -1.1511 C   0  0  0  0  0  0  0  0  0  0  0  0
    5.2978   -1.0984   -0.0322 C   0  0  0  0  0  0  0  0  0  0  0  0
    3.7099   -1.1629   -2.4847 C   0  0  0  0  0  0  0  0  0  0  0  0
    5.8744   -0.5711   -1.3432 C   0  0  0  0  0  0  0  0  0  0  0  0
    5.2335   -1.2616   -2.5461 C   0  0  0  0  0  0  0  0  0  0  0  0
    1.6811   -0.2921    0.9469 C   0  0  1  0  0  0  0  0  0  0  0  0
    3.1863   -0.3479    1.0168 C   0  0  0  0  0  0  0  0  0  0  0  0
    1.0716   -1.4407    1.7361 C   0  0  0  0  0  0  0  0  0  0  0  0
   -0.3600   -1.7087    1.3407 C   0  0  0  0  0  0  0  0  0  0  0  0
   -0.2821    2.4911    0.0105 C   0  0  0  0  0  0  0  0  0  0  0  0
   -0.6254   -2.6089    0.3206 C   0  0  0  0  0  0  0  0  0  0  0  0
   -1.3833   -1.0492    2.0029 C   0  0  0  0  0  0  0  0  0  0  0  0
   -1.2351    3.1713    0.7485 C   0  0  0  0  0  0  0  0  0  0  0  0
   -0.6012    1.8621   -1.1803 C   0  0  0  0  0  0  0  0  0  0  0  0
   -1.9482   -2.8557   -0.0465 C   0  0  0  0  0  0  0  0  0  0  0  0
   -2.7062   -1.2963    1.6358 C   0  0  0  0  0  0  0  0  0  0  0  0
   -2.9886   -2.1995    0.6111 C   0  0  0  0  0  0  0  0  0  0  0  0
   -2.5484    3.2239    0.2813 C   0  0  0  0  0  0  0  0  0  0  0  0
   -1.9143    1.9147   -1.6477 C   0  0  0  0  0  0  0  0  0  0  0  0
   -2.8880    2.5957   -0.9168 C   0  0  0  0  0  0  0  0  0  0  0  0
   -4.2917    2.6531   -1.4172 C   0  0  0  0  0  0  0  0  0  0  0  0
   -4.8637   -1.7069   -0.6896 C   0  0  0  0  0  0  0  0  0  0  0  0
    3.4028   -2.7469   -1.0506 H   0  0  0  0  0  0  0  0  0  0  0  0
    2.0889   -1.6053   -1.1410 H   0  0  0  0  0  0  0  0  0  0  0  0
    5.7270   -0.5443    0.8086 H   0  0  0  0  0  0  0  0  0  0  0  0
    5.5582   -2.1547    0.1045 H   0  0  0  0  0  0  0  0  0  0  0  0
    3.2685   -1.7334   -3.3093 H   0  0  0  0  0  0  0  0  0  0  0  0
    3.4103   -0.1157   -2.6161 H   0  0  0  0  0  0  0  0  0  0  0  0
    6.9593   -0.7212   -1.3612 H   0  0  0  0  0  0  0  0  0  0  0  0
    5.6939    0.5090   -1.4115 H   0  0  0  0  0  0  0  0  0  0  0  0
    5.5317   -2.3171   -2.5642 H   0  0  0  0  0  0  0  0  0  0  0  0
    5.5986   -0.8076   -3.4740 H   0  0  0  0  0  0  0  0  0  0  0  0
    1.3056   -0.2610   -0.0751 H   0  0  0  0  0  0  0  0  0  0  0  0
    1.1255   -1.2532    2.8172 H   0  0  0  0  0  0  0  0  0  0  0  0
    1.6502   -2.3615    1.5795 H   0  0  0  0  0  0  0  0  0  0  0  0
    1.4858    1.0961    2.5688 H   0  0  0  0  0  0  0  0  0  0  0  0
    0.1773   -3.1245   -0.1984 H   0  0  0  0  0  0  0  0  0  0  0  0
   -1.1740   -0.3427    2.8008 H   0  0  0  0  0  0  0  0  0  0  0  0
   -0.9929    3.6595    1.6873 H   0  0  0  0  0  0  0  0  0  0  0  0
    0.1411    1.3229   -1.7607 H   0  0  0  0  0  0  0  0  0  0  0  0
   -2.1580   -3.5613   -0.8462 H   0  0  0  0  0  0  0  0  0  0  0  0
   -3.5097   -0.7789    2.1534 H   0  0  0  0  0  0  0  0  0  0  0  0
   -3.3003    3.7548    0.8591 H   0  0  0  0  0  0  0  0  0  0  0  0
   -2.1631    1.4213   -2.5834 H   0  0  0  0  0  0  0  0  0  0  0  0
   -4.3897    2.2111   -2.4142 H   0  0  0  0  0  0  0  0  0  0  0  0
   -4.6246    3.6940   -1.4896 H   0  0  0  0  0  0  0  0  0  0  0  0
   -4.9600    2.1155   -0.7372 H   0  0  0  0  0  0  0  0  0  0  0  0
   -3.3153   -0.3991   -1.2268 H   0  0  0  0  0  0  0  0  0  0  0  0
   -4.7861   -0.1732   -2.1080 H   0  0  0  0  0  0  0  0  0  0  0  0
   -6.6012   -1.3516   -1.7993 H   0  0  0  0  0  0  0  0  0  0  0  0
   -6.7269   -2.6485   -0.6566 H   0  0  0  0  0  0  0  0  0  0  0  0
  1  3  2  0  0  0  0
  1  4  2  0  0  0  0
  1  6  1  0  0  0  0
  1 19  1  0  0  0  0
  2 16  2  0  0  0  0
  5 10  1  0  0  0  0
  5 11  1  0  0  0  0
  5 16  1  0  0  0  0
  6 15  1  0  0  0  0
  6 45  1  0  0  0  0
  7 26  1  0  0  0  0
  7 31  2  0  0  0  0
  8 31  1  0  0  0  0
  8 57  1  0  0  0  0
  8 58  1  0  0  0  0
  9 31  1  0  0  0  0
  9 59  1  0  0  0  0
  9 60  1  0  0  0  0
 10 12  1  0  0  0  0
 10 32  1  0  0  0  0
 10 33  1  0  0  0  0
 11 13  1  0  0  0  0
 11 34  1  0  0  0  0
 11 35  1  0  0  0  0
 12 14  1  0  0  0  0
 12 36  1  0  0  0  0
 12 37  1  0  0  0  0
 13 14  1  0  0  0  0
 13 38  1  0  0  0  0
 13 39  1  0  0  0  0
 14 40  1  0  0  0  0
 14 41  1  0  0  0  0
 15 16  1  0  0  0  0
 15 17  1  0  0  0  0
 15 42  1  0  0  0  0
 17 18  1  0  0  0  0
 17 43  1  0  0  0  0
 17 44  1  0  0  0  0
 18 20  2  0  0  0  0
 18 21  1  0  0  0  0
 19 22  2  0  0  0  0
 19 23  1  0  0  0  0
 20 24  1  0  0  0  0
 20 46  1  0  0  0  0
 21 25  2  0  0  0  0
 21 47  1  0  0  0  0
 22 27  1  0  0  0  0
 22 48  1  0  0  0  0
 23 28  2  0  0  0  0
 23 49  1  0  0  0  0
 24 26  2  0  0  0  0
 24 50  1  0  0  0  0
 25 26  1  0  0  0  0
 25 51  1  0  0  0  0
 27 29  2  0  0  0  0
 27 52  1  0  0  0  0
 28 29  1  0  0  0  0
 28 53  1  0  0  0  0
 29 30  1  0  0  0  0
 30 54  1  0  0  0  0
 30 55  1  0  0  0  0
 30 56  1  0  0  0  0
M  END
> <PUBCHEM_COMPOUND_CID>
132086

> <PUBCHEM_CONFORMER_RMSD>
1

> <PUBCHEM_CONFORMER_DIVERSEORDER>
5
101
31
65
21
91
128
120
34
33
98
115
58
113
99
102
90
7
56
136
20
95
123
52
82
17
111
19
53
110
74
133
122
148
139
121
70
39
108
32
138
103
86
81
126
43
129
84
96
62
83
26
104
57
72
127
93
107
125
47
25
106
29
105
37
60
45
140
64
143
77
130
78
141
16
119
114
15
94
46
89
59
6
142
48
28
79
23
18
67
134
145
88
9
146
137
73
76
55
12
109
36
131
11
51
117
66
147
41
135
112
97
75
49
85
10
13
87
68
124
38
40
63
54
71
14
2
4
116
92
27
118
69
44
22
144
61
8
42
3
100
132
1
50
35
30
80
24

> <PUBCHEM_MMFF94_PARTIAL_CHARGES>
41
1 1.45
10 0.3
11 0.3
15 0.42
16 0.57
17 0.14
18 -0.14
19 -0.01
2 -0.57
20 -0.15
21 -0.15
22 -0.15
23 -0.15
24 -0.15
25 -0.15
26 0.18
27 -0.15
28 -0.15
29 -0.14
3 -0.65
30 0.14
31 0.55
4 -0.65
45 0.42
46 0.15
47 0.15
48 0.15
49 0.15
5 -0.66
50 0.15
51 0.15
52 0.15
53 0.15
57 0.4
58 0.4
59 0.4
6 -0.91
60 0.4
7 -0.63
8 -0.85
9 -0.85

> <PUBCHEM_EFFECTIVE_ROTOR_COUNT>
9.2

> <PUBCHEM_PHARMACOPHORE_FEATURES>
10
1 2 acceptor
1 3 acceptor
1 4 acceptor
1 6 donor
1 8 donor
1 9 donor
4 7 8 9 31 cation
6 18 20 21 24 25 26 rings
6 19 22 23 27 28 29 rings
6 5 10 11 12 13 14 rings

> <PUBCHEM_HEAVY_ATOM_COUNT>
31

> <PUBCHEM_ATOM_DEF_STEREO_COUNT>
0

> <PUBCHEM_ATOM_UDEF_STEREO_COUNT>
1

> <PUBCHEM_BOND_DEF_STEREO_COUNT>
0

> <PUBCHEM_BOND_UDEF_STEREO_COUNT>
0

> <PUBCHEM_ISOTOPIC_ATOM_COUNT>
0

> <PUBCHEM_COMPONENT_COUNT>
1

> <PUBCHEM_CACTVS_TAUTO_COUNT>
2

> <PUBCHEM_CONFORMER_ID>
000203F600000005

> <PUBCHEM_MMFF94_ENERGY>
66.4863

> <PUBCHEM_FEATURE_SELFOVERLAP>
50.819

> <PUBCHEM_SHAPE_FINGERPRINT>
10577160 103 18338530720375007364
11513181 2 17983287416126856631
11828532 37 18117277167622279751
12293681 25 17701542793122781926
12788726 201 18259987071788045562
13149001 5 18409728426936139280
13583140 156 15267061398287542322
14251757 5 18335149682251599470
14931854 50 18117536489188345831
15081414 286 18047193231088516769
15420108 30 16903537443928483808
15815584 197 17465376822017738240
16752209 62 18187367614628936122
17357779 13 18410572911452033195
17492 54 17896026655958345349
20764821 26 18121497942898503307
21304303 94 17906168451842939805
22907989 373 18115323192970569364
244849 19 17417510450785572914
27425 322 17480045007423837736
3052486 1 18187077309135823506
340366 18 18127130998782071943
437795 70 18412830166343682855
46194498 28 18200590422878921294
5081480 168 18119553147547291011
508706 21 18410294700903824415
513532 50 18051410965807690303
5171179 24 18342171219314960184
7237137 82 18261970574069486940

> <PUBCHEM_SHAPE_MULTIPOLES>
599.3
10.92
4.52
2.2
4.78
2.59
-0.38
-5.8
-7.12
-5.1
0.35
1.51
-0.24
1.6

> <PUBCHEM_SHAPE_SELFOVERLAP>
1250.703

> <PUBCHEM_SHAPE_VOLUME>
340

> <PUBCHEM_COORDINATE_TYPE>
2
5
10

$$$$
