REMARK  Name = 132016
REMARK  6 active torsions:
REMARK  status: ('A' for Active; 'I' for Inactive)
REMARK    1  A    between atoms: C_3  and  O_21
REMARK    2  A    between atoms: C_8  and  C_19
REMARK    3  A    between atoms: O_21  and  C_23
REMARK    4  A    between atoms: C_24  and  N_29
REMARK    5  A    between atoms: C_25  and  O_33
REMARK    6  A    between atoms: C_26  and  O_35
REMARK                            x       y       z     vdW  Elec       q    Type
REMARK                         _______ _______ _______ _____ _____    ______ ____
ROOT
ATOM      1  O   UNL     1      -0.196  -1.774  -0.786  0.00  0.00    -0.275 OA
ATOM      2  N   UNL     1      -1.621  -2.524   0.859  0.00  0.00    -0.304 N 
ATOM      3  C   UNL     1       0.799   0.386   0.812  0.00  0.00    +0.126 C 
ATOM      4  C   UNL     1      -1.912   3.103  -0.188  0.00  0.00    +0.000 C 
ATOM      5  C   UNL     1      -0.086   1.293  -0.065  0.00  0.00    +0.030 C 
ATOM      6  C   UNL     1      -0.984   2.258   0.714  0.00  0.00    +0.003 C 
ATOM      7  C   UNL     1      -2.865   2.280  -1.085  0.00  0.00    +0.000 C 
ATOM      8  C   UNL     1      -5.365  -0.743  -0.676  0.00  0.00    +0.000 C 
ATOM      9  C   UNL     1       0.121  -0.865   1.444  0.00  0.00    +0.104 C 
ATOM     10  C   UNL     1      -3.693   1.219  -0.348  0.00  0.00    +0.000 C 
ATOM     11  C   UNL     1      -4.585   0.429  -1.316  0.00  0.00    +0.000 C 
ATOM     12  C   UNL     1      -4.485  -1.768   0.072  0.00  0.00    +0.002 C 
ATOM     13  C   UNL     1      -2.699   4.095   0.676  0.00  0.00    +0.000 C 
ATOM     14  C   UNL     1      -3.438  -2.448  -0.819  0.00  0.00    +0.021 C 
ATOM     15  C   UNL     1      -0.580  -1.742   0.385  0.00  0.00    +0.224 C 
ATOM     16  C   UNL     1      -0.764  -0.487   2.634  0.00  0.00    +0.012 C 
ATOM     17  C   UNL     1      -2.465  -3.319  -0.020  0.00  0.00    +0.089 C 
ATOM     18  H   UNL     1      -1.795  -2.543   1.828  0.00  0.00    +0.149 HD
ENDROOT
BRANCH   8  19
ATOM     19  C   UNL     1      -6.457  -0.222   0.266  0.00  0.00    +0.000 C 
ATOM     20  C   UNL     1      -7.468   0.620  -0.483  0.00  0.00    +0.000 C 
ENDBRANCH   8  19
BRANCH   3  21
ATOM     21  O   UNL     1       1.887  -0.056  -0.012  0.00  0.00    -0.331 OA
BRANCH  21  23
ATOM     22  O   UNL     1       3.824   1.015   0.843  0.00  0.00    -0.329 OA
ATOM     23  C   UNL     1       3.083  -0.207   0.747  0.00  0.00    +0.261 C 
ATOM     24  C   UNL     1       4.560  -0.870  -1.194  0.00  0.00    -0.003 C 
ATOM     25  C   UNL     1       3.943  -1.323   0.140  0.00  0.00    +0.149 C 
ATOM     26  C   UNL     1       5.259   0.493  -1.068  0.00  0.00    +0.120 C 
ATOM     27  C   UNL     1       4.308   1.508  -0.413  0.00  0.00    +0.143 C 
ATOM     28  C   UNL     1       4.984   2.848  -0.144  0.00  0.00    +0.035 C 
BRANCH  24  29
ATOM     29  N   UNL     1       5.468  -1.883  -1.731  0.00  0.00    +0.385 N 
ATOM     30  H   UNL     1       4.978  -2.775  -1.803  0.00  0.00    -0.089 HD
ATOM     31  H   UNL     1       6.270  -1.986  -1.108  0.00  0.00    -0.089 HD
ATOM     32  H   UNL     1       5.791  -1.596  -2.655  0.00  0.00    -0.089 HD
ENDBRANCH  24  29
BRANCH  25  33
ATOM     33  O   UNL     1       4.963  -1.699   1.065  0.00  0.00    -0.381 OA
ATOM     34  H   UNL     1       4.555  -1.981   1.899  0.00  0.00    +0.210 HD
ENDBRANCH  25  33
BRANCH  26  35
ATOM     35  O   UNL     1       6.462   0.382  -0.309  0.00  0.00    -0.384 OA
ATOM     36  H   UNL     1       7.053  -0.260  -0.732  0.00  0.00    +0.210 HD
ENDBRANCH  26  35
ENDBRANCH  21  23
ENDBRANCH   3  21
TORSDOF 6
