REMARK  Name = 132028
REMARK  5 active torsions:
REMARK  status: ('A' for Active; 'I' for Inactive)
REMARK    1  A    between atoms: C_16  and  C_29
REMARK    2  A    between atoms: C_18  and  O_23
REMARK    3  A    between atoms: C_19  and  O_25
REMARK    4  A    between atoms: C_21  and  O_27
REMARK    5  A    between atoms: C_29  and  O_30
REMARK                            x       y       z     vdW  Elec       q    Type
REMARK                         _______ _______ _______ _____ _____    ______ ____
ROOT
ATOM      1  O   UNL     1      -0.330   2.416   0.254  0.00  0.00    -0.475 OA
ATOM      2  O   UNL     1       0.438  -2.194  -0.698  0.00  0.00    -0.286 OA
ATOM      3  O   UNL     1       2.342   2.672   0.201  0.00  0.00    -0.283 OA
ATOM      4  C   UNL     1      -1.676   2.384  -0.266  0.00  0.00    +0.152 C 
ATOM      5  C   UNL     1      -2.351   1.039  -0.048  0.00  0.00    +0.017 C 
ATOM      6  C   UNL     1      -1.546  -0.110   0.086  0.00  0.00    +0.005 C 
ATOM      7  C   UNL     1      -0.076   0.041  -0.024  0.00  0.00    +0.076 C 
ATOM      8  C   UNL     1       0.434   1.278   0.114  0.00  0.00    +0.180 C 
ATOM      9  C   UNL     1      -2.385   3.532   0.476  0.00  0.00    +0.048 C 
ATOM     10  C   UNL     1      -1.622   2.718  -1.766  0.00  0.00    +0.048 C 
ATOM     11  C   UNL     1      -3.751   0.913  -0.003  0.00  0.00    +0.035 C 
ATOM     12  C   UNL     1      -2.169  -1.342   0.344  0.00  0.00    +0.001 C 
ATOM     13  C   UNL     1       0.843  -1.108  -0.300  0.00  0.00    +0.199 C 
ATOM     14  C   UNL     1       1.899   1.530   0.131  0.00  0.00    +0.232 C 
ATOM     15  C   UNL     1       2.292  -0.903  -0.122  0.00  0.00    +0.048 C 
ATOM     16  C   UNL     1      -3.559  -1.449   0.409  0.00  0.00    +0.041 C 
ATOM     17  C   UNL     1       2.804   0.374   0.081  0.00  0.00    +0.079 C 
ATOM     18  C   UNL     1      -4.351  -0.324   0.224  0.00  0.00    +0.132 C 
ATOM     19  C   UNL     1       4.183   0.563   0.228  0.00  0.00    +0.140 C 
ATOM     20  C   UNL     1       3.161  -2.001  -0.180  0.00  0.00    +0.040 C 
ATOM     21  C   UNL     1       4.535  -1.812  -0.029  0.00  0.00    +0.137 C 
ATOM     22  C   UNL     1       5.046  -0.532   0.174  0.00  0.00    +0.073 C 
ENDROOT
BRANCH  18  23
ATOM     23  O   UNL     1      -5.709  -0.409   0.268  0.00  0.00    -0.506 OA
ATOM     24  H   UNL     1      -6.231   0.358   0.141  0.00  0.00    +0.292 HD
ENDBRANCH  18  23
BRANCH  19  25
ATOM     25  O   UNL     1       4.742   1.789   0.434  0.00  0.00    -0.505 OA
ATOM     26  H   UNL     1       4.199   2.551   0.477  0.00  0.00    +0.292 HD
ENDBRANCH  19  25
BRANCH  21  27
ATOM     27  O   UNL     1       5.378  -2.880  -0.083  0.00  0.00    -0.505 OA
ATOM     28  H   UNL     1       5.035  -3.741  -0.220  0.00  0.00    +0.292 HD
ENDBRANCH  21  27
BRANCH  16  29
ATOM     29  C   UNL     1      -4.177  -2.781   0.678  0.00  0.00    +0.167 C 
BRANCH  29  30
ATOM     30  O   UNL     1      -4.395  -3.405  -0.581  0.00  0.00    -0.377 OA
ATOM     31  H   UNL     1      -4.797  -4.277  -0.444  0.00  0.00    +0.211 HD
ENDBRANCH  29  30
ENDBRANCH  16  29
TORSDOF 5
