REMARK  Name = 132054
REMARK  3 active torsions:
REMARK  status: ('A' for Active; 'I' for Inactive)
REMARK    1  A    between atoms: C_3  and  S_16
REMARK    2  A    between atoms: C_4  and  S_20
REMARK    3  A    between atoms: C_5  and  N_12
REMARK                            x       y       z     vdW  Elec       q    Type
REMARK                         _______ _______ _______ _____ _____    ______ ____
ROOT
ATOM      1  C   UNL     1       0.364  -0.980   0.000  0.00  0.00    +0.020 C 
ATOM      2  C   UNL     1       1.243   0.129   0.000  0.00  0.00    +0.019 C 
ATOM      3  C   UNL     1      -1.023  -0.757   0.001  0.00  0.00    +0.126 C 
ATOM      4  C   UNL     1       2.630  -0.094   0.000  0.00  0.00    +0.112 C 
ATOM      5  C   UNL     1      -1.535   0.540   0.001  0.00  0.00    +0.068 C 
ATOM      6  C   UNL     1       0.710   1.428   0.001  0.00  0.00    +0.003 C 
ATOM      7  C   UNL     1       0.897  -2.279   0.000  0.00  0.00    +0.001 C 
ATOM      8  C   UNL     1      -0.670   1.631   0.001  0.00  0.00    +0.016 C 
ATOM      9  C   UNL     1       3.142  -1.392   0.000  0.00  0.00    +0.019 C 
ATOM     10  C   UNL     1       2.277  -2.482   0.000  0.00  0.00    +0.001 C 
ENDROOT
BRANCH   5  12
ATOM     11  O   UNL     1      -3.060   3.137  -0.002  0.00  0.00    -0.275 OA
ATOM     12  N   UNL     1      -2.912   0.785   0.001  0.00  0.00    -0.283 N 
ATOM     13  C   UNL     1      -3.568   2.021   0.001  0.00  0.00    +0.227 C 
ATOM     14  C   UNL     1      -5.067   1.855   0.001  0.00  0.00    +0.095 C 
ATOM     15  H   UNL     1      -3.491  -0.011   0.001  0.00  0.00    +0.155 HD
ENDBRANCH   5  12
BRANCH   3  16
ATOM     16  S   UNL     1      -2.171  -2.098  -0.001  0.00  0.00    +0.043 S 
ATOM     17  O   UNL     1      -1.843  -2.816   1.235  0.00  0.00    -0.065 OA
ATOM     18  O   UNL     1      -3.495  -1.468   0.001  0.00  0.00    -0.065 OA
ATOM     19  O   UNL     1      -1.848  -2.812  -1.240  0.00  0.00    -0.065 OA
ENDBRANCH   3  16
BRANCH   4  20
ATOM     20  S   UNL     1       3.805   1.213   0.000  0.00  0.00    +0.042 S 
ATOM     21  O   UNL     1       3.668   1.792   1.342  0.00  0.00    -0.065 OA
ATOM     22  O   UNL     1       5.103   0.571  -0.246  0.00  0.00    -0.065 OA
ATOM     23  O   UNL     1       3.352   2.079  -1.096  0.00  0.00    -0.065 OA
ENDBRANCH   4  20
TORSDOF 3
