REMARK  Name = 132022
REMARK  5 active torsions:
REMARK  status: ('A' for Active; 'I' for Inactive)
REMARK    1  A    between atoms: N_3  and  C_14
REMARK    2  A    between atoms: C_14  and  C_15
REMARK    3  A    between atoms: C_15  and  C_16
REMARK    4  A    between atoms: C_16  and  C_17
REMARK    5  A    between atoms: C_17  and  N_20
REMARK                            x       y       z     vdW  Elec       q    Type
REMARK                         _______ _______ _______ _____ _____    ______ ____
ROOT
ATOM      1  O   UNL     1       1.359   1.474   0.899  0.00  0.00    -0.272 OA
ATOM      2  O   UNL     1       5.825   1.822  -0.496  0.00  0.00    -0.252 OA
ATOM      3  N   UNL     1       1.694  -1.472   0.500  0.00  0.00    -0.240 NA
ATOM      4  N   UNL     1       4.868  -0.296  -0.399  0.00  0.00    -0.228 N 
ATOM      5  N   UNL     1       3.594   1.673   0.203  0.00  0.00    -0.211 N 
ATOM      6  N   UNL     1       3.598  -2.395  -0.201  0.00  0.00    -0.240 NA
ATOM      7  C   UNL     1       2.573  -0.444   0.321  0.00  0.00    +0.192 C 
ATOM      8  C   UNL     1       3.730  -1.036  -0.108  0.00  0.00    +0.136 C 
ATOM      9  C   UNL     1       2.357  -2.627   0.173  0.00  0.00    +0.203 C 
ATOM     10  C   UNL     1       2.406   0.961   0.513  0.00  0.00    +0.254 C 
ATOM     11  C   UNL     1       4.843   1.113  -0.251  0.00  0.00    +0.318 C 
ATOM     12  C   UNL     1       6.077  -0.973  -0.853  0.00  0.00    +0.123 C 
ATOM     13  C   UNL     1       3.547   3.123   0.361  0.00  0.00    +0.124 C 
ENDROOT
BRANCH   3  14
ATOM     14  C   UNL     1       0.323  -1.389   0.946  0.00  0.00    +0.075 C 
BRANCH  14  15
ATOM     15  C   UNL     1      -0.687  -1.221  -0.193  0.00  0.00    +0.019 C 
BRANCH  15  16
ATOM     16  C   UNL     1      -2.129  -1.073   0.306  0.00  0.00    +0.023 C 
BRANCH  16  17
ATOM     17  C   UNL     1      -3.140  -0.910  -0.834  0.00  0.00    +0.099 C 
BRANCH  17  20
ATOM     18  O   UNL     1      -5.189   2.747  -0.520  0.00  0.00    -0.123 OA
ATOM     19  O   UNL     1      -3.242   1.835  -0.055  0.00  0.00    -0.123 OA
ATOM     20  N   UNL     1      -4.510  -0.708  -0.378  0.00  0.00    -0.251 N 
ATOM     21  N   UNL     1      -6.348   0.318   0.286  0.00  0.00    -0.207 NA
ATOM     22  N   UNL     1      -4.490   1.734  -0.233  0.00  0.00    +0.091 N 
ATOM     23  C   UNL     1      -5.106   0.483  -0.110  0.00  0.00    +0.284 C 
ATOM     24  C   UNL     1      -5.409  -1.699  -0.144  0.00  0.00    +0.089 C 
ATOM     25  C   UNL     1      -6.544  -1.040   0.268  0.00  0.00    +0.118 C 
ENDBRANCH  17  20
ENDBRANCH  16  17
ENDBRANCH  15  16
ENDBRANCH  14  15
ENDBRANCH   3  14
TORSDOF 5
