REMARK  Name = 132036
REMARK  7 active torsions:
REMARK  status: ('A' for Active; 'I' for Inactive)
REMARK    1  A    between atoms: C_1  and  C_4
REMARK    2  A    between atoms: C_1  and  C_15
REMARK    3  A    between atoms: C_7  and  O_10
REMARK    4  A    between atoms: C_9  and  O_12
REMARK    5  A    between atoms: C_16  and  O_21
REMARK    6  A    between atoms: C_17  and  O_23
REMARK    7  A    between atoms: C_20  and  O_25
REMARK                            x       y       z     vdW  Elec       q    Type
REMARK                         _______ _______ _______ _____ _____    ______ ____
ROOT
ATOM      1  C   UNL     1       0.112  -0.612  -1.458  0.00  0.00    +0.059 C 
ENDROOT
BRANCH   1   4
ATOM      2 BR   UNL     1      -2.146  -2.760  -1.139  0.00  0.00    -0.049 Br
ATOM      3 BR   UNL     1      -4.900  -1.508   0.442  0.00  0.00    -0.045 Br
ATOM      4  C   UNL     1      -1.125  -0.124  -0.771  0.00  0.00    -0.008 C 
ATOM      5  C   UNL     1      -1.147   1.206  -0.353  0.00  0.00    +0.036 C 
ATOM      6  C   UNL     1      -2.229  -0.946  -0.544  0.00  0.00    +0.040 C 
ATOM      7  C   UNL     1      -2.274   1.715   0.293  0.00  0.00    +0.168 C 
ATOM      8  C   UNL     1      -3.356  -0.436   0.101  0.00  0.00    +0.077 C 
ATOM      9  C   UNL     1      -3.379   0.894   0.519  0.00  0.00    +0.174 C 
BRANCH   7  10
ATOM     10  O   UNL     1      -2.281   3.017   0.695  0.00  0.00    -0.503 OA
ATOM     11  H   UNL     1      -1.534   3.560   0.537  0.00  0.00    +0.292 HD
ENDBRANCH   7  10
BRANCH   9  12
ATOM     12  O   UNL     1      -4.466   1.422   1.153  0.00  0.00    -0.503 OA
ATOM     13  H   UNL     1      -4.461   2.318   1.426  0.00  0.00    +0.292 HD
ENDBRANCH   9  12
ENDBRANCH   1   4
BRANCH   1  15
ATOM     14 BR   UNL     1       4.720   1.941  -0.439  0.00  0.00    -0.043 Br
ATOM     15  C   UNL     1       1.361  -0.509  -0.610  0.00  0.00    +0.050 C 
ATOM     16  C   UNL     1       2.286   0.489  -0.876  0.00  0.00    +0.142 C 
ATOM     17  C   UNL     1       1.558  -1.417   0.418  0.00  0.00    +0.136 C 
ATOM     18  C   UNL     1       3.437   0.580  -0.093  0.00  0.00    +0.102 C 
ATOM     19  C   UNL     1       2.708  -1.326   1.201  0.00  0.00    +0.074 C 
ATOM     20  C   UNL     1       3.648  -0.327   0.945  0.00  0.00    +0.146 C 
BRANCH  16  21
ATOM     21  O   UNL     1       2.063   1.368  -1.896  0.00  0.00    -0.505 OA
ATOM     22  H   UNL     1       1.287   1.297  -2.415  0.00  0.00    +0.292 HD
ENDBRANCH  16  21
BRANCH  17  23
ATOM     23  O   UNL     1       0.650  -2.399   0.683  0.00  0.00    -0.506 OA
ATOM     24  H   UNL     1      -0.127  -2.471   0.164  0.00  0.00    +0.292 HD
ENDBRANCH  17  23
BRANCH  20  25
ATOM     25  O   UNL     1       4.761  -0.268   1.730  0.00  0.00    -0.505 OA
ATOM     26  H   UNL     1       5.407   0.394   1.579  0.00  0.00    +0.292 HD
ENDBRANCH  20  25
ENDBRANCH   1  15
TORSDOF 7
