132036
  -OEChem-03292013323D

 30 31  0     0  0  0  0  0  0999 V2000
   -2.1463   -2.7598   -1.1392 Br  0  0  0  0  0  0  0  0  0  0  0  0
    4.7198    1.9412   -0.4390 Br  0  0  0  0  0  0  0  0  0  0  0  0
   -4.9004   -1.5084    0.4418 Br  0  0  0  0  0  0  0  0  0  0  0  0
    2.0635    1.3682   -1.8960 O   0  0  0  0  0  0  0  0  0  0  0  0
    0.6501   -2.3986    0.6829 O   0  0  0  0  0  0  0  0  0  0  0  0
   -2.2811    3.0171    0.6945 O   0  0  0  0  0  0  0  0  0  0  0  0
    4.7610   -0.2682    1.7303 O   0  0  0  0  0  0  0  0  0  0  0  0
   -4.4664    1.4216    1.1535 O   0  0  0  0  0  0  0  0  0  0  0  0
    0.1115   -0.6119   -1.4578 C   0  0  0  0  0  0  0  0  0  0  0  0
    1.3615   -0.5088   -0.6104 C   0  0  0  0  0  0  0  0  0  0  0  0
   -1.1246   -0.1244   -0.7711 C   0  0  0  0  0  0  0  0  0  0  0  0
    2.2861    0.4886   -0.8762 C   0  0  0  0  0  0  0  0  0  0  0  0
    1.5575   -1.4172    0.4177 C   0  0  0  0  0  0  0  0  0  0  0  0
   -1.1471    1.2059   -0.3526 C   0  0  0  0  0  0  0  0  0  0  0  0
   -2.2292   -0.9456   -0.5444 C   0  0  0  0  0  0  0  0  0  0  0  0
    3.4370    0.5802   -0.0931 C   0  0  0  0  0  0  0  0  0  0  0  0
    2.7081   -1.3258    1.2006 C   0  0  0  0  0  0  0  0  0  0  0  0
   -2.2740    1.7152    0.2927 C   0  0  0  0  0  0  0  0  0  0  0  0
   -3.3562   -0.4364    0.1010 C   0  0  0  0  0  0  0  0  0  0  0  0
    3.6478   -0.3270    0.9453 C   0  0  0  0  0  0  0  0  0  0  0  0
   -3.3786    0.8941    0.5195 C   0  0  0  0  0  0  0  0  0  0  0  0
    0.0698   -1.6201   -1.8764 H   0  0  0  0  0  0  0  0  0  0  0  0
    0.2148   -0.0082   -2.3708 H   0  0  0  0  0  0  0  0  0  0  0  0
   -0.3035    1.8670   -0.5300 H   0  0  0  0  0  0  0  0  0  0  0  0
    2.8719   -2.0331    2.0100 H   0  0  0  0  0  0  0  0  0  0  0  0
    2.8092    1.9917   -1.9312 H   0  0  0  0  0  0  0  0  0  0  0  0
   -0.0010   -2.4812   -0.0288 H   0  0  0  0  0  0  0  0  0  0  0  0
   -3.1360    3.2005    1.1215 H   0  0  0  0  0  0  0  0  0  0  0  0
    5.3094    0.4753    1.4256 H   0  0  0  0  0  0  0  0  0  0  0  0
   -5.1414    0.7257    1.2325 H   0  0  0  0  0  0  0  0  0  0  0  0
  1 15  1  0  0  0  0
  2 16  1  0  0  0  0
  3 19  1  0  0  0  0
  4 12  1  0  0  0  0
  4 26  1  0  0  0  0
  5 13  1  0  0  0  0
  5 27  1  0  0  0  0
  6 18  1  0  0  0  0
  6 28  1  0  0  0  0
  7 20  1  0  0  0  0
  7 29  1  0  0  0  0
  8 21  1  0  0  0  0
  8 30  1  0  0  0  0
  9 10  1  0  0  0  0
  9 11  1  0  0  0  0
  9 22  1  0  0  0  0
  9 23  1  0  0  0  0
 10 12  2  0  0  0  0
 10 13  1  0  0  0  0
 11 14  2  0  0  0  0
 11 15  1  0  0  0  0
 12 16  1  0  0  0  0
 13 17  2  0  0  0  0
 14 18  1  0  0  0  0
 14 24  1  0  0  0  0
 15 19  2  0  0  0  0
 16 20  2  0  0  0  0
 17 20  1  0  0  0  0
 17 25  1  0  0  0  0
 18 21  2  0  0  0  0
 19 21  1  0  0  0  0
M  END
> <PUBCHEM_COMPOUND_CID>
132036

> <PUBCHEM_CONFORMER_RMSD>
0.6

> <PUBCHEM_CONFORMER_DIVERSEORDER>
2
3
7
8
6
11
10
5
9
13
12
15
14
16
1
4

> <PUBCHEM_MMFF94_PARTIAL_CHARGES>
28
1 -0.11
10 -0.14
11 -0.14
12 0.08
13 0.08
14 -0.15
15 0.11
16 0.11
17 -0.15
18 0.08
19 0.11
2 -0.11
20 0.08
21 0.08
24 0.15
25 0.15
26 0.45
27 0.45
28 0.45
29 0.45
3 -0.11
30 0.45
4 -0.53
5 -0.53
6 -0.53
7 -0.53
8 -0.53
9 0.29

> <PUBCHEM_EFFECTIVE_ROTOR_COUNT>
2

> <PUBCHEM_PHARMACOPHORE_FEATURES>
10
1 1 hydrophobe
1 2 hydrophobe
1 3 hydrophobe
1 4 donor
1 5 donor
1 6 donor
1 7 donor
1 8 donor
6 10 12 13 16 17 20 rings
6 11 14 15 18 19 21 rings

> <PUBCHEM_HEAVY_ATOM_COUNT>
21

> <PUBCHEM_ATOM_DEF_STEREO_COUNT>
0

> <PUBCHEM_ATOM_UDEF_STEREO_COUNT>
0

> <PUBCHEM_BOND_DEF_STEREO_COUNT>
0

> <PUBCHEM_BOND_UDEF_STEREO_COUNT>
0

> <PUBCHEM_ISOTOPIC_ATOM_COUNT>
0

> <PUBCHEM_COMPONENT_COUNT>
1

> <PUBCHEM_CACTVS_TAUTO_COUNT>
276

> <PUBCHEM_CONFORMER_ID>
000203C400000002

> <PUBCHEM_MMFF94_ENERGY>
61.74

> <PUBCHEM_FEATURE_SELFOVERLAP>
50.754

> <PUBCHEM_SHAPE_FINGERPRINT>
10165383 225 16486429787658133415
10906281 52 18272100349454079469
1100329 8 18050854617646283743
11578080 2 17972569312387020197
11796584 16 12540688219684613776
12173636 292 18129378207580906133
12236239 1 18334012838736223991
12251169 10 18335700490305743948
12363563 72 14779271890613311255
12553582 1 18271246152930173511
12633257 1 17313108518676831672
12788726 201 18340212985142862881
12892183 10 18340472392788648866
13140716 1 18054786449689174539
13224815 77 18335139803815905341
13764800 53 17561084679008660851
13782708 43 16558480771773314910
13965767 371 17617953434510843353
14178342 30 18262796237981265234
14289901 80 18410011000885914098
14341114 328 18410299120298376817
14739800 52 18054773247487702368
14787075 74 18189895499150998859
14849402 71 18262514931685380544
15209294 21 18411693301327090298
15375462 189 18190180268610368071
16945 1 18201439203064062767
17492 89 18335701602856131555
1813 80 17459190682175008790
19050596 39 18335140877679159185
200 152 18040426729025021399
20510252 161 18059866034616736817
20511986 3 18114729513127447335
20715895 44 17974562503957055757
20739085 24 17749391438913406172
21065198 48 18334294257962697112
21756936 100 18341048644577746932
23419403 2 15166789610495444094
23557571 272 17631744866470984420
23559900 14 17984720934413089239
25 1 13686294694985636294
392239 28 18047480203069238264
4409770 3 16097408984522536766
474 4 17896044406863144100
5104073 3 18334014990572913961
6442390 28 16702303498557139183
7064713 232 18340764853822210689
7097593 13 18045778983724565787
7808743 9 18201442501583472320
90316 7 18335703802153420821

> <PUBCHEM_SHAPE_MULTIPOLES>
420.65
9.48
2.65
1.38
1.84
0.39
-0.09
1.65
2.84
-1.73
0.18
0.8
-0.2
-1.83

> <PUBCHEM_SHAPE_SELFOVERLAP>
872.6

> <PUBCHEM_SHAPE_VOLUME>
248.8

> <PUBCHEM_COORDINATE_TYPE>
2
5
10

$$$$
