REMARK  Name = 132065
REMARK  9 active torsions:
REMARK  status: ('A' for Active; 'I' for Inactive)
REMARK    1  A    between atoms: C_1  and  C_12
REMARK    2  A    between atoms: C_6  and  C_29
REMARK    3  A    between atoms: N_28  and  CA_31
REMARK    4  A    between atoms: CA_31  and  C_33
REMARK    5  A    between atoms: CA_31  and  CB_36
REMARK    6  A    between atoms: C_33  and  O_34
REMARK    7  A    between atoms: CB_36  and  CG_37
REMARK    8  A    between atoms: CG_37  and  CD_39
REMARK    9  A    between atoms: CD_39  and  OE1_40
REMARK                            x       y       z     vdW  Elec       q    Type
REMARK                         _______ _______ _______ _____ _____    ______ ____
ROOT
ATOM      1  C   UNL     1       0.039  -0.441   0.879  0.00  0.00    -0.022 C 
ATOM      2  C   UNL     1      -0.656  -0.675  -0.305  0.00  0.00    -0.004 C 
ATOM      3  C   UNL     1      -0.633  -0.448   2.099  0.00  0.00    -0.004 C 
ATOM      4  C   UNL     1      -2.030  -0.917  -0.270  0.00  0.00    +0.004 C 
ATOM      5  C   UNL     1      -2.007  -0.690   2.136  0.00  0.00    +0.004 C 
ATOM      6  C   UNL     1      -2.705  -0.924   0.951  0.00  0.00    +0.053 C 
ENDROOT
BRANCH   1  12
ATOM      7  N   UNL     1       5.989  -1.986  -0.287  0.00  0.00    -0.182 NA
ATOM      8  N   UNL     1       7.829  -0.633  -0.501  0.00  0.00    -0.273 NA
ATOM      9  N   UNL     1       7.681   1.758  -0.391  0.00  0.00    -0.312 NA
ATOM     10  N   UNL     1       5.691   2.833  -0.010  0.00  0.00    -0.332 N 
ATOM     11  N   UNL     1       9.744   0.704  -0.718  0.00  0.00    -0.283 N 
ATOM     12  C   UNL     1       1.532  -0.177   0.841  0.00  0.00    +0.027 C 
ATOM     13  C   UNL     1       1.890   1.084   0.043  0.00  0.00    +0.009 C 
ATOM     14  C   UNL     1       2.304  -1.376   0.267  0.00  0.00    +0.032 C 
ATOM     15  C   UNL     1       3.380   1.404   0.185  0.00  0.00    +0.027 C 
ATOM     16  C   UNL     1       4.290   0.207   0.007  0.00  0.00    -0.010 C 
ATOM     17  C   UNL     1       3.768  -1.088   0.076  0.00  0.00    -0.005 C 
ATOM     18  C   UNL     1       5.692   0.374  -0.174  0.00  0.00    +0.115 C 
ATOM     19  C   UNL     1       4.660  -2.134  -0.092  0.00  0.00    +0.106 C 
ATOM     20  C   UNL     1       6.509  -0.756  -0.323  0.00  0.00    +0.104 C 
ATOM     21  C   UNL     1       6.356   1.608  -0.215  0.00  0.00    +0.201 C 
ATOM     22  C   UNL     1       8.348   0.609  -0.527  0.00  0.00    +0.206 C 
ATOM     23  H   UNL     1       6.194   3.678  -0.047  0.00  0.00    +0.145 HD
ATOM     24  H   UNL     1       4.724   2.843   0.171  0.00  0.00    +0.145 HD
ATOM     25  H   UNL     1      10.283  -0.112  -0.824  0.00  0.00    +0.156 HD
ATOM     26  H   UNL     1      10.177   1.588  -0.745  0.00  0.00    +0.156 HD
ENDBRANCH   1  12
BRANCH   6  29
ATOM     27  O   UNL     1      -4.666  -1.657   2.006  0.00  0.00    -0.270 OA
ATOM     28  N   UNL     1      -4.872  -0.839  -0.154  0.00  0.00    -0.293 N 
ATOM     29  C   ACE A   0      -4.136  -1.178   0.988  0.00  0.00    +0.246 C 
ATOM     30  H   UNL     1      -4.387  -0.465  -0.925  0.00  0.00    +0.150 HD
BRANCH  28  31
ATOM     31  CA  UNL     1      -6.303  -1.009  -0.262  0.00  0.00    +0.172 C 
BRANCH  31  33
ATOM     32  OXT UNL     1      -5.802  -1.402  -2.613  0.00  0.00    -0.248 OA
ATOM     33  C   UNL     1      -6.612  -1.391  -1.695  0.00  0.00    +0.332 C 
BRANCH  33  34
ATOM     34  O   UNL     1      -7.909  -1.766  -1.851  0.00  0.00    -0.479 OA
ATOM     35  H   UNL     1      -8.495  -1.742  -1.121  0.00  0.00    +0.295 HD
ENDBRANCH  33  34
ENDBRANCH  31  33
BRANCH  31  36
ATOM     36  CB  UNL     1      -7.083   0.213   0.235  0.00  0.00    +0.043 C 
BRANCH  36  37
ATOM     37  CG  UNL     1      -6.846   1.517  -0.537  0.00  0.00    +0.112 C 
BRANCH  37  39
ATOM     38  OE2 UNL     1      -8.385   2.667   0.961  0.00  0.00    -0.250 OA
ATOM     39  CD  UNL     1      -7.629   2.696   0.000  0.00  0.00    +0.314 C 
BRANCH  39  40
ATOM     40  OE1 UNL     1      -7.427   3.813  -0.747  0.00  0.00    -0.480 OA
ATOM     41  HE1 UNL     1      -6.838   3.789  -1.476  0.00  0.00    +0.295 HD
ENDBRANCH  39  40
ENDBRANCH  37  39
ENDBRANCH  36  37
ENDBRANCH  31  36
ENDBRANCH  28  31
ENDBRANCH   6  29
TORSDOF 9
