132055
  -OEChem-03292013323D

 33 34  0     0  0  0  0  0  0999 V2000
   -2.2078   -2.0607   -0.0181 S   0  0  0  0  0  0  0  0  0  0  0  0
    3.8143    1.1645   -0.0534 S   0  0  0  0  0  0  0  0  0  0  0  0
   -1.5162   -3.2131    0.9042 O   0  0  0  0  0  0  0  0  0  0  0  0
    3.7117    1.8369    1.4300 O   0  0  0  0  0  0  0  0  0  0  0  0
   -3.3877   -1.5922    0.6819 O   0  0  0  0  0  0  0  0  0  0  0  0
   -2.2800   -2.5421   -1.3832 O   0  0  0  0  0  0  0  0  0  0  0  0
    5.1250    0.5484   -0.1581 O   0  0  0  0  0  0  0  0  0  0  0  0
    3.3626    2.1382   -1.0302 O   0  0  0  0  0  0  0  0  0  0  0  0
   -3.0214    3.1869   -0.0119 O   0  0  0  0  0  0  0  0  0  0  0  0
   -2.9073    0.8327   -0.0110 N   0  0  0  0  0  0  0  0  0  0  0  0
    0.3423   -0.9792   -0.0322 C   0  0  0  0  0  0  0  0  0  0  0  0
    1.2376    0.1170   -0.0373 C   0  0  0  0  0  0  0  0  0  0  0  0
   -1.0409   -0.7363   -0.0234 C   0  0  0  0  0  0  0  0  0  0  0  0
    2.6209   -0.1260   -0.0459 C   0  0  0  0  0  0  0  0  0  0  0  0
   -1.5344    0.5687   -0.0198 C   0  0  0  0  0  0  0  0  0  0  0  0
    0.7232    1.4237   -0.0333 C   0  0  0  0  0  0  0  0  0  0  0  0
    0.8567   -2.2859   -0.0360 C   0  0  0  0  0  0  0  0  0  0  0  0
   -0.6540    1.6466   -0.0247 C   0  0  0  0  0  0  0  0  0  0  0  0
    3.1144   -1.4309   -0.0497 C   0  0  0  0  0  0  0  0  0  0  0  0
    2.2339   -2.5088   -0.0448 C   0  0  0  0  0  0  0  0  0  0  0  0
   -3.5459    2.0779   -0.0062 C   0  0  0  0  0  0  0  0  0  0  0  0
   -5.0471    1.9338    0.0031 C   0  0  0  0  0  0  0  0  0  0  0  0
    1.3394    2.3129    0.0139 H   0  0  0  0  0  0  0  0  0  0  0  0
    0.2735   -3.1852   -0.1622 H   0  0  0  0  0  0  0  0  0  0  0  0
   -0.9471    2.6858   -0.0099 H   0  0  0  0  0  0  0  0  0  0  0  0
    4.1776   -1.6507   -0.0599 H   0  0  0  0  0  0  0  0  0  0  0  0
    2.6200   -3.5238   -0.0758 H   0  0  0  0  0  0  0  0  0  0  0  0
   -3.5295    0.0330   -0.0349 H   0  0  0  0  0  0  0  0  0  0  0  0
   -1.4096   -2.9857    1.8579 H   0  0  0  0  0  0  0  0  0  0  0  0
    3.9235    1.2364    2.1829 H   0  0  0  0  0  0  0  0  0  0  0  0
   -5.3750    1.4283   -0.9095 H   0  0  0  0  0  0  0  0  0  0  0  0
   -5.5140    2.9215    0.0503 H   0  0  0  0  0  0  0  0  0  0  0  0
   -5.3597    1.3528    0.8755 H   0  0  0  0  0  0  0  0  0  0  0  0
  1  3  1  0  0  0  0
  1  5  2  0  0  0  0
  1  6  2  0  0  0  0
  1 13  1  0  0  0  0
  2  4  1  0  0  0  0
  2  7  2  0  0  0  0
  2  8  2  0  0  0  0
  2 14  1  0  0  0  0
  3 29  1  0  0  0  0
  4 30  1  0  0  0  0
  9 21  2  0  0  0  0
 10 15  1  0  0  0  0
 10 21  1  0  0  0  0
 10 28  1  0  0  0  0
 11 12  2  0  0  0  0
 11 13  1  0  0  0  0
 11 17  1  0  0  0  0
 12 14  1  0  0  0  0
 12 16  1  0  0  0  0
 13 15  2  0  0  0  0
 14 19  2  0  0  0  0
 15 18  1  0  0  0  0
 16 18  2  0  0  0  0
 16 23  1  0  0  0  0
 17 20  2  0  0  0  0
 17 24  1  0  0  0  0
 18 25  1  0  0  0  0
 19 20  1  0  0  0  0
 19 26  1  0  0  0  0
 20 27  1  0  0  0  0
 21 22  1  0  0  0  0
 22 31  1  0  0  0  0
 22 32  1  0  0  0  0
 22 33  1  0  0  0  0
M  END
> <PUBCHEM_COMPOUND_CID>
132055

> <PUBCHEM_CONFORMER_RMSD>
0.6

> <PUBCHEM_CONFORMER_DIVERSEORDER>
1
2
4
3

> <PUBCHEM_MMFF94_PARTIAL_CHARGES>
28
1 1.49
10 -0.55
13 -0.01
14 -0.01
15 0.12
16 -0.15
17 -0.15
18 -0.15
19 -0.15
2 1.49
20 -0.15
21 0.57
22 0.06
23 0.15
24 0.15
25 0.15
26 0.15
27 0.15
28 0.37
29 0.5
3 -0.68
30 0.5
4 -0.68
5 -0.65
6 -0.65
7 -0.65
8 -0.65
9 -0.57

> <PUBCHEM_EFFECTIVE_ROTOR_COUNT>
4

> <PUBCHEM_PHARMACOPHORE_FEATURES>
12
1 10 donor
1 3 acceptor
1 4 acceptor
1 5 acceptor
1 6 acceptor
1 7 acceptor
1 8 acceptor
1 9 acceptor
4 1 3 5 6 anion
4 2 4 7 8 anion
6 11 12 13 15 16 18 rings
6 11 12 14 17 19 20 rings

> <PUBCHEM_HEAVY_ATOM_COUNT>
22

> <PUBCHEM_ATOM_DEF_STEREO_COUNT>
0

> <PUBCHEM_ATOM_UDEF_STEREO_COUNT>
0

> <PUBCHEM_BOND_DEF_STEREO_COUNT>
0

> <PUBCHEM_BOND_UDEF_STEREO_COUNT>
0

> <PUBCHEM_ISOTOPIC_ATOM_COUNT>
0

> <PUBCHEM_COMPONENT_COUNT>
1

> <PUBCHEM_CACTVS_TAUTO_COUNT>
2

> <PUBCHEM_CONFORMER_ID>
000203D700000001

> <PUBCHEM_MMFF94_ENERGY>
65.9469

> <PUBCHEM_FEATURE_SELFOVERLAP>
61.039

> <PUBCHEM_SHAPE_FINGERPRINT>
10411042 1 17617381022887101298
10493431 412 18410014308316940041
10608611 8 18411419483839237930
10616163 171 18410577313846265566
10967382 1 18266178318573501830
1100329 8 18192708938979765874
11578080 2 17202182183543227931
11680986 33 18338243652100520027
12173636 292 18410571760770043749
12390115 104 18270135616000204488
12403259 415 18201440346021488912
12403260 363 18193826257958032588
12500047 106 18411978044415509304
12553582 1 18050009088603763887
13140716 1 18337383851461885706
138480 1 17256807793896338939
14178342 30 18335974354969742776
14787075 74 18271800169515142537
14790565 3 17976836598212614757
15196674 1 18410294679223175083
15420108 30 15034861799695625368
16752209 62 18267021846351302196
16945 1 18122342651449217030
17980427 23 17911763978745556234
19591789 44 18048879598125237453
20510252 161 18127132094193359136
20602899 9 15841548574473836503
21197605 99 18339654356807658907
21501502 16 18409722959094358334
21524375 3 18196370325827137549
22182313 1 18270701808242334943
23227448 37 18410575067583430455
2334 1 18410855503389369950
23557571 272 18270691960198498476
23558518 356 18260268589804060914
23559900 14 18269836433147483022
25147074 1 18336250280701396994
2748010 2 18411423920857297222
283562 15 18195241350212359002
335352 9 18266178336339278166
34934 24 18409164385485440050
350125 39 18410018719010735874
474 4 18260270720139436044
495365 180 17631997681584609424
5104073 3 18408886204801536771
633830 44 17912363130925457853
69090 78 18337951173913261261
7364860 26 18198060279636564334
7832392 63 18409730638574673732
9709674 26 18341615862868869502
9999458 23 18045787784291838399

> <PUBCHEM_SHAPE_MULTIPOLES>
414.38
8.18
3.68
0.82
0.23
1.1
0.01
-5.38
0.15
1.77
0.05
-0.16
0.07
0.1

> <PUBCHEM_SHAPE_SELFOVERLAP>
874.388

> <PUBCHEM_SHAPE_VOLUME>
232.2

> <PUBCHEM_COORDINATE_TYPE>
2
5
10

$$$$
