REMARK  Name = 132040
REMARK  4 active torsions:
REMARK  status: ('A' for Active; 'I' for Inactive)
REMARK    1  A    between atoms: C_1  and  N_10
REMARK    2  A    between atoms: C_5  and  C_19
REMARK    3  A    between atoms: C_11  and  N_14
REMARK    4  A    between atoms: C_19  and  O_20
REMARK                            x       y       z     vdW  Elec       q    Type
REMARK                         _______ _______ _______ _____ _____    ______ ____
ROOT
ATOM      1  C   UNL     1       0.420   0.105  -0.105  0.00  0.00    +0.060 C 
ATOM      2  C   UNL     1      -0.328  -1.069  -0.024  0.00  0.00    +0.011 C 
ATOM      3  C   UNL     1      -1.720  -1.007   0.030  0.00  0.00    -0.014 C 
ATOM      4  C   UNL     1      -0.224   1.342  -0.132  0.00  0.00    +0.016 C 
ATOM      5  C   UNL     1      -2.365   0.230   0.003  0.00  0.00    +0.072 C 
ATOM      6  C   UNL     1      -1.617   1.405  -0.079  0.00  0.00    +0.007 C 
ATOM      7  C   UNL     1      -2.498  -2.280   0.116  0.00  0.00    +0.031 C 
ENDROOT
BRANCH   1  10
ATOM      8  O   UNL     1       2.703   2.223  -0.290  0.00  0.00    -0.276 OA
ATOM      9  O   UNL     1       2.515  -2.205  -0.070  0.00  0.00    -0.276 OA
ATOM     10  N   UNL     1       1.813   0.044  -0.159  0.00  0.00    -0.211 N 
ATOM     11  C   UNL     1       3.870  -0.047  -0.229  0.00  0.00    +0.093 C 
ATOM     12  C   UNL     1       2.756   1.014  -0.240  0.00  0.00    +0.223 C 
ATOM     13  C   UNL     1       2.671  -1.007  -0.140  0.00  0.00    +0.223 C 
BRANCH  11  14
ATOM     14  N   UNL     1       4.665  -0.021   0.991  0.00  0.00    +0.393 N 
ATOM     15  H   UNL     1       5.443   0.629   0.876  0.00  0.00    -0.088 HD
ATOM     16  H   UNL     1       5.027  -0.955   1.181  0.00  0.00    -0.088 HD
ATOM     17  H   UNL     1       4.081   0.283   1.770  0.00  0.00    -0.088 HD
ENDBRANCH  11  14
ENDBRANCH   1  10
BRANCH   5  19
ATOM     18  O   UNL     1      -4.604  -0.521  -0.381  0.00  0.00    -0.245 OA
ATOM     19  C   UNL     1      -3.817   0.324   0.055  0.00  0.00    +0.338 C 
BRANCH  19  20
ATOM     20  O   UNL     1      -4.241   1.470   0.653  0.00  0.00    -0.477 OA
ATOM     21  H   UNL     1      -3.616   2.091   0.973  0.00  0.00    +0.295 HD
ENDBRANCH  19  20
ENDBRANCH   5  19
TORSDOF 4
