REMARK  Name = 132055
REMARK  3 active torsions:
REMARK  status: ('A' for Active; 'I' for Inactive)
REMARK    1  A    between atoms: C_3  and  S_16
REMARK    2  A    between atoms: C_4  and  S_20
REMARK    3  A    between atoms: C_5  and  N_12
REMARK                            x       y       z     vdW  Elec       q    Type
REMARK                         _______ _______ _______ _____ _____    ______ ____
ROOT
ATOM      1  C   UNL     1       0.342  -0.979  -0.032  0.00  0.00    +0.020 C 
ATOM      2  C   UNL     1       1.238   0.117  -0.037  0.00  0.00    +0.019 C 
ATOM      3  C   UNL     1      -1.041  -0.736  -0.023  0.00  0.00    +0.126 C 
ATOM      4  C   UNL     1       2.621  -0.126  -0.046  0.00  0.00    +0.112 C 
ATOM      5  C   UNL     1      -1.534   0.569  -0.020  0.00  0.00    +0.068 C 
ATOM      6  C   UNL     1       0.723   1.424  -0.033  0.00  0.00    +0.003 C 
ATOM      7  C   UNL     1       0.857  -2.286  -0.036  0.00  0.00    +0.001 C 
ATOM      8  C   UNL     1      -0.654   1.647  -0.025  0.00  0.00    +0.016 C 
ATOM      9  C   UNL     1       3.114  -1.431  -0.050  0.00  0.00    +0.019 C 
ATOM     10  C   UNL     1       2.234  -2.509  -0.045  0.00  0.00    +0.001 C 
ENDROOT
BRANCH   5  12
ATOM     11  O   UNL     1      -3.021   3.187  -0.012  0.00  0.00    -0.275 OA
ATOM     12  N   UNL     1      -2.907   0.833  -0.011  0.00  0.00    -0.283 N 
ATOM     13  C   UNL     1      -3.546   2.078  -0.006  0.00  0.00    +0.227 C 
ATOM     14  C   UNL     1      -5.047   1.934   0.003  0.00  0.00    +0.095 C 
ATOM     15  H   UNL     1      -3.498   0.045  -0.008  0.00  0.00    +0.155 HD
ENDBRANCH   5  12
BRANCH   3  16
ATOM     16  S   UNL     1      -2.208  -2.061  -0.018  0.00  0.00    +0.043 S 
ATOM     17  O   UNL     1      -1.516  -3.213   0.904  0.00  0.00    -0.065 OA
ATOM     18  O   UNL     1      -3.388  -1.592   0.682  0.00  0.00    -0.065 OA
ATOM     19  O   UNL     1      -2.280  -2.542  -1.383  0.00  0.00    -0.065 OA
ENDBRANCH   3  16
BRANCH   4  20
ATOM     20  S   UNL     1       3.814   1.165  -0.053  0.00  0.00    +0.042 S 
ATOM     21  O   UNL     1       3.712   1.837   1.430  0.00  0.00    -0.065 OA
ATOM     22  O   UNL     1       5.125   0.548  -0.158  0.00  0.00    -0.065 OA
ATOM     23  O   UNL     1       3.363   2.138  -1.030  0.00  0.00    -0.065 OA
ENDBRANCH   4  20
TORSDOF 3
