132060
  -OEChem-03292013323D

 32 34  0     1  0  0  0  0  0999 V2000
   -4.1941   -0.0653    0.6992 P   0  0  2  0  0  0  0  0  0  0  0  0
   -1.8184   -0.8197   -0.0021 O   0  0  0  0  0  0  0  0  0  0  0  0
   -3.7637    1.2557   -0.1308 O   0  0  0  0  0  0  0  0  0  0  0  0
   -4.7693   -1.0702   -0.4301 O   0  0  0  0  0  0  0  0  0  0  0  0
   -5.1317    0.1858    1.8424 O   0  0  0  0  0  0  0  0  0  0  0  0
    0.7971   -0.2651   -0.9708 N   0  0  0  0  0  0  0  0  0  0  0  0
    2.2193   -1.8449   -0.3617 N   0  0  0  0  0  0  0  0  0  0  0  0
    4.2000    1.0475    0.8355 N   0  0  0  0  0  0  0  0  0  0  0  0
    4.8300   -1.2515    0.9964 N   0  0  0  0  0  0  0  0  0  0  0  0
   -1.5096    0.4882   -0.5008 C   0  0  1  0  0  0  0  0  0  0  0  0
   -0.4035    0.3369   -1.5350 C   0  0  0  0  0  0  0  0  0  0  0  0
   -2.7569    1.1063   -1.1260 C   0  0  0  0  0  0  0  0  0  0  0  0
   -2.6366   -0.7797    1.1643 C   0  0  0  0  0  0  0  0  0  0  0  0
    1.8403    0.4014   -0.3993 C   0  0  0  0  0  0  0  0  0  0  0  0
    2.7199   -0.6092   -0.0247 C   0  0  0  0  0  0  0  0  0  0  0  0
    1.0596   -1.5989   -0.9295 C   0  0  0  0  0  0  0  0  0  0  0  0
    2.0947    1.7480   -0.1790 C   0  0  0  0  0  0  0  0  0  0  0  0
    3.9155   -0.2580    0.6027 C   0  0  0  0  0  0  0  0  0  0  0  0
    3.3074    1.9926    0.4494 C   0  0  0  0  0  0  0  0  0  0  0  0
   -1.1575    1.1061    0.3357 H   0  0  0  0  0  0  0  0  0  0  0  0
   -0.1245    1.3013   -1.9731 H   0  0  0  0  0  0  0  0  0  0  0  0
   -0.7213   -0.3205   -2.3542 H   0  0  0  0  0  0  0  0  0  0  0  0
   -2.5394    2.0968   -1.5370 H   0  0  0  0  0  0  0  0  0  0  0  0
   -3.1583    0.4780   -1.9282 H   0  0  0  0  0  0  0  0  0  0  0  0
   -2.7727   -1.8034    1.5234 H   0  0  0  0  0  0  0  0  0  0  0  0
   -2.1370   -0.2063    1.9517 H   0  0  0  0  0  0  0  0  0  0  0  0
    0.3829   -2.3454   -1.3227 H   0  0  0  0  0  0  0  0  0  0  0  0
    1.4148    2.5387   -0.4654 H   0  0  0  0  0  0  0  0  0  0  0  0
   -5.6534   -0.8936   -0.8162 H   0  0  0  0  0  0  0  0  0  0  0  0
    3.6077    3.0127    0.6716 H   0  0  0  0  0  0  0  0  0  0  0  0
    4.6280   -2.2276    0.8273 H   0  0  0  0  0  0  0  0  0  0  0  0
    5.6912   -0.9776    1.4493 H   0  0  0  0  0  0  0  0  0  0  0  0
  1  3  1  0  0  0  0
  1  4  1  0  0  0  0
  1  5  2  0  0  0  0
  1 13  1  0  0  0  0
  2 10  1  0  0  0  0
  2 13  1  0  0  0  0
  3 12  1  0  0  0  0
  4 29  1  0  0  0  0
  6 11  1  0  0  0  0
  6 14  1  0  0  0  0
  6 16  1  0  0  0  0
  7 15  1  0  0  0  0
  7 16  2  0  0  0  0
  8 18  2  0  0  0  0
  8 19  1  0  0  0  0
  9 18  1  0  0  0  0
  9 31  1  0  0  0  0
  9 32  1  0  0  0  0
 10 11  1  0  0  0  0
 10 12  1  0  0  0  0
 10 20  1  0  0  0  0
 11 21  1  0  0  0  0
 11 22  1  0  0  0  0
 12 23  1  0  0  0  0
 12 24  1  0  0  0  0
 13 25  1  0  0  0  0
 13 26  1  0  0  0  0
 14 15  2  0  0  0  0
 14 17  1  0  0  0  0
 15 18  1  0  0  0  0
 16 27  1  0  0  0  0
 17 19  2  0  0  0  0
 17 28  1  0  0  0  0
 19 30  1  0  0  0  0
M  END
> <PUBCHEM_COMPOUND_CID>
132060

> <PUBCHEM_CONFORMER_RMSD>
0.6

> <PUBCHEM_CONFORMER_DIVERSEORDER>
1
9
12
3
10
15
16
6
14
5
11
2
13
7
8
4

> <PUBCHEM_MMFF94_PARTIAL_CHARGES>
25
1 1.24
10 0.28
11 0.26
12 0.28
13 0.28
14 -0.15
15 0.23
16 0.04
17 -0.15
18 0.41
19 0.16
2 -0.56
27 0.15
28 0.15
29 0.5
3 -0.55
30 0.15
31 0.4
32 0.4
4 -0.77
5 -0.7
6 0.05
7 -0.57
8 -0.62
9 -0.9

> <PUBCHEM_EFFECTIVE_ROTOR_COUNT>
3

> <PUBCHEM_PHARMACOPHORE_FEATURES>
9
1 2 acceptor
1 4 acceptor
1 5 acceptor
1 9 donor
3 6 7 16 cation
3 8 9 18 cation
5 6 7 14 15 16 rings
6 1 2 3 10 12 13 rings
6 8 14 15 17 18 19 rings

> <PUBCHEM_HEAVY_ATOM_COUNT>
19

> <PUBCHEM_ATOM_DEF_STEREO_COUNT>
1

> <PUBCHEM_ATOM_UDEF_STEREO_COUNT>
0

> <PUBCHEM_BOND_DEF_STEREO_COUNT>
0

> <PUBCHEM_BOND_UDEF_STEREO_COUNT>
0

> <PUBCHEM_ISOTOPIC_ATOM_COUNT>
0

> <PUBCHEM_COMPONENT_COUNT>
1

> <PUBCHEM_CACTVS_TAUTO_COUNT>
2

> <PUBCHEM_CONFORMER_ID>
000203DC00000001

> <PUBCHEM_MMFF94_ENERGY>
20.1306

> <PUBCHEM_FEATURE_SELFOVERLAP>
45.797

> <PUBCHEM_SHAPE_FINGERPRINT>
10366900 7 18334301997462044445
10498660 4 13973969770662975915
11046707 91 15936406719472272549
11796584 16 16517919620848310786
12236239 1 16917067754777941758
12251169 10 18335136522629748350
12363563 72 16732710458432194573
12390115 104 17765432433200714632
12507560 40 18260259755082518372
12633257 1 18410298020744590131
12916748 109 14405187291473337823
13675066 3 18114473292663938661
14178342 30 17386852712344690309
14289901 80 18272369763508313403
14341114 176 18333454244238440712
14341114 328 17918001593924055081
15653759 3 17967810539887800156
16752209 62 14851871548500421173
1798214 20 12829203386332375632
19049666 15 17972873666200263853
19050596 39 18272092707979058335
19784866 240 14056997230765807705
200 152 18271794749165773023
20361792 2 14418134036616571375
204376 136 18059855099092178094
21065199 12 18260828189503409193
21503847 285 17560255638524912460
21637258 2 15864618472262201362
22646028 28 15502378936972201505
22854114 59 18412825806524459941
23402539 116 18260537923324398701
23402655 69 9295287252879874124
23557571 272 17458899336936015517
23559900 14 17458068165942350374
2838139 119 14619643779613733770
3472631 163 14764340535772506545
351380 180 18334851732085906635
4028521 119 13039191385928699217
474 4 17846498170699717304
4990 188 10735879456518662941
5104073 3 18410855477445233817
602551 16 16877942728693858784
633830 44 17632300115959780004
960060 61 10737282458914473610

> <PUBCHEM_SHAPE_MULTIPOLES>
351.46
10.14
1.72
1.29
4.94
0.16
-0.09
-0.21
-4.69
-1.34
0.08
0.8
-0.03
0.45

> <PUBCHEM_SHAPE_SELFOVERLAP>
744.609

> <PUBCHEM_SHAPE_VOLUME>
197.8

> <PUBCHEM_COORDINATE_TYPE>
2
5
10

$$$$
