REMARK  Name = 132026
REMARK  4 active torsions:
REMARK  status: ('A' for Active; 'I' for Inactive)
REMARK    1  A    between atoms: C_11  and  C_27
REMARK    2  A    between atoms: C_20  and  O_23
REMARK    3  A    between atoms: C_21  and  O_25
REMARK    4  A    between atoms: C_27  and  O_28
REMARK                            x       y       z     vdW  Elec       q    Type
REMARK                         _______ _______ _______ _____ _____    ______ ____
ROOT
ATOM      1  O   UNL     1       0.799   2.366   0.164  0.00  0.00    -0.480 OA
ATOM      2  O   UNL     1      -0.406  -1.863  -1.665  0.00  0.00    -0.287 OA
ATOM      3  O   UNL     1      -1.800   2.623   0.784  0.00  0.00    -0.283 OA
ATOM      4  C   UNL     1       2.749   0.954  -0.328  0.00  0.00    +0.045 C 
ATOM      5  C   UNL     1       1.825  -0.161  -0.902  0.00  0.00    +0.053 C 
ATOM      6  C   UNL     1       2.075   2.342  -0.500  0.00  0.00    +0.134 C 
ATOM      7  C   UNL     1       3.107   0.648   1.145  0.00  0.00    +0.009 C 
ATOM      8  C   UNL     1       0.362   0.112  -0.571  0.00  0.00    +0.058 C 
ATOM      9  C   UNL     1       3.810  -0.699   1.299  0.00  0.00    +0.024 C 
ATOM     10  C   UNL     1       2.288  -1.540  -0.478  0.00  0.00    -0.028 C 
ATOM     11  C   UNL     1       3.183  -1.794   0.490  0.00  0.00    -0.019 C 
ATOM     12  C   UNL     1      -0.035   1.286  -0.043  0.00  0.00    +0.176 C 
ATOM     13  C   UNL     1       1.883   2.718  -1.985  0.00  0.00    +0.044 C 
ATOM     14  C   UNL     1       2.901   3.469   0.144  0.00  0.00    +0.044 C 
ATOM     15  C   UNL     1      -0.663  -0.915  -0.931  0.00  0.00    +0.195 C 
ATOM     16  C   UNL     1      -1.448   1.533   0.348  0.00  0.00    +0.232 C 
ATOM     17  C   UNL     1      -2.029  -0.756  -0.404  0.00  0.00    +0.048 C 
ATOM     18  C   UNL     1      -2.410   0.430   0.214  0.00  0.00    +0.079 C 
ATOM     19  C   UNL     1      -2.954  -1.798  -0.543  0.00  0.00    +0.040 C 
ATOM     20  C   UNL     1      -3.716   0.582   0.697  0.00  0.00    +0.140 C 
ATOM     21  C   UNL     1      -4.254  -1.647  -0.059  0.00  0.00    +0.137 C 
ATOM     22  C   UNL     1      -4.634  -0.459   0.560  0.00  0.00    +0.073 C 
ENDROOT
BRANCH  20  23
ATOM     23  O   UNL     1      -4.145   1.718   1.316  0.00  0.00    -0.505 OA
ATOM     24  H   UNL     1      -3.560   2.441   1.428  0.00  0.00    +0.292 HD
ENDBRANCH  20  23
BRANCH  21  25
ATOM     25  O   UNL     1      -5.151  -2.662  -0.193  0.00  0.00    -0.505 OA
ATOM     26  H   UNL     1      -4.896  -3.461  -0.609  0.00  0.00    +0.292 HD
ENDBRANCH  21  25
BRANCH  11  27
ATOM     27  C   UNL     1       3.631  -3.190   0.811  0.00  0.00    +0.159 C 
BRANCH  27  28
ATOM     28  O   UNL     1       5.031  -3.296   0.630  0.00  0.00    -0.378 OA
ATOM     29  H   UNL     1       5.317  -4.199   0.838  0.00  0.00    +0.211 HD
ENDBRANCH  27  28
ENDBRANCH  11  27
TORSDOF 4
