132179
  -OEChem-03292013323D

 44 46  0     0  0  0  0  0  0999 V2000
    2.6354   -1.0212    1.0275 S   0  0  0  0  0  0  0  0  0  0  0  0
    6.0937    1.2551    0.2704 S   0  0  0  0  0  0  0  0  0  0  0  0
    3.0305   -1.2900    2.4046 O   0  0  0  0  0  0  0  0  0  0  0  0
    2.7529   -2.0761    0.0283 O   0  0  0  0  0  0  0  0  0  0  0  0
   -5.0178    2.5921    0.1794 O   0  0  0  0  0  0  0  0  0  0  0  0
   -5.3454   -2.6884   -1.0787 O   0  0  0  0  0  0  0  0  0  0  0  0
   -7.4389   -1.0639   -1.5436 O   0  0  0  0  0  0  0  0  0  0  0  0
   -3.0068    0.8550    1.0165 N   0  0  0  0  0  0  0  0  0  0  0  0
    3.4563    0.3876    0.4828 N   0  0  0  0  0  0  0  0  0  0  0  0
    5.1058   -0.8509   -0.8046 N   0  0  0  0  0  0  0  0  0  0  0  0
    6.4375   -0.8283   -1.1810 N   0  0  0  0  0  0  0  0  0  0  0  0
    0.9790   -0.4692    1.0240 C   0  0  0  0  0  0  0  0  0  0  0  0
   -1.6831    0.4155    1.0193 C   0  0  0  0  0  0  0  0  0  0  0  0
    0.4387    0.1225    2.1657 C   0  0  0  0  0  0  0  0  0  0  0  0
    0.1955   -0.6212   -0.1200 C   0  0  0  0  0  0  0  0  0  0  0  0
   -0.8849    0.5625    2.1633 C   0  0  0  0  0  0  0  0  0  0  0  0
   -1.1281   -0.1812   -0.1223 C   0  0  0  0  0  0  0  0  0  0  0  0
   -4.0659    0.3495    0.3041 C   0  0  0  0  0  0  0  0  0  0  0  0
   -5.1633    1.2398   -0.0804 C   0  0  0  0  0  0  0  0  0  0  0  0
    4.8179    0.1755   -0.0547 C   0  0  0  0  0  0  0  0  0  0  0  0
   -4.1158   -0.9554   -0.0224 C   0  0  0  0  0  0  0  0  0  0  0  0
    7.0664    0.2172   -0.6883 C   0  0  0  0  0  0  0  0  0  0  0  0
    8.4931    0.5325   -0.8999 C   0  0  0  0  0  0  0  0  0  0  0  0
   -6.2811    0.8185   -0.6845 C   0  0  0  0  0  0  0  0  0  0  0  0
   -5.2792   -1.5193   -0.7333 C   0  0  0  0  0  0  0  0  0  0  0  0
   -6.4324   -0.6053   -1.0274 C   0  0  0  0  0  0  0  0  0  0  0  0
    8.7304    1.4048   -2.1383 C   0  0  0  0  0  0  0  0  0  0  0  0
   -4.3903    3.2421   -0.9065 C   0  0  0  0  0  0  0  0  0  0  0  0
    1.0326    0.2566    3.0654 H   0  0  0  0  0  0  0  0  0  0  0  0
    0.6002   -1.0653   -1.0251 H   0  0  0  0  0  0  0  0  0  0  0  0
   -1.2926    1.0229    3.0603 H   0  0  0  0  0  0  0  0  0  0  0  0
   -1.6926   -0.2817   -1.0458 H   0  0  0  0  0  0  0  0  0  0  0  0
   -3.2033    1.6756    1.5800 H   0  0  0  0  0  0  0  0  0  0  0  0
    3.4198    1.2039    1.1078 H   0  0  0  0  0  0  0  0  0  0  0  0
   -3.3528   -1.6725    0.2598 H   0  0  0  0  0  0  0  0  0  0  0  0
    8.9218    1.0303   -0.0218 H   0  0  0  0  0  0  0  0  0  0  0  0
    9.0504   -0.4043   -1.0221 H   0  0  0  0  0  0  0  0  0  0  0  0
   -7.0831    1.4955   -0.9551 H   0  0  0  0  0  0  0  0  0  0  0  0
    8.3512    0.9148   -3.0415 H   0  0  0  0  0  0  0  0  0  0  0  0
    9.8011    1.5881   -2.2712 H   0  0  0  0  0  0  0  0  0  0  0  0
    8.2269    2.3725   -2.0423 H   0  0  0  0  0  0  0  0  0  0  0  0
   -4.2790    4.3002   -0.6505 H   0  0  0  0  0  0  0  0  0  0  0  0
   -4.9998    3.1812   -1.8151 H   0  0  0  0  0  0  0  0  0  0  0  0
   -3.3899    2.8393   -1.0999 H   0  0  0  0  0  0  0  0  0  0  0  0
  1  3  2  0  0  0  0
  1  4  2  0  0  0  0
  1  9  1  0  0  0  0
  1 12  1  0  0  0  0
  2 20  1  0  0  0  0
  2 22  1  0  0  0  0
  5 19  1  0  0  0  0
  5 28  1  0  0  0  0
  6 25  2  0  0  0  0
  7 26  2  0  0  0  0
  8 13  1  0  0  0  0
  8 18  1  0  0  0  0
  8 33  1  0  0  0  0
  9 20  1  0  0  0  0
  9 34  1  0  0  0  0
 10 11  1  0  0  0  0
 10 20  2  0  0  0  0
 11 22  2  0  0  0  0
 12 14  2  0  0  0  0
 12 15  1  0  0  0  0
 13 16  2  0  0  0  0
 13 17  1  0  0  0  0
 14 16  1  0  0  0  0
 14 29  1  0  0  0  0
 15 17  2  0  0  0  0
 15 30  1  0  0  0  0
 16 31  1  0  0  0  0
 17 32  1  0  0  0  0
 18 19  1  0  0  0  0
 18 21  2  0  0  0  0
 19 24  2  0  0  0  0
 21 25  1  0  0  0  0
 21 35  1  0  0  0  0
 22 23  1  0  0  0  0
 23 27  1  0  0  0  0
 23 36  1  0  0  0  0
 23 37  1  0  0  0  0
 24 26  1  0  0  0  0
 24 38  1  0  0  0  0
 25 26  1  0  0  0  0
 27 39  1  0  0  0  0
 27 40  1  0  0  0  0
 27 41  1  0  0  0  0
 28 42  1  0  0  0  0
 28 43  1  0  0  0  0
 28 44  1  0  0  0  0
M  END
> <PUBCHEM_COMPOUND_CID>
132179

> <PUBCHEM_CONFORMER_RMSD>
0.8

> <PUBCHEM_CONFORMER_DIVERSEORDER>
2
219
147
9
326
324
72
50
246
141
263
397
314
277
385
244
211
202
231
339
299
318
228
178
381
204
358
285
197
301
353
254
160
297
78
264
136
120
174
95
360
43
35
108
396
275
245
127
193
394
227
132
340
225
361
347
25
355
289
135
281
320
153
150
146
220
125
205
343
32
346
21
388
111
266
199
106
328
330
222
294
207
375
76
310
327
31
369
280
192
234
393
356
152
89
224
352
278
138
288
44
101
182
133
390
13
34
365
271
251
201
253
372
6
51
117
123
331
213
20
329
173
291
226
100
241
86
151
349
319
374
216
376
119
23
300
279
232
41
49
36
305
149
380
368
322
145
40
384
258
85
131
26
129
139
156
84
292
367
269
304
29
172
296
195
274
268
56
38
335
243
348
200
194
311
262
184
377
333
391
110
261
70
357
293
114
354
92
284
148
378
168
302
303
58
236
325
128
267
27
276
203
218
97
187
270
98
336
61
154
181
158
215
229
39
332
16
115
342
210
33
126
196
345
386
185
55
47
247
91
351
283
170
362
308
59
167
104
74
290
116
240
366
214
337
94
309
316
212
387
307
121
379
15
323
87
392
249
10
144
255
306
350
177
209
206
259
190
370
395
99
282
334
140
163
52
179
188
134
315
109
105
373
48
238
53
338
165
22
313
8
265
273
242
162
272
130
79
142
46
81
112
169
155
159
248
260
237
68
161
189
37
77
321
389
122
359
66
198
11
62
208
171
191
364
298
164
42
341
166
143
217
80
175
221
7
183
107
30
67
5
88
287
312
103
4
64
28
383
344
382
17
230
73
157
102
69
82
180
233
14
71
257
83
65
137
54
256
57
317
286
235
118
96
24
363
252
223
19
12
90
75
176
371
93
18
250
295
239
60
113
124
63
3
1
45
186

> <PUBCHEM_MMFF94_PARTIAL_CHARGES>
35
1 1.45
10 -0.34
11 -0.34
12 -0.01
13 0.1
14 -0.15
15 -0.15
16 -0.15
17 -0.15
18 0.1
19 0.08
2 -0.08
20 0.52
21 -0.14
22 0.2
23 0.18
24 -0.14
25 0.56
26 0.56
28 0.28
29 0.15
3 -0.65
30 0.15
31 0.15
32 0.15
33 0.4
34 0.42
35 0.15
38 0.15
4 -0.65
5 -0.36
6 -0.57
7 -0.57
8 -0.6
9 -0.7

> <PUBCHEM_EFFECTIVE_ROTOR_COUNT>
7

> <PUBCHEM_PHARMACOPHORE_FEATURES>
14
1 10 acceptor
1 11 acceptor
1 27 hydrophobe
1 3 acceptor
1 4 acceptor
1 5 acceptor
1 6 acceptor
1 7 acceptor
1 8 cation
1 8 donor
1 9 donor
5 2 10 11 20 22 rings
6 12 13 14 15 16 17 rings
6 18 19 21 24 25 26 rings

> <PUBCHEM_HEAVY_ATOM_COUNT>
28

> <PUBCHEM_ATOM_DEF_STEREO_COUNT>
0

> <PUBCHEM_ATOM_UDEF_STEREO_COUNT>
0

> <PUBCHEM_BOND_DEF_STEREO_COUNT>
0

> <PUBCHEM_BOND_UDEF_STEREO_COUNT>
0

> <PUBCHEM_ISOTOPIC_ATOM_COUNT>
0

> <PUBCHEM_COMPONENT_COUNT>
1

> <PUBCHEM_CACTVS_TAUTO_COUNT>
6

> <PUBCHEM_CONFORMER_ID>
0002045300000002

> <PUBCHEM_MMFF94_ENERGY>
64.4872

> <PUBCHEM_FEATURE_SELFOVERLAP>
72.573

> <PUBCHEM_SHAPE_FINGERPRINT>
10 15 12685096972953768347
10076449 9 17203333346400433410
10319926 262 8358254886625871569
10595046 47 18261385607886931291
11315181 36 17821731654642062399
13627175 4 14836118828129393596
13673619 4 14979959164310702010
13685833 64 14261351354103353442
13690498 29 18201150040565448951
13782708 43 14692566590154404296
14856354 85 18411134775580835623
150020 25 17846779629013497344
15064986 266 18410860924460952539
15183329 4 18409164394254781344
15348495 7 8213847189548918919
15352257 5 16630525158749831943
15461852 350 18341901805228506420
16994733 274 17967809427496928456
17093844 174 12901546858237209717
18335252 114 17821447972395280764
18681886 176 18201996664054463536
21150785 3 18412825789286497030
21267235 1 16271928228969600323
21365058 113 17060335257711738513
22288116 15 18337396036015189206
23081809 10 18040709230140070722
23559900 14 18130492124903442233
23569943 247 13973689382017878508
23576562 1 17970920079584097588
246663 6 15339123450559135942
2838139 119 17967257494340271756
312425 54 9799697003915362180
3663271 9 9655281649344179094
4098825 35 18337389327893334678
4107672 100 18272932726088161279
4169191 19 16732990842598014724
445580 160 17632577184236819575
484989 97 17702665600104531982
504579 68 18261103071990066367
504843 32 16153715357406908243
5265222 85 18271520983566148663
543368 44 17676488320280997241
5470011 282 16988569009556128060
58902169 19 18334015029923873990
636775 8 16988571233826513182
999808 66 15195572307579586892

> <PUBCHEM_SHAPE_MULTIPOLES>
534.66
24.65
2.13
1.77
27.62
1.09
0.53
6.91
-16.63
-2.75
-0.48
0.6
-0.3
-2.38

> <PUBCHEM_SHAPE_SELFOVERLAP>
1117.552

> <PUBCHEM_SHAPE_VOLUME>
302.6

> <PUBCHEM_COORDINATE_TYPE>
2
5
10

$$$$
