132163
  -OEChem-03292013323D

 38 41  0     0  0  0  0  0  0999 V2000
    6.2107    1.3389   -0.6153 O   0  0  0  0  0  0  0  0  0  0  0  0
   -7.0625   -0.4199   -1.0158 O   0  0  0  0  0  0  0  0  0  0  0  0
   -6.1767   -0.0936    1.0648 O   0  0  0  0  0  0  0  0  0  0  0  0
   -2.4873    0.0769   -1.1921 N   0  0  0  0  0  0  0  0  0  0  0  0
   -3.2236    0.2209    0.9001 N   0  0  0  0  0  0  0  0  0  0  0  0
    2.7426    1.9452   -0.1919 N   0  0  0  0  0  0  0  0  0  0  0  0
    4.0635    2.1194   -0.4222 N   0  0  0  0  0  0  0  0  0  0  0  0
   -4.8280   -0.1510   -0.8597 N   0  0  0  0  0  0  0  0  0  0  0  0
    0.8581    0.6156    0.3169 C   0  0  0  0  0  0  0  0  0  0  0  0
   -1.3702    0.2854   -0.4245 C   0  0  0  0  0  0  0  0  0  0  0  0
    2.3024    0.7466    0.0390 C   0  0  0  0  0  0  0  0  0  0  0  0
    3.1721   -0.4503    0.0354 C   0  0  0  0  0  0  0  0  0  0  0  0
   -1.8562    0.3720    0.8773 C   0  0  0  0  0  0  0  0  0  0  0  0
   -0.0178    0.4022   -0.7471 C   0  0  0  0  0  0  0  0  0  0  0  0
    4.5317   -0.2435   -0.1865 C   0  0  0  0  0  0  0  0  0  0  0  0
    0.4091    0.7079    1.6318 C   0  0  0  0  0  0  0  0  0  0  0  0
   -0.9536    0.5877    1.9323 C   0  0  0  0  0  0  0  0  0  0  0  0
   -3.5685    0.0460   -0.3560 C   0  0  0  0  0  0  0  0  0  0  0  0
    2.6915   -1.7511    0.2189 C   0  0  0  0  0  0  0  0  0  0  0  0
    5.0173    1.1253   -0.4231 C   0  0  0  0  0  0  0  0  0  0  0  0
    5.4209   -1.3231   -0.2026 C   0  0  0  0  0  0  0  0  0  0  0  0
    3.5782   -2.8299    0.2022 C   0  0  0  0  0  0  0  0  0  0  0  0
    4.9400   -2.6164   -0.0043 C   0  0  0  0  0  0  0  0  0  0  0  0
   -6.0257   -0.2082   -0.1452 C   0  0  0  0  0  0  0  0  0  0  0  0
   -8.3680   -0.5034   -0.4322 C   0  0  0  0  0  0  0  0  0  0  0  0
    0.3267    0.3294   -1.7730 H   0  0  0  0  0  0  0  0  0  0  0  0
    1.1129    0.8746    2.4441 H   0  0  0  0  0  0  0  0  0  0  0  0
   -1.2990    0.6601    2.9586 H   0  0  0  0  0  0  0  0  0  0  0  0
   -2.5080   -0.0346   -2.1970 H   0  0  0  0  0  0  0  0  0  0  0  0
    1.6377   -1.9545    0.3830 H   0  0  0  0  0  0  0  0  0  0  0  0
    6.4840   -1.1777   -0.3722 H   0  0  0  0  0  0  0  0  0  0  0  0
    4.3347    3.0834   -0.5889 H   0  0  0  0  0  0  0  0  0  0  0  0
    3.2049   -3.8392    0.3507 H   0  0  0  0  0  0  0  0  0  0  0  0
    5.6257   -3.4586   -0.0168 H   0  0  0  0  0  0  0  0  0  0  0  0
   -4.8954   -0.2681   -1.8675 H   0  0  0  0  0  0  0  0  0  0  0  0
   -9.0891   -0.6721   -1.2364 H   0  0  0  0  0  0  0  0  0  0  0  0
   -8.4173   -1.3444    0.2659 H   0  0  0  0  0  0  0  0  0  0  0  0
   -8.6176    0.4348    0.0723 H   0  0  0  0  0  0  0  0  0  0  0  0
  1 20  2  0  0  0  0
  2 24  1  0  0  0  0
  2 25  1  0  0  0  0
  3 24  2  0  0  0  0
  4 10  1  0  0  0  0
  4 18  1  0  0  0  0
  4 29  1  0  0  0  0
  5 13  1  0  0  0  0
  5 18  2  0  0  0  0
  6  7  1  0  0  0  0
  6 11  2  0  0  0  0
  7 20  1  0  0  0  0
  7 32  1  0  0  0  0
  8 18  1  0  0  0  0
  8 24  1  0  0  0  0
  8 35  1  0  0  0  0
  9 11  1  0  0  0  0
  9 14  2  0  0  0  0
  9 16  1  0  0  0  0
 10 13  2  0  0  0  0
 10 14  1  0  0  0  0
 11 12  1  0  0  0  0
 12 15  1  0  0  0  0
 12 19  2  0  0  0  0
 13 17  1  0  0  0  0
 14 26  1  0  0  0  0
 15 20  1  0  0  0  0
 15 21  2  0  0  0  0
 16 17  2  0  0  0  0
 16 27  1  0  0  0  0
 17 28  1  0  0  0  0
 19 22  1  0  0  0  0
 19 30  1  0  0  0  0
 21 23  1  0  0  0  0
 21 31  1  0  0  0  0
 22 23  2  0  0  0  0
 22 33  1  0  0  0  0
 23 34  1  0  0  0  0
 25 36  1  0  0  0  0
 25 37  1  0  0  0  0
 25 38  1  0  0  0  0
M  END
> <PUBCHEM_COMPOUND_CID>
132163

> <PUBCHEM_CONFORMER_RMSD>
0.8

> <PUBCHEM_CONFORMER_DIVERSEORDER>
1
9
8
10
2
3
5
4
6
7

> <PUBCHEM_MMFF94_PARTIAL_CHARGES>
35
1 -0.57
10 -0.15
11 0.28
12 0.09
13 0.23
14 -0.15
15 0.09
16 -0.15
17 -0.15
18 0.25
19 -0.15
2 -0.43
20 0.54
21 -0.15
22 -0.15
23 -0.15
24 0.78
25 0.28
26 0.15
27 0.15
28 0.15
29 0.27
3 -0.57
30 0.15
31 0.15
32 0.37
33 0.15
34 0.15
35 0.37
4 0.03
5 -0.57
6 -0.51
7 -0.37
8 -0.49
9 0.09

> <PUBCHEM_EFFECTIVE_ROTOR_COUNT>
4

> <PUBCHEM_PHARMACOPHORE_FEATURES>
10
1 1 acceptor
1 3 acceptor
1 4 donor
1 6 acceptor
1 7 donor
1 8 donor
5 4 5 10 13 18 rings
6 12 15 19 21 22 23 rings
6 6 7 11 12 15 20 rings
6 9 10 13 14 16 17 rings

> <PUBCHEM_HEAVY_ATOM_COUNT>
25

> <PUBCHEM_ATOM_DEF_STEREO_COUNT>
0

> <PUBCHEM_ATOM_UDEF_STEREO_COUNT>
0

> <PUBCHEM_BOND_DEF_STEREO_COUNT>
0

> <PUBCHEM_BOND_UDEF_STEREO_COUNT>
0

> <PUBCHEM_ISOTOPIC_ATOM_COUNT>
0

> <PUBCHEM_COMPONENT_COUNT>
1

> <PUBCHEM_CACTVS_TAUTO_COUNT>
16

> <PUBCHEM_CONFORMER_ID>
0002044300000001

> <PUBCHEM_MMFF94_ENERGY>
72.0851

> <PUBCHEM_FEATURE_SELFOVERLAP>
50.915

> <PUBCHEM_SHAPE_FINGERPRINT>
10299344 5 18201720661377901095
10411042 1 18120653532034986350
10595046 47 18413392016453472289
10670039 82 14707485815976515126
11796584 16 17845938532319185959
12107183 9 17693384343054416561
12236239 1 18060704965693028969
125118 31 9079125470900710711
12730499 353 18040156223241739178
12788726 201 17489879210545242043
13533116 47 18342738503069341346
13685833 64 18335421249223970407
13911987 19 18117580603003924684
14251764 18 17917994980170213219
14294032 229 16557089783018353081
15183329 4 18409729547985348361
15483637 11 18120376711611269979
15510794 2 17894351095175314419
15537594 2 18131627906675691983
17134984 74 18260827102824546907
17492 89 17984989189538867830
17844677 252 18335704910349785901
18335252 98 18260834856020653075
200 152 18343021069157720688
20028762 73 18201436909932348246
20157964 124 18334859437347114372
20645477 70 18333730187676984618
20771845 171 17603592912090636326
21267235 1 18271528590164239598
21285901 2 17676766492380255180
21344244 181 18040720242737658395
21344244 78 18129931300890449464
220451 1 18202283628184053167
221357 26 18113897139211377716
23081809 10 18131355198439193929
23516275 137 18057908903968113031
23522609 53 17844834601466013873
23536379 177 18410855447897634481
23559900 14 18335700606533956105
23569914 152 16961217343212537791
23569943 247 17460869588769362371
25147074 1 18059587840420430745
2838139 119 8214141833460498115
3004659 81 17203611518589504625
335352 9 18408893937071952102
3383291 50 14835542775079994237
3472631 163 14274035341690152054
34797466 226 17676488362903460525
351380 3 17632292367632874007
3633792 109 18335419033242209937
4073 2 18041284369348139731
4098825 35 18336262341539224589
4340502 62 18411131472544866434
46194498 28 17822010921662997700
465052 167 18131913754013479903
57527295 17 17316764270849799938
59682541 52 18259982647918645303
59755656 215 17095520674068076411
6025842 7 18409168831536110462
70251023 43 18192149301005013058

> <PUBCHEM_SHAPE_MULTIPOLES>
471.98
18.02
1.95
1.15
30.51
0.94
0.42
4.69
-4.45
-4.67
-0.02
0.85
-0.23
-0.91

> <PUBCHEM_SHAPE_SELFOVERLAP>
1057.038

> <PUBCHEM_SHAPE_VOLUME>
250.3

> <PUBCHEM_COORDINATE_TYPE>
2
5
10

$$$$
