REMARK  Name = 132117
REMARK  7 active torsions:
REMARK  status: ('A' for Active; 'I' for Inactive)
REMARK    1  A    between atoms: C_1  and  C_4
REMARK    2  A    between atoms: C_1  and  S_5
REMARK    3  A    between atoms: C_1  and  C_8
REMARK    4  A    between atoms: C_1  and  C_16
REMARK    5  A    between atoms: C_8  and  C_9
REMARK    6  A    between atoms: C_9  and  N_11
REMARK    7  A    between atoms: C_16  and  C_17
REMARK                            x       y       z     vdW  Elec       q    Type
REMARK                         _______ _______ _______ _____ _____    ______ ____
ROOT
ATOM      1  C   UNL     1       1.103   0.688  -0.289  0.00  0.00    +0.233 C 
ENDROOT
BRANCH   1   4
ATOM      2  O   UNL     1       2.029   2.196   1.334  0.00  0.00    -0.244 OA
ATOM      3  O   UNL     1      -0.046   2.629   0.508  0.00  0.00    -0.244 OA
ATOM      4  C   UNL     1       1.026   1.961   0.599  0.00  0.00    +0.386 C 
ENDBRANCH   1   4
BRANCH   1   5
ATOM      5  S   UNL     1       2.488   1.173  -1.418  0.00  0.00    -0.145 S 
ATOM      6  H   UNL     1       2.725   0.168  -2.302  0.00  0.00    +0.104 HD
ENDBRANCH   1   5
BRANCH   1   8
ATOM      7  O   UNL     1       1.683  -0.610   1.682  0.00  0.00    -0.296 OA
ATOM      8  C   UNL     1       1.555  -0.581   0.455  0.00  0.00    +0.156 C 
BRANCH   8   9
ATOM      9  C   UNL     1       1.881  -1.826  -0.375  0.00  0.00    -0.005 C 
ATOM     10  C   UNL     1       0.998  -2.996   0.040  0.00  0.00    -0.016 C 
BRANCH   9  11
ATOM     11  N   UNL     1       3.291  -2.132  -0.148  0.00  0.00    +0.386 N 
ATOM     12  H   UNL     1       3.862  -1.336  -0.432  0.00  0.00    -0.089 HD
ATOM     13  H   UNL     1       3.554  -2.952  -0.695  0.00  0.00    -0.089 HD
ATOM     14  H   UNL     1       3.443  -2.323   0.843  0.00  0.00    -0.089 HD
ENDBRANCH   9  11
ENDBRANCH   8   9
ENDBRANCH   1   8
BRANCH   1  16
ATOM     15  O   UNL     1      -0.216   0.647  -2.339  0.00  0.00    -0.289 OA
ATOM     16  C   UNL     1      -0.180   0.504  -1.117  0.00  0.00    +0.198 C 
BRANCH  16  17
ATOM     17  C   UNL     1      -1.445   0.097  -0.441  0.00  0.00    +0.036 C 
ATOM     18  C   UNL     1      -1.430  -0.104   0.921  0.00  0.00    +0.003 C 
ATOM     19  C   UNL     1      -2.580  -0.062  -1.204  0.00  0.00    +0.003 C 
ATOM     20  C   UNL     1      -2.614  -0.485   1.554  0.00  0.00    +0.000 C 
ATOM     21  C   UNL     1      -3.763  -0.443  -0.571  0.00  0.00    +0.000 C 
ATOM     22  C   UNL     1      -3.780  -0.654   0.808  0.00  0.00    +0.000 C 
ENDBRANCH  16  17
ENDBRANCH   1  16
TORSDOF 7
