REMARK  Name = 132163
REMARK  3 active torsions:
REMARK  status: ('A' for Active; 'I' for Inactive)
REMARK    1  A    between atoms: N_4  and  C_11
REMARK    2  A    between atoms: C_5  and  C_19
REMARK    3  A    between atoms: C_12  and  O_28
REMARK                            x       y       z     vdW  Elec       q    Type
REMARK                         _______ _______ _______ _____ _____    ______ ____
ROOT
ATOM      1  N   UNL     1      -2.487   0.077  -1.192  0.00  0.00    -0.302 N 
ATOM      2  N   UNL     1      -3.224   0.221   0.900  0.00  0.00    -0.302 N 
ATOM      3  C   UNL     1       0.858   0.616   0.317  0.00  0.00    +0.021 C 
ATOM      4  C   UNL     1      -1.370   0.285  -0.424  0.00  0.00    +0.060 C 
ATOM      5  C   UNL     1      -1.856   0.372   0.877  0.00  0.00    +0.060 C 
ATOM      6  C   UNL     1      -0.018   0.402  -0.747  0.00  0.00    +0.017 C 
ATOM      7  C   UNL     1       0.409   0.708   1.632  0.00  0.00    +0.003 C 
ATOM      8  C   UNL     1      -0.954   0.588   1.932  0.00  0.00    +0.016 C 
ATOM      9  C   UNL     1      -3.568   0.046  -0.356  0.00  0.00    +0.229 C 
ATOM     10  H   UNL     1      -2.507  -0.031  -2.170  0.00  0.00    +0.150 HD
ATOM     11  H   UNL     1      -3.815   0.240   1.687  0.00  0.00    +0.150 HD
ENDROOT
BRANCH   3  15
ATOM     12  O   UNL     1       6.211   1.339  -0.615  0.00  0.00    -0.266 OA
ATOM     13  N   UNL     1       2.743   1.945  -0.192  0.00  0.00    -0.170 NA
ATOM     14  N   UNL     1       4.064   2.119  -0.422  0.00  0.00    -0.242 N 
ATOM     15  C   UNL     1       2.302   0.747   0.039  0.00  0.00    +0.101 A 
ATOM     16  C   UNL     1       3.172  -0.450   0.035  0.00  0.00    +0.024 A 
ATOM     17  C   UNL     1       4.532  -0.243  -0.186  0.00  0.00    +0.059 A 
ATOM     18  C   UNL     1       2.692  -1.751   0.219  0.00  0.00    +0.002 C 
ATOM     19  C   UNL     1       5.017   1.125  -0.423  0.00  0.00    +0.273 A 
ATOM     20  C   UNL     1       5.421  -1.323  -0.203  0.00  0.00    +0.005 C 
ATOM     21  C   UNL     1       3.578  -2.830   0.202  0.00  0.00    +0.000 C 
ATOM     22  C   UNL     1       4.940  -2.616  -0.004  0.00  0.00    +0.000 C 
ATOM     23  H   UNL     1       4.370   3.037  -0.605  0.00  0.00    +0.192 HD
ENDBRANCH   3  15
BRANCH   9  25
ATOM     24  O   UNL     1      -6.177  -0.094   1.065  0.00  0.00    -0.226 OA
ATOM     25  N   UNL     1      -4.828  -0.151  -0.860  0.00  0.00    -0.240 N 
ATOM     26  C   UNL     1      -6.026  -0.208  -0.145  0.00  0.00    +0.404 C 
ATOM     27  H   UNL     1      -4.895  -0.265  -1.835  0.00  0.00    +0.156 HD
BRANCH  26  28
ATOM     28  O   UNL     1      -7.063  -0.420  -1.016  0.00  0.00    -0.431 OA
ATOM     29  C   UNL     1      -8.368  -0.503  -0.432  0.00  0.00    +0.257 C 
ENDBRANCH  26  28
ENDBRANCH   9  25
TORSDOF 3
