REMARK  Name = 132172
REMARK  7 active torsions:
REMARK  status: ('A' for Active; 'I' for Inactive)
REMARK    1  A    between atoms: C_2  and  C_10
REMARK    2  A    between atoms: CA_3  and  C_19
REMARK    3  A    between atoms: C_10  and  C_11
REMARK    4  A    between atoms: C_11  and  P_12
REMARK    5  A    between atoms: P_12  and  O_14
REMARK    6  A    between atoms: P_12  and  O_16
REMARK    7  A    between atoms: C_19  and  O_20
REMARK                            x       y       z     vdW  Elec       q    Type
REMARK                         _______ _______ _______ _____ _____    ______ ____
ROOT
ATOM      1  N   UNL     1       3.149  -0.371  -0.032  0.00  0.00    +0.392 N 
ATOM      2  C   UNL     1       0.877   0.563   0.370  0.00  0.00    +0.049 C 
ATOM      3  CA  UNL     1       1.730  -0.468  -0.384  0.00  0.00    +0.047 C 
ATOM      4  C   UNL     1       1.433   1.979   0.201  0.00  0.00    +0.004 C 
ATOM      5  C   UNL     1       2.922   2.020   0.522  0.00  0.00    -0.023 C 
ATOM      6  C   UNL     1       3.682   0.967  -0.278  0.00  0.00    -0.081 C 
ATOM      7  H1  UNL     1       3.674  -1.044  -0.591  0.00  0.00    -0.084 HD
ATOM      8  H2  UNL     1       3.241  -0.570   0.965  0.00  0.00    -0.084 HD
ENDROOT
BRANCH   2  10
ATOM      9  O   UNL     1      -0.771   0.788  -1.338  0.00  0.00    -0.295 OA
ATOM     10  C   UNL     1      -0.527   0.543  -0.158  0.00  0.00    +0.161 C 
BRANCH  10  11
ATOM     11  C   UNL     1      -1.615   0.208   0.831  0.00  0.00    +0.180 C 
BRANCH  11  12
ATOM     12  P   UNL     1      -3.276   0.227   0.131  0.00  0.00    +0.344 P 
ATOM     13  O   UNL     1      -3.674   1.545  -0.436  0.00  0.00    -0.258 OA
BRANCH  12  14
ATOM     14  O   UNL     1      -4.176  -0.322   1.348  0.00  0.00    -0.323 OA
ATOM     15  H   UNL     1      -5.106  -0.353   1.074  0.00  0.00    +0.220 HD
ENDBRANCH  12  14
BRANCH  12  16
ATOM     16  O   UNL     1      -3.233  -1.006  -0.906  0.00  0.00    -0.323 OA
ATOM     17  H   UNL     1      -4.093  -1.087  -1.347  0.00  0.00    +0.220 HD
ENDBRANCH  12  16
ENDBRANCH  11  12
ENDBRANCH  10  11
ENDBRANCH   2  10
BRANCH   3  19
ATOM     18  OXT UNL     1       1.788  -2.485   0.949  0.00  0.00    -0.253 OA
ATOM     19  C   UNL     1       1.324  -1.857   0.008  0.00  0.00    +0.294 C 
BRANCH  19  20
ATOM     20  O   UNL     1       0.367  -2.330  -0.827  0.00  0.00    -0.482 OA
ATOM     21  H   UNL     1       0.054  -1.797  -1.531  0.00  0.00    +0.295 HD
ENDBRANCH  19  20
ENDBRANCH   3  19
TORSDOF 7
