REMARK  Name = 132160
REMARK  7 active torsions:
REMARK  status: ('A' for Active; 'I' for Inactive)
REMARK    1  A    between atoms: N_1  and  S_3
REMARK    2  A    between atoms: N_1  and  C_18
REMARK    3  A    between atoms: S_3  and  C_6
REMARK    4  A    between atoms: C_9  and  N_12
REMARK    5  A    between atoms: N_12  and  S_14
REMARK    6  A    between atoms: C_18  and  C_19
REMARK    7  A    between atoms: C_19  and  N_20
REMARK                            x       y       z     vdW  Elec       q    Type
REMARK                         _______ _______ _______ _____ _____    ______ ____
ROOT
ATOM      1  N   UNL     1       0.512   2.401   0.966  0.00  0.00    -0.152 NA
ATOM      2  C   UNL     1       0.688   1.667   2.246  0.00  0.00    +0.115 C 
ENDROOT
BRANCH   1   3
ATOM      3  S   UNL     1       1.919   3.083   0.235  0.00  0.00    +0.063 S 
ATOM      4  O   UNL     1       2.603   3.925   1.200  0.00  0.00    -0.153 OA
ATOM      5  O   UNL     1       1.577   3.624  -1.068  0.00  0.00    -0.153 OA
BRANCH   3   6
ATOM      6  C   UNL     1       2.940   1.662  -0.038  0.00  0.00    +0.122 C 
ATOM      7  C   UNL     1       2.831   0.976  -1.234  0.00  0.00    +0.021 C 
ATOM      8  C   UNL     1       3.823   1.268   0.949  0.00  0.00    +0.021 C 
ATOM      9  C   UNL     1       4.532  -0.557  -0.466  0.00  0.00    +0.065 C 
ATOM     10  C   UNL     1       3.634  -0.143  -1.449  0.00  0.00    +0.017 C 
ATOM     11  C   UNL     1       4.627   0.149   0.734  0.00  0.00    +0.017 C 
BRANCH   9  12
ATOM     12  N   UNL     1       5.355  -1.703  -0.686  0.00  0.00    -0.219 N 
ATOM     13  H   UNL     1       6.095  -1.677  -1.336  0.00  0.00    +0.173 HD
BRANCH  12  14
ATOM     14  S   UNL     1       5.019  -3.131   0.215  0.00  0.00    +0.056 S 
ATOM     15  O   UNL     1       6.118  -4.061   0.028  0.00  0.00    -0.154 OA
ATOM     16  O   UNL     1       4.549  -2.805   1.547  0.00  0.00    -0.154 OA
ATOM     17  C   UNL     1       3.640  -3.769  -0.710  0.00  0.00    +0.200 C 
ENDBRANCH  12  14
ENDBRANCH   9  12
ENDBRANCH   3   6
ENDBRANCH   1   3
BRANCH   1  18
ATOM     18  C   UNL     1      -0.482   1.750   0.082  0.00  0.00    +0.117 C 
BRANCH  18  19
ATOM     19  C   UNL     1      -1.832   2.438   0.216  0.00  0.00    +0.114 C 
BRANCH  19  20
ATOM     20  N   UNL     1      -2.827   1.811  -0.671  0.00  0.00    -0.268 N 
ATOM     21  N   UNL     1      -3.533  -0.412  -0.964  0.00  0.00    -0.247 N 
ATOM     22  N   UNL     1      -4.458   0.715   0.714  0.00  0.00    -0.376 NA
ATOM     23  C   UNL     1      -3.600   0.770  -0.281  0.00  0.00    +0.245 C 
ATOM     24  C   UNL     1      -4.406  -1.288  -0.372  0.00  0.00    +0.081 C 
ATOM     25  C   UNL     1      -4.971  -0.561   0.673  0.00  0.00    +0.130 C 
ATOM     26  C   UNL     1      -2.922   2.409  -2.015  0.00  0.00    +0.116 C 
ATOM     27  C   UNL     1      -2.698  -0.703  -2.109  0.00  0.00    +0.121 C 
ATOM     28  C   UNL     1      -4.740  -2.614  -0.651  0.00  0.00    +0.017 C 
ATOM     29  C   UNL     1      -5.927  -1.177   1.498  0.00  0.00    +0.086 C 
ATOM     30  C   UNL     1      -5.694  -3.211   0.179  0.00  0.00    -0.003 C 
ATOM     31  C   UNL     1      -6.278  -2.508   1.235  0.00  0.00    -0.019 C 
ENDBRANCH  19  20
ENDBRANCH  18  19
ENDBRANCH   1  18
TORSDOF 7
