REMARK  Name = 132166
REMARK  4 active torsions:
REMARK  status: ('A' for Active; 'I' for Inactive)
REMARK    1  A    between atoms: C_16  and  C_28
REMARK    2  A    between atoms: C_22  and  O_24
REMARK    3  A    between atoms: C_23  and  O_26
REMARK    4  A    between atoms: C_28  and  N_29
REMARK                            x       y       z     vdW  Elec       q    Type
REMARK                         _______ _______ _______ _____ _____    ______ ____
ROOT
ATOM      1  O   UNL     1      -0.187   0.117   1.961  0.00  0.00    -0.440 OA
ATOM      2  O   UNL     1       2.718  -0.347  -0.859  0.00  0.00    -0.454 OA
ATOM      3  O   UNL     1      -2.109   0.410   3.218  0.00  0.00    -0.245 OA
ATOM      4  C   UNL     1       0.187   0.036   0.549  0.00  0.00    +0.198 C 
ATOM      5  C   UNL     1      -1.137   0.207  -0.123  0.00  0.00    +0.028 C 
ATOM      6  C   UNL     1       1.152   1.166   0.251  0.00  0.00    +0.056 C 
ATOM      7  C   UNL     1       0.803  -1.327   0.301  0.00  0.00    +0.056 C 
ATOM      8  C   UNL     1      -2.128   0.365   0.829  0.00  0.00    +0.075 C 
ATOM      9  C   UNL     1       2.339   0.907  -0.445  0.00  0.00    +0.148 C 
ATOM     10  C   UNL     1       2.012  -1.431  -0.397  0.00  0.00    +0.148 C 
ATOM     11  C   UNL     1      -1.531   0.309   2.154  0.00  0.00    +0.342 C 
ATOM     12  C   UNL     1      -1.456   0.225  -1.471  0.00  0.00    -0.000 C 
ATOM     13  C   UNL     1       0.877   2.492   0.628  0.00  0.00    +0.006 C 
ATOM     14  C   UNL     1       0.177  -2.510   0.730  0.00  0.00    +0.006 C 
ATOM     15  C   UNL     1      -3.459   0.545   0.500  0.00  0.00    -0.000 C 
ATOM     16  C   UNL     1      -3.789   0.564  -0.856  0.00  0.00    -0.044 C 
ATOM     17  C   UNL     1      -2.794   0.405  -1.835  0.00  0.00    -0.007 C 
ATOM     18  C   UNL     1       3.222   1.943  -0.765  0.00  0.00    +0.074 C 
ATOM     19  C   UNL     1       2.575  -2.683  -0.669  0.00  0.00    +0.074 C 
ATOM     20  C   UNL     1       1.762   3.525   0.315  0.00  0.00    +0.037 C 
ATOM     21  C   UNL     1       0.743  -3.759   0.465  0.00  0.00    +0.037 C 
ATOM     22  C   UNL     1       2.933   3.251  -0.383  0.00  0.00    +0.137 C 
ATOM     23  C   UNL     1       1.941  -3.845  -0.237  0.00  0.00    +0.137 C 
ENDROOT
BRANCH  22  24
ATOM     24  O   UNL     1       3.795   4.258  -0.693  0.00  0.00    -0.505 OA
ATOM     25  H   UNL     1       4.584   4.072  -1.163  0.00  0.00    +0.292 HD
ENDBRANCH  22  24
BRANCH  23  26
ATOM     26  O   UNL     1       2.492  -5.061  -0.500  0.00  0.00    -0.505 OA
ATOM     27  H   UNL     1       3.299  -5.117  -0.973  0.00  0.00    +0.292 HD
ENDBRANCH  23  26
BRANCH  16  28
ATOM     28  C   UNL     1      -5.210   0.754  -1.271  0.00  0.00    -0.059 C 
BRANCH  28  29
ATOM     29  N   UNL     1      -5.927  -0.516  -1.397  0.00  0.00    +0.383 N 
ATOM     30  H   UNL     1      -6.890  -0.336  -1.682  0.00  0.00    -0.089 HD
ATOM     31  H   UNL     1      -5.922  -1.000  -0.500  0.00  0.00    -0.089 HD
ATOM     32  H   UNL     1      -5.468  -1.097  -2.099  0.00  0.00    -0.089 HD
ENDBRANCH  28  29
ENDBRANCH  16  28
TORSDOF 4
