132167
  -OEChem-03292013323D

 42 46  0     0  0  0  0  0  0999 V2000
   -0.0933   -0.2178    2.1451 O   0  0  0  0  0  0  0  0  0  0  0  0
    2.3724    0.7549   -0.9505 O   0  0  0  0  0  0  0  0  0  0  0  0
   -1.7913   -0.8461    3.5875 O   0  0  0  0  0  0  0  0  0  0  0  0
    1.3958    5.3585   -0.4500 O   0  0  0  0  0  0  0  0  0  0  0  0
    4.2209   -3.6014   -1.0141 O   0  0  0  0  0  0  0  0  0  0  0  0
   -4.1276    0.2722   -3.2003 N   0  0  0  0  0  0  0  0  0  0  0  0
    0.1082   -0.0631    0.7042 C   0  0  0  0  0  0  0  0  0  0  0  0
   -1.2327   -0.4518    0.1700 C   0  0  0  0  0  0  0  0  0  0  0  0
    0.4567    1.3862    0.4288 C   0  0  0  0  0  0  0  0  0  0  0  0
    1.2118   -1.0106    0.2772 C   0  0  0  0  0  0  0  0  0  0  0  0
   -2.0754   -0.7837    1.2155 C   0  0  0  0  0  0  0  0  0  0  0  0
    1.5480    1.6998   -0.3892 C   0  0  0  0  0  0  0  0  0  0  0  0
    2.2565   -0.5483   -0.5313 C   0  0  0  0  0  0  0  0  0  0  0  0
   -1.6877   -0.5122   -1.1378 C   0  0  0  0  0  0  0  0  0  0  0  0
   -1.3575   -0.6371    2.4723 C   0  0  0  0  0  0  0  0  0  0  0  0
   -0.3103    2.4426    0.9512 C   0  0  0  0  0  0  0  0  0  0  0  0
    1.2051   -2.3671    0.6470 C   0  0  0  0  0  0  0  0  0  0  0  0
   -3.0075   -0.9136   -1.3645 C   0  0  0  0  0  0  0  0  0  0  0  0
   -3.3847   -1.1837    1.0227 C   0  0  0  0  0  0  0  0  0  0  0  0
    1.8604    3.0305   -0.6871 C   0  0  0  0  0  0  0  0  0  0  0  0
    3.2622   -1.4172   -0.9679 C   0  0  0  0  0  0  0  0  0  0  0  0
   -3.8503   -1.2469   -0.2909 C   0  0  0  0  0  0  0  0  0  0  0  0
    0.0056    3.7708    0.6596 C   0  0  0  0  0  0  0  0  0  0  0  0
    2.2125   -3.2328    0.2171 C   0  0  0  0  0  0  0  0  0  0  0  0
    1.0899    4.0645   -0.1612 C   0  0  0  0  0  0  0  0  0  0  0  0
    3.2401   -2.7580   -0.5921 C   0  0  0  0  0  0  0  0  0  0  0  0
   -3.5279   -0.9886   -2.7612 C   0  0  0  0  0  0  0  0  0  0  0  0
   -1.0318   -0.2517   -1.9626 H   0  0  0  0  0  0  0  0  0  0  0  0
   -1.1683    2.2422    1.5879 H   0  0  0  0  0  0  0  0  0  0  0  0
    0.4100   -2.7672    1.2710 H   0  0  0  0  0  0  0  0  0  0  0  0
   -4.0321   -1.4398    1.8536 H   0  0  0  0  0  0  0  0  0  0  0  0
    2.7103    3.2534   -1.3282 H   0  0  0  0  0  0  0  0  0  0  0  0
    4.0665   -1.0459   -1.5988 H   0  0  0  0  0  0  0  0  0  0  0  0
   -4.8764   -1.5568   -0.4736 H   0  0  0  0  0  0  0  0  0  0  0  0
   -0.6025    4.5704    1.0738 H   0  0  0  0  0  0  0  0  0  0  0  0
    2.1796   -4.2764    0.5188 H   0  0  0  0  0  0  0  0  0  0  0  0
   -2.7217   -1.2608   -3.4528 H   0  0  0  0  0  0  0  0  0  0  0  0
   -4.2734   -1.7880   -2.8467 H   0  0  0  0  0  0  0  0  0  0  0  0
   -3.4392    1.0216   -3.1416 H   0  0  0  0  0  0  0  0  0  0  0  0
   -4.8903    0.5288   -2.5749 H   0  0  0  0  0  0  0  0  0  0  0  0
    2.1753    5.3763   -1.0315 H   0  0  0  0  0  0  0  0  0  0  0  0
    4.0467   -4.4901   -0.6591 H   0  0  0  0  0  0  0  0  0  0  0  0
  1  7  1  0  0  0  0
  1 15  1  0  0  0  0
  2 12  1  0  0  0  0
  2 13  1  0  0  0  0
  3 15  2  0  0  0  0
  4 25  1  0  0  0  0
  4 41  1  0  0  0  0
  5 26  1  0  0  0  0
  5 42  1  0  0  0  0
  6 27  1  0  0  0  0
  6 39  1  0  0  0  0
  6 40  1  0  0  0  0
  7  8  1  0  0  0  0
  7  9  1  0  0  0  0
  7 10  1  0  0  0  0
  8 11  2  0  0  0  0
  8 14  1  0  0  0  0
  9 12  2  0  0  0  0
  9 16  1  0  0  0  0
 10 13  2  0  0  0  0
 10 17  1  0  0  0  0
 11 15  1  0  0  0  0
 11 19  1  0  0  0  0
 12 20  1  0  0  0  0
 13 21  1  0  0  0  0
 14 18  2  0  0  0  0
 14 28  1  0  0  0  0
 16 23  2  0  0  0  0
 16 29  1  0  0  0  0
 17 24  2  0  0  0  0
 17 30  1  0  0  0  0
 18 22  1  0  0  0  0
 18 27  1  0  0  0  0
 19 22  2  0  0  0  0
 19 31  1  0  0  0  0
 20 25  2  0  0  0  0
 20 32  1  0  0  0  0
 21 26  2  0  0  0  0
 21 33  1  0  0  0  0
 22 34  1  0  0  0  0
 23 25  1  0  0  0  0
 23 35  1  0  0  0  0
 24 26  1  0  0  0  0
 24 36  1  0  0  0  0
 27 37  1  0  0  0  0
 27 38  1  0  0  0  0
M  END
> <PUBCHEM_COMPOUND_CID>
132167

> <PUBCHEM_CONFORMER_RMSD>
0.6

> <PUBCHEM_CONFORMER_DIVERSEORDER>
1

> <PUBCHEM_MMFF94_PARTIAL_CHARGES>
40
1 -0.43
10 -0.14
11 0.09
12 0.08
13 0.08
14 -0.15
15 0.63
16 -0.15
17 -0.15
18 -0.14
19 -0.15
2 -0.17
20 -0.15
21 -0.15
22 -0.15
23 -0.15
24 -0.15
25 0.08
26 0.08
27 0.41
28 0.15
29 0.15
3 -0.57
30 0.15
31 0.15
32 0.15
33 0.15
34 0.15
35 0.15
36 0.15
39 0.36
4 -0.53
40 0.36
41 0.45
42 0.45
5 -0.53
6 -0.99
7 0.71
8 -0.14
9 -0.14

> <PUBCHEM_EFFECTIVE_ROTOR_COUNT>
1.4

> <PUBCHEM_PHARMACOPHORE_FEATURES>
11
1 2 acceptor
1 3 acceptor
1 4 donor
1 5 donor
1 6 cation
1 6 donor
5 1 7 8 11 15 rings
6 10 13 17 21 24 26 rings
6 2 7 9 10 12 13 rings
6 8 11 14 18 19 22 rings
6 9 12 16 20 23 25 rings

> <PUBCHEM_HEAVY_ATOM_COUNT>
27

> <PUBCHEM_ATOM_DEF_STEREO_COUNT>
0

> <PUBCHEM_ATOM_UDEF_STEREO_COUNT>
0

> <PUBCHEM_BOND_DEF_STEREO_COUNT>
0

> <PUBCHEM_BOND_UDEF_STEREO_COUNT>
0

> <PUBCHEM_ISOTOPIC_ATOM_COUNT>
0

> <PUBCHEM_COMPONENT_COUNT>
1

> <PUBCHEM_CACTVS_TAUTO_COUNT>
5

> <PUBCHEM_CONFORMER_ID>
0002044700000001

> <PUBCHEM_MMFF94_ENERGY>
78.7455

> <PUBCHEM_FEATURE_SELFOVERLAP>
55.968

> <PUBCHEM_SHAPE_FINGERPRINT>
10165383 225 16963842289104117852
105312 117 17328588834842859100
10721379 63 17915160529061254637
10764073 3 16524343066166698824
107951 10 16098866979932916434
10930396 42 17690512698969098008
11101153 10 18337962182685055318
11115154 58 18125698138094925509
11578080 2 17630870630431463824
11582403 64 17176829760441441041
11720765 8 18195779947928234685
11725454 13 17391612746988638401
12156800 1 16899282943671550883
12160290 23 17623570843700776098
12553582 1 18122376564780252090
12788726 201 17760641469336010298
13004483 165 18197770008108220430
13009979 54 17346327015351881343
13140716 1 17547329990820343272
13681431 1 18339625811273094616
13911987 19 18046091456218457686
14817 1 8877922895389695107
15906896 17 17470187859329838266
16945 1 18122373381876579050
17980427 26 17765194856440554201
1813 80 18059587844715618727
19930381 70 18049735301834459907
20101258 96 18122646971731339698
20602899 9 17262159640779062457
21133665 82 15671275622860197630
22112679 90 17631472123205133834
23419403 2 17751669716456945619
23598288 3 17471333602270678182
238 59 18121487214175173439
26353 1 18270100319578586543
266924 78 18125170574065487359
376196 1 17465905618428689997
46194498 28 18191841600804941503
497634 4 15315231432129286941
57359948 33 16975548691512261887
57527295 17 18114730543672231063
59025328 239 17985236669432433598
621550 5 17026888109973793427
6438718 38 17620207437832031762
6677587 24 16969351847682239845
7399639 24 17683243934417670203
81228 2 17974001752667583040

> <PUBCHEM_SHAPE_MULTIPOLES>
521.32
5.85
5.12
2.41
3.67
5.21
-0.42
-4.15
3.93
-7.35
0.73
3.4
-0.54
0.45

> <PUBCHEM_SHAPE_SELFOVERLAP>
1194.784

> <PUBCHEM_SHAPE_VOLUME>
269.1

> <PUBCHEM_COORDINATE_TYPE>
2
5
10

$$$$
