REMARK  Name = 132132
REMARK  10 active torsions:
REMARK  status: ('A' for Active; 'I' for Inactive)
REMARK    1  A    between atoms: C_2  and  C_16
REMARK    2  A    between atoms: C_3  and  O_12
REMARK    3  A    between atoms: C_4  and  C_21
REMARK    4  A    between atoms: C_7  and  C_10
REMARK    5  A    between atoms: C_8  and  O_14
REMARK    6  A    between atoms: C_16  and  C_17
REMARK    7  A    between atoms: C_21  and  C_23
REMARK    8  A    between atoms: C_27  and  O_37
REMARK    9  A    between atoms: C_29  and  C_35
REMARK   10  A    between atoms: C_30  and  O_39
REMARK                            x       y       z     vdW  Elec       q    Type
REMARK                         _______ _______ _______ _____ _____    ______ ____
ROOT
ATOM      1  O   UNL     1       4.115  -1.980   1.283  0.00  0.00    -0.291 OA
ATOM      2  C   UNL     1       3.298  -0.982  -0.760  0.00  0.00    +0.109 C 
ATOM      3  C   UNL     1       2.087  -0.198  -1.236  0.00  0.00    +0.117 C 
ATOM      4  C   UNL     1       1.090   0.221  -0.431  0.00  0.00    +0.046 C 
ATOM      5  C   UNL     1       3.237  -1.302   0.743  0.00  0.00    +0.185 C 
ATOM      6  C   UNL     1       3.385  -2.333  -1.497  0.00  0.00    +0.016 C 
ATOM      7  C   UNL     1       2.118  -0.776   1.573  0.00  0.00    +0.103 C 
ATOM      8  C   UNL     1       1.134  -0.061   1.003  0.00  0.00    +0.138 C 
ENDROOT
BRANCH   7  10
ATOM      9  O   UNL     1       2.605  -0.234   3.800  0.00  0.00    -0.291 OA
ATOM     10  C   UNL     1       2.078  -1.026   3.025  0.00  0.00    +0.179 C 
ATOM     11  C   UNL     1       1.369  -2.261   3.500  0.00  0.00    +0.077 C 
ENDBRANCH   7  10
BRANCH   3  12
ATOM     12  O   UNL     1       2.040   0.087  -2.595  0.00  0.00    -0.510 OA
ATOM     13  H   UNL     1       2.730  -0.202  -3.159  0.00  0.00    +0.292 HD
ENDBRANCH   3  12
BRANCH   8  14
ATOM     14  O   UNL     1       0.103   0.439   1.786  0.00  0.00    -0.506 OA
ATOM     15  H   UNL     1      -0.585   0.938   1.392  0.00  0.00    +0.292 HD
ENDBRANCH   8  14
BRANCH   2  16
ATOM     16  C   UNL     1       4.583  -0.167  -0.990  0.00  0.00    +0.040 C 
BRANCH  16  17
ATOM     17  C   UNL     1       4.483   1.174  -0.337  0.00  0.00    -0.034 C 
ATOM     18  C   UNL     1       4.514   2.382  -0.931  0.00  0.00    -0.048 C 
ATOM     19  C   UNL     1       4.409   3.700  -0.217  0.00  0.00    +0.026 C 
ATOM     20  C   UNL     1       4.652   2.494  -2.426  0.00  0.00    +0.026 C 
ENDBRANCH  16  17
ENDBRANCH   2  16
BRANCH   4  21
ATOM     21  C   UNL     1      -0.100   0.968  -0.986  0.00  0.00    +0.065 C 
BRANCH  21  23
ATOM     22  O   UNL     1      -2.319   2.318  -0.066  0.00  0.00    -0.479 OA
ATOM     23  C   UNL     1      -1.388   0.260  -0.700  0.00  0.00    +0.050 A 
ATOM     24  C   UNL     1      -2.495   0.974  -0.235  0.00  0.00    +0.141 A 
ATOM     25  C   UNL     1      -3.423   3.120   0.409  0.00  0.00    +0.152 C 
ATOM     26  C   UNL     1      -3.695   0.311   0.030  0.00  0.00    +0.067 A 
ATOM     27  C   UNL     1      -1.476  -1.116  -0.902  0.00  0.00    +0.138 A 
ATOM     28  C   UNL     1      -4.707   2.376   0.690  0.00  0.00    +0.013 C 
ATOM     29  C   UNL     1      -2.672  -1.782  -0.638  0.00  0.00    +0.102 A 
ATOM     30  C   UNL     1      -3.779  -1.071  -0.173  0.00  0.00    +0.142 A 
ATOM     31  C   UNL     1      -4.842   1.060   0.515  0.00  0.00    +0.005 C 
ATOM     32  C   UNL     1      -3.679   4.181  -0.667  0.00  0.00    +0.048 C 
ATOM     33  C   UNL     1      -2.939   3.796   1.697  0.00  0.00    +0.048 C 
BRANCH  29  35
ATOM     34  O   UNL     1      -2.490  -4.028   0.060  0.00  0.00    -0.291 OA
ATOM     35  C   UNL     1      -2.764  -3.223  -0.850  0.00  0.00    +0.179 C 
ATOM     36  C   UNL     1      -3.200  -3.770  -2.201  0.00  0.00    +0.077 C 
ENDBRANCH  29  35
BRANCH  27  37
ATOM     37  O   UNL     1      -0.392  -1.808  -1.356  0.00  0.00    -0.506 OA
ATOM     38  H   UNL     1       0.411  -1.358  -1.533  0.00  0.00    +0.292 HD
ENDBRANCH  27  37
BRANCH  30  39
ATOM     39  O   UNL     1      -4.942  -1.743   0.079  0.00  0.00    -0.505 OA
ATOM     40  H   UNL     1      -5.693  -1.278   0.392  0.00  0.00    +0.292 HD
ENDBRANCH  30  39
ENDBRANCH  21  23
ENDBRANCH   4  21
TORSDOF 10
