132147
  -OEChem-03292013323D

 33 34  0     1  0  0  0  0  0999 V2000
   -4.3916    0.0497    1.0492 S   0  0  0  0  0  0  0  0  0  0  0  0
    1.3737   -2.2184    0.0825 S   0  0  0  0  0  0  0  0  0  0  0  0
    3.3918    1.5000    0.9671 S   0  0  0  0  0  0  0  0  0  0  0  0
   -0.2584   -0.5888   -1.5838 O   0  0  0  0  0  0  0  0  0  0  0  0
   -1.7775    2.9829   -1.0361 O   0  0  0  0  0  0  0  0  0  0  0  0
   -1.5327    1.9459    0.9865 O   0  0  0  0  0  0  0  0  0  0  0  0
    0.9964   -0.1429    1.6382 O   0  0  0  0  0  0  0  0  0  0  0  0
   -2.0834   -0.4192   -0.1611 N   0  0  0  0  0  0  0  0  0  0  0  0
   -2.6285    0.7785   -0.7926 C   0  0  1  0  0  0  0  0  0  0  0  0
   -4.1309    0.8258   -0.5656 C   0  0  0  0  0  0  0  0  0  0  0  0
   -2.8570   -0.9012    0.9778 C   0  0  0  0  0  0  0  0  0  0  0  0
   -0.9061   -1.0026   -0.6203 C   0  0  0  0  0  0  0  0  0  0  0  0
   -0.4355   -2.2168    0.1414 C   0  0  1  0  0  0  0  0  0  0  0  0
   -1.9230    1.9504   -0.1712 C   0  0  0  0  0  0  0  0  0  0  0  0
   -1.0028   -3.4732   -0.4840 C   0  0  0  0  0  0  0  0  0  0  0  0
    1.7243   -0.6284    0.7787 C   0  0  0  0  0  0  0  0  0  0  0  0
    2.9534    0.0076    0.2962 C   0  0  0  0  0  0  0  0  0  0  0  0
    3.8094   -0.4572   -0.6439 C   0  0  0  0  0  0  0  0  0  0  0  0
    4.8908    0.4503   -0.8360 C   0  0  0  0  0  0  0  0  0  0  0  0
    4.7878    1.5575   -0.0229 C   0  0  0  0  0  0  0  0  0  0  0  0
   -2.3871    0.7630   -1.8619 H   0  0  0  0  0  0  0  0  0  0  0  0
   -4.5396    1.8401   -0.5832 H   0  0  0  0  0  0  0  0  0  0  0  0
   -4.6520    0.2222   -1.3156 H   0  0  0  0  0  0  0  0  0  0  0  0
   -3.0828   -1.9631    0.8645 H   0  0  0  0  0  0  0  0  0  0  0  0
   -2.2825   -0.7453    1.8955 H   0  0  0  0  0  0  0  0  0  0  0  0
   -0.7137   -2.1742    1.1963 H   0  0  0  0  0  0  0  0  0  0  0  0
   -0.6714   -4.3692    0.0525 H   0  0  0  0  0  0  0  0  0  0  0  0
   -0.7048   -3.5755   -1.5345 H   0  0  0  0  0  0  0  0  0  0  0  0
   -2.0973   -3.4711   -0.4707 H   0  0  0  0  0  0  0  0  0  0  0  0
   -1.3154    3.7439   -0.6241 H   0  0  0  0  0  0  0  0  0  0  0  0
    3.7209   -1.3821   -1.1980 H   0  0  0  0  0  0  0  0  0  0  0  0
    5.7028    0.2994   -1.5355 H   0  0  0  0  0  0  0  0  0  0  0  0
    5.4655    2.3974    0.0370 H   0  0  0  0  0  0  0  0  0  0  0  0
  1 10  1  0  0  0  0
  1 11  1  0  0  0  0
  2 13  1  0  0  0  0
  2 16  1  0  0  0  0
  3 17  1  0  0  0  0
  3 20  1  0  0  0  0
  4 12  2  0  0  0  0
  5 14  1  0  0  0  0
  5 30  1  0  0  0  0
  6 14  2  0  0  0  0
  7 16  2  0  0  0  0
  8  9  1  0  0  0  0
  8 11  1  0  0  0  0
  8 12  1  0  0  0  0
  9 10  1  0  0  0  0
  9 14  1  0  0  0  0
  9 21  1  0  0  0  0
 10 22  1  0  0  0  0
 10 23  1  0  0  0  0
 11 24  1  0  0  0  0
 11 25  1  0  0  0  0
 12 13  1  0  0  0  0
 13 15  1  0  0  0  0
 13 26  1  0  0  0  0
 15 27  1  0  0  0  0
 15 28  1  0  0  0  0
 15 29  1  0  0  0  0
 16 17  1  0  0  0  0
 17 18  2  0  0  0  0
 18 19  1  0  0  0  0
 18 31  1  0  0  0  0
 19 20  2  0  0  0  0
 19 32  1  0  0  0  0
 20 33  1  0  0  0  0
M  END
> <PUBCHEM_COMPOUND_CID>
132147

> <PUBCHEM_CONFORMER_RMSD>
1

> <PUBCHEM_CONFORMER_DIVERSEORDER>
1
531
23
38
518
96
63
497
92
581
227
77
271
593
445
310
72
135
224
24
108
144
80
166
129
423
374
360
78
49
534
249
587
353
94
616
228
136
21
10
301
84
22
304
644
391
31
440
465
16
480
474
19
490
605
302
134
5
444
236
59
370
208
308
226
3
88
97
330
639
529
508
259
253
167
499
76
510
251
14
39
194
70
357
277
361
462
595
8
66
4
95
450
53
52
15
544
274
567
436
410
190
571
200
67
402
46
636
151
210
157
107
57
213
404
543
184
469
54
33
43
25
349
201
41
36
316
268
29
275
165
390
400
152
6
443
553
100
484
71
114
381
348
376
118
539
180
439
272
191
451
17
189
397
243
79
12
20
209
575
102
116
269
411
13
229
182
217
562
204
47
183
405
149
364
106
458
358
447
489
173
121
2
230
221
366
322
384
467
624
641
294
463
82
60
11
154
113
162
331
137
373
171
233
635
564
437
115
186
109
345

> <PUBCHEM_MMFF94_PARTIAL_CHARGES>
23
1 -0.46
10 0.23
11 0.53
12 0.57
13 0.29
14 0.66
16 0.8
17 -0.05
18 -0.15
19 -0.15
2 -0.37
20 -0.11
3 -0.08
30 0.5
31 0.15
32 0.15
33 0.15
4 -0.57
5 -0.65
6 -0.57
7 -0.57
8 -0.66
9 0.36

> <PUBCHEM_EFFECTIVE_ROTOR_COUNT>
7

> <PUBCHEM_PHARMACOPHORE_FEATURES>
7
1 15 hydrophobe
1 4 acceptor
1 5 acceptor
1 6 acceptor
3 5 6 14 anion
5 1 8 9 10 11 rings
5 3 17 18 19 20 rings

> <PUBCHEM_HEAVY_ATOM_COUNT>
20

> <PUBCHEM_ATOM_DEF_STEREO_COUNT>
0

> <PUBCHEM_ATOM_UDEF_STEREO_COUNT>
2

> <PUBCHEM_BOND_DEF_STEREO_COUNT>
0

> <PUBCHEM_BOND_UDEF_STEREO_COUNT>
0

> <PUBCHEM_ISOTOPIC_ATOM_COUNT>
0

> <PUBCHEM_COMPONENT_COUNT>
1

> <PUBCHEM_CACTVS_TAUTO_COUNT>
1

> <PUBCHEM_CONFORMER_ID>
0002043300000001

> <PUBCHEM_MMFF94_ENERGY>
40.6592

> <PUBCHEM_FEATURE_SELFOVERLAP>
35.576

> <PUBCHEM_SHAPE_FINGERPRINT>
10165383 225 18342466945108755250
10498660 4 18337942467555694501
10759866 29 18186799145774207050
10906281 52 18261119518068923005
12011746 2 18339358669277724307
12173636 292 18410003356123857918
12363563 72 9007059101547751490
12596602 18 16588029060580891664
12969540 114 18337091437451060919
13764800 53 18334292088978027338
13994607 96 17532393009129190356
14123255 52 18409725162507221454
14251751 93 18271524191695319516
14251757 17 17772487702709468694
14341114 328 17022907860427061624
14787075 74 17677340557529761683
14790565 3 18341622503252773809
17834072 14 8935003659335918138
17980427 23 17603309258948055815
18186145 218 18059857294400617498
19784866 170 18337118869618339113
20645477 56 18340486759522591584
21141583 151 18202562887000350464
21524375 3 18337105662140573914
21652331 79 18408041818636944264
21864079 5 18337660941350716548
23227448 37 18267584800378450092
23419403 2 12383437226421760011
23557571 272 18126573546734253910
23559900 14 17903626394256380179
238 59 17910081678156128445
25 1 18202004326418946898
2637199 183 18271531909762112754
3004659 81 11455889174406216976
3027735 51 8934185631316939833
350125 39 18265617580686844274
3524813 1 18413668015441715664
4028521 119 18412259553936451196
439807 62 12831208991249611249
5161694 15 17846504768281037534
633830 44 17987803999271531503
6442390 28 18409735096551007466
7808743 9 18336264664984565372
81228 2 17909809265719265027

> <PUBCHEM_SHAPE_MULTIPOLES>
394.68
8.83
2.95
1.23
5.37
1
-0.09
-4.37
-0.03
-1.05
0.46
-0.19
-0.17
0.52

> <PUBCHEM_SHAPE_SELFOVERLAP>
788.538

> <PUBCHEM_SHAPE_VOLUME>
234.9

> <PUBCHEM_COORDINATE_TYPE>
2
5
10

$$$$
