REMARK  Name = 132147
REMARK  6 active torsions:
REMARK  status: ('A' for Active; 'I' for Inactive)
REMARK    1  A    between atoms: C_4  and  C_9
REMARK    2  A    between atoms: C_7  and  C_12
REMARK    3  A    between atoms: C_9  and  O_10
REMARK    4  A    between atoms: C_12  and  S_14
REMARK    5  A    between atoms: S_14  and  C_16
REMARK    6  A    between atoms: C_16  and  C_18
REMARK                            x       y       z     vdW  Elec       q    Type
REMARK                         _______ _______ _______ _____ _____    ______ ____
ROOT
ATOM      1  S   UNL     1      -4.392   0.050   1.049  0.00  0.00    -0.116 S 
ATOM      2  O   UNL     1      -0.258  -0.589  -1.584  0.00  0.00    -0.274 OA
ATOM      3  N   UNL     1      -2.083  -0.419  -0.161  0.00  0.00    -0.260 N 
ATOM      4  C   UNL     1      -2.628   0.778  -0.793  0.00  0.00    +0.186 C 
ATOM      5  C   UNL     1      -4.131   0.826  -0.566  0.00  0.00    +0.090 C 
ATOM      6  C   UNL     1      -2.857  -0.901   0.978  0.00  0.00    +0.153 C 
ATOM      7  C   UNL     1      -0.906  -1.003  -0.620  0.00  0.00    +0.237 C 
ENDROOT
BRANCH   4   9
ATOM      8  O   UNL     1      -1.533   1.946   0.987  0.00  0.00    -0.248 OA
ATOM      9  C   UNL     1      -1.923   1.950  -0.171  0.00  0.00    +0.333 C 
BRANCH   9  10
ATOM     10  O   UNL     1      -1.778   2.983  -1.036  0.00  0.00    -0.479 OA
ATOM     11  H   UNL     1      -2.105   2.911  -1.911  0.00  0.00    +0.295 HD
ENDBRANCH   9  10
ENDBRANCH   4   9
BRANCH   7  12
ATOM     12  C   UNL     1      -0.435  -2.217   0.141  0.00  0.00    +0.131 C 
ATOM     13  C   UNL     1      -1.003  -3.473  -0.484  0.00  0.00    +0.022 C 
BRANCH  12  14
ATOM     14  S   UNL     1       1.374  -2.218   0.083  0.00  0.00    -0.064 S 
BRANCH  14  16
ATOM     15  O   UNL     1       0.996  -0.143   1.638  0.00  0.00    -0.279 OA
ATOM     16  C   UNL     1       1.724  -0.628   0.779  0.00  0.00    +0.228 C 
BRANCH  16  18
ATOM     17  S   UNL     1       3.392   1.500   0.967  0.00  0.00    -0.083 S 
ATOM     18  C   UNL     1       2.953   0.008   0.296  0.00  0.00    +0.074 C 
ATOM     19  C   UNL     1       3.809  -0.457  -0.644  0.00  0.00    +0.011 C 
ATOM     20  C   UNL     1       4.891   0.450  -0.836  0.00  0.00    +0.008 C 
ATOM     21  C   UNL     1       4.788   1.558  -0.023  0.00  0.00    +0.036 C 
ENDBRANCH  16  18
ENDBRANCH  14  16
ENDBRANCH  12  14
ENDBRANCH   7  12
TORSDOF 6
