REMARK  Name = 132179
REMARK  6 active torsions:
REMARK  status: ('A' for Active; 'I' for Inactive)
REMARK    1  A    between atoms: C_1  and  S_7
REMARK    2  A    between atoms: C_2  and  N_19
REMARK    3  A    between atoms: S_7  and  N_11
REMARK    4  A    between atoms: C_15  and  C_17
REMARK    5  A    between atoms: N_19  and  C_23
REMARK    6  A    between atoms: C_24  and  O_29
REMARK                            x       y       z     vdW  Elec       q    Type
REMARK                         _______ _______ _______ _____ _____    ______ ____
ROOT
ATOM      1  C   UNL     1       0.979  -0.469   1.024  0.00  0.00    +0.125 C 
ATOM      2  C   UNL     1      -1.683   0.415   1.019  0.00  0.00    +0.048 C 
ATOM      3  C   UNL     1       0.439   0.122   2.166  0.00  0.00    +0.021 C 
ATOM      4  C   UNL     1       0.196  -0.621  -0.120  0.00  0.00    +0.021 C 
ATOM      5  C   UNL     1      -0.885   0.563   2.163  0.00  0.00    +0.016 C 
ATOM      6  C   UNL     1      -1.128  -0.181  -0.122  0.00  0.00    +0.016 C 
ENDROOT
BRANCH   1   7
ATOM      7  S   UNL     1       2.635  -1.021   1.028  0.00  0.00    +0.075 S 
ATOM      8  O   UNL     1       3.030  -1.290   2.405  0.00  0.00    -0.150 OA
ATOM      9  O   UNL     1       2.753  -2.076   0.028  0.00  0.00    -0.150 OA
BRANCH   7  11
ATOM     10  S   UNL     1       6.094   1.255   0.270  0.00  0.00    -0.034 S 
ATOM     11  N   UNL     1       3.456   0.388   0.483  0.00  0.00    -0.192 N 
ATOM     12  N   UNL     1       5.106  -0.851  -0.805  0.00  0.00    -0.124 NA
ATOM     13  N   UNL     1       6.438  -0.828  -1.181  0.00  0.00    -0.144 NA
ATOM     14  C   UNL     1       4.818   0.175  -0.055  0.00  0.00    +0.201 A 
ATOM     15  C   UNL     1       7.066   0.217  -0.688  0.00  0.00    +0.112 A 
ATOM     16  H   UNL     1       3.045   1.281   0.526  0.00  0.00    +0.176 HD
BRANCH  15  17
ATOM     17  C   UNL     1       8.493   0.532  -0.900  0.00  0.00    +0.055 C 
ATOM     18  C   UNL     1       8.730   1.405  -2.138  0.00  0.00    +0.007 C 
ENDBRANCH  15  17
ENDBRANCH   7  11
ENDBRANCH   1   7
BRANCH   2  19
ATOM     19  N   UNL     1      -3.007   0.855   1.016  0.00  0.00    -0.310 N 
ATOM     20  H   UNL     1      -3.207   1.624   1.598  0.00  0.00    +0.152 HD
BRANCH  19  23
ATOM     21  O   UNL     1      -5.345  -2.688  -1.079  0.00  0.00    -0.283 OA
ATOM     22  O   UNL     1      -7.439  -1.064  -1.544  0.00  0.00    -0.283 OA
ATOM     23  C   UNL     1      -4.066   0.349   0.304  0.00  0.00    +0.086 C 
ATOM     24  C   UNL     1      -5.163   1.240  -0.080  0.00  0.00    +0.155 C 
ATOM     25  C   UNL     1      -4.116  -0.955  -0.022  0.00  0.00    +0.063 C 
ATOM     26  C   UNL     1      -6.281   0.819  -0.684  0.00  0.00    +0.084 C 
ATOM     27  C   UNL     1      -5.279  -1.519  -0.733  0.00  0.00    +0.236 C 
ATOM     28  C   UNL     1      -6.432  -0.605  -1.027  0.00  0.00    +0.237 C 
BRANCH  24  29
ATOM     29  O   UNL     1      -5.018   2.592   0.179  0.00  0.00    -0.470 OA
ATOM     30  C   UNL     1      -4.390   3.242  -0.906  0.00  0.00    +0.253 C 
ENDBRANCH  24  29
ENDBRANCH  19  23
ENDBRANCH   2  19
TORSDOF 6
