REMARK  Name = 132131
REMARK  10 active torsions:
REMARK  status: ('A' for Active; 'I' for Inactive)
REMARK    1  A    between atoms: C_2  and  C_16
REMARK    2  A    between atoms: C_3  and  O_12
REMARK    3  A    between atoms: C_4  and  C_21
REMARK    4  A    between atoms: C_7  and  C_10
REMARK    5  A    between atoms: C_8  and  O_14
REMARK    6  A    between atoms: C_16  and  C_17
REMARK    7  A    between atoms: C_21  and  C_23
REMARK    8  A    between atoms: C_26  and  O_37
REMARK    9  A    between atoms: C_28  and  O_39
REMARK   10  A    between atoms: C_29  and  C_35
REMARK                            x       y       z     vdW  Elec       q    Type
REMARK                         _______ _______ _______ _____ _____    ______ ____
ROOT
ATOM      1  O   UNL     1      -5.117  -0.636   1.119  0.00  0.00    -0.291 OA
ATOM      2  C   UNL     1      -3.385  -1.641  -0.233  0.00  0.00    +0.109 C 
ATOM      3  C   UNL     1      -2.233  -1.196  -1.118  0.00  0.00    +0.117 C 
ATOM      4  C   UNL     1      -1.857   0.088  -1.285  0.00  0.00    +0.046 C 
ATOM      5  C   UNL     1      -4.121  -0.455   0.414  0.00  0.00    +0.185 C 
ATOM      6  C   UNL     1      -4.430  -2.412  -1.062  0.00  0.00    +0.016 C 
ATOM      7  C   UNL     1      -3.625   0.934   0.207  0.00  0.00    +0.103 C 
ATOM      8  C   UNL     1      -2.562   1.159  -0.582  0.00  0.00    +0.138 C 
ENDROOT
BRANCH   7  10
ATOM      9  O   UNL     1      -3.912   2.443   1.977  0.00  0.00    -0.291 OA
ATOM     10  C   UNL     1      -4.285   2.073   0.868  0.00  0.00    +0.179 C 
ATOM     11  C   UNL     1      -5.405   2.752   0.132  0.00  0.00    +0.077 C 
ENDBRANCH   7  10
BRANCH   3  12
ATOM     12  O   UNL     1      -1.548  -2.205  -1.781  0.00  0.00    -0.510 OA
ATOM     13  H   UNL     1      -1.805  -3.099  -1.669  0.00  0.00    +0.292 HD
ENDBRANCH   3  12
BRANCH   8  14
ATOM     14  O   UNL     1      -2.095   2.455  -0.756  0.00  0.00    -0.506 OA
ATOM     15  H   UNL     1      -1.354   2.616  -1.305  0.00  0.00    +0.292 HD
ENDBRANCH   8  14
BRANCH   2  16
ATOM     16  C   UNL     1      -2.863  -2.521   0.917  0.00  0.00    +0.040 C 
BRANCH  16  17
ATOM     17  C   UNL     1      -1.798  -1.808   1.687  0.00  0.00    -0.034 C 
ATOM     18  C   UNL     1      -0.510  -2.170   1.836  0.00  0.00    -0.048 C 
ATOM     19  C   UNL     1       0.516  -1.409   2.626  0.00  0.00    +0.026 C 
ATOM     20  C   UNL     1       0.013  -3.417   1.175  0.00  0.00    +0.026 C 
ENDBRANCH  16  17
ENDBRANCH   2  16
BRANCH   4  21
ATOM     21  C   UNL     1      -0.720   0.455  -2.209  0.00  0.00    +0.065 C 
BRANCH  21  23
ATOM     22  O   UNL     1       4.255   0.482   0.470  0.00  0.00    -0.478 OA
ATOM     23  C   UNL     1       0.602   0.438  -1.505  0.00  0.00    +0.050 A 
ATOM     24  C   UNL     1       5.091  -0.693   0.554  0.00  0.00    +0.152 C 
ATOM     25  C   UNL     1       2.593  -0.754  -0.810  0.00  0.00    +0.067 A 
ATOM     26  C   UNL     1       1.357  -0.734  -1.467  0.00  0.00    +0.136 A 
ATOM     27  C   UNL     1       3.063   0.407  -0.193  0.00  0.00    +0.147 A 
ATOM     28  C   UNL     1       1.074   1.594  -0.889  0.00  0.00    +0.138 A 
ATOM     29  C   UNL     1       2.304   1.580  -0.234  0.00  0.00    +0.102 A 
ATOM     30  C   UNL     1       4.558  -1.933  -0.123  0.00  0.00    +0.013 C 
ATOM     31  C   UNL     1       3.388  -1.969  -0.764  0.00  0.00    +0.005 C 
ATOM     32  C   UNL     1       5.284  -0.977   2.049  0.00  0.00    +0.048 C 
ATOM     33  C   UNL     1       6.435  -0.311  -0.077  0.00  0.00    +0.048 C 
BRANCH  29  35
ATOM     34  O   UNL     1       3.492   3.617  -0.209  0.00  0.00    -0.291 OA
ATOM     35  C   UNL     1       2.791   2.796   0.410  0.00  0.00    +0.179 C 
ATOM     36  C   UNL     1       2.445   3.082   1.864  0.00  0.00    +0.077 C 
ENDBRANCH  29  35
BRANCH  26  37
ATOM     37  O   UNL     1       0.871  -1.855  -2.078  0.00  0.00    -0.506 OA
ATOM     38  H   UNL     1       0.043  -1.830  -2.515  0.00  0.00    +0.292 HD
ENDBRANCH  26  37
BRANCH  28  39
ATOM     39  O   UNL     1       0.331   2.739  -0.930  0.00  0.00    -0.506 OA
ATOM     40  H   UNL     1      -0.495   2.745  -1.371  0.00  0.00    +0.292 HD
ENDBRANCH  28  39
ENDBRANCH  21  23
ENDBRANCH   4  21
TORSDOF 10
