REMARK  Name = 132167
REMARK  4 active torsions:
REMARK  status: ('A' for Active; 'I' for Inactive)
REMARK    1  A    between atoms: C_15  and  C_28
REMARK    2  A    between atoms: C_22  and  O_24
REMARK    3  A    between atoms: C_23  and  O_26
REMARK    4  A    between atoms: C_28  and  N_29
REMARK                            x       y       z     vdW  Elec       q    Type
REMARK                         _______ _______ _______ _____ _____    ______ ____
ROOT
ATOM      1  O   UNL     1      -0.093  -0.218   2.145  0.00  0.00    -0.440 OA
ATOM      2  O   UNL     1       2.372   0.755  -0.951  0.00  0.00    -0.454 OA
ATOM      3  O   UNL     1      -1.791  -0.846   3.587  0.00  0.00    -0.245 OA
ATOM      4  C   UNL     1       0.108  -0.063   0.704  0.00  0.00    +0.198 C 
ATOM      5  C   UNL     1      -1.233  -0.452   0.170  0.00  0.00    +0.028 C 
ATOM      6  C   UNL     1       0.457   1.386   0.429  0.00  0.00    +0.056 C 
ATOM      7  C   UNL     1       1.212  -1.011   0.277  0.00  0.00    +0.056 C 
ATOM      8  C   UNL     1      -2.075  -0.784   1.216  0.00  0.00    +0.076 C 
ATOM      9  C   UNL     1       1.548   1.700  -0.389  0.00  0.00    +0.148 C 
ATOM     10  C   UNL     1       2.256  -0.548  -0.531  0.00  0.00    +0.148 C 
ATOM     11  C   UNL     1      -1.688  -0.512  -1.138  0.00  0.00    -0.006 C 
ATOM     12  C   UNL     1      -1.357  -0.637   2.472  0.00  0.00    +0.342 C 
ATOM     13  C   UNL     1      -0.310   2.443   0.951  0.00  0.00    +0.006 C 
ATOM     14  C   UNL     1       1.205  -2.367   0.647  0.00  0.00    +0.006 C 
ATOM     15  C   UNL     1      -3.007  -0.914  -1.365  0.00  0.00    -0.044 C 
ATOM     16  C   UNL     1      -3.385  -1.184   1.023  0.00  0.00    +0.006 C 
ATOM     17  C   UNL     1       1.860   3.030  -0.687  0.00  0.00    +0.074 C 
ATOM     18  C   UNL     1       3.262  -1.417  -0.968  0.00  0.00    +0.074 C 
ATOM     19  C   UNL     1      -3.850  -1.247  -0.291  0.00  0.00    -0.006 C 
ATOM     20  C   UNL     1       0.006   3.771   0.660  0.00  0.00    +0.037 C 
ATOM     21  C   UNL     1       2.212  -3.233   0.217  0.00  0.00    +0.037 C 
ATOM     22  C   UNL     1       1.090   4.064  -0.161  0.00  0.00    +0.137 C 
ATOM     23  C   UNL     1       3.240  -2.758  -0.592  0.00  0.00    +0.137 C 
ENDROOT
BRANCH  22  24
ATOM     24  O   UNL     1       1.396   5.359  -0.450  0.00  0.00    -0.505 OA
ATOM     25  H   UNL     1       2.126   5.555  -1.003  0.00  0.00    +0.292 HD
ENDBRANCH  22  24
BRANCH  23  26
ATOM     26  O   UNL     1       4.221  -3.601  -1.014  0.00  0.00    -0.505 OA
ATOM     27  H   UNL     1       4.912  -3.281  -1.559  0.00  0.00    +0.292 HD
ENDBRANCH  23  26
BRANCH  15  28
ATOM     28  C   UNL     1      -3.528  -0.989  -2.761  0.00  0.00    -0.059 C 
BRANCH  28  29
ATOM     29  N   UNL     1      -4.128   0.272  -3.200  0.00  0.00    +0.383 N 
ATOM     30  H   UNL     1      -4.467   0.172  -4.157  0.00  0.00    -0.089 HD
ATOM     31  H   UNL     1      -3.427   1.013  -3.164  0.00  0.00    -0.089 HD
ATOM     32  H   UNL     1      -4.906   0.510  -2.586  0.00  0.00    -0.089 HD
ENDBRANCH  28  29
ENDBRANCH  15  28
TORSDOF 4
