132160
  -OEChem-03292013323D

 55 57  0     1  0  0  0  0  0999 V2000
    1.9194    3.0833    0.2346 S   0  0  0  0  0  0  0  0  0  0  0  0
    5.0191   -3.1315    0.2150 S   0  0  0  0  0  0  0  0  0  0  0  0
    2.6025    3.9247    1.2000 O   0  0  0  0  0  0  0  0  0  0  0  0
    1.5775    3.6244   -1.0680 O   0  0  0  0  0  0  0  0  0  0  0  0
    6.1176   -4.0610    0.0276 O   0  0  0  0  0  0  0  0  0  0  0  0
    4.5488   -2.8055    1.5467 O   0  0  0  0  0  0  0  0  0  0  0  0
   -2.8272    1.8110   -0.6713 N   0  0  0  0  0  0  0  0  0  0  0  0
    0.5121    2.4005    0.9656 N   0  0  1  0  0  0  0  0  0  0  0  0
   -3.5333   -0.4123   -0.9642 N   0  0  0  0  0  0  0  0  0  0  0  0
   -4.4578    0.7148    0.7137 N   0  0  0  0  0  0  0  0  0  0  0  0
    5.3553   -1.7029   -0.6861 N   0  0  0  0  0  0  0  0  0  0  0  0
   -1.8316    2.4377    0.2164 C   0  0  0  0  0  0  0  0  0  0  0  0
   -0.4820    1.7499    0.0820 C   0  0  0  0  0  0  0  0  0  0  0  0
   -3.6000    0.7698   -0.2806 C   0  0  0  0  0  0  0  0  0  0  0  0
   -4.4062   -1.2885   -0.3718 C   0  0  0  0  0  0  0  0  0  0  0  0
    2.9398    1.6617   -0.0385 C   0  0  0  0  0  0  0  0  0  0  0  0
   -4.9707   -0.5613    0.6727 C   0  0  0  0  0  0  0  0  0  0  0  0
   -2.9217    2.4086   -2.0153 C   0  0  0  0  0  0  0  0  0  0  0  0
    0.6881    1.6666    2.2464 C   0  0  0  0  0  0  0  0  0  0  0  0
   -2.6982   -0.7032   -2.1094 C   0  0  0  0  0  0  0  0  0  0  0  0
   -4.7404   -2.6139   -0.6514 C   0  0  0  0  0  0  0  0  0  0  0  0
    2.8307    0.9761   -1.2340 C   0  0  0  0  0  0  0  0  0  0  0  0
    3.8234    1.2685    0.9493 C   0  0  0  0  0  0  0  0  0  0  0  0
   -5.9269   -1.1775    1.4975 C   0  0  0  0  0  0  0  0  0  0  0  0
    4.5324   -0.5571   -0.4657 C   0  0  0  0  0  0  0  0  0  0  0  0
    3.6343   -0.1435   -1.4494 C   0  0  0  0  0  0  0  0  0  0  0  0
    4.6269    0.1489    0.7337 C   0  0  0  0  0  0  0  0  0  0  0  0
   -5.6940   -3.2114    0.1795 C   0  0  0  0  0  0  0  0  0  0  0  0
   -6.2778   -2.5077    1.2353 C   0  0  0  0  0  0  0  0  0  0  0  0
    3.6400   -3.7693   -0.7101 C   0  0  0  0  0  0  0  0  0  0  0  0
   -1.7345    3.5058   -0.0160 H   0  0  0  0  0  0  0  0  0  0  0  0
   -2.1802    2.3886    1.2560 H   0  0  0  0  0  0  0  0  0  0  0  0
   -0.1578    1.7878   -0.9631 H   0  0  0  0  0  0  0  0  0  0  0  0
   -0.5659    0.6829    0.3225 H   0  0  0  0  0  0  0  0  0  0  0  0
   -2.0239    2.1833   -2.5992 H   0  0  0  0  0  0  0  0  0  0  0  0
   -3.7975    2.0388   -2.5596 H   0  0  0  0  0  0  0  0  0  0  0  0
   -3.0241    3.4965   -1.9404 H   0  0  0  0  0  0  0  0  0  0  0  0
    1.3692    2.2085    2.9083 H   0  0  0  0  0  0  0  0  0  0  0  0
    1.0702    0.6569    2.0732 H   0  0  0  0  0  0  0  0  0  0  0  0
   -0.2742    1.5950    2.7634 H   0  0  0  0  0  0  0  0  0  0  0  0
   -3.2032   -0.3374   -3.0063 H   0  0  0  0  0  0  0  0  0  0  0  0
   -2.5418   -1.7818   -2.1860 H   0  0  0  0  0  0  0  0  0  0  0  0
   -1.7229   -0.2281   -1.9835 H   0  0  0  0  0  0  0  0  0  0  0  0
   -4.2937   -3.1650   -1.4708 H   0  0  0  0  0  0  0  0  0  0  0  0
    2.1347    1.2788   -2.0098 H   0  0  0  0  0  0  0  0  0  0  0  0
    3.9100    1.8031    1.8900 H   0  0  0  0  0  0  0  0  0  0  0  0
   -6.3864   -0.6393    2.3204 H   0  0  0  0  0  0  0  0  0  0  0  0
    3.5505   -0.6875   -2.3868 H   0  0  0  0  0  0  0  0  0  0  0  0
    5.3302   -0.1539    1.5051 H   0  0  0  0  0  0  0  0  0  0  0  0
   -5.9863   -4.2429   -0.0012 H   0  0  0  0  0  0  0  0  0  0  0  0
   -7.0162   -2.9990    1.8638 H   0  0  0  0  0  0  0  0  0  0  0  0
    5.5991   -1.8571   -1.6737 H   0  0  0  0  0  0  0  0  0  0  0  0
    3.3619   -4.7324   -0.2760 H   0  0  0  0  0  0  0  0  0  0  0  0
    3.9420   -3.9075   -1.7499 H   0  0  0  0  0  0  0  0  0  0  0  0
    2.8007   -3.0765   -0.6316 H   0  0  0  0  0  0  0  0  0  0  0  0
  1  3  2  0  0  0  0
  1  4  2  0  0  0  0
  1  8  1  0  0  0  0
  1 16  1  0  0  0  0
  2  5  2  0  0  0  0
  2  6  2  0  0  0  0
  2 11  1  0  0  0  0
  2 30  1  0  0  0  0
  7 12  1  0  0  0  0
  7 14  1  0  0  0  0
  7 18  1  0  0  0  0
  8 13  1  0  0  0  0
  8 19  1  0  0  0  0
  9 14  1  0  0  0  0
  9 15  1  0  0  0  0
  9 20  1  0  0  0  0
 10 14  2  0  0  0  0
 10 17  1  0  0  0  0
 11 25  1  0  0  0  0
 11 52  1  0  0  0  0
 12 13  1  0  0  0  0
 12 31  1  0  0  0  0
 12 32  1  0  0  0  0
 13 33  1  0  0  0  0
 13 34  1  0  0  0  0
 15 17  1  0  0  0  0
 15 21  2  0  0  0  0
 16 22  2  0  0  0  0
 16 23  1  0  0  0  0
 17 24  2  0  0  0  0
 18 35  1  0  0  0  0
 18 36  1  0  0  0  0
 18 37  1  0  0  0  0
 19 38  1  0  0  0  0
 19 39  1  0  0  0  0
 19 40  1  0  0  0  0
 20 41  1  0  0  0  0
 20 42  1  0  0  0  0
 20 43  1  0  0  0  0
 21 28  1  0  0  0  0
 21 44  1  0  0  0  0
 22 26  1  0  0  0  0
 22 45  1  0  0  0  0
 23 27  2  0  0  0  0
 23 46  1  0  0  0  0
 24 29  1  0  0  0  0
 24 47  1  0  0  0  0
 25 26  2  0  0  0  0
 25 27  1  0  0  0  0
 26 48  1  0  0  0  0
 27 49  1  0  0  0  0
 28 29  2  0  0  0  0
 28 50  1  0  0  0  0
 29 51  1  0  0  0  0
 30 53  1  0  0  0  0
 30 54  1  0  0  0  0
 30 55  1  0  0  0  0
M  END
> <PUBCHEM_COMPOUND_CID>
132160

> <PUBCHEM_CONFORMER_RMSD>
1.2

> <PUBCHEM_CONFORMER_DIVERSEORDER>
3
82
144
98
118
93
195
107
121
64
221
80
88
68
120
41
188
210
95
81
182
101
165
149
114
94
141
69
184
111
106
77
155
179
56
125
200
152
212
60
116
14
217
36
196
42
178
122
159
39
62
96
176
127
174
192
67
117
70
131
167
85
9
24
133
211
29
156
136
48
163
113
33
148
30
157
209
190
171
52
142
224
50
92
132
162
194
214
45
26
99
25
34
28
207
147
193
109
128
110
15
91
143
215
187
74
31
137
32
140
198
5
139
222
27
8
61
83
183
73
59
186
22
78
204
12
173
129
203
105
21
213
161
226
158
126
65
123
84
11
90
43
55
185
66
13
51
208
20
102
115
19
223
177
154
44
169
2
79
104
49
10
35
124
54
202
71
23
205
146
6
58
38
134
76
135
4
206
72
219
189
138
160
225
89
16
87
175
40
53
37
172
47
218
103
108
1
201
216
166
18
130
97
164
100
153
220
17
199
151
75
180
119
7
46
57
170
191
168
181
150
112
63
145
86
197

> <PUBCHEM_MMFF94_PARTIAL_CHARGES>
39
1 1.45
10 -0.57
11 -0.76
12 0.37
13 0.36
14 0.27
15 -0.15
16 -0.01
17 0.23
18 0.37
19 0.36
2 1.33
20 0.26
21 -0.15
22 -0.15
23 -0.15
24 -0.15
25 0.2
26 -0.15
27 -0.15
28 -0.15
29 -0.15
3 -0.65
30 0.11
4 -0.65
44 0.15
45 0.15
46 0.15
47 0.15
48 0.15
49 0.15
5 -0.65
50 0.15
51 0.15
52 0.42
6 -0.65
7 -0.82
8 -0.85
9 0.05

> <PUBCHEM_EFFECTIVE_ROTOR_COUNT>
8

> <PUBCHEM_PHARMACOPHORE_FEATURES>
9
1 11 donor
1 3 acceptor
1 4 acceptor
1 5 acceptor
1 6 acceptor
4 7 9 10 14 cation
5 9 10 14 15 17 rings
6 15 17 21 24 28 29 rings
6 16 22 23 25 26 27 rings

> <PUBCHEM_HEAVY_ATOM_COUNT>
30

> <PUBCHEM_ATOM_DEF_STEREO_COUNT>
0

> <PUBCHEM_ATOM_UDEF_STEREO_COUNT>
0

> <PUBCHEM_BOND_DEF_STEREO_COUNT>
0

> <PUBCHEM_BOND_UDEF_STEREO_COUNT>
0

> <PUBCHEM_ISOTOPIC_ATOM_COUNT>
0

> <PUBCHEM_COMPONENT_COUNT>
1

> <PUBCHEM_CACTVS_TAUTO_COUNT>
1

> <PUBCHEM_CONFORMER_ID>
0002044000000003

> <PUBCHEM_MMFF94_ENERGY>
73.7455

> <PUBCHEM_FEATURE_SELFOVERLAP>
45.815

> <PUBCHEM_SHAPE_FINGERPRINT>
10074138 170 16913984577876434400
10169797 241 18131632258516981222
10190108 129 18342454885906178660
10928967 22 18200872993056488279
117089 54 18337681892112093875
11796584 16 18044081364052838152
11991303 11 17604416390154406885
12107183 9 18200612319350586945
12166972 35 18113628858922696846
12422481 6 17274543122467956110
12633257 1 16486141759263228189
13553639 21 18336273391810732603
1361 4 18408046221216156978
13955234 65 18056196010506009936
14251764 30 18409452500830009995
14480069 147 18259992539196984891
14950920 106 18131075956671254147
14951699 99 11671776087686647994
15019793 15 18124316262047774315
15475509 35 18129101306670467697
15575132 122 8862071974865110596
15728490 83 18339367344584466539
16728300 4 18201727297361050519
17492 89 18410011043909784068
17909252 39 18336829796301111440
1813 80 17970628717719798125
19301676 85 17834667202600502791
20775530 9 18342734083927691652
208703 8 18338515223352748786
21033648 29 12175357936799722645
21315759 227 18410849932721686068
25222932 49 18342455984937629220
2748736 6 9295283898526701506
2838139 119 8935000356379629368
32027 91 18339633465063513325
345986 75 17775577437177543913
3610482 184 14057267655272039207
3680242 22 18271536363538041523
3737641 26 18408884062029645275
437795 163 18336831897532356630
4394409 98 16600383941512511119
439807 62 18334862692821658763
44062 13 18189048712010115725
4435113 14 17679318600486862387
46194498 28 17968657245599080220
463206 1 18122341277296903424
50009960 94 18043784577597053698
5104073 3 18060426819638142337
513202 73 18261117387833469033
57724786 102 7997427073438576549
613672 6 17844244026071441324
6201320 221 17333638884177996279
6422251 121 18334575733314662531
6700243 42 17023175072445143199
7918774 8 17750802249844629857
7970288 3 18410013212841628386
88748 71 18410294700645205716

> <PUBCHEM_SHAPE_MULTIPOLES>
576.7
16.34
5.43
1.68
7.75
1.91
-0.07
18.68
2.61
-5.44
0.36
0.59
-0.46
1.39

> <PUBCHEM_SHAPE_SELFOVERLAP>
1193.332

> <PUBCHEM_SHAPE_VOLUME>
334.3

> <PUBCHEM_COORDINATE_TYPE>
2
5
10

$$$$
