REMARK  Name = 132133
REMARK  13 active torsions:
REMARK  status: ('A' for Active; 'I' for Inactive)
REMARK    1  A    between atoms: C_2  and  C_16
REMARK    2  A    between atoms: C_3  and  O_12
REMARK    3  A    between atoms: C_5  and  C_21
REMARK    4  A    between atoms: C_7  and  C_10
REMARK    5  A    between atoms: C_8  and  O_14
REMARK    6  A    between atoms: C_16  and  C_17
REMARK    7  A    between atoms: C_21  and  C_22
REMARK    8  A    between atoms: C_23  and  O_35
REMARK    9  A    between atoms: C_24  and  O_31
REMARK   10  A    between atoms: C_25  and  C_29
REMARK   11  A    between atoms: C_27  and  O_33
REMARK   12  A    between atoms: O_35  and  C_36
REMARK   13  A    between atoms: C_36  and  C_37
REMARK                            x       y       z     vdW  Elec       q    Type
REMARK                         _______ _______ _______ _____ _____    ______ ____
ROOT
ATOM      1  O   UNL     1      -3.889  -2.847   0.831  0.00  0.00    -0.291 OA
ATOM      2  C   UNL     1      -1.581  -2.687   0.132  0.00  0.00    +0.109 C 
ATOM      3  C   UNL     1      -0.700  -1.747  -0.672  0.00  0.00    +0.117 C 
ATOM      4  C   UNL     1      -3.027  -2.177   0.256  0.00  0.00    +0.185 C 
ATOM      5  C   UNL     1      -1.114  -0.569  -1.180  0.00  0.00    +0.046 C 
ATOM      6  C   UNL     1      -1.656  -4.066  -0.552  0.00  0.00    +0.016 C 
ATOM      7  C   UNL     1      -3.400  -0.849  -0.306  0.00  0.00    +0.103 C 
ATOM      8  C   UNL     1      -2.487  -0.114  -0.963  0.00  0.00    +0.138 C 
ENDROOT
BRANCH   7  10
ATOM      9  O   UNL     1      -5.049   0.366   0.833  0.00  0.00    -0.291 OA
ATOM     10  C   UNL     1      -4.766  -0.321  -0.144  0.00  0.00    +0.179 C 
ATOM     11  C   UNL     1      -5.771  -0.649  -1.211  0.00  0.00    +0.077 C 
ENDBRANCH   7  10
BRANCH   3  12
ATOM     12  O   UNL     1       0.610  -2.160  -0.874  0.00  0.00    -0.510 OA
ATOM     13  H   UNL     1       0.903  -2.978  -0.523  0.00  0.00    +0.292 HD
ENDBRANCH   3  12
BRANCH   8  14
ATOM     14  O   UNL     1      -2.838   1.129  -1.469  0.00  0.00    -0.506 OA
ATOM     15  H   UNL     1      -2.204   1.644  -1.928  0.00  0.00    +0.292 HD
ENDBRANCH   8  14
BRANCH   2  16
ATOM     16  C   UNL     1      -1.036  -2.833   1.564  0.00  0.00    +0.040 C 
BRANCH  16  17
ATOM     17  C   UNL     1      -0.895  -1.494   2.215  0.00  0.00    -0.034 C 
ATOM     18  C   UNL     1       0.236  -0.910   2.655  0.00  0.00    -0.048 C 
ATOM     19  C   UNL     1       1.562  -1.607   2.507  0.00  0.00    +0.026 C 
ATOM     20  C   UNL     1       0.314   0.443   3.304  0.00  0.00    +0.026 C 
ENDBRANCH  16  17
ENDBRANCH   2  16
BRANCH   5  21
ATOM     21  C   UNL     1      -0.186   0.298  -1.998  0.00  0.00    +0.065 C 
BRANCH  21  22
ATOM     22  C   UNL     1       0.594   1.247  -1.141  0.00  0.00    +0.050 C 
ATOM     23  C   UNL     1       1.830   0.861  -0.627  0.00  0.00    +0.141 C 
ATOM     24  C   UNL     1       0.083   2.513  -0.861  0.00  0.00    +0.138 C 
ATOM     25  C   UNL     1       0.812   3.396  -0.063  0.00  0.00    +0.102 C 
ATOM     26  C   UNL     1       2.558   1.743   0.171  0.00  0.00    +0.073 C 
ATOM     27  C   UNL     1       2.049   3.010   0.453  0.00  0.00    +0.142 C 
BRANCH  25  29
ATOM     28  O   UNL     1       0.527   5.696  -0.502  0.00  0.00    -0.291 OA
ATOM     29  C   UNL     1       0.281   4.721   0.233  0.00  0.00    +0.179 C 
ATOM     30  C   UNL     1      -0.594   4.938   1.461  0.00  0.00    +0.077 C 
ENDBRANCH  25  29
BRANCH  24  31
ATOM     31  O   UNL     1      -1.127   2.887  -1.367  0.00  0.00    -0.506 OA
ATOM     32  H   UNL     1      -1.615   2.293  -1.903  0.00  0.00    +0.292 HD
ENDBRANCH  24  31
BRANCH  27  33
ATOM     33  O   UNL     1       2.777   3.857   1.235  0.00  0.00    -0.505 OA
ATOM     34  H   UNL     1       2.448   4.711   1.433  0.00  0.00    +0.292 HD
ENDBRANCH  27  33
BRANCH  23  35
ATOM     35  O   UNL     1       2.344  -0.373  -0.892  0.00  0.00    -0.471 OA
BRANCH  35  36
ATOM     36  C   UNL     1       3.764  -0.489  -0.934  0.00  0.00    +0.231 C 
BRANCH  36  37
ATOM     37  C   UNL     1       4.141  -1.899  -1.264  0.00  0.00    +0.012 C 
ATOM     38  C   UNL     1       4.905  -2.745  -0.548  0.00  0.00    -0.044 C 
ATOM     39  C   UNL     1       5.549  -2.433   0.773  0.00  0.00    +0.026 C 
ATOM     40  C   UNL     1       5.178  -4.137  -1.054  0.00  0.00    +0.026 C 
ENDBRANCH  36  37
ENDBRANCH  35  36
ENDBRANCH  23  35
ENDBRANCH  21  22
ENDBRANCH   5  21
TORSDOF 13
