REMARK  Name = 132279
REMARK  8 active torsions:
REMARK  status: ('A' for Active; 'I' for Inactive)
REMARK    1  A    between atoms: C_1  and  C_7
REMARK    2  A    between atoms: C_2  and  C_17
REMARK    3  A    between atoms: C_7  and  CA_8
REMARK    4  A    between atoms: CA_8  and  N_9
REMARK    5  A    between atoms: CA_8  and  C_14
REMARK    6  A    between atoms: C_14  and  O_15
REMARK    7  A    between atoms: C_17  and  C_19
REMARK    8  A    between atoms: C_19  and  O_20
REMARK                            x       y       z     vdW  Elec       q    Type
REMARK                         _______ _______ _______ _____ _____    ______ ____
ROOT
ATOM      1  C   UNL     1      -0.792   1.010   0.306  0.00  0.00    -0.024 C 
ATOM      2  C   UNL     1       1.950   0.646   0.428  0.00  0.00    -0.011 C 
ATOM      3  C   UNL     1       0.020   1.672  -0.600  0.00  0.00    -0.005 C 
ATOM      4  C   UNL     1      -0.263   0.171   1.272  0.00  0.00    -0.005 C 
ATOM      5  C   UNL     1       1.401   1.488  -0.538  0.00  0.00    -0.004 C 
ATOM      6  C   UNL     1       1.118  -0.013   1.334  0.00  0.00    -0.004 C 
ENDROOT
BRANCH   1   7
ATOM      7  C   UNL     1      -2.289   1.210   0.240  0.00  0.00    +0.015 C 
BRANCH   7   8
ATOM      8  CA  UNL     1      -2.986   0.195  -0.679  0.00  0.00    +0.040 C 
BRANCH   8   9
ATOM      9  N   UNL     1      -4.295   0.708  -1.079  0.00  0.00    +0.389 N 
ATOM     10  H1  UNL     1      -4.178   1.602  -1.555  0.00  0.00    -0.088 HD
ATOM     11  H2  UNL     1      -4.877   0.836  -0.252  0.00  0.00    -0.088 HD
ATOM     12  H3  UNL     1      -4.742   0.043  -1.710  0.00  0.00    -0.088 HD
ENDBRANCH   8   9
BRANCH   8  14
ATOM     13  OXT UNL     1      -4.231  -1.400   0.678  0.00  0.00    -0.253 OA
ATOM     14  C   UNL     1      -3.234  -1.132   0.019  0.00  0.00    +0.293 C 
BRANCH  14  15
ATOM     15  O   UNL     1      -2.232  -2.023  -0.194  0.00  0.00    -0.482 OA
ATOM     16  H   UNL     1      -1.486  -1.776  -0.705  0.00  0.00    +0.295 HD
ENDBRANCH  14  15
ENDBRANCH   8  14
ENDBRANCH   7   8
ENDBRANCH   1   7
BRANCH   2  17
ATOM     17  C   UNL     1       3.427   0.449   0.494  0.00  0.00    +0.136 C 
BRANCH  17  19
ATOM     18  O   UNL     1       3.209  -1.453  -1.011  0.00  0.00    -0.250 OA
ATOM     19  C   UNL     1       3.921  -0.705  -0.357  0.00  0.00    +0.318 C 
BRANCH  19  20
ATOM     20  O   UNL     1       5.275  -0.823  -0.313  0.00  0.00    -0.480 OA
ATOM     21  H   UNL     1       5.781  -0.226   0.203  0.00  0.00    +0.295 HD
ENDBRANCH  19  20
ENDBRANCH  17  19
ENDBRANCH   2  17
TORSDOF 8
