REMARK  Name = 132266
REMARK  3 active torsions:
REMARK  status: ('A' for Active; 'I' for Inactive)
REMARK    1  A    between atoms: C_16  and  C_27
REMARK    2  A    between atoms: C_22  and  O_31
REMARK    3  A    between atoms: C_23  and  O_33
REMARK                            x       y       z     vdW  Elec       q    Type
REMARK                         _______ _______ _______ _____ _____    ______ ____
ROOT
ATOM      1  O   UNL     1      -4.601   0.337  -2.307  0.00  0.00    -0.267 OA
ATOM      2  N   UNL     1      -0.586  -0.195   0.282  0.00  0.00    -0.232 N 
ATOM      3  N   UNL     1      -3.374   0.207  -0.344  0.00  0.00    -0.272 N 
ATOM      4  N   UNL     1       1.683   0.457   0.020  0.00  0.00    -0.332 NA
ATOM      5  N   UNL     1       1.111  -1.843   0.458  0.00  0.00    -0.317 NA
ATOM      6  N   UNL     1       2.787  -3.485   0.634  0.00  0.00    -0.335 N 
ATOM      7  C   UNL     1      -1.049   1.181   0.031  0.00  0.00    +0.103 C 
ATOM      8  C   UNL     1      -2.362   1.181  -0.802  0.00  0.00    +0.095 C 
ATOM      9  C   UNL     1      -1.137   1.962   1.358  0.00  0.00    +0.022 C 
ATOM     10  C   UNL     1      -2.931   2.611  -0.900  0.00  0.00    +0.022 C 
ATOM     11  C   UNL     1      -1.746   3.347   1.184  0.00  0.00    +0.002 C 
ATOM     12  C   UNL     1      -3.083   3.279   0.461  0.00  0.00    +0.002 C 
ATOM     13  C   UNL     1      -1.588  -1.239   0.529  0.00  0.00    +0.125 C 
ATOM     14  C   UNL     1      -2.986  -0.675   0.756  0.00  0.00    +0.116 C 
ATOM     15  C   UNL     1       0.770  -0.538   0.253  0.00  0.00    +0.203 C 
ATOM     16  C   UNL     1      -4.535  -0.009  -1.125  0.00  0.00    +0.284 C 
ATOM     17  C   UNL     1       2.988   0.134  -0.010  0.00  0.00    +0.138 C 
ATOM     18  C   UNL     1       2.425  -2.131   0.422  0.00  0.00    +0.178 C 
ATOM     19  C   UNL     1       3.422  -1.186   0.191  0.00  0.00    +0.146 C 
ATOM     20  C   UNL     1       3.956   1.108  -0.243  0.00  0.00    +0.069 C 
ATOM     21  C   UNL     1       4.789  -1.512   0.158  0.00  0.00    +0.029 C 
ATOM     22  C   UNL     1       5.318   0.792  -0.278  0.00  0.00    +0.174 C 
ATOM     23  C   UNL     1       5.735  -0.518  -0.077  0.00  0.00    +0.169 C 
ATOM     24  H   UNL     1       2.090  -4.160   0.797  0.00  0.00    +0.144 HD
ATOM     25  H   UNL     1       3.735  -3.749   0.617  0.00  0.00    +0.144 HD
ENDROOT
BRANCH  16  27
ATOM     26  O   UNL     1      -5.841  -0.447   0.850  0.00  0.00    -0.446 OA
ATOM     27  C   UNL     1      -5.679  -0.651  -0.478  0.00  0.00    +0.199 C 
ATOM     28  C   UNL     1      -6.663  -1.456  -0.982  0.00  0.00    +0.045 C 
ATOM     29  C   UNL     1      -7.498  -1.776   0.116  0.00  0.00    +0.044 C 
ATOM     30  C   UNL     1      -6.955  -1.137   1.206  0.00  0.00    +0.180 C 
ENDBRANCH  16  27
BRANCH  22  31
ATOM     31  O   UNL     1       6.226   1.781  -0.510  0.00  0.00    -0.468 OA
ATOM     32  C   UNL     1       6.741   2.468   0.628  0.00  0.00    +0.253 C 
ENDBRANCH  22  31
BRANCH  23  33
ATOM     33  O   UNL     1       7.057  -0.840  -0.108  0.00  0.00    -0.469 OA
ATOM     34  C   UNL     1       7.606  -1.211  -1.372  0.00  0.00    +0.253 C 
ENDBRANCH  23  33
TORSDOF 3
