132261
  -OEChem-03292013323D

 48 48  0     1  0  0  0  0  0999 V2000
    1.1275   -3.2358   -0.6716 O   0  0  0  0  0  0  0  0  0  0  0  0
    3.2529   -2.1362    0.4823 O   0  0  0  0  0  0  0  0  0  0  0  0
    2.3828    0.6350    2.4536 O   0  0  0  0  0  0  0  0  0  0  0  0
    4.4880    1.4325    2.6642 O   0  0  0  0  0  0  0  0  0  0  0  0
    2.6429    0.0228   -0.1139 N   0  0  0  0  0  0  0  0  0  0  0  0
   -0.0295   -1.5478    1.3658 N   0  0  0  0  0  0  0  0  0  0  0  0
   -5.8600    1.6258    0.4591 N   0  0  0  0  0  0  0  0  0  0  0  0
   -6.9182    1.2149   -0.0658 N   0  3  0  0  0  0  0  0  0  0  0  0
   -7.8871    0.8452   -0.5424 N   0  5  0  0  0  0  0  0  0  0  0  0
    4.1905    1.9381   -0.3270 C   0  0  0  0  0  0  0  0  0  0  0  0
    4.8705    1.7148   -1.6971 C   0  0  0  0  0  0  0  0  0  0  0  0
    3.7725    0.6954    0.4734 C   0  0  1  0  0  0  0  0  0  0  0  0
   -0.0638   -1.2055   -0.0630 C   0  0  1  0  0  0  0  0  0  0  0  0
    1.1846   -1.8182   -0.7326 C   0  0  1  0  0  0  0  0  0  0  0  0
   -1.3807   -1.6994   -0.7039 C   0  0  0  0  0  0  0  0  0  0  0  0
    2.4744   -1.3545   -0.0602 C   0  0  0  0  0  0  0  0  0  0  0  0
    3.9833    1.0068   -2.7184 C   0  0  0  0  0  0  0  0  0  0  0  0
    6.1592    0.9085   -1.4956 C   0  0  0  0  0  0  0  0  0  0  0  0
   -2.5680   -0.8175   -0.3955 C   0  0  0  0  0  0  0  0  0  0  0  0
    3.5953    0.9779    1.9568 C   0  0  0  0  0  0  0  0  0  0  0  0
   -3.3489   -1.0687    0.7326 C   0  0  0  0  0  0  0  0  0  0  0  0
   -2.8833    0.2480   -1.2388 C   0  0  0  0  0  0  0  0  0  0  0  0
   -4.4451   -0.2547    1.0176 C   0  0  0  0  0  0  0  0  0  0  0  0
   -3.9795    1.0620   -0.9540 C   0  0  0  0  0  0  0  0  0  0  0  0
   -4.7604    0.8107    0.1741 C   0  0  0  0  0  0  0  0  0  0  0  0
    3.3078    2.5743   -0.4794 H   0  0  0  0  0  0  0  0  0  0  0  0
    4.8764    2.5404    0.2845 H   0  0  0  0  0  0  0  0  0  0  0  0
    4.5971   -0.0270    0.4632 H   0  0  0  0  0  0  0  0  0  0  0  0
    5.1364    2.7008   -2.0984 H   0  0  0  0  0  0  0  0  0  0  0  0
   -0.0220   -0.1131   -0.1452 H   0  0  0  0  0  0  0  0  0  0  0  0
    1.2291   -1.5312   -1.7892 H   0  0  0  0  0  0  0  0  0  0  0  0
   -1.2602   -1.7407   -1.7951 H   0  0  0  0  0  0  0  0  0  0  0  0
   -1.6000   -2.7326   -0.4017 H   0  0  0  0  0  0  0  0  0  0  0  0
    1.9329    0.5947   -0.5602 H   0  0  0  0  0  0  0  0  0  0  0  0
    4.4521    1.0349   -3.7084 H   0  0  0  0  0  0  0  0  0  0  0  0
    3.0096    1.5006   -2.7994 H   0  0  0  0  0  0  0  0  0  0  0  0
    3.8214   -0.0462   -2.4710 H   0  0  0  0  0  0  0  0  0  0  0  0
    5.9632   -0.1352   -1.2315 H   0  0  0  0  0  0  0  0  0  0  0  0
    6.7444    0.9008   -2.4222 H   0  0  0  0  0  0  0  0  0  0  0  0
    6.7861    1.3529   -0.7154 H   0  0  0  0  0  0  0  0  0  0  0  0
    0.7961   -1.1407    1.8031 H   0  0  0  0  0  0  0  0  0  0  0  0
   -0.8271   -1.1275    1.8401 H   0  0  0  0  0  0  0  0  0  0  0  0
    0.9976   -3.4881    0.2586 H   0  0  0  0  0  0  0  0  0  0  0  0
   -3.1183   -1.8984    1.3954 H   0  0  0  0  0  0  0  0  0  0  0  0
   -2.2810    0.4555   -2.1193 H   0  0  0  0  0  0  0  0  0  0  0  0
   -5.0475   -0.4591    1.8989 H   0  0  0  0  0  0  0  0  0  0  0  0
   -4.2161    1.8904   -1.6167 H   0  0  0  0  0  0  0  0  0  0  0  0
    2.3180    0.8091    3.4168 H   0  0  0  0  0  0  0  0  0  0  0  0
  1 14  1  0  0  0  0
  1 43  1  0  0  0  0
  2 16  2  0  0  0  0
  3 20  1  0  0  0  0
  3 48  1  0  0  0  0
  4 20  2  0  0  0  0
  5 12  1  0  0  0  0
  5 16  1  0  0  0  0
  5 34  1  0  0  0  0
  6 13  1  0  0  0  0
  6 41  1  0  0  0  0
  6 42  1  0  0  0  0
  7  8  2  0  0  0  0
  7 25  1  0  0  0  0
  8  9  2  0  0  0  0
 10 11  1  0  0  0  0
 10 12  1  0  0  0  0
 10 26  1  0  0  0  0
 10 27  1  0  0  0  0
 11 17  1  0  0  0  0
 11 18  1  0  0  0  0
 11 29  1  0  0  0  0
 12 20  1  0  0  0  0
 12 28  1  0  0  0  0
 13 14  1  0  0  0  0
 13 15  1  0  0  0  0
 13 30  1  0  0  0  0
 14 16  1  0  0  0  0
 14 31  1  0  0  0  0
 15 19  1  0  0  0  0
 15 32  1  0  0  0  0
 15 33  1  0  0  0  0
 17 35  1  0  0  0  0
 17 36  1  0  0  0  0
 17 37  1  0  0  0  0
 18 38  1  0  0  0  0
 18 39  1  0  0  0  0
 18 40  1  0  0  0  0
 19 21  2  0  0  0  0
 19 22  1  0  0  0  0
 21 23  1  0  0  0  0
 21 44  1  0  0  0  0
 22 24  2  0  0  0  0
 22 45  1  0  0  0  0
 23 25  2  0  0  0  0
 23 46  1  0  0  0  0
 24 25  1  0  0  0  0
 24 47  1  0  0  0  0
M  CHG  2   8   1   9  -1
M  END
> <PUBCHEM_COMPOUND_CID>
132261

> <PUBCHEM_CONFORMER_RMSD>
1

> <PUBCHEM_CONFORMER_DIVERSEORDER>
3
219
126
151
291
20
257
117
112
167
183
15
75
208
205
93
212
78
82
12
243
206
179
197
267
33
152
29
251
123
118
192
105
207
279
211
34
184
17
170
275
97
138
109
9
107
296
69
229
102
4
121
81
87
217
67
48
195
270
263
161
216
225
110
52
226
298
162
51
199
175
146
261
287
38
181
223
177
180
42
64
53
74
98
23
283
280
31
168
139
173
221
104
163
227
293
1
111
200
124
96
128
88
174
241
248
191
13
35
135
148
22
68
10
136
233
21
58
129
240
254
55
194
66
56
60
137
166
94
59
143
100
27
224
44
157
115
2
141
277
189
65
269
244
215
140
218
40
133
113
201
61
14
16
285
147
91
234
188
266
209
145
85
297
153
299
50
45
274
134
54
262
292
255
272
242
178
246
95
62
25
258
41
235
187
282
268
220
160
172
76
46
250
49
5
26
120
276
239
278
286
18
19
165
228
103
119
185
28
79
63
84
158
154
273
11
245
144
238
301
108
155
149
37
86
43
24
125
222
232
202
190
30
156
71
106
130
89
236
213
77
127
300
196
252
32
114
237
131
36
47
83
295
159
176
116
70
249
203
80
182
171
204
284
193
169
259
73
230
288
39
260
164
8
264
7
289
281
265
57
142
186
90
122
247
294
290
132
256
6
214
253
92
210
99
231
150
72
198
101
271

> <PUBCHEM_MMFF94_PARTIAL_CHARGES>
30
1 -0.68
12 0.36
13 0.27
14 0.34
15 0.14
16 0.57
19 -0.14
2 -0.57
20 0.66
21 -0.15
22 -0.15
23 -0.15
24 -0.15
25 0.18
3 -0.65
34 0.37
4 -0.57
41 0.36
42 0.36
43 0.4
44 0.15
45 0.15
46 0.15
47 0.15
48 0.5
5 -0.73
6 -0.99
7 -0.5
8 0.69
9 -0.37

> <PUBCHEM_EFFECTIVE_ROTOR_COUNT>
10

> <PUBCHEM_PHARMACOPHORE_FEATURES>
11
1 1 acceptor
1 1 donor
1 2 acceptor
1 3 acceptor
1 4 acceptor
1 5 donor
1 6 cation
1 6 donor
3 11 17 18 hydrophobe
3 3 4 20 anion
6 19 21 22 23 24 25 rings

> <PUBCHEM_HEAVY_ATOM_COUNT>
25

> <PUBCHEM_ATOM_DEF_STEREO_COUNT>
1

> <PUBCHEM_ATOM_UDEF_STEREO_COUNT>
2

> <PUBCHEM_BOND_DEF_STEREO_COUNT>
0

> <PUBCHEM_BOND_UDEF_STEREO_COUNT>
0

> <PUBCHEM_ISOTOPIC_ATOM_COUNT>
0

> <PUBCHEM_COMPONENT_COUNT>
1

> <PUBCHEM_CACTVS_TAUTO_COUNT>
2

> <PUBCHEM_CONFORMER_ID>
000204A500000003

> <PUBCHEM_MMFF94_ENERGY>
48.3245

> <PUBCHEM_FEATURE_SELFOVERLAP>
55.892

> <PUBCHEM_SHAPE_FINGERPRINT>
10 15 17530688710651292809
10670039 82 18201169766723057064
11595378 159 16298380241087435638
11720765 8 17489598831793000268
11796584 16 11743578556382456860
12363563 72 9079126569852701646
12403259 415 18130791230103925594
12596602 18 16805608096401828465
12633257 1 17458335368621494875
12892183 10 14924212820675228374
13685833 64 10087639291103991029
14251740 57 12901543512304608288
14341114 328 16950844825034665668
14347332 77 11312063123834910099
14848178 5 10159712265330375308
14950920 106 16226030211327287576
15183329 4 15985115097473120956
15210252 30 18337960094735337344
15238133 3 18334288812614267624
15510800 12 9223234086832714692
1601671 61 18334016129245805084
18186145 218 17703511107487482050
19377110 9 16660933287103898907
193927 3 8214144100891305171
20567600 234 17894916231055846037
21033648 29 18270678791876176664
21756936 100 17605840446410556412
22393880 68 17704068542444387198
23559900 14 18189337879152193811
312425 54 15140683575120481985
34797466 226 16630804431093919885
392239 28 15430597384925229780
513532 50 16702294655625267946
59682541 52 16200159789320808668
633830 44 17131836498986972698
7808743 9 18263368164864591878
960060 61 13614521874248188592
9849439 229 18268419299607395720

> <PUBCHEM_SHAPE_MULTIPOLES>
466.11
16.39
2.4
2.05
19.05
1.1
0.97
-12.74
-0.74
-1.11
-0.71
-3.67
-0.66
-0.43

> <PUBCHEM_SHAPE_SELFOVERLAP>
945.044

> <PUBCHEM_SHAPE_VOLUME>
270

> <PUBCHEM_COORDINATE_TYPE>
2
5
10

$$$$
