REMARK  Name = 132229
REMARK  3 active torsions:
REMARK  status: ('A' for Active; 'I' for Inactive)
REMARK    1  A    between atoms: C_4  and  N_10
REMARK    2  A    between atoms: C_6  and  S_18
REMARK    3  A    between atoms: S_18  and  N_21
REMARK                            x       y       z     vdW  Elec       q    Type
REMARK                         _______ _______ _______ _____ _____    ______ ____
ROOT
ATOM      1  O   UNL     1       0.265  -2.864  -0.343  0.00  0.00    -0.241 OA
ATOM      2  N   UNL     1      -0.888  -2.113  -0.192  0.00  0.00    -0.047 NA
ATOM      3  N   UNL     1       1.390  -2.065  -0.450  0.00  0.00    -0.047 NA
ATOM      4  C   UNL     1      -1.284   0.340  -0.083  0.00  0.00    +0.071 C 
ATOM      5  C   UNL     1      -0.496  -0.833  -0.203  0.00  0.00    +0.158 A 
ATOM      6  C   UNL     1       1.679   0.401  -0.419  0.00  0.00    +0.145 C 
ATOM      7  C   UNL     1      -0.519   1.531  -0.139  0.00  0.00    +0.018 C 
ATOM      8  C   UNL     1       0.953  -0.802  -0.367  0.00  0.00    +0.163 A 
ATOM      9  C   UNL     1       0.891   1.561  -0.299  0.00  0.00    +0.023 C 
ENDROOT
BRANCH   4  10
ATOM     10  N   UNL     1      -2.675   0.355   0.075  0.00  0.00    -0.311 N 
ATOM     11  N   UNL     1      -5.525   0.243   0.186  0.00  0.00    +0.386 N 
ATOM     12  C   UNL     1      -3.479   1.040  -0.946  0.00  0.00    +0.067 C 
ATOM     13  C   UNL     1      -3.340  -0.751   0.772  0.00  0.00    +0.067 C 
ATOM     14  C   UNL     1      -4.853   1.408  -0.388  0.00  0.00    -0.060 C 
ATOM     15  C   UNL     1      -4.720  -0.319   1.269  0.00  0.00    -0.060 C 
ATOM     16  H   UNL     1      -5.656  -0.462  -0.539  0.00  0.00    -0.084 HD
ATOM     17  H   UNL     1      -6.430   0.531   0.559  0.00  0.00    -0.084 HD
ENDBRANCH   4  10
BRANCH   6  18
ATOM     18  S   UNL     1       3.405   0.510  -0.612  0.00  0.00    +0.065 S 
ATOM     19  O   UNL     1       3.870  -0.697  -1.292  0.00  0.00    -0.153 OA
ATOM     20  O   UNL     1       3.722   1.805  -1.210  0.00  0.00    -0.153 OA
BRANCH  18  21
ATOM     21  N   UNL     1       3.999   0.492   1.014  0.00  0.00    -0.153 NA
ATOM     22  C   UNL     1       3.549   1.579   1.920  0.00  0.00    +0.115 C 
ATOM     23  C   UNL     1       4.057  -0.820   1.707  0.00  0.00    +0.115 C 
ENDBRANCH  18  21
ENDBRANCH   6  18
TORSDOF 3
