13228402
  -OEChem-03292013303D

 59 62  0     1  0  0  0  0  0999 V2000
    0.6616   -0.3158    0.3126 O   0  0  0  0  0  0  0  0  0  0  0  0
    0.5123    1.7573    1.3324 O   0  0  0  0  0  0  0  0  0  0  0  0
    2.7482    0.6972    0.0622 O   0  0  0  0  0  0  0  0  0  0  0  0
    1.9406   -2.7879    0.8001 O   0  0  0  0  0  0  0  0  0  0  0  0
    4.5985   -2.9326   -0.4600 O   0  0  0  0  0  0  0  0  0  0  0  0
    6.1640   -0.5943    0.2677 O   0  0  0  0  0  0  0  0  0  0  0  0
    5.9741    2.0796   -0.0322 O   0  0  0  0  0  0  0  0  0  0  0  0
    3.9859    2.6756   -0.9742 O   0  0  0  0  0  0  0  0  0  0  0  0
   -3.4427    0.0508   -0.6703 C   0  0  1  0  0  0  0  0  0  0  0  0
   -3.6180    1.4027    0.0683 C   0  0  1  0  0  0  0  0  0  0  0  0
   -1.9811   -0.4260   -0.3813 C   0  0  1  0  0  0  0  0  0  0  0  0
   -4.5004   -0.8879   -0.0536 C   0  0  0  0  0  0  0  0  0  0  0  0
   -3.4725    0.1938   -2.2149 C   0  0  1  0  0  0  0  0  0  0  0  0
   -4.8125   -0.3371    1.3531 C   0  0  0  0  0  0  0  0  0  0  0  0
   -4.6615    1.1833    1.1708 C   0  0  0  0  0  0  0  0  0  0  0  0
   -1.3547   -0.7711   -1.7380 C   0  0  0  0  0  0  0  0  0  0  0  0
   -2.5337   -0.9113   -2.6879 C   0  0  0  0  0  0  0  0  0  0  0  0
   -1.3707    0.7471    0.3080 C   0  0  0  0  0  0  0  0  0  0  0  0
   -2.2433    1.7221    0.5717 C   0  0  0  0  0  0  0  0  0  0  0  0
   -4.8306    0.1362   -2.8968 C   0  0  0  0  0  0  0  0  0  0  0  0
   -3.8650   -0.8807    2.4326 C   0  0  0  0  0  0  0  0  0  0  0  0
   -6.2481   -0.6971    1.7669 C   0  0  0  0  0  0  0  0  0  0  0  0
    0.0221    0.8148    0.7180 C   0  0  0  0  0  0  0  0  0  0  0  0
    2.0472   -0.3987    0.6444 C   0  0  2  0  0  0  0  0  0  0  0  0
    2.5838   -1.7229    0.1003 C   0  0  1  0  0  0  0  0  0  0  0  0
    4.0966   -1.8291    0.2954 C   0  0  2  0  0  0  0  0  0  0  0  0
    4.8109   -0.5646   -0.1830 C   0  0  1  0  0  0  0  0  0  0  0  0
    4.1359    0.6813    0.3767 C   0  0  1  0  0  0  0  0  0  0  0  0
    4.6534    1.9152   -0.2890 C   0  0  0  0  0  0  0  0  0  0  0  0
   -3.9502    2.2048   -0.6009 H   0  0  0  0  0  0  0  0  0  0  0  0
   -1.9583   -1.3084    0.2681 H   0  0  0  0  0  0  0  0  0  0  0  0
   -5.4231   -0.8663   -0.6414 H   0  0  0  0  0  0  0  0  0  0  0  0
   -4.1710   -1.9327   -0.0280 H   0  0  0  0  0  0  0  0  0  0  0  0
   -3.0174    1.1577   -2.4872 H   0  0  0  0  0  0  0  0  0  0  0  0
   -4.4081    1.6951    2.1064 H   0  0  0  0  0  0  0  0  0  0  0  0
   -5.6115    1.6116    0.8244 H   0  0  0  0  0  0  0  0  0  0  0  0
   -0.7717   -1.6969   -1.6931 H   0  0  0  0  0  0  0  0  0  0  0  0
   -0.6855    0.0224   -2.0934 H   0  0  0  0  0  0  0  0  0  0  0  0
   -2.2315   -0.7849   -3.7320 H   0  0  0  0  0  0  0  0  0  0  0  0
   -2.9973   -1.8994   -2.5808 H   0  0  0  0  0  0  0  0  0  0  0  0
   -2.0108    2.6448    1.0855 H   0  0  0  0  0  0  0  0  0  0  0  0
   -5.2826   -0.8585   -2.8327 H   0  0  0  0  0  0  0  0  0  0  0  0
   -5.5200    0.8644   -2.4580 H   0  0  0  0  0  0  0  0  0  0  0  0
   -4.7282    0.3726   -3.9617 H   0  0  0  0  0  0  0  0  0  0  0  0
   -4.1506   -0.5075    3.4232 H   0  0  0  0  0  0  0  0  0  0  0  0
   -2.8252   -0.5905    2.2785 H   0  0  0  0  0  0  0  0  0  0  0  0
   -3.9014   -1.9753    2.4686 H   0  0  0  0  0  0  0  0  0  0  0  0
   -6.9808   -0.3330    1.0378 H   0  0  0  0  0  0  0  0  0  0  0  0
   -6.5018   -0.2541    2.7365 H   0  0  0  0  0  0  0  0  0  0  0  0
   -6.3730   -1.7828    1.8469 H   0  0  0  0  0  0  0  0  0  0  0  0
    2.1371   -0.3692    1.7391 H   0  0  0  0  0  0  0  0  0  0  0  0
    2.3254   -1.8325   -0.9602 H   0  0  0  0  0  0  0  0  0  0  0  0
    4.3296   -2.0417    1.3461 H   0  0  0  0  0  0  0  0  0  0  0  0
    4.8347   -0.5423   -1.2796 H   0  0  0  0  0  0  0  0  0  0  0  0
    4.2704    0.7955    1.4595 H   0  0  0  0  0  0  0  0  0  0  0  0
    2.3079   -3.6218    0.4603 H   0  0  0  0  0  0  0  0  0  0  0  0
    5.5605   -2.9665   -0.3216 H   0  0  0  0  0  0  0  0  0  0  0  0
    6.1575   -0.6141    1.2400 H   0  0  0  0  0  0  0  0  0  0  0  0
    6.3337    2.8844   -0.4625 H   0  0  0  0  0  0  0  0  0  0  0  0
  1 23  1  0  0  0  0
  1 24  1  0  0  0  0
  2 23  2  0  0  0  0
  3 24  1  0  0  0  0
  3 28  1  0  0  0  0
  4 25  1  0  0  0  0
  4 56  1  0  0  0  0
  5 26  1  0  0  0  0
  5 57  1  0  0  0  0
  6 27  1  0  0  0  0
  6 58  1  0  0  0  0
  7 29  1  0  0  0  0
  7 59  1  0  0  0  0
  8 29  2  0  0  0  0
  9 10  1  0  0  0  0
  9 11  1  0  0  0  0
  9 12  1  0  0  0  0
  9 13  1  0  0  0  0
 10 15  1  0  0  0  0
 10 19  1  0  0  0  0
 10 30  1  0  0  0  0
 11 16  1  0  0  0  0
 11 18  1  0  0  0  0
 11 31  1  0  0  0  0
 12 14  1  0  0  0  0
 12 32  1  0  0  0  0
 12 33  1  0  0  0  0
 13 17  1  0  0  0  0
 13 20  1  0  0  0  0
 13 34  1  0  0  0  0
 14 15  1  0  0  0  0
 14 21  1  0  0  0  0
 14 22  1  0  0  0  0
 15 35  1  0  0  0  0
 15 36  1  0  0  0  0
 16 17  1  0  0  0  0
 16 37  1  0  0  0  0
 16 38  1  0  0  0  0
 17 39  1  0  0  0  0
 17 40  1  0  0  0  0
 18 19  2  0  0  0  0
 18 23  1  0  0  0  0
 19 41  1  0  0  0  0
 20 42  1  0  0  0  0
 20 43  1  0  0  0  0
 20 44  1  0  0  0  0
 21 45  1  0  0  0  0
 21 46  1  0  0  0  0
 21 47  1  0  0  0  0
 22 48  1  0  0  0  0
 22 49  1  0  0  0  0
 22 50  1  0  0  0  0
 24 25  1  0  0  0  0
 24 51  1  0  0  0  0
 25 26  1  0  0  0  0
 25 52  1  0  0  0  0
 26 27  1  0  0  0  0
 26 53  1  0  0  0  0
 27 28  1  0  0  0  0
 27 54  1  0  0  0  0
 28 29  1  0  0  0  0
 28 55  1  0  0  0  0
M  END
> <PUBCHEM_COMPOUND_CID>
13228402

> <PUBCHEM_CONFORMER_RMSD>
0.8

> <PUBCHEM_CONFORMER_DIVERSEORDER>
1
193
178
77
169
60
17
197
67
170
207
144
94
97
111
141
159
120
147
209
32
160
149
188
4
76
206
125
30
203
101
180
27
107
189
29
114
100
138
123
191
139
109
133
201
62
18
124
8
195
148
161
59
43
108
116
185
52
49
13
190
199
129
187
71
174
118
127
99
7
20
113
115
166
85
177
176
68
134
172
36
54
167
165
150
40
39
80
66
90
163
98
106
151
157
75
73
70
6
86
155
183
50
158
84
200
79
156
83
162
112
175
16
164
143
132
145
173
117
82
146
23
31
110
89
65
171
55
74
186
15
104
33
153
137
135
128
93
182
35
2
44
56
208
53
10
87
37
126
202
11
28
168
38
41
198
22
88
130
64
154
194
78
81
192
179
136
205
92
63
25
46
121
57
34
142
51
21
204
12
45
91
152
14
102
140
122
96
58
95
184
24
69
19
131
105
42
61
196
119
103
5
47
3
72
26
9
48
181

> <PUBCHEM_MMFF94_PARTIAL_CHARGES>
24
1 -0.43
10 0.14
11 0.14
18 -0.12
19 -0.29
2 -0.57
23 0.71
24 0.56
25 0.28
26 0.28
27 0.28
28 0.34
29 0.66
3 -0.56
4 -0.68
41 0.15
5 -0.68
56 0.4
57 0.4
58 0.4
59 0.5
6 -0.68
7 -0.65
8 -0.57

> <PUBCHEM_EFFECTIVE_ROTOR_COUNT>
6.4

> <PUBCHEM_PHARMACOPHORE_FEATURES>
16
1 2 acceptor
1 3 acceptor
1 4 acceptor
1 4 donor
1 5 acceptor
1 5 donor
1 6 acceptor
1 6 donor
1 7 acceptor
1 8 acceptor
3 14 21 22 hydrophobe
3 7 8 29 anion
5 9 10 11 18 19 rings
5 9 10 12 14 15 rings
5 9 11 13 16 17 rings
6 3 24 25 26 27 28 rings

> <PUBCHEM_HEAVY_ATOM_COUNT>
29

> <PUBCHEM_ATOM_DEF_STEREO_COUNT>
9

> <PUBCHEM_ATOM_UDEF_STEREO_COUNT>
0

> <PUBCHEM_BOND_DEF_STEREO_COUNT>
0

> <PUBCHEM_BOND_UDEF_STEREO_COUNT>
0

> <PUBCHEM_ISOTOPIC_ATOM_COUNT>
0

> <PUBCHEM_COMPONENT_COUNT>
1

> <PUBCHEM_CACTVS_TAUTO_COUNT>
1

> <PUBCHEM_CONFORMER_ID>
00C9D97200000001

> <PUBCHEM_MMFF94_ENERGY>
92.2989

> <PUBCHEM_FEATURE_SELFOVERLAP>
82.059

> <PUBCHEM_SHAPE_FINGERPRINT>
10090160 65 18408880742209563160
10369192 42 17825401923098013116
11135926 11 18412821417874920764
11796584 16 14549024286365295756
12236239 1 18131070428990425840
12403259 415 17385722500185037900
12553582 1 18130212809598838563
12616971 3 18202280295220781518
12633257 1 16630524025157825841
12788726 201 17274836704873305905
13583140 156 18262515892960657909
13692114 37 13015776641096180559
13726171 33 16700902793968851224
13782708 43 17385445397211170490
14840074 17 18130793377619170213
14910302 57 16805604741900586043
15183329 4 17346880061295120028
15250474 111 17917697007691927998
15537594 2 18060140959161854481
15685185 35 17834124413509080516
15788980 27 18201716228317419864
15961568 22 15719969058552148876
17844677 252 18336837398330064200
19319366 153 18413384354569458606
19377110 9 18201433684231437272
19489759 90 14562521895049711509
20511986 3 18059274518699160628
21033648 144 17897157142990909500
21033648 29 16588015810669925028
21623969 137 18335147509288175058
22393880 68 16950557719050226314
235170 7 17458620082061776863
23522609 53 17559977547882770257
23557571 272 16588027887643058063
23559900 14 18187364298634459480
23598288 3 17987519212975717241
25147074 1 17346030195063390785
34797466 226 17530969115505959293
46194498 28 17458351891466444284
469060 322 16588581045335678555
474 4 18334009528102460972
497634 4 18040443178918751881
5104073 3 18338235955835689640
54039377 194 18058177137676227246
6913067 236 16226047824945684691
7226269 152 14908185214139527387

> <PUBCHEM_SHAPE_MULTIPOLES>
549.85
14.58
2.28
2.11
9.54
0.14
1.08
-0.24
-1.54
3.6
-0.08
-4.51
0.51
-1.01

> <PUBCHEM_SHAPE_SELFOVERLAP>
1184.651

> <PUBCHEM_SHAPE_VOLUME>
303.9

> <PUBCHEM_COORDINATE_TYPE>
2
5
10

$$$$
