REMARK  Name = 132277201
REMARK  11 active torsions:
REMARK  status: ('A' for Active; 'I' for Inactive)
REMARK    1  A    between atoms: C_3  and  C_14
REMARK    2  A    between atoms: C_4  and  C_23
REMARK    3  A    between atoms: C_5  and  O_12
REMARK    4  A    between atoms: C_14  and  C_15
REMARK    5  A    between atoms: C_15  and  C_16
REMARK    6  A    between atoms: C_15  and  O_21
REMARK    7  A    between atoms: C_16  and  O_19
REMARK    8  A    between atoms: C_23  and  C_24
REMARK    9  A    between atoms: C_24  and  C_25
REMARK   10  A    between atoms: C_24  and  O_30
REMARK   11  A    between atoms: C_25  and  O_28
REMARK                            x       y       z     vdW  Elec       q    Type
REMARK                         _______ _______ _______ _____ _____    ______ ____
ROOT
ATOM      1  O   UNL     1       2.632  -1.612   0.159  0.00  0.00    -0.421 OA
ATOM      2  O   UNL     1       4.303  -3.116  -0.279  0.00  0.00    -0.244 OA
ATOM      3  C   UNL     1       0.869  -0.051   0.614  0.00  0.00    +0.049 C 
ATOM      4  C   UNL     1      -1.438  -0.769   0.578  0.00  0.00    +0.014 C 
ATOM      5  C   UNL     1      -0.486   0.238   0.755  0.00  0.00    +0.134 C 
ATOM      6  C   UNL     1       1.253  -1.351   0.295  0.00  0.00    +0.148 C 
ATOM      7  C   UNL     1      -1.038  -2.070   0.258  0.00  0.00    +0.002 C 
ATOM      8  C   UNL     1       0.319  -2.368   0.114  0.00  0.00    +0.034 C 
ATOM      9  C   UNL     1       0.789  -3.702  -0.217  0.00  0.00    +0.010 C 
ATOM     10  C   UNL     1       2.097  -3.941  -0.344  0.00  0.00    +0.082 C 
ATOM     11  C   UNL     1       3.106  -2.881  -0.158  0.00  0.00    +0.346 C 
ENDROOT
BRANCH   5  12
ATOM     12  O   UNL     1      -0.886   1.504   1.067  0.00  0.00    -0.472 OA
ATOM     13  C   UNL     1      -1.007   1.821   2.451  0.00  0.00    +0.252 C 
ENDBRANCH   5  12
BRANCH   3  14
ATOM     14  C   UNL     1       1.893   1.020   0.802  0.00  0.00    +0.064 C 
BRANCH  14  15
ATOM     15  C   UNL     1       2.225   1.765  -0.509  0.00  0.00    +0.139 C 
BRANCH  15  16
ATOM     16  C   UNL     1       3.535   2.593  -0.482  0.00  0.00    +0.113 C 
ATOM     17  C   UNL     1       3.553   3.619   0.655  0.00  0.00    +0.032 C 
ATOM     18  C   UNL     1       3.836   3.283  -1.816  0.00  0.00    +0.032 C 
BRANCH  16  19
ATOM     19  O   UNL     1       4.619   1.682  -0.243  0.00  0.00    -0.384 OA
ATOM     20  H   UNL     1       4.472   1.218   0.596  0.00  0.00    +0.210 HD
ENDBRANCH  16  19
ENDBRANCH  15  16
BRANCH  15  21
ATOM     21  O   UNL     1       1.127   2.641  -0.793  0.00  0.00    -0.382 OA
ATOM     22  H   UNL     1       0.303   2.131  -0.811  0.00  0.00    +0.210 HD
ENDBRANCH  15  21
ENDBRANCH  14  15
ENDBRANCH   3  14
BRANCH   4  23
ATOM     23  C   UNL     1      -2.913  -0.470   0.728  0.00  0.00    +0.061 C 
BRANCH  23  24
ATOM     24  C   UNL     1      -3.554  -0.039  -0.601  0.00  0.00    +0.139 C 
BRANCH  24  25
ATOM     25  C   UNL     1      -4.929   0.660  -0.455  0.00  0.00    +0.113 C 
ATOM     26  C   UNL     1      -5.942  -0.198   0.308  0.00  0.00    +0.032 C 
ATOM     27  C   UNL     1      -5.521   1.103  -1.796  0.00  0.00    +0.032 C 
BRANCH  25  28
ATOM     28  O   UNL     1      -4.727   1.856   0.315  0.00  0.00    -0.384 OA
ATOM     29  H   UNL     1      -4.350   1.624   1.178  0.00  0.00    +0.210 HD
ENDBRANCH  25  28
ENDBRANCH  24  25
BRANCH  24  30
ATOM     30  O   UNL     1      -3.713  -1.215  -1.406  0.00  0.00    -0.382 OA
ATOM     31  H   UNL     1      -2.857  -1.659  -1.503  0.00  0.00    +0.210 HD
ENDBRANCH  24  30
ENDBRANCH  23  24
ENDBRANCH   4  23
TORSDOF 11
