REMARK  Name = 132283
REMARK  13 active torsions:
REMARK  status: ('A' for Active; 'I' for Inactive)
REMARK    1  A    between atoms: C_1  and  C_4
REMARK    2  A    between atoms: C_1  and  N_16
REMARK    3  A    between atoms: C_1  and  C_32
REMARK    4  A    between atoms: N_3  and  C_6
REMARK    5  A    between atoms: C_11  and  C_13
REMARK    6  A    between atoms: C_13  and  O_14
REMARK    7  A    between atoms: N_16  and  CA_19
REMARK    8  A    between atoms: CA_19  and  C_21
REMARK    9  A    between atoms: CA_19  and  C_24
REMARK   10  A    between atoms: C_21  and  O_22
REMARK   11  A    between atoms: C_24  and  C_25
REMARK   12  A    between atoms: C_25  and  C_26
REMARK   13  A    between atoms: C_32  and  C_33
REMARK                            x       y       z     vdW  Elec       q    Type
REMARK                         _______ _______ _______ _____ _____    ______ ____
ROOT
ATOM      1  C   UNL     1      -0.184  -2.086   0.174  0.00  0.00    +0.022 C 
ENDROOT
BRANCH   1   4
ATOM      2  O   UNL     1      -0.892  -0.537   1.882  0.00  0.00    -0.277 OA
ATOM      3  N   UNL     1      -1.399  -0.067  -0.360  0.00  0.00    -0.286 N 
ATOM      4  C   UNL     1      -0.871  -0.817   0.687  0.00  0.00    +0.206 C 
ATOM      5  H   UNL     1      -1.270  -0.432  -1.265  0.00  0.00    +0.155 HD
BRANCH   3   6
ATOM      6  C   UNL     1      -2.100   1.159  -0.276  0.00  0.00    +0.050 C 
ATOM      7  C   UNL     1      -2.554   1.762  -1.438  0.00  0.00    +0.015 C 
ATOM      8  C   UNL     1      -2.320   1.731   0.967  0.00  0.00    +0.015 C 
ATOM      9  C   UNL     1      -3.246   2.970  -1.355  0.00  0.00    +0.008 C 
ATOM     10  C   UNL     1      -3.012   2.939   1.050  0.00  0.00    +0.008 C 
ATOM     11  C   UNL     1      -3.475   3.559  -0.112  0.00  0.00    +0.076 C 
BRANCH  11  13
ATOM     12  O   UNL     1      -4.651   5.451  -0.984  0.00  0.00    -0.245 OA
ATOM     13  C   UNL     1      -4.197   4.818  -0.025  0.00  0.00    +0.338 C 
BRANCH  13  14
ATOM     14  O   UNL     1      -4.335   5.252   1.258  0.00  0.00    -0.477 OA
ATOM     15  H   UNL     1      -3.980   4.748   1.964  0.00  0.00    +0.295 HD
ENDBRANCH  13  14
ENDBRANCH  11  13
ENDBRANCH   3   6
ENDBRANCH   1   4
BRANCH   1  16
ATOM     16  N   UNL     1       1.230  -1.956   0.483  0.00  0.00    +0.399 N 
ATOM     17  H1  UNL     1       1.346  -1.866   1.492  0.00  0.00    -0.083 HD
ATOM     18  H2  UNL     1       1.718  -2.786   0.145  0.00  0.00    -0.083 HD
BRANCH  16  19
ATOM     19  CA  UNL     1       1.797  -0.775  -0.175  0.00  0.00    +0.041 C 
BRANCH  19  21
ATOM     20  OXT UNL     1       1.652  -2.052  -2.243  0.00  0.00    -0.253 OA
ATOM     21  C   UNL     1       1.612  -0.970  -1.670  0.00  0.00    +0.293 C 
BRANCH  21  22
ATOM     22  O   UNL     1       1.368   0.196  -2.320  0.00  0.00    -0.482 OA
ATOM     23  H   UNL     1       1.346   1.002  -1.843  0.00  0.00    +0.295 HD
ENDBRANCH  21  22
ENDBRANCH  19  21
BRANCH  19  24
ATOM     24  C   UNL     1       3.283  -0.658   0.189  0.00  0.00    -0.006 C 
BRANCH  24  25
ATOM     25  C   UNL     1       3.995   0.559  -0.423  0.00  0.00    +0.025 C 
BRANCH  25  26
ATOM     26  C   UNL     1       5.436   0.717  -0.004  0.00  0.00    -0.022 C 
ATOM     27  C   UNL     1       5.738   1.464   1.124  0.00  0.00    -0.004 C 
ATOM     28  C   UNL     1       6.432   0.114  -0.755  0.00  0.00    -0.004 C 
ATOM     29  C   UNL     1       7.070   1.610   1.511  0.00  0.00    -0.000 C 
ATOM     30  C   UNL     1       7.764   0.260  -0.368  0.00  0.00    -0.000 C 
ATOM     31  C   UNL     1       8.083   1.008   0.765  0.00  0.00    -0.000 C 
ENDBRANCH  25  26
ENDBRANCH  24  25
ENDBRANCH  19  24
ENDBRANCH  16  19
ENDBRANCH   1  16
BRANCH   1  32
ATOM     32  C   UNL     1      -0.771  -3.338   0.844  0.00  0.00    +0.014 C 
BRANCH  32  33
ATOM     33  C   UNL     1      -2.237  -3.537   0.540  0.00  0.00    -0.024 C 
ATOM     34  C   UNL     1      -3.186  -2.970   1.375  0.00  0.00    -0.004 C 
ATOM     35  C   UNL     1      -2.605  -4.283  -0.569  0.00  0.00    -0.004 C 
ATOM     36  C   UNL     1      -4.540  -3.154   1.094  0.00  0.00    -0.000 C 
ATOM     37  C   UNL     1      -3.959  -4.466  -0.849  0.00  0.00    -0.000 C 
ATOM     38  C   UNL     1      -4.926  -3.902  -0.018  0.00  0.00    -0.000 C 
ENDBRANCH  32  33
ENDBRANCH   1  32
TORSDOF 13
