REMARK  Name = 132246
REMARK  12 active torsions:
REMARK  status: ('A' for Active; 'I' for Inactive)
REMARK    1  A    between atoms: C_1  and  C_2
REMARK    2  A    between atoms: C_1  and  C_23
REMARK    3  A    between atoms: C_1  and  C_25
REMARK    4  A    between atoms: C_5  and  C_10
REMARK    5  A    between atoms: N_9  and  CA_12
REMARK    6  A    between atoms: CA_12  and  C_14
REMARK    7  A    between atoms: CA_12  and  CB_17
REMARK    8  A    between atoms: C_14  and  O_15
REMARK    9  A    between atoms: CB_17  and  CG_18
REMARK   10  A    between atoms: CG_18  and  CD_20
REMARK   11  A    between atoms: CD_20  and  OE1_21
REMARK   12  A    between atoms: C_25  and  C_31
REMARK                            x       y       z     vdW  Elec       q    Type
REMARK                         _______ _______ _______ _____ _____    ______ ____
ROOT
ATOM      1  C   UNL     1      -2.390   3.119   0.072  0.00  0.00    +0.027 C 
ENDROOT
BRANCH   1   2
ATOM      2  C   UNL     1      -0.940   2.775   0.139  0.00  0.00    -0.022 C 
ATOM      3  C   UNL     1      -0.299   2.233  -0.975  0.00  0.00    -0.004 C 
ATOM      4  C   UNL     1      -0.226   2.997   1.316  0.00  0.00    -0.004 C 
ATOM      5  C   UNL     1       1.772   2.134   0.265  0.00  0.00    +0.053 C 
ATOM      6  C   UNL     1       1.057   1.913  -0.912  0.00  0.00    +0.004 C 
ATOM      7  C   UNL     1       1.131   2.676   1.379  0.00  0.00    +0.004 C 
BRANCH   5  10
ATOM      8  O   UNL     1       3.937   2.391   1.127  0.00  0.00    -0.270 OA
ATOM      9  N   UNL     1       3.642   0.780  -0.516  0.00  0.00    -0.293 N 
ATOM     10  C   ACE A   0       3.216   1.793   0.333  0.00  0.00    +0.246 C 
ATOM     11  H   UNL     1       2.986   0.361  -1.118  0.00  0.00    +0.150 HD
BRANCH   9  12
ATOM     12  CA  UNL     1       5.007   0.319  -0.549  0.00  0.00    +0.172 C 
BRANCH  12  14
ATOM     13  OXT UNL     1       4.525  -0.081  -2.902  0.00  0.00    -0.248 OA
ATOM     14  C   UNL     1       5.332  -0.048  -1.982  0.00  0.00    +0.332 C 
BRANCH  14  15
ATOM     15  O   UNL     1       6.655  -0.305  -2.152  0.00  0.00    -0.479 OA
ATOM     16  H   UNL     1       7.238  -0.268  -1.419  0.00  0.00    +0.295 HD
ENDBRANCH  14  15
ENDBRANCH  12  14
BRANCH  12  17
ATOM     17  CB  UNL     1       5.276  -0.808   0.455  0.00  0.00    +0.043 C 
BRANCH  17  18
ATOM     18  CG  UNL     1       4.484  -2.103   0.233  0.00  0.00    +0.112 C 
BRANCH  18  20
ATOM     19  OE2 UNL     1       5.552  -3.075   2.196  0.00  0.00    -0.250 OA
ATOM     20  CD  UNL     1       4.776  -3.180   1.256  0.00  0.00    +0.314 C 
BRANCH  20  21
ATOM     21  OE1 UNL     1       4.093  -4.323   0.988  0.00  0.00    -0.480 OA
ATOM     22  HE1 UNL     1       3.508  -4.359   0.257  0.00  0.00    +0.295 HD
ENDBRANCH  20  21
ENDBRANCH  18  20
ENDBRANCH  17  18
ENDBRANCH  12  17
ENDBRANCH   9  12
ENDBRANCH   5  10
ENDBRANCH   1   2
BRANCH   1  23
ATOM     23  C   UNL     1      -2.676   4.637   0.274  0.00  0.00    +0.005 C 
ATOM     24  C   UNL     1      -1.998   5.510  -0.775  0.00  0.00    +0.000 C 
ENDBRANCH   1  23
BRANCH   1  25
ATOM     25  C   UNL     1      -3.249   2.312   1.094  0.00  0.00    +0.032 C 
BRANCH  25  31
ATOM     26  N   UNL     1      -2.072  -1.269   1.383  0.00  0.00    -0.182 NA
ATOM     27  N   UNL     1      -2.790  -3.261   0.445  0.00  0.00    -0.273 NA
ATOM     28  N   UNL     1      -4.662  -3.337  -1.067  0.00  0.00    -0.312 NA
ATOM     29  N   UNL     1      -5.821  -1.407  -1.642  0.00  0.00    -0.332 N 
ATOM     30  N   UNL     1      -3.504  -5.290  -0.494  0.00  0.00    -0.283 N 
ATOM     31  C   UNL     1      -3.179   0.818   0.876  0.00  0.00    -0.005 C 
ATOM     32  C   UNL     1      -4.056   0.136   0.051  0.00  0.00    -0.010 C 
ATOM     33  C   UNL     1      -3.928  -1.252  -0.100  0.00  0.00    +0.115 C 
ATOM     34  C   UNL     1      -2.211   0.072   1.516  0.00  0.00    +0.106 C 
ATOM     35  C   UNL     1      -5.102   0.961  -0.636  0.00  0.00    +0.032 C 
ATOM     36  C   UNL     1      -2.917  -1.936   0.585  0.00  0.00    +0.104 C 
ATOM     37  C   UNL     1      -4.771  -2.007  -0.912  0.00  0.00    +0.201 C 
ATOM     38  C   UNL     1      -3.662  -3.892  -0.368  0.00  0.00    +0.206 C 
ATOM     39  H   UNL     1      -6.405  -1.961  -2.210  0.00  0.00    +0.145 HD
ATOM     40  H   UNL     1      -5.969  -0.436  -1.583  0.00  0.00    +0.145 HD
ATOM     41  H   UNL     1      -2.785  -5.750  -0.003  0.00  0.00    +0.156 HD
ATOM     42  H   UNL     1      -4.112  -5.804  -1.074  0.00  0.00    +0.156 HD
ENDBRANCH  25  31
ENDBRANCH   1  25
TORSDOF 12
