REMARK  Name = 132274385
REMARK  3 active torsions:
REMARK  status: ('A' for Active; 'I' for Inactive)
REMARK    1  A    between atoms: N_3  and  C_17
REMARK    2  A    between atoms: C_17  and  C_21
REMARK    3  A    between atoms: C_22  and  C_23
REMARK                            x       y       z     vdW  Elec       q    Type
REMARK                         _______ _______ _______ _____ _____    ______ ____
ROOT
ATOM      1  O   UNL     1      -2.243   2.006  -1.494  0.00  0.00    -0.272 OA
ATOM      2  O   UNL     1      -5.821   1.206   1.435  0.00  0.00    -0.252 OA
ATOM      3  N   UNL     1      -1.357  -0.777  -0.811  0.00  0.00    -0.249 N 
ATOM      4  N   UNL     1      -4.263  -0.487   1.123  0.00  0.00    -0.218 N 
ATOM      5  N   UNL     1      -4.041   1.629  -0.035  0.00  0.00    -0.210 N 
ATOM      6  N   UNL     1      -2.471  -2.091   0.603  0.00  0.00    -0.360 NA
ATOM      7  N   UNL     1      -0.465  -2.922  -0.434  0.00  0.00    -0.268 N 
ATOM      8  C   UNL     1      -2.434  -0.054  -0.385  0.00  0.00    +0.222 C 
ATOM      9  C   UNL     1      -3.098  -0.881   0.479  0.00  0.00    +0.197 C 
ATOM     10  C   UNL     1      -1.423  -1.996  -0.189  0.00  0.00    +0.244 C 
ATOM     11  C   UNL     1      -2.848   1.272  -0.716  0.00  0.00    +0.259 C 
ATOM     12  C   UNL     1      -4.788   0.808   0.886  0.00  0.00    +0.318 C 
ATOM     13  C   UNL     1      -4.934  -1.406   2.034  0.00  0.00    +0.124 C 
ATOM     14  C   UNL     1      -4.546   2.971  -0.309  0.00  0.00    +0.124 C 
ATOM     15  C   UNL     1       0.774  -3.009   0.368  0.00  0.00    +0.116 C 
ATOM     16  C   UNL     1      -0.584  -3.910  -1.528  0.00  0.00    +0.116 C 
ENDROOT
BRANCH   3  17
ATOM     17  C   UNL     1      -0.342  -0.336  -1.742  0.00  0.00    +0.182 C 
BRANCH  17  21
ATOM     18  O   UNL     1       1.885   0.044  -0.801  0.00  0.00    -0.418 OA
ATOM     19  N   UNL     1       0.583   1.863  -0.832  0.00  0.00    -0.110 NA
ATOM     20  N   UNL     1       1.800   2.218  -0.281  0.00  0.00    -0.107 NA
ATOM     21  C   UNL     1       0.678   0.587  -1.121  0.00  0.00    +0.247 A 
ATOM     22  C   UNL     1       2.528   1.125  -0.282  0.00  0.00    +0.250 A 
BRANCH  22  23
ATOM     23  C   UNL     1       3.870   0.900   0.169  0.00  0.00    +0.055 C 
ATOM     24  C   UNL     1       4.439  -0.369   0.062  0.00  0.00    +0.000 C 
ATOM     25  C   UNL     1       4.608   1.950   0.715  0.00  0.00    +0.005 C 
ATOM     26  C   UNL     1       5.745  -0.588   0.500  0.00  0.00    -0.022 C 
ATOM     27  C   UNL     1       5.914   1.732   1.154  0.00  0.00    -0.000 C 
ATOM     28  C   UNL     1       6.482   0.462   1.046  0.00  0.00    -0.004 C 
ATOM     29  C   UNL     1       6.353  -1.945   0.386  0.00  0.00    +0.031 C 
ENDBRANCH  22  23
ENDBRANCH  17  21
ENDBRANCH   3  17
TORSDOF 3
