REMARK  Name = 132221
REMARK  9 active torsions:
REMARK  status: ('A' for Active; 'I' for Inactive)
REMARK    1  A    between atoms: C_1  and  C_4
REMARK    2  A    between atoms: C_1  and  O_9
REMARK    3  A    between atoms: C_1  and  C_12
REMARK    4  A    between atoms: C_1  and  C_15
REMARK    5  A    between atoms: C_4  and  C_6
REMARK    6  A    between atoms: C_6  and  O_7
REMARK    7  A    between atoms: C_12  and  O_13
REMARK    8  A    between atoms: C_15  and  C_17
REMARK    9  A    between atoms: C_17  and  O_18
REMARK                            x       y       z     vdW  Elec       q    Type
REMARK                         _______ _______ _______ _____ _____    ______ ____
ROOT
ATOM      1  C   UNL     1       0.099  -0.256  -0.202  0.00  0.00    +0.255 C 
ENDROOT
BRANCH   1   4
ATOM      2  F   UNL     1      -1.454  -0.591   1.559  0.00  0.00    -0.189 F 
ATOM      3  F   UNL     1      -1.992  -1.345  -0.406  0.00  0.00    -0.189 F 
ATOM      4  C   UNL     1      -1.381  -0.304   0.229  0.00  0.00    +0.382 C 
BRANCH   4   6
ATOM      5  O   UNL     1      -2.204   1.916   0.733  0.00  0.00    -0.244 OA
ATOM      6  C   UNL     1      -2.123   0.983  -0.055  0.00  0.00    +0.379 C 
BRANCH   6   7
ATOM      7  O   UNL     1      -2.682   0.997  -1.290  0.00  0.00    -0.476 OA
ATOM      8  H   UNL     1      -2.590   0.255  -1.854  0.00  0.00    +0.295 HD
ENDBRANCH   6   7
ENDBRANCH   4   6
ENDBRANCH   1   4
BRANCH   1   9
ATOM      9  O   UNL     1       0.124  -0.131  -1.625  0.00  0.00    -0.372 OA
ATOM     10  H   UNL     1      -0.283   0.711  -1.883  0.00  0.00    +0.211 HD
ENDBRANCH   1   9
BRANCH   1  12
ATOM     11  O   UNL     1       1.194  -2.385  -0.698  0.00  0.00    -0.247 OA
ATOM     12  C   UNL     1       0.752  -1.596   0.126  0.00  0.00    +0.345 C 
BRANCH  12  13
ATOM     13  O   UNL     1       0.779  -1.826   1.463  0.00  0.00    -0.478 OA
ATOM     14  H   UNL     1       0.428  -1.191   2.055  0.00  0.00    +0.295 HD
ENDBRANCH  12  13
ENDBRANCH   1  12
BRANCH   1  15
ATOM     15  C   UNL     1       0.846   0.936   0.427  0.00  0.00    +0.153 C 
BRANCH  15  17
ATOM     16  O   UNL     1       2.866   0.368  -0.824  0.00  0.00    -0.250 OA
ATOM     17  C   UNL     1       2.291   1.083  -0.016  0.00  0.00    +0.317 C 
BRANCH  17  18
ATOM     18  O   UNL     1       2.885   2.151   0.579  0.00  0.00    -0.480 OA
ATOM     19  H   UNL     1       2.407   2.673   1.193  0.00  0.00    +0.295 HD
ENDBRANCH  17  18
ENDBRANCH  15  17
ENDBRANCH   1  15
TORSDOF 9
