REMARK  Name = 132261
REMARK  11 active torsions:
REMARK  status: ('A' for Active; 'I' for Inactive)
REMARK    1  A    between atoms: C_1  and  C_4
REMARK    2  A    between atoms: C_1  and  O_15
REMARK    3  A    between atoms: C_1  and  C_17
REMARK    4  A    between atoms: N_3  and  CA_6
REMARK    5  A    between atoms: CA_6  and  C_8
REMARK    6  A    between atoms: CA_6  and  CB_11
REMARK    7  A    between atoms: C_8  and  O_9
REMARK    8  A    between atoms: CB_11  and  CG_12
REMARK    9  A    between atoms: C_17  and  N_18
REMARK   10  A    between atoms: C_17  and  C_22
REMARK   11  A    between atoms: C_22  and  C_23
REMARK                            x       y       z     vdW  Elec       q    Type
REMARK                         _______ _______ _______ _____ _____    ______ ____
ROOT
ATOM      1  C   UNL     1       1.185  -1.818  -0.733  0.00  0.00    +0.167 C 
ENDROOT
BRANCH   1   4
ATOM      2  O   UNL     1       3.253  -2.136   0.482  0.00  0.00    -0.273 OA
ATOM      3  N   UNL     1       2.643   0.023  -0.114  0.00  0.00    -0.295 N 
ATOM      4  C   ACE A   0       2.474  -1.355  -0.060  0.00  0.00    +0.248 C 
ATOM      5  H   UNL     1       1.960   0.563  -0.574  0.00  0.00    +0.150 HD
BRANCH   3   6
ATOM      6  CA  UNL     1       3.772   0.695   0.473  0.00  0.00    +0.171 C 
BRANCH   6   8
ATOM      7  OXT UNL     1       4.488   1.433   2.664  0.00  0.00    -0.248 OA
ATOM      8  C   UNL     1       3.595   0.978   1.957  0.00  0.00    +0.332 C 
BRANCH   8   9
ATOM      9  O   UNL     1       2.383   0.635   2.454  0.00  0.00    -0.479 OA
ATOM     10  H   UNL     1       1.724   0.290   1.884  0.00  0.00    +0.295 HD
ENDBRANCH   8   9
ENDBRANCH   6   8
BRANCH   6  11
ATOM     11  CB  UNL     1       4.191   1.938  -0.327  0.00  0.00    +0.031 C 
BRANCH  11  12
ATOM     12  CG  UNL     1       4.870   1.715  -1.697  0.00  0.00    +0.002 C 
ATOM     13  CD1 UNL     1       3.983   1.007  -2.718  0.00  0.00    +0.000 C 
ATOM     14  CD2 UNL     1       6.159   0.908  -1.496  0.00  0.00    +0.000 C 
ENDBRANCH  11  12
ENDBRANCH   6  11
ENDBRANCH   3   6
ENDBRANCH   1   4
BRANCH   1  15
ATOM     15  O   UNL     1       1.127  -3.236  -0.672  0.00  0.00    -0.377 OA
ATOM     16  H   UNL     1       0.312  -3.545  -1.096  0.00  0.00    +0.211 HD
ENDBRANCH   1  15
BRANCH   1  17
ATOM     17  C   UNL     1      -0.064  -1.206  -0.063  0.00  0.00    -0.025 C 
BRANCH  17  18
ATOM     18  N   UNL     1      -0.029  -1.548   1.366  0.00  0.00    +0.384 N 
ATOM     19  H   UNL     1       0.844  -1.216   1.774  0.00  0.00    -0.089 HD
ATOM     20  H   UNL     1      -0.093  -2.560   1.475  0.00  0.00    -0.089 HD
ATOM     21  H   UNL     1      -0.816  -1.105   1.840  0.00  0.00    -0.089 HD
ENDBRANCH  17  18
BRANCH  17  22
ATOM     22  C   UNL     1      -1.381  -1.699  -0.704  0.00  0.00    +0.007 C 
BRANCH  22  23
ATOM     23  C   UNL     1      -2.568  -0.818  -0.396  0.00  0.00    -0.024 C 
ATOM     24  C   UNL     1      -3.349  -1.069   0.733  0.00  0.00    -0.004 C 
ATOM     25  C   UNL     1      -2.883   0.248  -1.239  0.00  0.00    -0.004 C 
ATOM     26  C   UNL     1      -4.445  -0.255   1.018  0.00  0.00    -0.000 C 
ATOM     27  C   UNL     1      -3.979   1.062  -0.954  0.00  0.00    -0.000 C 
ATOM     28  C   UNL     1      -4.760   0.811   0.174  0.00  0.00    -0.000 C 
ENDBRANCH  22  23
ENDBRANCH  17  22
ENDBRANCH   1  17
TORSDOF 11
REMARK  Name = 132261
REMARK  11 active torsions:
REMARK  status: ('A' for Active; 'I' for Inactive)
REMARK    1  A    between atoms: C_1  and  C_4
REMARK    2  A    between atoms: C_1  and  O_15
REMARK    3  A    between atoms: C_1  and  C_17
REMARK    4  A    between atoms: N_3  and  CA_6
REMARK    5  A    between atoms: CA_6  and  C_8
REMARK    6  A    between atoms: CA_6  and  CB_11
REMARK    7  A    between atoms: C_8  and  O_9
REMARK    8  A    between atoms: CB_11  and  CG_12
REMARK    9  A    between atoms: C_17  and  N_18
REMARK   10  A    between atoms: C_17  and  C_22
REMARK   11  A    between atoms: C_22  and  C_23
REMARK                            x       y       z     vdW  Elec       q    Type
REMARK                         _______ _______ _______ _____ _____    ______ ____
ROOT
ATOM      1  N   UNL     1      -6.918   1.215  -0.066  0.00  0.00    +0.000 NA
ATOM      2  N   UNL     1      -7.887   0.845  -0.542  0.00  0.00    +0.000 NA
ENDROOT
TORSDOF 0
