132277201
  -OEChem-03292013293D

 55 56  0     1  0  0  0  0  0999 V2000
    1.1272    2.6411   -0.7929 O   0  0  0  0  0  0  0  0  0  0  0  0
   -3.7132   -1.2146   -1.4061 O   0  0  0  0  0  0  0  0  0  0  0  0
    4.6190    1.6816   -0.2430 O   0  0  0  0  0  0  0  0  0  0  0  0
   -4.7268    1.8557    0.3147 O   0  0  0  0  0  0  0  0  0  0  0  0
   -0.8864    1.5042    1.0668 O   0  0  0  0  0  0  0  0  0  0  0  0
    2.6318   -1.6124    0.1591 O   0  0  0  0  0  0  0  0  0  0  0  0
    4.3027   -3.1163   -0.2788 O   0  0  0  0  0  0  0  0  0  0  0  0
    2.2255    1.7648   -0.5090 C   0  0  2  0  0  0  0  0  0  0  0  0
   -3.5536   -0.0394   -0.6011 C   0  0  2  0  0  0  0  0  0  0  0  0
    1.8932    1.0201    0.8023 C   0  0  0  0  0  0  0  0  0  0  0  0
    3.5351    2.5929   -0.4825 C   0  0  0  0  0  0  0  0  0  0  0  0
   -2.9134   -0.4704    0.7279 C   0  0  0  0  0  0  0  0  0  0  0  0
   -4.9286    0.6604   -0.4552 C   0  0  0  0  0  0  0  0  0  0  0  0
    0.8692   -0.0507    0.6140 C   0  0  0  0  0  0  0  0  0  0  0  0
   -1.4382   -0.7691    0.5775 C   0  0  0  0  0  0  0  0  0  0  0  0
   -0.4864    0.2378    0.7548 C   0  0  0  0  0  0  0  0  0  0  0  0
    1.2530   -1.3515    0.2950 C   0  0  0  0  0  0  0  0  0  0  0  0
   -1.0385   -2.0700    0.2578 C   0  0  0  0  0  0  0  0  0  0  0  0
    0.3185   -2.3678    0.1144 C   0  0  0  0  0  0  0  0  0  0  0  0
    3.5531    3.6192    0.6547 C   0  0  0  0  0  0  0  0  0  0  0  0
    3.8356    3.2828   -1.8158 C   0  0  0  0  0  0  0  0  0  0  0  0
   -5.9417   -0.1984    0.3081 C   0  0  0  0  0  0  0  0  0  0  0  0
   -5.5215    1.1031   -1.7956 C   0  0  0  0  0  0  0  0  0  0  0  0
    0.7890   -3.7019   -0.2169 C   0  0  0  0  0  0  0  0  0  0  0  0
    2.0966   -3.9407   -0.3442 C   0  0  0  0  0  0  0  0  0  0  0  0
    3.1055   -2.8815   -0.1575 C   0  0  0  0  0  0  0  0  0  0  0  0
   -1.0069    1.8209    2.4514 C   0  0  0  0  0  0  0  0  0  0  0  0
    2.2892    1.0408   -1.3311 H   0  0  0  0  0  0  0  0  0  0  0  0
   -2.8734    0.6364   -1.1346 H   0  0  0  0  0  0  0  0  0  0  0  0
    1.5638    1.7266    1.5713 H   0  0  0  0  0  0  0  0  0  0  0  0
    2.8041    0.5727    1.2185 H   0  0  0  0  0  0  0  0  0  0  0  0
   -3.4055   -1.3704    1.1203 H   0  0  0  0  0  0  0  0  0  0  0  0
   -3.0572    0.2950    1.4960 H   0  0  0  0  0  0  0  0  0  0  0  0
   -1.7841   -2.8502    0.1210 H   0  0  0  0  0  0  0  0  0  0  0  0
    2.7535    4.3592    0.5549 H   0  0  0  0  0  0  0  0  0  0  0  0
    3.0709    4.0238   -2.0693 H   0  0  0  0  0  0  0  0  0  0  0  0
    4.8085    3.7871   -1.7912 H   0  0  0  0  0  0  0  0  0  0  0  0
    3.8885    2.5481   -2.6273 H   0  0  0  0  0  0  0  0  0  0  0  0
    4.5075    4.1593    0.6727 H   0  0  0  0  0  0  0  0  0  0  0  0
    3.4684    3.1368    1.6341 H   0  0  0  0  0  0  0  0  0  0  0  0
   -4.8298    1.7706   -2.3220 H   0  0  0  0  0  0  0  0  0  0  0  0
   -6.4488    1.6696   -1.6515 H   0  0  0  0  0  0  0  0  0  0  0  0
   -5.5958   -0.4254    1.3220 H   0  0  0  0  0  0  0  0  0  0  0  0
   -6.1597   -1.1374   -0.2094 H   0  0  0  0  0  0  0  0  0  0  0  0
   -6.8886    0.3408    0.4330 H   0  0  0  0  0  0  0  0  0  0  0  0
   -5.7384    0.2485   -2.4441 H   0  0  0  0  0  0  0  0  0  0  0  0
    0.9699    3.1999   -0.0136 H   0  0  0  0  0  0  0  0  0  0  0  0
   -4.2124   -1.8733   -0.8952 H   0  0  0  0  0  0  0  0  0  0  0  0
    5.4445    2.1943   -0.2064 H   0  0  0  0  0  0  0  0  0  0  0  0
   -5.5878    2.2935    0.4277 H   0  0  0  0  0  0  0  0  0  0  0  0
    0.0643   -4.4959   -0.3586 H   0  0  0  0  0  0  0  0  0  0  0  0
    2.4554   -4.9339   -0.5915 H   0  0  0  0  0  0  0  0  0  0  0  0
   -0.3473    2.6633    2.6781 H   0  0  0  0  0  0  0  0  0  0  0  0
   -0.7487    0.9781    3.1023 H   0  0  0  0  0  0  0  0  0  0  0  0
   -2.0369    2.1275    2.6542 H   0  0  0  0  0  0  0  0  0  0  0  0
  1  8  1  0  0  0  0
  1 47  1  0  0  0  0
  2  9  1  0  0  0  0
  2 48  1  0  0  0  0
  3 11  1  0  0  0  0
  3 49  1  0  0  0  0
  4 13  1  0  0  0  0
  4 50  1  0  0  0  0
  5 16  1  0  0  0  0
  5 27  1  0  0  0  0
  6 17  1  0  0  0  0
  6 26  1  0  0  0  0
  7 26  2  0  0  0  0
  8 10  1  0  0  0  0
  8 11  1  0  0  0  0
  8 28  1  0  0  0  0
  9 12  1  0  0  0  0
  9 13  1  0  0  0  0
  9 29  1  0  0  0  0
 10 14  1  0  0  0  0
 10 30  1  0  0  0  0
 10 31  1  0  0  0  0
 11 20  1  0  0  0  0
 11 21  1  0  0  0  0
 12 15  1  0  0  0  0
 12 32  1  0  0  0  0
 12 33  1  0  0  0  0
 13 22  1  0  0  0  0
 13 23  1  0  0  0  0
 14 16  1  0  0  0  0
 14 17  2  0  0  0  0
 15 16  2  0  0  0  0
 15 18  1  0  0  0  0
 17 19  1  0  0  0  0
 18 19  2  0  0  0  0
 18 34  1  0  0  0  0
 19 24  1  0  0  0  0
 20 35  1  0  0  0  0
 20 39  1  0  0  0  0
 20 40  1  0  0  0  0
 21 36  1  0  0  0  0
 21 37  1  0  0  0  0
 21 38  1  0  0  0  0
 22 43  1  0  0  0  0
 22 44  1  0  0  0  0
 22 45  1  0  0  0  0
 23 41  1  0  0  0  0
 23 42  1  0  0  0  0
 23 46  1  0  0  0  0
 24 25  2  0  0  0  0
 24 51  1  0  0  0  0
 25 26  1  0  0  0  0
 25 52  1  0  0  0  0
 27 53  1  0  0  0  0
 27 54  1  0  0  0  0
 27 55  1  0  0  0  0
M  END
> <PUBCHEM_COMPOUND_CID>
132277201

> <PUBCHEM_CONFORMER_RMSD>
1

> <PUBCHEM_CONFORMER_DIVERSEORDER>
1
162
137
128
126
153
166
109
171
103
20
134
127
186
176
168
156
14
62
121
70
150
144
136
72
169
22
56
165
160
58
161
141
91
106
73
79
174
42
155
188
146
76
159
129
39
43
154
113
90
53
177
148
164
110
51
47
185
120
77
87
68
132
92
101
45
46
40
95
140
133
151
10
180
130
100
97
175
125
173
57
88
49
83
131
54
33
64
163
170
85
104
84
30
15
89
50
12
142
152
143
116
81
36
66
67
123
78
80
187
124
114
5
86
65
26
182
59
135
157
183
99
96
48
167
21
4
147
19
61
52
98
75
16
94
27
158
138
60
38
34
181
31
107
71
8
29
172
69
63
115
184
139
93
74
25
2
119
102
6
32
111
24
18
145
105
7
149
41
44
117
13
17
28
118
178
108
23
112
37
122
179
35
9
82
11
55
3

> <PUBCHEM_MMFF94_PARTIAL_CHARGES>
30
1 -0.68
10 0.14
11 0.28
12 0.14
13 0.28
14 -0.14
15 -0.14
16 0.08
17 0.08
18 -0.15
19 0.03
2 -0.68
24 -0.18
25 -0.14
26 0.71
27 0.28
3 -0.68
34 0.15
4 -0.68
47 0.4
48 0.4
49 0.4
5 -0.36
50 0.4
51 0.15
52 0.15
6 -0.23
7 -0.57
8 0.28
9 0.28

> <PUBCHEM_EFFECTIVE_ROTOR_COUNT>
7

> <PUBCHEM_PHARMACOPHORE_FEATURES>
14
1 1 acceptor
1 1 donor
1 2 acceptor
1 2 donor
1 3 acceptor
1 3 donor
1 4 acceptor
1 4 donor
1 5 acceptor
1 7 acceptor
3 11 20 21 hydrophobe
3 13 22 23 hydrophobe
6 14 15 16 17 18 19 rings
6 6 17 19 24 25 26 rings

> <PUBCHEM_HEAVY_ATOM_COUNT>
27

> <PUBCHEM_ATOM_DEF_STEREO_COUNT>
0

> <PUBCHEM_ATOM_UDEF_STEREO_COUNT>
2

> <PUBCHEM_BOND_DEF_STEREO_COUNT>
0

> <PUBCHEM_BOND_UDEF_STEREO_COUNT>
0

> <PUBCHEM_ISOTOPIC_ATOM_COUNT>
0

> <PUBCHEM_COMPONENT_COUNT>
1

> <PUBCHEM_CACTVS_TAUTO_COUNT>
2

> <PUBCHEM_CONFORMER_ID>
07E263D100000001

> <PUBCHEM_MMFF94_ENERGY>
97.659

> <PUBCHEM_FEATURE_SELFOVERLAP>
71.078

> <PUBCHEM_SHAPE_FINGERPRINT>
10190108 129 17763475306898681883
10411042 1 17906171750489606018
105312 117 18118403084122844660
11045515 52 17831021225814894774
11135609 187 18410577288651598088
11578080 2 16879665676014765738
11582403 64 16196739337722436344
11763715 3 16844737400015168402
11796584 16 13326583968764848765
12173636 292 17834112327010816206
12293681 160 17916312799561237112
12422481 6 17897414333921783096
12730499 353 18337680818628109155
12788726 201 17203338762981909529
133893 2 18193020178121438240
13590594 115 17976829683320250905
13690498 29 16830957027564159598
138480 1 18266460897573215282
13911987 19 18122080942060137497
140371 6 18269844111911068907
14068700 675 17986661580920702394
14117953 113 18410007711974901214
14508225 48 17979074881996185318
14713325 29 17754462575108118731
14955137 171 17548463273623091018
15163728 17 17970082229652959228
15439362 3 18408039606660358244
16087824 20 17258781417574606793
167882 2 18408326605334055614
16988056 13 18191573160521392900
17492 54 18190481406306127614
17913733 40 18267883841918991227
17980427 26 17558238142173461081
18785283 64 18334011687759055782
19591789 44 17475524253021581251
19784866 34 18269555099535330825
20612939 158 18411415073530297655
20642791 105 17906726261200490754
21033648 29 17981604080762748240
23114952 82 18335415738575006637
23559900 14 18412258406943099082
24771293 8 18200585875184015738
25147074 1 17916881101497317017
266924 1 18059023791060909009
3298306 158 18268996556080958134
38695281 34 18338797926462570622
394222 165 18114733936469061490
4017518 198 18201161053399777014
46194498 28 18262504902513809743
474 4 18408598171773741659
5081480 168 18263079912287064157
6287921 2 18260267434742422557
7471813 234 17916573229382397331
9981440 41 18194114355257525114

> <PUBCHEM_SHAPE_MULTIPOLES>
514.56
10.26
5.02
1.38
12.01
2.37
0.12
-5.9
-3.88
-8.14
-0.9
0.63
-1.14
-0.39

> <PUBCHEM_SHAPE_SELFOVERLAP>
1074.803

> <PUBCHEM_SHAPE_VOLUME>
294.2

> <PUBCHEM_COORDINATE_TYPE>
2
5
10

$$$$
