REMARK  Name = 132293
REMARK  12 active torsions:
REMARK  status: ('A' for Active; 'I' for Inactive)
REMARK    1  A    between atoms: N_1  and  S_3
REMARK    2  A    between atoms: N_1  and  C_16
REMARK    3  A    between atoms: S_3  and  C_6
REMARK    4  A    between atoms: C_16  and  C_18
REMARK    5  A    between atoms: C_16  and  C_19
REMARK    6  A    between atoms: C_19  and  O_20
REMARK    7  A    between atoms: C_19  and  C_22
REMARK    8  A    between atoms: C_22  and  O_23
REMARK    9  A    between atoms: C_22  and  C_25
REMARK   10  A    between atoms: C_25  and  O_26
REMARK   11  A    between atoms: C_25  and  C_28
REMARK   12  A    between atoms: C_28  and  O_29
REMARK                            x       y       z     vdW  Elec       q    Type
REMARK                         _______ _______ _______ _____ _____    ______ ____
ROOT
ATOM      1  N   UNL     1       2.413   0.658   0.661  0.00  0.00    -0.171 NA
ATOM      2  H   UNL     1       1.753   0.095   1.197  0.00  0.00    +0.149 HD
ENDROOT
BRANCH   1   3
ATOM      3  S   UNL     1       1.860   2.263   0.732  0.00  0.00    +0.061 S 
ATOM      4  O   UNL     1       2.702   3.100  -0.102  0.00  0.00    -0.153 OA
ATOM      5  O   UNL     1       1.626   2.616   2.119  0.00  0.00    -0.153 OA
BRANCH   3   6
ATOM      6  C   UNL     1       0.277   2.138  -0.043  0.00  0.00    +0.122 C 
ATOM      7  C   UNL     1      -0.805   1.486   0.559  0.00  0.00    +0.019 C 
ATOM      8  C   UNL     1      -2.040   1.431  -0.129  0.00  0.00    +0.001 C 
ATOM      9  C   UNL     1       0.160   2.730  -1.296  0.00  0.00    +0.020 C 
ATOM     10  C   UNL     1      -0.696   0.886   1.825  0.00  0.00    +0.001 C 
ATOM     11  C   UNL     1      -2.149   2.032  -1.393  0.00  0.00    +0.000 C 
ATOM     12  C   UNL     1      -1.055   2.676  -1.972  0.00  0.00    +0.001 C 
ATOM     13  C   UNL     1      -3.131   0.778   0.469  0.00  0.00    +0.000 C 
ATOM     14  C   UNL     1      -1.790   0.242   2.403  0.00  0.00    +0.000 C 
ATOM     15  C   UNL     1      -3.005   0.188   1.727  0.00  0.00    +0.000 C 
ENDBRANCH   3   6
ENDBRANCH   1   3
BRANCH   1  16
ATOM     16  C   UNL     1       2.576  -0.008  -0.652  0.00  0.00    +0.169 C 
BRANCH  16  18
ATOM     17  O   UNL     1       4.733   1.100  -0.490  0.00  0.00    -0.287 OA
ATOM     18  C   UNL     1       3.944   0.419  -1.139  0.00  0.00    +0.227 C 
ENDBRANCH  16  18
BRANCH  16  19
ATOM     19  C   UNL     1       2.429  -1.529  -0.518  0.00  0.00    +0.163 C 
BRANCH  19  20
ATOM     20  O   UNL     1       3.474  -2.018   0.335  0.00  0.00    -0.380 OA
ATOM     21  H   UNL     1       3.392  -2.980   0.427  0.00  0.00    +0.211 HD
ENDBRANCH  19  20
BRANCH  19  22
ATOM     22  C   UNL     1       1.085  -2.009   0.068  0.00  0.00    +0.168 C 
BRANCH  22  23
ATOM     23  O   UNL     1       0.037  -1.430  -0.723  0.00  0.00    -0.379 OA
ATOM     24  H   UNL     1       0.154  -0.468  -0.759  0.00  0.00    +0.211 HD
ENDBRANCH  22  23
BRANCH  22  25
ATOM     25  C   UNL     1       0.889  -3.533   0.118  0.00  0.00    +0.169 C 
BRANCH  25  26
ATOM     26  O   UNL     1       1.042  -4.091  -1.188  0.00  0.00    -0.379 OA
ATOM     27  H   UNL     1       1.918  -3.865  -1.537  0.00  0.00    +0.211 HD
ENDBRANCH  25  26
BRANCH  25  28
ATOM     28  C   UNL     1      -0.503  -3.917   0.619  0.00  0.00    +0.169 C 
BRANCH  28  29
ATOM     29  O   UNL     1      -0.622  -5.336   0.607  0.00  0.00    -0.379 OA
ATOM     30  H   UNL     1      -1.503  -5.589   0.924  0.00  0.00    +0.211 HD
ENDBRANCH  28  29
ENDBRANCH  25  28
ENDBRANCH  22  25
ENDBRANCH  19  22
ENDBRANCH  16  19
ENDBRANCH   1  16
TORSDOF 12
REMARK  Name = 132293
REMARK  12 active torsions:
REMARK  status: ('A' for Active; 'I' for Inactive)
REMARK    1  A    between atoms: N_1  and  S_3
REMARK    2  A    between atoms: N_1  and  C_16
REMARK    3  A    between atoms: S_3  and  C_6
REMARK    4  A    between atoms: C_16  and  C_18
REMARK    5  A    between atoms: C_16  and  C_19
REMARK    6  A    between atoms: C_19  and  O_20
REMARK    7  A    between atoms: C_19  and  C_22
REMARK    8  A    between atoms: C_22  and  O_23
REMARK    9  A    between atoms: C_22  and  C_25
REMARK   10  A    between atoms: C_25  and  O_26
REMARK   11  A    between atoms: C_25  and  C_28
REMARK   12  A    between atoms: C_28  and  O_29
REMARK                            x       y       z     vdW  Elec       q    Type
REMARK                         _______ _______ _______ _____ _____    ______ ____
ROOT
ATOM      1  N   UNL     1      -4.484  -0.322  -0.885  0.00  0.00    +0.000 NA
ATOM      2  N   UNL     1      -4.591  -1.249  -1.542  0.00  0.00    +0.000 NA
ENDROOT
TORSDOF 0
