REMARK  Name = 132322
REMARK  5 active torsions:
REMARK  status: ('A' for Active; 'I' for Inactive)
REMARK    1  A    between atoms: N_3  and  C_23
REMARK    2  A    between atoms: C_4  and  C_11
REMARK    3  A    between atoms: C_11  and  C_16
REMARK    4  A    between atoms: C_23  and  C_25
REMARK    5  A    between atoms: C_25  and  O_26
REMARK                            x       y       z     vdW  Elec       q    Type
REMARK                         _______ _______ _______ _____ _____    ______ ____
ROOT
ATOM      1  O   UNL     1      -0.299   2.163   1.108  0.00  0.00    -0.290 OA
ATOM      2  N   UNL     1      -2.456  -0.585   1.638  0.00  0.00    -0.222 NA
ATOM      3  N   UNL     1      -3.427  -0.290   0.662  0.00  0.00    -0.247 N 
ATOM      4  C   UNL     1      -1.148  -0.070   1.236  0.00  0.00    +0.140 C 
ATOM      5  C   UNL     1      -1.260   1.413   0.934  0.00  0.00    +0.186 C 
ATOM      6  C   UNL     1      -3.549   1.040   0.231  0.00  0.00    +0.039 C 
ATOM      7  C   UNL     1      -2.542   1.935   0.354  0.00  0.00    +0.025 C 
ATOM      8  C   UNL     1      -4.883   1.426  -0.370  0.00  0.00    +0.048 C 
ATOM      9  C   UNL     1      -2.527   3.373  -0.074  0.00  0.00    +0.035 C 
ATOM     10  H   UNL     1      -2.396  -1.596   1.756  0.00  0.00    +0.146 HD
ENDROOT
BRANCH   4  11
ATOM     11  C   UNL     1      -0.546  -0.829   0.059  0.00  0.00    +0.091 C 
BRANCH  11  16
ATOM     12  S   UNL     1       1.929  -1.762   0.820  0.00  0.00    -0.055 S 
ATOM     13  F   UNL     1       5.066  -2.201   1.251  0.00  0.00    -0.204 F 
ATOM     14  F   UNL     1       6.160   1.563  -1.404  0.00  0.00    -0.208 F 
ATOM     15  N   UNL     1       1.524   0.301  -0.673  0.00  0.00    -0.403 NA
ATOM     16  C   UNL     1       0.947  -0.654  -0.011  0.00  0.00    +0.140 C 
ATOM     17  C   UNL     1       3.315  -0.904   0.258  0.00  0.00    +0.085 C 
ATOM     18  C   UNL     1       2.898   0.173  -0.530  0.00  0.00    +0.124 C 
ATOM     19  C   UNL     1       4.674  -1.166   0.496  0.00  0.00    +0.150 C 
ATOM     20  C   UNL     1       3.878   1.016  -1.098  0.00  0.00    +0.116 C 
ATOM     21  C   UNL     1       5.623  -0.316  -0.077  0.00  0.00    +0.056 C 
ATOM     22  C   UNL     1       5.232   0.761  -0.865  0.00  0.00    +0.127 C 
ENDBRANCH  11  16
ENDBRANCH   4  11
BRANCH   3  23
ATOM     23  C   UNL     1      -4.400  -1.341   0.402  0.00  0.00    +0.217 C 
BRANCH  23  25
ATOM     24  O   UNL     1      -3.736  -1.433  -1.909  0.00  0.00    -0.248 OA
ATOM     25  C   UNL     1      -4.612  -1.595  -1.068  0.00  0.00    +0.336 C 
BRANCH  25  26
ATOM     26  O   UNL     1      -5.861  -2.018  -1.370  0.00  0.00    -0.479 OA
ATOM     27  H   UNL     1      -6.496  -2.126  -0.689  0.00  0.00    +0.295 HD
ENDBRANCH  25  26
ENDBRANCH  23  25
ENDBRANCH   3  23
TORSDOF 5
