132348
  -OEChem-03292013323D

 50 53  0     1  0  0  0  0  0999 V2000
    1.6209    1.6639    0.9967 O   0  0  0  0  0  0  0  0  0  0  0  0
    4.5280    1.8991   -1.1043 O   0  0  0  0  0  0  0  0  0  0  0  0
    3.3906    4.0082    0.1778 O   0  0  0  0  0  0  0  0  0  0  0  0
   -1.0228    2.2415    0.2620 O   0  0  0  0  0  0  0  0  0  0  0  0
    2.8627   -0.2935    0.4901 N   0  0  0  0  0  0  0  0  0  0  0  0
    3.5861   -2.3988    0.6099 N   0  0  0  0  0  0  0  0  0  0  0  0
    0.5395   -0.6840   -0.1022 N   0  0  0  0  0  0  0  0  0  0  0  0
    0.0616   -3.0699   -0.2899 N   0  0  0  0  0  0  0  0  0  0  0  0
    1.7277   -4.7469    0.0790 N   0  0  0  0  0  0  0  0  0  0  0  0
    3.1488    1.8279   -0.8054 C   0  0  1  0  0  0  0  0  0  0  0  0
    2.8935    1.1664    0.5404 C   0  0  1  0  0  0  0  0  0  0  0  0
    2.5152    3.1892   -0.5974 C   0  0  1  0  0  0  0  0  0  0  0  0
   -4.6778    0.2462   -0.4290 C   0  0  0  0  0  0  0  0  0  0  0  0
    1.2866    2.8513    0.2414 C   0  0  1  0  0  0  0  0  0  0  0  0
   -6.1417    0.5701   -0.7100 C   0  0  0  0  0  0  0  0  0  0  0  0
   -4.6948   -0.0677    1.0637 C   0  0  0  0  0  0  0  0  0  0  0  0
   -6.5845    1.3741    0.5086 C   0  0  0  0  0  0  0  0  0  0  0  0
   -5.6454    0.9724    1.6473 C   0  0  0  0  0  0  0  0  0  0  0  0
   -4.1442   -0.8965   -1.2751 C   0  0  0  0  0  0  0  0  0  0  0  0
    0.0557    2.5524   -0.6027 C   0  0  0  0  0  0  0  0  0  0  0  0
    1.7853   -1.0807    0.1981 C   0  0  0  0  0  0  0  0  0  0  0  0
    3.9200   -1.1309    0.7294 C   0  0  0  0  0  0  0  0  0  0  0  0
    2.2545   -2.3821    0.2782 C   0  0  0  0  0  0  0  0  0  0  0  0
   -2.7491   -1.2039   -0.9367 C   0  0  0  0  0  0  0  0  0  0  0  0
    1.3391   -3.3976    0.0204 C   0  0  0  0  0  0  0  0  0  0  0  0
   -0.2481   -1.7542   -0.3298 C   0  0  0  0  0  0  0  0  0  0  0  0
   -1.6076   -1.4560   -0.6603 C   0  0  0  0  0  0  0  0  0  0  0  0
    2.6394    1.2878   -1.6127 H   0  0  0  0  0  0  0  0  0  0  0  0
    3.6516    1.4391    1.2853 H   0  0  0  0  0  0  0  0  0  0  0  0
    2.3019    3.7169   -1.5314 H   0  0  0  0  0  0  0  0  0  0  0  0
   -4.0726    1.1483   -0.5970 H   0  0  0  0  0  0  0  0  0  0  0  0
    1.0546    3.6328    0.9739 H   0  0  0  0  0  0  0  0  0  0  0  0
   -6.7386   -0.3473   -0.7832 H   0  0  0  0  0  0  0  0  0  0  0  0
   -6.2735    1.1307   -1.6407 H   0  0  0  0  0  0  0  0  0  0  0  0
   -3.7035   -0.0055    1.5235 H   0  0  0  0  0  0  0  0  0  0  0  0
   -5.0909   -1.0739    1.2494 H   0  0  0  0  0  0  0  0  0  0  0  0
   -7.6323    1.1759    0.7560 H   0  0  0  0  0  0  0  0  0  0  0  0
   -6.4913    2.4485    0.3124 H   0  0  0  0  0  0  0  0  0  0  0  0
   -5.0854    1.8496    1.9919 H   0  0  0  0  0  0  0  0  0  0  0  0
   -6.1935    0.5744    2.5072 H   0  0  0  0  0  0  0  0  0  0  0  0
   -4.2120   -0.6294   -2.3363 H   0  0  0  0  0  0  0  0  0  0  0  0
   -4.7575   -1.7954   -1.1382 H   0  0  0  0  0  0  0  0  0  0  0  0
    0.2141    1.7003   -1.2694 H   0  0  0  0  0  0  0  0  0  0  0  0
   -0.2210    3.4246   -1.2033 H   0  0  0  0  0  0  0  0  0  0  0  0
    4.6235    2.4329   -1.9114 H   0  0  0  0  0  0  0  0  0  0  0  0
    2.9356    4.8537    0.3320 H   0  0  0  0  0  0  0  0  0  0  0  0
    4.9043   -0.7618    0.9837 H   0  0  0  0  0  0  0  0  0  0  0  0
   -1.7942    2.0521   -0.2986 H   0  0  0  0  0  0  0  0  0  0  0  0
    2.6802   -4.9946    0.3106 H   0  0  0  0  0  0  0  0  0  0  0  0
    1.0438   -5.4663   -0.1124 H   0  0  0  0  0  0  0  0  0  0  0  0
  1 11  1  0  0  0  0
  1 14  1  0  0  0  0
  2 10  1  0  0  0  0
  2 45  1  0  0  0  0
  3 12  1  0  0  0  0
  3 46  1  0  0  0  0
  4 20  1  0  0  0  0
  4 48  1  0  0  0  0
  5 11  1  0  0  0  0
  5 21  1  0  0  0  0
  5 22  1  0  0  0  0
  6 22  2  0  0  0  0
  6 23  1  0  0  0  0
  7 21  2  0  0  0  0
  7 26  1  0  0  0  0
  8 25  1  0  0  0  0
  8 26  2  0  0  0  0
  9 25  1  0  0  0  0
  9 49  1  0  0  0  0
  9 50  1  0  0  0  0
 10 11  1  0  0  0  0
 10 12  1  0  0  0  0
 10 28  1  0  0  0  0
 11 29  1  0  0  0  0
 12 14  1  0  0  0  0
 12 30  1  0  0  0  0
 13 15  1  0  0  0  0
 13 16  1  0  0  0  0
 13 19  1  0  0  0  0
 13 31  1  0  0  0  0
 14 20  1  0  0  0  0
 14 32  1  0  0  0  0
 15 17  1  0  0  0  0
 15 33  1  0  0  0  0
 15 34  1  0  0  0  0
 16 18  1  0  0  0  0
 16 35  1  0  0  0  0
 16 36  1  0  0  0  0
 17 18  1  0  0  0  0
 17 37  1  0  0  0  0
 17 38  1  0  0  0  0
 18 39  1  0  0  0  0
 18 40  1  0  0  0  0
 19 24  1  0  0  0  0
 19 41  1  0  0  0  0
 19 42  1  0  0  0  0
 20 43  1  0  0  0  0
 20 44  1  0  0  0  0
 21 23  1  0  0  0  0
 22 47  1  0  0  0  0
 23 25  2  0  0  0  0
 24 27  3  0  0  0  0
 26 27  1  0  0  0  0
M  END
> <PUBCHEM_COMPOUND_CID>
132348

> <PUBCHEM_CONFORMER_RMSD>
0.8

> <PUBCHEM_CONFORMER_DIVERSEORDER>
1
32
18
26
27
31
23
5
35
10
9
33
16
22
3
20
30
12
13
29
34
15
11
17
4
21
25
19
24
8
28
14
7
2
6

> <PUBCHEM_MMFF94_PARTIAL_CHARGES>
28
1 -0.56
10 0.28
11 0.54
12 0.28
14 0.28
19 0.2
2 -0.68
20 0.28
21 0.11
22 0.04
23 0.23
24 -0.2
25 0.41
26 0.69
27 -0.07
3 -0.68
4 -0.68
45 0.4
46 0.4
47 0.15
48 0.4
49 0.4
5 0.05
50 0.4
6 -0.57
7 -0.57
8 -0.62
9 -0.9

> <PUBCHEM_EFFECTIVE_ROTOR_COUNT>
5

> <PUBCHEM_PHARMACOPHORE_FEATURES>
16
1 1 acceptor
1 2 acceptor
1 2 donor
1 3 acceptor
1 3 donor
1 4 acceptor
1 4 donor
1 9 cation
1 9 donor
3 5 6 22 cation
3 5 7 21 cation
3 7 8 26 cation
5 1 10 11 12 14 rings
5 13 15 16 17 18 rings
5 5 6 21 22 23 rings
6 7 8 21 23 25 26 rings

> <PUBCHEM_HEAVY_ATOM_COUNT>
27

> <PUBCHEM_ATOM_DEF_STEREO_COUNT>
4

> <PUBCHEM_ATOM_UDEF_STEREO_COUNT>
0

> <PUBCHEM_BOND_DEF_STEREO_COUNT>
0

> <PUBCHEM_BOND_UDEF_STEREO_COUNT>
0

> <PUBCHEM_ISOTOPIC_ATOM_COUNT>
0

> <PUBCHEM_COMPONENT_COUNT>
1

> <PUBCHEM_CACTVS_TAUTO_COUNT>
3

> <PUBCHEM_CONFORMER_ID>
000204FC00000001

> <PUBCHEM_MMFF94_ENERGY>
52.5996

> <PUBCHEM_FEATURE_SELFOVERLAP>
81.821

> <PUBCHEM_SHAPE_FINGERPRINT>
10411042 1 17906168456175830430
10483366 6 18338813256018541198
10688039 33 17970347014486730677
10937287 8 18122623013812769405
1100329 8 18337380656465302562
11059048 146 18049166858349114605
12422481 6 18044347578805232600
12633257 1 18261096470636323691
12788726 201 17631745893575414657
13075007 39 17895773867205160225
13140716 1 18336537330588031434
13590594 115 17978513035643598211
138480 1 18338509721203405486
13878862 14 18190717814095861445
14114211 80 18264784331113631788
14251764 75 18193564595291665621
14790565 3 18120660389863570269
14848178 96 18339354279541391125
15081414 286 18268426841359341167
151778 21 18335137643626931125
15475509 8 18129676205571338862
16760501 71 18410579500876162843
20511986 3 17845635003112697169
20567600 9 18412832412231757669
20739085 24 18333454256944157053
21860390 5 18272651216604493655
22122407 14 18267596719693672025
23845131 108 18261672700839809203
245318 6 18336556018412431101
24771293 8 18200291300715424786
338550 245 18410573938297863677
3459 110 18117011064491257771
34797466 226 14979665646498789923
350125 39 18410006633447706940
38570 142 18269293381149511253
397830 11 18114760295838462577
474 4 18411695509030360395
513532 50 17561366201304092452
6034566 193 17901115431747364101

> <PUBCHEM_SHAPE_MULTIPOLES>
507.27
11.91
4.99
1.09
22.19
1.09
0.08
-4.89
1.54
-7
-0.21
0.92
-0.19
-1.61

> <PUBCHEM_SHAPE_SELFOVERLAP>
1092.701

> <PUBCHEM_SHAPE_VOLUME>
276.1

> <PUBCHEM_COORDINATE_TYPE>
2
5
10

$$$$
