REMARK  Name = 132387
REMARK  8 active torsions:
REMARK  status: ('A' for Active; 'I' for Inactive)
REMARK    1  A    between atoms: C_1  and  C_19
REMARK    2  A    between atoms: C_2  and  C_7
REMARK    3  A    between atoms: C_8  and  C_17
REMARK    4  A    between atoms: C_19  and  N_20
REMARK    5  A    between atoms: N_20  and  C_31
REMARK    6  A    between atoms: C_23  and  C_28
REMARK    7  A    between atoms: C_28  and  O_29
REMARK    8  A    between atoms: C_31  and  C_32
REMARK                            x       y       z     vdW  Elec       q    Type
REMARK                         _______ _______ _______ _____ _____    ______ ____
ROOT
ATOM      1  C   UNL     1      -0.599   1.895  -0.297  0.00  0.00    -0.002 C 
ATOM      2  C   UNL     1       2.099   1.234  -0.342  0.00  0.00    +0.001 C 
ATOM      3  C   UNL     1      -0.050   1.333  -1.442  0.00  0.00    -0.003 C 
ATOM      4  C   UNL     1       0.183   2.130   0.827  0.00  0.00    -0.003 C 
ATOM      5  C   UNL     1       1.305   1.002  -1.465  0.00  0.00    -0.000 C 
ATOM      6  C   UNL     1       1.538   1.798   0.804  0.00  0.00    -0.000 C 
ENDROOT
BRANCH   2   7
ATOM      7  C   UNL     1       3.504   0.890  -0.365  0.00  0.00    +0.009 C 
ATOM      8  C   UNL     1       3.961  -0.370   0.029  0.00  0.00    +0.065 C 
ATOM      9  C   UNL     1       4.419   1.853  -0.797  0.00  0.00    +0.001 C 
ATOM     10  C   UNL     1       5.324  -0.665  -0.008  0.00  0.00    +0.010 C 
ATOM     11  C   UNL     1       5.782   1.559  -0.835  0.00  0.00    +0.000 C 
ATOM     12  C   UNL     1       6.234   0.300  -0.440  0.00  0.00    +0.001 C 
BRANCH   8  17
ATOM     13  N   UNL     1       2.483  -2.277  -0.336  0.00  0.00    -0.110 NA
ATOM     14  N   UNL     1       2.708  -1.528   1.789  0.00  0.00    -0.087 NA
ATOM     15  N   UNL     1       1.765  -2.963   0.564  0.00  0.00    -0.140 N 
ATOM     16  N   UNL     1       1.868  -2.554   1.836  0.00  0.00    -0.022 NA
ATOM     17  C   UNL     1       3.053  -1.393   0.481  0.00  0.00    +0.073 C 
ATOM     18  H   UNL     1       1.195  -3.723   0.306  0.00  0.00    +0.197 HD
ENDBRANCH   8  17
ENDBRANCH   2   7
BRANCH   1  19
ATOM     19  C   UNL     1      -2.059   2.252  -0.273  0.00  0.00    +0.119 C 
BRANCH  19  20
ATOM     20  N   UNL     1      -2.856   1.121   0.207  0.00  0.00    -0.289 N 
ATOM     21  N   UNL     1      -4.151   0.574  -1.702  0.00  0.00    -0.229 NA
ATOM     22  C   UNL     1      -3.328   0.163  -0.701  0.00  0.00    +0.138 C 
ATOM     23  C   UNL     1      -2.936  -1.164  -0.540  0.00  0.00    +0.107 C 
ATOM     24  C   UNL     1      -3.408  -2.109  -1.445  0.00  0.00    +0.011 C 
ATOM     25  C   UNL     1      -4.589  -0.373  -2.562  0.00  0.00    +0.100 C 
ATOM     26  C   UNL     1      -4.251  -1.714  -2.478  0.00  0.00    +0.021 C 
BRANCH  23  28
ATOM     27  O   UNL     1      -1.179  -0.891   1.060  0.00  0.00    -0.245 OA
ATOM     28  C   UNL     1      -2.054  -1.587   0.538  0.00  0.00    +0.341 C 
BRANCH  28  29
ATOM     29  O   UNL     1      -2.293  -2.868   0.931  0.00  0.00    -0.477 OA
ATOM     30  H   UNL     1      -2.965  -3.369   0.513  0.00  0.00    +0.295 HD
ENDBRANCH  28  29
ENDBRANCH  23  28
BRANCH  20  31
ATOM     31  C   UNL     1      -3.149   1.031   1.617  0.00  0.00    +0.092 C 
BRANCH  31  32
ATOM     32  C   UNL     1      -4.474   1.714   1.938  0.00  0.00    +0.021 C 
ATOM     33  C   UNL     1      -4.852   1.607   3.409  0.00  0.00    +0.002 C 
ENDBRANCH  31  32
ENDBRANCH  20  31
ENDBRANCH  19  20
ENDBRANCH   1  19
TORSDOF 8
