132338
  -OEChem-03292013323D

 37 37  0     1  0  0  0  0  0999 V2000
   -2.3266    2.3312   -0.3292 Cl  0  0  0  0  0  0  0  0  0  0  0  0
   -7.3885    0.5156   -0.1029 Cl  0  0  0  0  0  0  0  0  0  0  0  0
    5.5808    0.4444    0.2276 S   0  0  0  0  0  0  0  0  0  0  0  0
    1.2652    0.8134   -1.1778 O   0  0  0  0  0  0  0  0  0  0  0  0
    1.0990   -1.9541   -1.6528 O   0  0  0  0  0  0  0  0  0  0  0  0
    3.2250   -1.3147    1.0664 O   0  0  0  0  0  0  0  0  0  0  0  0
    6.1387    1.9765    0.2481 O   0  0  0  0  0  0  0  0  0  0  0  0
    5.9585   -0.1747   -1.0285 O   0  0  0  0  0  0  0  0  0  0  0  0
    5.8779   -0.1784    1.5036 O   0  0  0  0  0  0  0  0  0  0  0  0
    1.4985   -0.1394   -0.1315 C   0  0  1  0  0  0  0  0  0  0  0  0
    0.6154   -1.3617   -0.4411 C   0  0  1  0  0  0  0  0  0  0  0  0
    3.0081   -0.4205   -0.0310 C   0  0  1  0  0  0  0  0  0  0  0  0
   -0.8674   -1.0240   -0.6366 C   0  0  0  0  0  0  0  0  0  0  0  0
    3.8560    0.8324    0.1756 C   0  0  0  0  0  0  0  0  0  0  0  0
   -1.5136   -0.4779    0.6436 C   0  0  0  0  0  0  0  0  0  0  0  0
   -2.9822   -0.1975    0.4469 C   0  0  0  0  0  0  0  0  0  0  0  0
   -3.4246    1.0435    0.0105 C   0  0  0  0  0  0  0  0  0  0  0  0
   -3.8802   -1.2218    0.7162 C   0  0  0  0  0  0  0  0  0  0  0  0
   -4.7912    1.2650   -0.1602 C   0  0  0  0  0  0  0  0  0  0  0  0
   -5.2467   -1.0003    0.5457 C   0  0  0  0  0  0  0  0  0  0  0  0
   -5.7021    0.2431    0.1074 C   0  0  0  0  0  0  0  0  0  0  0  0
    1.1691    0.3179    0.8073 H   0  0  0  0  0  0  0  0  0  0  0  0
    0.7277   -2.1078    0.3539 H   0  0  0  0  0  0  0  0  0  0  0  0
    3.3501   -0.9305   -0.9386 H   0  0  0  0  0  0  0  0  0  0  0  0
   -0.9943   -0.3227   -1.4709 H   0  0  0  0  0  0  0  0  0  0  0  0
   -1.3954   -1.9334   -0.9551 H   0  0  0  0  0  0  0  0  0  0  0  0
    3.7090    1.5391   -0.6469 H   0  0  0  0  0  0  0  0  0  0  0  0
    3.6128    1.3230    1.1239 H   0  0  0  0  0  0  0  0  0  0  0  0
   -1.3933   -1.2145    1.4499 H   0  0  0  0  0  0  0  0  0  0  0  0
   -1.0010    0.4161    1.0103 H   0  0  0  0  0  0  0  0  0  0  0  0
    1.5712    0.4152   -2.0108 H   0  0  0  0  0  0  0  0  0  0  0  0
    0.5766   -2.7583   -1.8139 H   0  0  0  0  0  0  0  0  0  0  0  0
    2.9368   -0.8635    1.8783 H   0  0  0  0  0  0  0  0  0  0  0  0
   -3.5385   -2.1957    1.0555 H   0  0  0  0  0  0  0  0  0  0  0  0
   -5.1483    2.2342   -0.5018 H   0  0  0  0  0  0  0  0  0  0  0  0
   -5.9450   -1.8059    0.7574 H   0  0  0  0  0  0  0  0  0  0  0  0
    6.0510    2.4717   -0.6001 H   0  0  0  0  0  0  0  0  0  0  0  0
  1 17  1  0  0  0  0
  2 21  1  0  0  0  0
  3  7  1  0  0  0  0
  3  8  2  0  0  0  0
  3  9  2  0  0  0  0
  3 14  1  0  0  0  0
  4 10  1  0  0  0  0
  4 31  1  0  0  0  0
  5 11  1  0  0  0  0
  5 32  1  0  0  0  0
  6 12  1  0  0  0  0
  6 33  1  0  0  0  0
  7 37  1  0  0  0  0
 10 11  1  0  0  0  0
 10 12  1  0  0  0  0
 10 22  1  0  0  0  0
 11 13  1  0  0  0  0
 11 23  1  0  0  0  0
 12 14  1  0  0  0  0
 12 24  1  0  0  0  0
 13 15  1  0  0  0  0
 13 25  1  0  0  0  0
 13 26  1  0  0  0  0
 14 27  1  0  0  0  0
 14 28  1  0  0  0  0
 15 16  1  0  0  0  0
 15 29  1  0  0  0  0
 15 30  1  0  0  0  0
 16 17  2  0  0  0  0
 16 18  1  0  0  0  0
 17 19  1  0  0  0  0
 18 20  2  0  0  0  0
 18 34  1  0  0  0  0
 19 21  2  0  0  0  0
 19 35  1  0  0  0  0
 20 21  1  0  0  0  0
 20 36  1  0  0  0  0
M  END
> <PUBCHEM_COMPOUND_CID>
132338

> <PUBCHEM_CONFORMER_RMSD>
0.8

> <PUBCHEM_CONFORMER_DIVERSEORDER>
12
27
86
22
7
127
164
131
185
138
118
53
207
231
66
218
81
11
124
25
193
110
125
26
201
222
178
2
102
233
3
50
225
9
223
72
228
85
230
45
214
83
143
239
173
163
203
5
213
135
142
192
234
100
47
58
220
195
71
84
151
94
88
89
59
219
111
112
148
232
169
30
216
42
171
38
114
17
119
107
191
154
139
97
70
20
15
224
196
109
79
134
215
63
147
35
10
130
200
126
95
91
64
157
190
23
136
199
121
166
108
6
179
162
1
78
122
92
144
209
115
211
16
221
13
101
167
197
174
4
155
18
159
168
76
48
24
52
183
67
235
34
39
55
186
170
217
208
210
96
116
149
226
105
49
69
82
236
51
90
123
87
156
99
238
120
73
227
140
56
54
177
184
36
129
202
132
187
188
194
175
61
128
19
62
57
14
137
40
43
172
41
33
133
37
68
161
153
204
150
32
74
176
165
104
117
237
77
46
141
181
31
106
205
158
189
21
60
8
206
28
103
93
65
229
98
212
29
146
180
145
160
113
80
44
152
198
182
75

> <PUBCHEM_MMFF94_PARTIAL_CHARGES>
27
1 -0.18
10 0.28
11 0.28
12 0.28
14 0.11
15 0.14
16 -0.14
17 0.18
18 -0.15
19 -0.15
2 -0.18
20 -0.15
21 0.18
3 1.38
31 0.4
32 0.4
33 0.4
34 0.15
35 0.15
36 0.15
37 0.5
4 -0.68
5 -0.68
6 -0.68
7 -0.68
8 -0.65
9 -0.65

> <PUBCHEM_EFFECTIVE_ROTOR_COUNT>
7

> <PUBCHEM_PHARMACOPHORE_FEATURES>
11
1 4 acceptor
1 4 donor
1 5 acceptor
1 5 donor
1 6 acceptor
1 6 donor
1 7 acceptor
1 8 acceptor
1 9 acceptor
4 3 7 8 9 anion
6 16 17 18 19 20 21 rings

> <PUBCHEM_HEAVY_ATOM_COUNT>
21

> <PUBCHEM_ATOM_DEF_STEREO_COUNT>
0

> <PUBCHEM_ATOM_UDEF_STEREO_COUNT>
3

> <PUBCHEM_BOND_DEF_STEREO_COUNT>
0

> <PUBCHEM_BOND_UDEF_STEREO_COUNT>
0

> <PUBCHEM_ISOTOPIC_ATOM_COUNT>
0

> <PUBCHEM_COMPONENT_COUNT>
1

> <PUBCHEM_CACTVS_TAUTO_COUNT>
1

> <PUBCHEM_CONFORMER_ID>
000204F20000000C

> <PUBCHEM_MMFF94_ENERGY>
42.2893

> <PUBCHEM_FEATURE_SELFOVERLAP>
55.886

> <PUBCHEM_SHAPE_FINGERPRINT>
10 15 18410849997721292840
10354089 29 18260266356726476144
10670039 82 17703802379669743264
10803635 8 10519992543085693449
11128504 68 14764625326416379674
12107183 9 17393591494172189008
12236239 1 16950282914394719515
12507557 5 18187087273713411045
12516196 113 12540695933487925798
12596602 18 17603301574692582216
13402501 40 18413388743730603761
13403585 85 18260265261383520489
13533116 47 17895469228710621971
13685833 64 12035449436966314809
13914758 101 16009020671385115925
14123256 10 18131912659445327681
14251764 18 17095525115032566339
14341114 176 18187368705196999899
15188451 53 16226339234793746195
15527383 91 14851609894528892726
15961568 22 18408327678839009956
17980427 23 18261115196872589157
1813 80 14924228175363023334
19489759 90 18040435495116309753
20281389 69 18114178631446968100
21033648 29 18060125540429904440
21315764 268 18335132099183445604
22224240 67 18130782373875956407
23198884 109 14620796007311345159
23402539 116 18334292098142942295
23557571 272 18340492166944699305
23559900 14 18260829336808297049
23622692 88 17458347454807269367
2767999 5 17775564247549001970
300161 21 18113334211122916547
314173 85 14490190488061569918
34797466 226 18202289112941906972
351380 180 18334295379060015641
3545911 37 18335704931734522511
4073 2 17531253897829203498
4325135 7 17775282773025933013
5104073 3 18264216811953324123
59682541 35 18340773740979919499
59755656 215 18272660012961155790
67856867 119 17968384571046963973

> <PUBCHEM_SHAPE_MULTIPOLES>
404.54
17.64
1.77
1.03
4.47
0.47
-0.09
4.59
2.69
-0.18
-0.22
0.86
-0.3
0.57

> <PUBCHEM_SHAPE_SELFOVERLAP>
793.325

> <PUBCHEM_SHAPE_VOLUME>
244.8

> <PUBCHEM_COORDINATE_TYPE>
2
5
10

$$$$
