REMARK  Name = 132303
REMARK  13 active torsions:
REMARK  status: ('A' for Active; 'I' for Inactive)
REMARK    1  A    between atoms: N_1  and  C_23
REMARK    2  A    between atoms: N_2  and  C_11
REMARK    3  A    between atoms: N_3  and  S_7
REMARK    4  A    between atoms: C_11  and  C_12
REMARK    5  A    between atoms: C_12  and  C_13
REMARK    6  A    between atoms: C_12  and  O_21
REMARK    7  A    between atoms: C_18  and  O_19
REMARK    8  A    between atoms: C_23  and  C_24
REMARK    9  A    between atoms: C_24  and  S_25
REMARK   10  A    between atoms: S_25  and  C_26
REMARK   11  A    between atoms: C_26  and  C_28
REMARK   12  A    between atoms: C_29  and  C_32
REMARK   13  A    between atoms: C_32  and  N_33
REMARK                            x       y       z     vdW  Elec       q    Type
REMARK                         _______ _______ _______ _____ _____    ______ ____
ROOT
ATOM      1  N   UNL     1       0.016  -1.131   1.244  0.00  0.00    -0.343 N 
ATOM      2  N   UNL     1      -1.649  -0.044  -0.102  0.00  0.00    -0.236 NA
ATOM      3  N   UNL     1      -0.972  -2.228  -0.621  0.00  0.00    -0.229 N 
ATOM      4  C   UNL     1      -0.890  -1.046   0.200  0.00  0.00    +0.214 C 
ATOM      5  H   UNL     1       0.091  -0.338   1.823  0.00  0.00    +0.163 HD
ATOM      6  H   UNL     1      -0.335  -2.950  -0.418  0.00  0.00    +0.191 HD
ENDROOT
BRANCH   3   7
ATOM      7  S   UNL     1      -2.062  -2.505  -1.911  0.00  0.00    +0.064 S 
ATOM      8  O   UNL     1      -1.555  -3.601  -2.715  0.00  0.00    -0.153 OA
ATOM      9  O   UNL     1      -2.450  -1.251  -2.526  0.00  0.00    -0.153 OA
ATOM     10  C   UNL     1      -3.454  -3.122  -0.995  0.00  0.00    +0.202 C 
ENDBRANCH   3   7
BRANCH   2  11
ATOM     11  C   UNL     1      -1.562   1.146   0.731  0.00  0.00    +0.162 C 
BRANCH  11  12
ATOM     12  C   UNL     1      -2.518   2.206   0.181  0.00  0.00    +0.157 C 
BRANCH  12  13
ATOM     13  C   UNL     1      -3.948   1.720   0.166  0.00  0.00    +0.006 C 
ATOM     14  C   UNL     1      -4.665   1.698  -1.030  0.00  0.00    +0.001 C 
ATOM     15  C   UNL     1      -4.552   1.293   1.349  0.00  0.00    +0.001 C 
ATOM     16  C   UNL     1      -5.986   1.249  -1.044  0.00  0.00    +0.036 C 
ATOM     17  C   UNL     1      -5.872   0.844   1.336  0.00  0.00    +0.036 C 
ATOM     18  C   UNL     1      -6.590   0.822   0.140  0.00  0.00    +0.134 C 
BRANCH  18  19
ATOM     19  O   UNL     1      -7.878   0.384   0.126  0.00  0.00    -0.506 OA
ATOM     20  H   UNL     1      -8.360   0.369  -0.677  0.00  0.00    +0.292 HD
ENDBRANCH  18  19
ENDBRANCH  12  13
BRANCH  12  21
ATOM     21  O   UNL     1      -2.447   3.382   0.987  0.00  0.00    -0.378 OA
ATOM     22  H   UNL     1      -1.534   3.707   1.006  0.00  0.00    +0.211 HD
ENDBRANCH  12  21
ENDBRANCH  11  12
ENDBRANCH   2  11
BRANCH   1  23
ATOM     23  C   UNL     1       0.863  -2.252   1.579  0.00  0.00    +0.112 C 
BRANCH  23  24
ATOM     24  C   UNL     1       1.714  -1.957   2.808  0.00  0.00    +0.082 C 
BRANCH  24  25
ATOM     25  S   UNL     1       2.840  -0.551   2.548  0.00  0.00    -0.130 S 
BRANCH  25  26
ATOM     26  C   UNL     1       4.084  -1.396   1.547  0.00  0.00    +0.122 C 
BRANCH  26  28
ATOM     27  O   UNL     1       5.028   0.211  -0.012  0.00  0.00    -0.463 OA
ATOM     28  C   UNL     1       5.193  -0.463   1.156  0.00  0.00    +0.133 C 
ATOM     29  C   UNL     1       6.132   0.988  -0.172  0.00  0.00    +0.101 C 
ATOM     30  C   UNL     1       6.390  -0.126   1.744  0.00  0.00    +0.037 C 
ATOM     31  C   UNL     1       7.000   0.816   0.881  0.00  0.00    +0.034 C 
BRANCH  29  32
ATOM     32  C   UNL     1       6.173   1.817  -1.384  0.00  0.00    -0.015 C 
BRANCH  32  33
ATOM     33  N   UNL     1       6.804   1.121  -2.518  0.00  0.00    +0.387 N 
ATOM     34  C   UNL     1       6.812   1.973  -3.692  0.00  0.00    -0.105 C 
ATOM     35  H   UNL     1       6.280   0.270  -2.723  0.00  0.00    -0.084 HD
ATOM     36  H   UNL     1       7.766   0.888  -2.270  0.00  0.00    -0.084 HD
ENDBRANCH  32  33
ENDBRANCH  29  32
ENDBRANCH  26  28
ENDBRANCH  25  26
ENDBRANCH  24  25
ENDBRANCH  23  24
ENDBRANCH   1  23
TORSDOF 13
