132322
  -OEChem-03292013323D

 40 42  0     1  0  0  0  0  0999 V2000
    1.9293   -1.7619    0.8201 S   0  0  0  0  0  0  0  0  0  0  0  0
    5.0664   -2.2007    1.2514 F   0  0  0  0  0  0  0  0  0  0  0  0
    6.1601    1.5633   -1.4043 F   0  0  0  0  0  0  0  0  0  0  0  0
   -0.2987    2.1626    1.1079 O   0  0  0  0  0  0  0  0  0  0  0  0
   -5.8613   -2.0178   -1.3698 O   0  0  0  0  0  0  0  0  0  0  0  0
   -3.7365   -1.4335   -1.9095 O   0  0  0  0  0  0  0  0  0  0  0  0
   -2.4561   -0.5849    1.6379 N   0  0  0  0  0  0  0  0  0  0  0  0
   -3.4269   -0.2900    0.6617 N   0  0  3  0  0  0  0  0  0  0  0  0
    1.5243    0.3013   -0.6735 N   0  0  0  0  0  0  0  0  0  0  0  0
   -1.1484   -0.0697    1.2363 C   0  0  1  0  0  0  0  0  0  0  0  0
   -0.5461   -0.8291    0.0589 C   0  0  0  0  0  0  0  0  0  0  0  0
   -1.2596    1.4129    0.9336 C   0  0  0  0  0  0  0  0  0  0  0  0
   -3.5494    1.0400    0.2310 C   0  0  0  0  0  0  0  0  0  0  0  0
   -2.5423    1.9355    0.3538 C   0  0  0  0  0  0  0  0  0  0  0  0
    0.9467   -0.6539   -0.0107 C   0  0  0  0  0  0  0  0  0  0  0  0
   -4.4002   -1.3409    0.4024 C   0  0  0  0  0  0  0  0  0  0  0  0
   -4.8828    1.4257   -0.3698 C   0  0  0  0  0  0  0  0  0  0  0  0
   -2.5272    3.3727   -0.0740 C   0  0  0  0  0  0  0  0  0  0  0  0
    3.3154   -0.9045    0.2578 C   0  0  0  0  0  0  0  0  0  0  0  0
    2.8981    0.1727   -0.5300 C   0  0  0  0  0  0  0  0  0  0  0  0
   -4.6116   -1.5951   -1.0678 C   0  0  0  0  0  0  0  0  0  0  0  0
    4.6742   -1.1663    0.4963 C   0  0  0  0  0  0  0  0  0  0  0  0
    3.8776    1.0162   -1.0978 C   0  0  0  0  0  0  0  0  0  0  0  0
    5.6229   -0.3161   -0.0774 C   0  0  0  0  0  0  0  0  0  0  0  0
    5.2320    0.7615   -0.8645 C   0  0  0  0  0  0  0  0  0  0  0  0
   -0.5076   -0.1616    2.1226 H   0  0  0  0  0  0  0  0  0  0  0  0
   -0.9773   -0.4892   -0.8920 H   0  0  0  0  0  0  0  0  0  0  0  0
   -0.7792   -1.9002    0.1307 H   0  0  0  0  0  0  0  0  0  0  0  0
   -2.3898   -1.5929    1.7728 H   0  0  0  0  0  0  0  0  0  0  0  0
   -5.3563   -1.0834    0.8724 H   0  0  0  0  0  0  0  0  0  0  0  0
   -4.0897   -2.3019    0.8320 H   0  0  0  0  0  0  0  0  0  0  0  0
   -4.9505    1.0974   -1.4111 H   0  0  0  0  0  0  0  0  0  0  0  0
   -5.0576    2.5049   -0.3518 H   0  0  0  0  0  0  0  0  0  0  0  0
   -5.7172    0.9991    0.1956 H   0  0  0  0  0  0  0  0  0  0  0  0
   -3.3437    3.6303   -0.7521 H   0  0  0  0  0  0  0  0  0  0  0  0
   -1.6021    3.6047   -0.6136 H   0  0  0  0  0  0  0  0  0  0  0  0
   -2.5880    4.0269    0.8015 H   0  0  0  0  0  0  0  0  0  0  0  0
    3.5836    1.8610   -1.7142 H   0  0  0  0  0  0  0  0  0  0  0  0
    6.6799   -0.5009    0.0946 H   0  0  0  0  0  0  0  0  0  0  0  0
   -5.9734   -2.1741   -2.3317 H   0  0  0  0  0  0  0  0  0  0  0  0
  1 15  1  0  0  0  0
  1 19  1  0  0  0  0
  2 22  1  0  0  0  0
  3 25  1  0  0  0  0
  4 12  2  0  0  0  0
  5 21  1  0  0  0  0
  5 40  1  0  0  0  0
  6 21  2  0  0  0  0
  7  8  1  0  0  0  0
  7 10  1  0  0  0  0
  7 29  1  0  0  0  0
  8 13  1  0  0  0  0
  8 16  1  0  0  0  0
  9 15  2  0  0  0  0
  9 20  1  0  0  0  0
 10 11  1  0  0  0  0
 10 12  1  0  0  0  0
 10 26  1  0  0  0  0
 11 15  1  0  0  0  0
 11 27  1  0  0  0  0
 11 28  1  0  0  0  0
 12 14  1  0  0  0  0
 13 14  2  0  0  0  0
 13 17  1  0  0  0  0
 14 18  1  0  0  0  0
 16 21  1  0  0  0  0
 16 30  1  0  0  0  0
 16 31  1  0  0  0  0
 17 32  1  0  0  0  0
 17 33  1  0  0  0  0
 17 34  1  0  0  0  0
 18 35  1  0  0  0  0
 18 36  1  0  0  0  0
 18 37  1  0  0  0  0
 19 20  2  0  0  0  0
 19 22  1  0  0  0  0
 20 23  1  0  0  0  0
 22 24  2  0  0  0  0
 23 25  2  0  0  0  0
 23 38  1  0  0  0  0
 24 25  1  0  0  0  0
 24 39  1  0  0  0  0
M  END
> <PUBCHEM_COMPOUND_CID>
132322

> <PUBCHEM_CONFORMER_RMSD>
0.8

> <PUBCHEM_CONFORMER_DIVERSEORDER>
1
45
12
71
76
69
53
46
33
73
67
68
7
72
51
39
79
40
78
58
77
61
31
62
56
3
42
54
63
22
23
44
48
2
60
10
47
27
64
6
5
21
37
50
29
57
15
49
9
74
75
55
36
66
8
59
14
32
70
13
18
26
24
52
25
65
38
17
4
43
34
19
30
28
11
35
41
16
20

> <PUBCHEM_MMFF94_PARTIAL_CHARGES>
29
1 -0.08
10 0.33
11 0.18
12 0.49
13 -0.04
14 -0.12
15 0.2
16 0.43
17 0.14
18 0.14
19 0.04
2 -0.19
20 0.23
21 0.66
22 0.19
23 -0.15
24 -0.15
25 0.19
29 0.36
3 -0.19
38 0.15
39 0.15
4 -0.57
40 0.5
5 -0.65
6 -0.57
7 -0.62
8 -0.48
9 -0.57

> <PUBCHEM_EFFECTIVE_ROTOR_COUNT>
4.6

> <PUBCHEM_PHARMACOPHORE_FEATURES>
9
1 4 acceptor
1 5 acceptor
1 6 acceptor
1 7 donor
1 9 acceptor
3 5 6 21 anion
5 1 9 15 19 20 rings
6 19 20 22 23 24 25 rings
6 7 8 10 12 13 14 rings

> <PUBCHEM_HEAVY_ATOM_COUNT>
25

> <PUBCHEM_ATOM_DEF_STEREO_COUNT>
0

> <PUBCHEM_ATOM_UDEF_STEREO_COUNT>
1

> <PUBCHEM_BOND_DEF_STEREO_COUNT>
0

> <PUBCHEM_BOND_UDEF_STEREO_COUNT>
0

> <PUBCHEM_ISOTOPIC_ATOM_COUNT>
0

> <PUBCHEM_COMPONENT_COUNT>
1

> <PUBCHEM_CACTVS_TAUTO_COUNT>
10

> <PUBCHEM_CONFORMER_ID>
000204E200000001

> <PUBCHEM_MMFF94_ENERGY>
48.0533

> <PUBCHEM_FEATURE_SELFOVERLAP>
45.803

> <PUBCHEM_SHAPE_FINGERPRINT>
10042902 136 16843873386329750735
10366900 7 18410299150626762394
10595046 47 18407761426160582892
10906281 52 17915188923375385017
11089746 13 18334016090928423436
11315621 246 17988367073721236174
12107183 9 17539125056980621584
12166972 35 17676774265970341421
12236239 1 18409448076981975014
12403260 363 18407759218600361240
12616971 3 18334582295575583242
12788726 201 18341891900585879187
13167823 11 18335140843525363546
13533116 47 18334293163289706690
13782708 43 16199887068172827908
14528608 73 18335707148143317260
14674994 50 15625070176016146165
14767858 380 18337391655259103062
15196674 1 18260556589120625392
15461852 350 18201720670231391518
17349148 13 18187367605943848018
17492 89 18264776462834642539
17980427 23 18114758082854560997
19438510 23 14419235653622133991
200 152 18335421266023973107
20511986 3 18189042127540258145
20715895 44 17757269280164758760
21033648 144 17385726898115770790
21033648 29 14779547867921204103
21065198 48 18260554394608426560
21709351 56 18189054209821130726
23402539 116 18407759222726341491
23557571 272 17489601059809817020
23559900 14 17911517597835773570
268830 7 17676768665222210920
329604 57 18410572937549072991
4015057 19 17894635885017678672
4098825 35 17749659719898432703
504579 68 18260835873679911342
5104073 3 17968106278804537416
57724786 102 15647639798889522596
59755656 520 16732707121611663435
67856867 119 18334573521569346752
7237137 82 18342455945945605373
7495541 125 17704347780185969186
9709674 26 18262532385508909306

> <PUBCHEM_SHAPE_MULTIPOLES>
471.24
13.9
2.6
1.34
7.92
1.18
-0.17
-2.47
-4.5
-2.2
-0.07
-0.47
-0.31
-2.59

> <PUBCHEM_SHAPE_SELFOVERLAP>
1003.872

> <PUBCHEM_SHAPE_VOLUME>
265.2

> <PUBCHEM_COORDINATE_TYPE>
2
5
10

$$$$
