132323
  -OEChem-03292013323D

 45 48  0     0  0  0  0  0  0999 V2000
   -1.1297   -1.7942   -1.4908 S   0  0  0  0  0  0  0  0  0  0  0  0
   -6.8739   -0.2511    1.5794 F   0  0  0  0  0  0  0  0  0  0  0  0
   -5.6448    1.4664    2.0729 F   0  0  0  0  0  0  0  0  0  0  0  0
   -6.6681    1.3801    0.1562 F   0  0  0  0  0  0  0  0  0  0  0  0
    1.3287    2.6024   -1.2381 O   0  0  0  0  0  0  0  0  0  0  0  0
    4.2562   -3.9273    1.1324 O   0  0  0  0  0  0  0  0  0  0  0  0
    2.5533   -2.4972    1.6219 O   0  0  0  0  0  0  0  0  0  0  0  0
    1.6413    0.3327   -1.5503 N   0  0  0  0  0  0  0  0  0  0  0  0
    2.3336   -0.8083   -1.2859 N   0  0  0  0  0  0  0  0  0  0  0  0
   -1.5874    0.7400   -1.3446 N   0  0  0  0  0  0  0  0  0  0  0  0
    5.0484    1.7097    2.0493 C   0  0  0  0  0  0  0  0  0  0  0  0
    4.9334    0.4458    1.1934 C   0  0  0  0  0  0  0  0  0  0  0  0
    4.8413    2.9614    1.2065 C   0  0  0  0  0  0  0  0  0  0  0  0
    3.7850    0.4878    0.2244 C   0  0  0  0  0  0  0  0  0  0  0  0
    3.4680    2.9465    0.5318 C   0  0  0  0  0  0  0  0  0  0  0  0
    3.1083    1.6081   -0.0616 C   0  0  0  0  0  0  0  0  0  0  0  0
    3.3330   -0.7433   -0.4684 C   0  0  0  0  0  0  0  0  0  0  0  0
    1.9510    1.5664   -1.0001 C   0  0  0  0  0  0  0  0  0  0  0  0
    4.0813   -2.0317   -0.2085 C   0  0  0  0  0  0  0  0  0  0  0  0
    0.5325    0.1663   -2.4759 C   0  0  0  0  0  0  0  0  0  0  0  0
   -0.7488   -0.1604   -1.7648 C   0  0  0  0  0  0  0  0  0  0  0  0
    3.5204   -2.8031    0.9403 C   0  0  0  0  0  0  0  0  0  0  0  0
   -2.6581    0.1024   -0.7349 C   0  0  0  0  0  0  0  0  0  0  0  0
   -2.5868   -1.2939   -0.7167 C   0  0  0  0  0  0  0  0  0  0  0  0
   -3.7785    0.7312   -0.1496 C   0  0  0  0  0  0  0  0  0  0  0  0
   -3.5943   -2.0804   -0.1353 C   0  0  0  0  0  0  0  0  0  0  0  0
   -4.7852   -0.0456    0.4310 C   0  0  0  0  0  0  0  0  0  0  0  0
   -4.6922   -1.4331    0.4370 C   0  0  0  0  0  0  0  0  0  0  0  0
   -5.9678    0.6224    1.0492 C   0  0  0  0  0  0  0  0  0  0  0  0
    4.2987    1.6815    2.8504 H   0  0  0  0  0  0  0  0  0  0  0  0
    6.0308    1.7391    2.5338 H   0  0  0  0  0  0  0  0  0  0  0  0
    4.8383   -0.4074    1.8737 H   0  0  0  0  0  0  0  0  0  0  0  0
    5.8643    0.3150    0.6279 H   0  0  0  0  0  0  0  0  0  0  0  0
    5.6268    3.0211    0.4423 H   0  0  0  0  0  0  0  0  0  0  0  0
    4.9357    3.8569    1.8309 H   0  0  0  0  0  0  0  0  0  0  0  0
    3.4596    3.7219   -0.2434 H   0  0  0  0  0  0  0  0  0  0  0  0
    2.7006    3.2167    1.2680 H   0  0  0  0  0  0  0  0  0  0  0  0
    5.1426   -1.8338   -0.0358 H   0  0  0  0  0  0  0  0  0  0  0  0
    4.0043   -2.6565   -1.1069 H   0  0  0  0  0  0  0  0  0  0  0  0
    0.7941   -0.5992   -3.2170 H   0  0  0  0  0  0  0  0  0  0  0  0
    0.3935    1.1025   -3.0306 H   0  0  0  0  0  0  0  0  0  0  0  0
   -3.8519    1.8156   -0.1536 H   0  0  0  0  0  0  0  0  0  0  0  0
   -3.5281   -3.1640   -0.1270 H   0  0  0  0  0  0  0  0  0  0  0  0
   -5.4726   -2.0416    0.8875 H   0  0  0  0  0  0  0  0  0  0  0  0
    3.9181   -4.4621    1.8820 H   0  0  0  0  0  0  0  0  0  0  0  0
  1 21  1  0  0  0  0
  1 24  1  0  0  0  0
  2 29  1  0  0  0  0
  3 29  1  0  0  0  0
  4 29  1  0  0  0  0
  5 18  2  0  0  0  0
  6 22  1  0  0  0  0
  6 45  1  0  0  0  0
  7 22  2  0  0  0  0
  8  9  1  0  0  0  0
  8 18  1  0  0  0  0
  8 20  1  0  0  0  0
  9 17  2  0  0  0  0
 10 21  2  0  0  0  0
 10 23  1  0  0  0  0
 11 12  1  0  0  0  0
 11 13  1  0  0  0  0
 11 30  1  0  0  0  0
 11 31  1  0  0  0  0
 12 14  1  0  0  0  0
 12 32  1  0  0  0  0
 12 33  1  0  0  0  0
 13 15  1  0  0  0  0
 13 34  1  0  0  0  0
 13 35  1  0  0  0  0
 14 16  2  0  0  0  0
 14 17  1  0  0  0  0
 15 16  1  0  0  0  0
 15 36  1  0  0  0  0
 15 37  1  0  0  0  0
 16 18  1  0  0  0  0
 17 19  1  0  0  0  0
 19 22  1  0  0  0  0
 19 38  1  0  0  0  0
 19 39  1  0  0  0  0
 20 21  1  0  0  0  0
 20 40  1  0  0  0  0
 20 41  1  0  0  0  0
 23 24  2  0  0  0  0
 23 25  1  0  0  0  0
 24 26  1  0  0  0  0
 25 27  2  0  0  0  0
 25 42  1  0  0  0  0
 26 28  2  0  0  0  0
 26 43  1  0  0  0  0
 27 28  1  0  0  0  0
 27 29  1  0  0  0  0
 28 44  1  0  0  0  0
M  END
> <PUBCHEM_COMPOUND_CID>
132323

> <PUBCHEM_CONFORMER_RMSD>
0.8

> <PUBCHEM_CONFORMER_DIVERSEORDER>
2
30
69
25
50
44
32
20
40
71
48
46
65
68
73
21
64
26
53
38
29
70
22
45
16
66
1
51
63
24
34
19
57
37
54
42
72
10
13
67
56
60
39
27
62
33
31
17
52
61
23
59
49
41
35
12
28
15
7
14
6
43
55
11
8
18
36
47
58
3
5
4
9

> <PUBCHEM_MMFF94_PARTIAL_CHARGES>
31
1 -0.08
10 -0.57
12 0.14
14 -0.12
15 0.14
16 -0.12
17 0.37
18 0.62
19 0.12
2 -0.34
20 0.48
21 0.2
22 0.66
23 0.23
24 0.04
25 -0.15
26 -0.15
27 -0.14
28 -0.15
29 1.16
3 -0.34
4 -0.34
42 0.15
43 0.15
44 0.15
45 0.5
5 -0.57
6 -0.65
7 -0.57
8 -0.3
9 -0.51

> <PUBCHEM_EFFECTIVE_ROTOR_COUNT>
5.8

> <PUBCHEM_PHARMACOPHORE_FEATURES>
10
1 10 acceptor
1 5 acceptor
1 6 acceptor
1 7 acceptor
1 9 acceptor
3 6 7 22 anion
5 1 10 21 23 24 rings
6 11 12 13 14 15 16 rings
6 23 24 25 26 27 28 rings
6 8 9 14 16 17 18 rings

> <PUBCHEM_HEAVY_ATOM_COUNT>
29

> <PUBCHEM_ATOM_DEF_STEREO_COUNT>
0

> <PUBCHEM_ATOM_UDEF_STEREO_COUNT>
0

> <PUBCHEM_BOND_DEF_STEREO_COUNT>
0

> <PUBCHEM_BOND_UDEF_STEREO_COUNT>
0

> <PUBCHEM_ISOTOPIC_ATOM_COUNT>
0

> <PUBCHEM_COMPONENT_COUNT>
1

> <PUBCHEM_CACTVS_TAUTO_COUNT>
1

> <PUBCHEM_CONFORMER_ID>
000204E300000002

> <PUBCHEM_MMFF94_ENERGY>
45.3314

> <PUBCHEM_FEATURE_SELFOVERLAP>
50.897

> <PUBCHEM_SHAPE_FINGERPRINT>
10190108 129 18408045105125910184
10319926 262 18340779233599532175
12107183 9 18270401568780432595
12422481 6 18113905910372853173
12596602 18 18059575848845223275
12633257 1 17968931041089369044
12778500 126 18342461395894951529
12788726 201 16486988292378523705
12892183 10 18409725187960443110
12925494 130 18045495314805745061
13533116 47 18334018272228607795
13583140 156 18338498829055891972
13726171 33 17058943344799588809
13782708 43 14562819923747857145
13965767 371 18202559596912632892
14341114 328 18268705194158285764
14528608 73 11240000040506758149
14739800 52 17989200490523392745
14951699 99 18200881784712591816
15003188 100 11095877185734982922
15210252 30 13973134266770607098
15420108 30 17916855954548162550
15475509 84 18200028409534832552
16067690 210 18130518435614778401
1813 80 16153431640520299151
1979834 28 18040436611417721826
20511986 3 17988913517967515177
20715895 44 17916315952737209761
20775438 99 8069444955929745680
20775530 9 17677883527322325514
21421861 104 18411972556085394456
21792934 111 18261398824398391937
21859007 373 18042394739249651301
23559900 14 17915486972182070095
3117164 225 18336550426259262815
312425 54 18335706035662775139
3178227 256 18408877448544764240
3633792 109 18189594160705087703
3680242 22 18340782446614916649
3737641 26 18187920617849712310
392239 28 18261937644491853736
5104073 3 18341622529433494995
57724786 102 17775283867894674148
57816373 69 18198055868120732727
7097593 13 18337667619792701870
7970288 3 14273724170893046609
8509985 295 17846498114880966713
86090 222 16878231887293612571
960060 61 11097860717786257941

> <PUBCHEM_SHAPE_MULTIPOLES>
546.28
15.06
3.41
1.96
18.3
1.24
-0.2
-4.72
10.43
-5.25
1.42
-0.13
-0.06
-1.01

> <PUBCHEM_SHAPE_SELFOVERLAP>
1182.949

> <PUBCHEM_SHAPE_VOLUME>
302.3

> <PUBCHEM_COORDINATE_TYPE>
2
5
10

$$$$
