REMARK  Name = 132321
REMARK  14 active torsions:
REMARK  status: ('A' for Active; 'I' for Inactive)
REMARK    1  A    between atoms: N_3  and  O_22
REMARK    2  A    between atoms: C_4  and  C_11
REMARK    3  A    between atoms: C_8  and  C_24
REMARK    4  A    between atoms: N_10  and  C_13
REMARK    5  A    between atoms: C_13  and  C_15
REMARK    6  A    between atoms: C_13  and  C_18
REMARK    7  A    between atoms: C_15  and  C_16
REMARK    8  A    between atoms: C_18  and  C_20
REMARK    9  A    between atoms: C_24  and  C_25
REMARK   10  A    between atoms: C_24  and  C_30
REMARK   11  A    between atoms: C_25  and  C_26
REMARK   12  A    between atoms: C_26  and  C_27
REMARK   13  A    between atoms: C_27  and  C_28
REMARK   14  A    between atoms: C_30  and  C_33
REMARK                            x       y       z     vdW  Elec       q    Type
REMARK                         _______ _______ _______ _____ _____    ______ ____
ROOT
ATOM      1  O   UNL     1       1.059  -0.983  -1.076  0.00  0.00    -0.274 OA
ATOM      2  N   UNL     1       0.537  -0.389   1.109  0.00  0.00    -0.192 N 
ATOM      3  N   UNL     1       0.898   0.542   2.108  0.00  0.00    -0.093 NA
ATOM      4  C   UNL     1      -0.613  -1.273   1.359  0.00  0.00    +0.170 C 
ATOM      5  C   UNL     1      -0.633  -1.857   2.771  0.00  0.00    +0.032 C 
ATOM      6  C   UNL     1      -0.282  -0.820   3.833  0.00  0.00    +0.024 C 
ATOM      7  C   UNL     1       0.990  -0.076   3.435  0.00  0.00    +0.123 C 
ATOM      8  C   UNL     1       1.280  -0.306  -0.067  0.00  0.00    +0.241 C 
ENDROOT
BRANCH   4  11
ATOM      9  O   UNL     1      -2.486   0.099   1.923  0.00  0.00    -0.273 OA
ATOM     10  N   UNL     1      -2.203  -0.566  -0.289  0.00  0.00    -0.298 N 
ATOM     11  C   UNL     1      -1.861  -0.497   1.050  0.00  0.00    +0.242 C 
ATOM     12  H   UNL     1      -1.620  -1.077  -0.896  0.00  0.00    +0.150 HD
BRANCH  10  13
ATOM     13  C   UNL     1      -3.375   0.076  -0.840  0.00  0.00    +0.129 C 
BRANCH  13  15
ATOM     14  O   UNL     1      -4.459  -2.078  -0.665  0.00  0.00    -0.294 OA
ATOM     15  C   UNL     1      -4.566  -0.853  -0.609  0.00  0.00    +0.168 C 
BRANCH  15  16
ATOM     16  C   UNL     1      -5.885  -0.174  -0.270  0.00  0.00    +0.066 C 
ATOM     17  C   UNL     1      -7.009  -1.167  -0.033  0.00  0.00    +0.008 C 
ENDBRANCH  15  16
ENDBRANCH  13  15
BRANCH  13  18
ATOM     18  C   UNL     1      -3.216   0.473  -2.323  0.00  0.00    +0.025 C 
ATOM     19  C   UNL     1      -3.058  -0.745  -3.246  0.00  0.00    +0.002 C 
BRANCH  18  20
ATOM     20  C   UNL     1      -2.034   1.438  -2.562  0.00  0.00    +0.002 C 
ATOM     21  C   UNL     1      -2.077   2.692  -1.699  0.00  0.00    +0.000 C 
ENDBRANCH  18  20
ENDBRANCH  13  18
ENDBRANCH  10  13
ENDBRANCH   4  11
BRANCH   3  22
ATOM     22  O   UNL     1      -0.017   1.672   2.148  0.00  0.00    -0.294 OA
ATOM     23  H   UNL     1      -0.073   2.075   1.268  0.00  0.00    +0.239 HD
ENDBRANCH   3  22
BRANCH   8  24
ATOM     24  C   UNL     1       2.412   0.690  -0.075  0.00  0.00    +0.087 C 
BRANCH  24  25
ATOM     25  C   UNL     1       3.543   0.206  -0.994  0.00  0.00    +0.010 C 
BRANCH  25  26
ATOM     26  C   UNL     1       4.153  -1.120  -0.522  0.00  0.00    +0.001 C 
BRANCH  26  27
ATOM     27  C   UNL     1       5.316  -1.546  -1.420  0.00  0.00    +0.000 C 
BRANCH  27  28
ATOM     28  C   UNL     1       5.952  -2.845  -0.927  0.00  0.00    +0.000 C 
ATOM     29  C   UNL     1       7.129  -3.254  -1.798  0.00  0.00    +0.000 C 
ENDBRANCH  27  28
ENDBRANCH  26  27
ENDBRANCH  25  26
ENDBRANCH  24  25
BRANCH  24  30
ATOM     30  C   UNL     1       1.847   2.041  -0.529  0.00  0.00    +0.094 C 
BRANCH  30  33
ATOM     31  O   UNL     1       3.759   3.004   0.572  0.00  0.00    -0.275 OA
ATOM     32  N   UNL     1       2.196   4.429  -0.333  0.00  0.00    -0.329 N 
ATOM     33  C   UNL     1       2.704   3.186  -0.030  0.00  0.00    +0.220 C 
ATOM     34  H   UNL     1       2.679   5.239  -0.052  0.00  0.00    +0.145 HD
ATOM     35  H   UNL     1       1.350   4.507  -0.830  0.00  0.00    +0.145 HD
ENDBRANCH  30  33
ENDBRANCH  24  30
ENDBRANCH   8  24
TORSDOF 14
