132321
  -OEChem-03292013323D

 71 71  0     1  0  0  0  0  0999 V2000
   -0.0171    1.6718    2.1485 O   0  0  0  0  0  0  0  0  0  0  0  0
    1.0594   -0.9829   -1.0759 O   0  0  0  0  0  0  0  0  0  0  0  0
   -2.4859    0.0993    1.9234 O   0  0  0  0  0  0  0  0  0  0  0  0
   -4.4587   -2.0782   -0.6647 O   0  0  0  0  0  0  0  0  0  0  0  0
    3.7592    3.0042    0.5716 O   0  0  0  0  0  0  0  0  0  0  0  0
    0.5375   -0.3891    1.1086 N   0  0  0  0  0  0  0  0  0  0  0  0
    0.8977    0.5424    2.1077 N   0  0  2  0  0  0  0  0  0  0  0  0
   -2.2031   -0.5661   -0.2893 N   0  0  0  0  0  0  0  0  0  0  0  0
    2.1962    4.4287   -0.3327 N   0  0  0  0  0  0  0  0  0  0  0  0
   -0.6132   -1.2727    1.3589 C   0  0  1  0  0  0  0  0  0  0  0  0
   -0.6327   -1.8566    2.7712 C   0  0  0  0  0  0  0  0  0  0  0  0
   -0.2825   -0.8195    3.8325 C   0  0  0  0  0  0  0  0  0  0  0  0
    2.4117    0.6897   -0.0754 C   0  0  1  0  0  0  0  0  0  0  0  0
    0.9903   -0.0762    3.4347 C   0  0  0  0  0  0  0  0  0  0  0  0
    1.2795   -0.3065   -0.0672 C   0  0  0  0  0  0  0  0  0  0  0  0
   -3.3747    0.0761   -0.8401 C   0  0  1  0  0  0  0  0  0  0  0  0
   -1.8610   -0.4971    1.0503 C   0  0  0  0  0  0  0  0  0  0  0  0
    3.5431    0.2060   -0.9937 C   0  0  0  0  0  0  0  0  0  0  0  0
   -3.2157    0.4731   -2.3227 C   0  0  1  0  0  0  0  0  0  0  0  0
    1.8470    2.0413   -0.5289 C   0  0  0  0  0  0  0  0  0  0  0  0
    4.1527   -1.1196   -0.5219 C   0  0  0  0  0  0  0  0  0  0  0  0
   -2.0338    1.4381   -2.5616 C   0  0  0  0  0  0  0  0  0  0  0  0
   -4.5665   -0.8528   -0.6093 C   0  0  0  0  0  0  0  0  0  0  0  0
    5.3161   -1.5455   -1.4201 C   0  0  0  0  0  0  0  0  0  0  0  0
   -3.0583   -0.7445   -3.2462 C   0  0  0  0  0  0  0  0  0  0  0  0
   -5.8854   -0.1745   -0.2703 C   0  0  0  0  0  0  0  0  0  0  0  0
    5.9519   -2.8452   -0.9273 C   0  0  0  0  0  0  0  0  0  0  0  0
    2.7035    3.1863   -0.0303 C   0  0  0  0  0  0  0  0  0  0  0  0
   -2.0770    2.6916   -1.6992 C   0  0  0  0  0  0  0  0  0  0  0  0
   -7.0094   -1.1671   -0.0328 C   0  0  0  0  0  0  0  0  0  0  0  0
    7.1294   -3.2544   -1.7978 C   0  0  0  0  0  0  0  0  0  0  0  0
   -0.5459   -2.1123    0.6550 H   0  0  0  0  0  0  0  0  0  0  0  0
   -1.6034   -2.3129    2.9978 H   0  0  0  0  0  0  0  0  0  0  0  0
    0.1136   -2.6603    2.8236 H   0  0  0  0  0  0  0  0  0  0  0  0
   -1.1055   -0.1117    3.9769 H   0  0  0  0  0  0  0  0  0  0  0  0
   -0.1303   -1.3197    4.7959 H   0  0  0  0  0  0  0  0  0  0  0  0
    2.8584    0.7632    0.9222 H   0  0  0  0  0  0  0  0  0  0  0  0
    1.8389   -0.7722    3.4412 H   0  0  0  0  0  0  0  0  0  0  0  0
    1.2208    0.6917    4.1824 H   0  0  0  0  0  0  0  0  0  0  0  0
   -3.5642    0.9719   -0.2372 H   0  0  0  0  0  0  0  0  0  0  0  0
    3.1797    0.0890   -2.0230 H   0  0  0  0  0  0  0  0  0  0  0  0
    4.3345    0.9644   -1.0318 H   0  0  0  0  0  0  0  0  0  0  0  0
   -4.1356    0.9888   -2.6304 H   0  0  0  0  0  0  0  0  0  0  0  0
   -1.6357   -1.1354   -0.9095 H   0  0  0  0  0  0  0  0  0  0  0  0
    0.8201    2.2055   -0.1889 H   0  0  0  0  0  0  0  0  0  0  0  0
    1.8159    2.0942   -1.6249 H   0  0  0  0  0  0  0  0  0  0  0  0
    4.5114   -1.0070    0.5087 H   0  0  0  0  0  0  0  0  0  0  0  0
    3.4006   -1.9158   -0.5145 H   0  0  0  0  0  0  0  0  0  0  0  0
   -1.0801    0.9236   -2.3907 H   0  0  0  0  0  0  0  0  0  0  0  0
   -2.0358    1.7451   -3.6151 H   0  0  0  0  0  0  0  0  0  0  0  0
    6.0736   -0.7525   -1.4398 H   0  0  0  0  0  0  0  0  0  0  0  0
    4.9584   -1.6766   -2.4486 H   0  0  0  0  0  0  0  0  0  0  0  0
   -3.9283   -1.4055   -3.1916 H   0  0  0  0  0  0  0  0  0  0  0  0
   -2.9698   -0.4215   -4.2898 H   0  0  0  0  0  0  0  0  0  0  0  0
   -2.1650   -1.3297   -3.0073 H   0  0  0  0  0  0  0  0  0  0  0  0
    0.6172    2.3979    2.0269 H   0  0  0  0  0  0  0  0  0  0  0  0
   -6.1517    0.4902   -1.0982 H   0  0  0  0  0  0  0  0  0  0  0  0
   -5.7381    0.4284    0.6319 H   0  0  0  0  0  0  0  0  0  0  0  0
    6.2960   -2.7235    0.1063 H   0  0  0  0  0  0  0  0  0  0  0  0
    5.2059   -3.6484   -0.9286 H   0  0  0  0  0  0  0  0  0  0  0  0
   -3.0431    3.1978   -1.7873 H   0  0  0  0  0  0  0  0  0  0  0  0
   -1.2976    3.3910   -2.0192 H   0  0  0  0  0  0  0  0  0  0  0  0
   -1.8944    2.4644   -0.6449 H   0  0  0  0  0  0  0  0  0  0  0  0
   -7.9381   -0.6407    0.2076 H   0  0  0  0  0  0  0  0  0  0  0  0
   -7.1847   -1.7822   -0.9216 H   0  0  0  0  0  0  0  0  0  0  0  0
   -6.7717   -1.8389    0.7987 H   0  0  0  0  0  0  0  0  0  0  0  0
    7.9090   -2.4859   -1.7900 H   0  0  0  0  0  0  0  0  0  0  0  0
    6.8142   -3.4142   -2.8339 H   0  0  0  0  0  0  0  0  0  0  0  0
    7.5678   -4.1867   -1.4284 H   0  0  0  0  0  0  0  0  0  0  0  0
    2.6839    5.2741   -0.0556 H   0  0  0  0  0  0  0  0  0  0  0  0
    1.3237    4.5488   -0.8374 H   0  0  0  0  0  0  0  0  0  0  0  0
  1  7  1  0  0  0  0
  1 56  1  0  0  0  0
  2 15  2  0  0  0  0
  3 17  2  0  0  0  0
  4 23  2  0  0  0  0
  5 28  2  0  0  0  0
  6  7  1  0  0  0  0
  6 10  1  0  0  0  0
  6 15  1  0  0  0  0
  7 14  1  0  0  0  0
  8 16  1  0  0  0  0
  8 17  1  0  0  0  0
  8 44  1  0  0  0  0
  9 28  1  0  0  0  0
  9 70  1  0  0  0  0
  9 71  1  0  0  0  0
 10 11  1  0  0  0  0
 10 17  1  0  0  0  0
 10 32  1  0  0  0  0
 11 12  1  0  0  0  0
 11 33  1  0  0  0  0
 11 34  1  0  0  0  0
 12 14  1  0  0  0  0
 12 35  1  0  0  0  0
 12 36  1  0  0  0  0
 13 15  1  0  0  0  0
 13 18  1  0  0  0  0
 13 20  1  0  0  0  0
 13 37  1  0  0  0  0
 14 38  1  0  0  0  0
 14 39  1  0  0  0  0
 16 19  1  0  0  0  0
 16 23  1  0  0  0  0
 16 40  1  0  0  0  0
 18 21  1  0  0  0  0
 18 41  1  0  0  0  0
 18 42  1  0  0  0  0
 19 22  1  0  0  0  0
 19 25  1  0  0  0  0
 19 43  1  0  0  0  0
 20 28  1  0  0  0  0
 20 45  1  0  0  0  0
 20 46  1  0  0  0  0
 21 24  1  0  0  0  0
 21 47  1  0  0  0  0
 21 48  1  0  0  0  0
 22 29  1  0  0  0  0
 22 49  1  0  0  0  0
 22 50  1  0  0  0  0
 23 26  1  0  0  0  0
 24 27  1  0  0  0  0
 24 51  1  0  0  0  0
 24 52  1  0  0  0  0
 25 53  1  0  0  0  0
 25 54  1  0  0  0  0
 25 55  1  0  0  0  0
 26 30  1  0  0  0  0
 26 57  1  0  0  0  0
 26 58  1  0  0  0  0
 27 31  1  0  0  0  0
 27 59  1  0  0  0  0
 27 60  1  0  0  0  0
 29 61  1  0  0  0  0
 29 62  1  0  0  0  0
 29 63  1  0  0  0  0
 30 64  1  0  0  0  0
 30 65  1  0  0  0  0
 30 66  1  0  0  0  0
 31 67  1  0  0  0  0
 31 68  1  0  0  0  0
 31 69  1  0  0  0  0
M  END
> <PUBCHEM_COMPOUND_CID>
132321

> <PUBCHEM_CONFORMER_RMSD>
1.4

> <PUBCHEM_CONFORMER_DIVERSEORDER>
1
318
85
403
144
475
356
482
106
367
302
442
31
127
485
12
289
179
265
9
261
32
7
284
130
40
443
296
458
326
279
334
184
272
173
309
390
101
346
96
328
172
35
333
308
266
499
264
182
238
362
205
376
404
227
164
145
175
268
223
303
26
388
121
299
95
78
160
63
120
187
484
149
44
397
42
70
76
153
402
324
301
249
396
422
183
353
53
146
310
114
398
141
274
478
139
23
30
41
286
103
174
126
311
49
6
429
361
391
24
382
83
231
419
47
430
282
277
17
440
20
94
91
100
162
18
132
170
169
13
464
292
380
199
305
75
257
344
43
372
212
82
394
177
196
92
74
242
66
340
39
455
81
203
251
57
112
97
215
104
239
143
206
226
52
5
208
21
93
253
11
181
3
297
258
2
62
98
269
219
271
15
4
22
59
234
14
10

> <PUBCHEM_MMFF94_PARTIAL_CHARGES>
23
1 -0.3
10 0.36
13 0.06
14 0.27
15 0.57
16 0.36
17 0.57
2 -0.57
20 0.06
23 0.45
26 0.06
28 0.57
3 -0.57
4 -0.57
44 0.37
5 -0.57
56 0.4
6 -0.35
7 -0.38
70 0.37
71 0.37
8 -0.73
9 -0.8

> <PUBCHEM_EFFECTIVE_ROTOR_COUNT>
16.2

> <PUBCHEM_PHARMACOPHORE_FEATURES>
14
1 1 anion
1 2 acceptor
1 25 hydrophobe
1 29 hydrophobe
1 3 acceptor
1 30 hydrophobe
1 31 hydrophobe
1 4 acceptor
1 5 acceptor
1 8 donor
1 9 donor
3 13 18 20 hydrophobe
3 21 24 27 hydrophobe
6 6 7 10 11 12 14 rings

> <PUBCHEM_HEAVY_ATOM_COUNT>
31

> <PUBCHEM_ATOM_DEF_STEREO_COUNT>
0

> <PUBCHEM_ATOM_UDEF_STEREO_COUNT>
4

> <PUBCHEM_BOND_DEF_STEREO_COUNT>
0

> <PUBCHEM_BOND_UDEF_STEREO_COUNT>
0

> <PUBCHEM_ISOTOPIC_ATOM_COUNT>
0

> <PUBCHEM_COMPONENT_COUNT>
1

> <PUBCHEM_CACTVS_TAUTO_COUNT>
12

> <PUBCHEM_CONFORMER_ID>
000204E100000001

> <PUBCHEM_MMFF94_ENERGY>
47.367

> <PUBCHEM_FEATURE_SELFOVERLAP>
71.062

> <PUBCHEM_SHAPE_FINGERPRINT>
10670039 82 16226046652456802918
11578080 2 17533521151235737324
11582403 64 17613971403259384328
12166972 35 17989208135950372350
12422481 6 12391499902654773174
12788726 201 17900545576039977026
13004483 165 15482671260317392914
13140716 1 16372977883665052661
14068700 675 17846506877147059154
14713325 29 15142119507061770808
15183329 4 15792022117601165446
15324884 4 17462310215189013178
17349148 13 17560532737426184734
20600515 1 16017705524290569451
2132832 1 17632305549372704928
23536364 44 18116435839077835244
244849 19 17970361505896363106
3004659 81 17131845286574281340
5252454 2 17098039547617189557
57527295 17 17896322402990191354
58260988 647 18411429392403214422
59444896 2 16884690217338185008
59755656 215 17530967964618760867

> <PUBCHEM_SHAPE_MULTIPOLES>
588.69
12.82
3.57
3.41
3.55
0.34
0.1
-1.36
-15
-0.58
2.77
4.96
0.36
3.24

> <PUBCHEM_SHAPE_SELFOVERLAP>
1158.202

> <PUBCHEM_SHAPE_VOLUME>
349.2

> <PUBCHEM_COORDINATE_TYPE>
2
5
10

$$$$
