REMARK  Name = 132338
REMARK  10 active torsions:
REMARK  status: ('A' for Active; 'I' for Inactive)
REMARK    1  A    between atoms: C_1  and  O_2
REMARK    2  A    between atoms: C_1  and  C_4
REMARK    3  A    between atoms: C_1  and  C_15
REMARK    4  A    between atoms: C_4  and  O_5
REMARK    5  A    between atoms: C_4  and  C_7
REMARK    6  A    between atoms: C_7  and  O_8
REMARK    7  A    between atoms: C_7  and  C_10
REMARK    8  A    between atoms: C_10  and  S_11
REMARK    9  A    between atoms: C_15  and  C_16
REMARK   10  A    between atoms: C_16  and  C_19
REMARK                            x       y       z     vdW  Elec       q    Type
REMARK                         _______ _______ _______ _____ _____    ______ ____
ROOT
ATOM      1  C   UNL     1       0.615  -1.362  -0.441  0.00  0.00    +0.140 C 
ENDROOT
BRANCH   1   2
ATOM      2  O   UNL     1       1.099  -1.954  -1.653  0.00  0.00    -0.382 OA
ATOM      3  H   UNL     1       2.038  -2.176  -1.552  0.00  0.00    +0.210 HD
ENDBRANCH   1   2
BRANCH   1   4
ATOM      4  C   UNL     1       1.498  -0.139  -0.132  0.00  0.00    +0.166 C 
BRANCH   4   5
ATOM      5  O   UNL     1       1.265   0.813  -1.178  0.00  0.00    -0.380 OA
ATOM      6  H   UNL     1       0.314   0.994  -1.245  0.00  0.00    +0.211 HD
ENDBRANCH   4   5
BRANCH   4   7
ATOM      7  C   UNL     1       3.008  -0.420  -0.031  0.00  0.00    +0.164 C 
BRANCH   7   8
ATOM      8  O   UNL     1       3.225  -1.315   1.066  0.00  0.00    -0.380 OA
ATOM      9  H   UNL     1       2.690  -2.114   0.943  0.00  0.00    +0.211 HD
ENDBRANCH   7   8
BRANCH   7  10
ATOM     10  C   UNL     1       3.856   0.832   0.176  0.00  0.00    +0.190 C 
BRANCH  10  11
ATOM     11  S   UNL     1       5.581   0.444   0.228  0.00  0.00    +0.025 S 
ATOM     12  O   UNL     1       6.139   1.976   0.248  0.00  0.00    -0.069 OA
ATOM     13  O   UNL     1       5.958  -0.175  -1.028  0.00  0.00    -0.069 OA
ATOM     14  O   UNL     1       5.878  -0.178   1.504  0.00  0.00    -0.069 OA
ENDBRANCH  10  11
ENDBRANCH   7  10
ENDBRANCH   4   7
ENDBRANCH   1   4
BRANCH   1  15
ATOM     15  C   UNL     1      -0.867  -1.024  -0.637  0.00  0.00    +0.037 C 
BRANCH  15  16
ATOM     16  C   UNL     1      -1.514  -0.478   0.644  0.00  0.00    +0.030 C 
BRANCH  16  19
ATOM     17 CL   UNL     1      -2.327   2.331  -0.329  0.00  0.00    -0.083 Cl
ATOM     18 CL   UNL     1      -7.388   0.516  -0.103  0.00  0.00    -0.082 Cl
ATOM     19  C   UNL     1      -2.982  -0.198   0.447  0.00  0.00    -0.011 C 
ATOM     20  C   UNL     1      -3.425   1.044   0.011  0.00  0.00    +0.055 C 
ATOM     21  C   UNL     1      -3.880  -1.222   0.716  0.00  0.00    -0.003 C 
ATOM     22  C   UNL     1      -4.791   1.265  -0.160  0.00  0.00    +0.022 C 
ATOM     23  C   UNL     1      -5.247  -1.000   0.546  0.00  0.00    +0.011 C 
ATOM     24  C   UNL     1      -5.702   0.243   0.107  0.00  0.00    +0.058 C 
ENDBRANCH  16  19
ENDBRANCH  15  16
ENDBRANCH   1  15
TORSDOF 10
