REMARK  Name = 132323
REMARK  6 active torsions:
REMARK  status: ('A' for Active; 'I' for Inactive)
REMARK    1  A    between atoms: N_2  and  C_17
REMARK    2  A    between atoms: C_10  and  C_12
REMARK    3  A    between atoms: C_12  and  C_14
REMARK    4  A    between atoms: C_14  and  O_15
REMARK    5  A    between atoms: C_17  and  C_20
REMARK    6  A    between atoms: C_25  and  C_30
REMARK                            x       y       z     vdW  Elec       q    Type
REMARK                         _______ _______ _______ _____ _____    ______ ____
ROOT
ATOM      1  O   UNL     1       1.329   2.602  -1.238  0.00  0.00    -0.266 OA
ATOM      2  N   UNL     1       1.641   0.333  -1.550  0.00  0.00    -0.209 N 
ATOM      3  N   UNL     1       2.334  -0.808  -1.286  0.00  0.00    -0.171 NA
ATOM      4  C   UNL     1       5.048   1.710   2.049  0.00  0.00    +0.005 C 
ATOM      5  C   UNL     1       4.933   0.446   1.193  0.00  0.00    +0.027 C 
ATOM      6  C   UNL     1       4.841   2.961   1.206  0.00  0.00    +0.005 C 
ATOM      7  C   UNL     1       3.785   0.488   0.224  0.00  0.00    -0.006 A 
ATOM      8  C   UNL     1       3.468   2.946   0.532  0.00  0.00    +0.031 C 
ATOM      9  C   UNL     1       3.108   1.608  -0.062  0.00  0.00    +0.033 A 
ATOM     10  C   UNL     1       3.333  -0.743  -0.468  0.00  0.00    +0.086 A 
ATOM     11  C   UNL     1       1.951   1.566  -1.000  0.00  0.00    +0.272 A 
ENDROOT
BRANCH  10  12
ATOM     12  C   UNL     1       4.081  -2.032  -0.208  0.00  0.00    +0.156 C 
BRANCH  12  14
ATOM     13  O   UNL     1       2.553  -2.497   1.622  0.00  0.00    -0.250 OA
ATOM     14  C   UNL     1       3.520  -2.803   0.940  0.00  0.00    +0.320 C 
BRANCH  14  15
ATOM     15  O   UNL     1       4.256  -3.927   1.132  0.00  0.00    -0.480 OA
ATOM     16  H   UNL     1       4.988  -4.109   0.576  0.00  0.00    +0.295 HD
ENDBRANCH  14  15
ENDBRANCH  12  14
ENDBRANCH  10  12
BRANCH   2  17
ATOM     17  C   UNL     1       0.532   0.166  -2.476  0.00  0.00    +0.196 C 
BRANCH  17  20
ATOM     18  S   UNL     1      -1.130  -1.794  -1.491  0.00  0.00    -0.056 S 
ATOM     19  N   UNL     1      -1.587   0.740  -1.345  0.00  0.00    -0.401 NA
ATOM     20  C   UNL     1      -0.749  -0.160  -1.765  0.00  0.00    +0.163 C 
ATOM     21  C   UNL     1      -2.658   0.102  -0.735  0.00  0.00    +0.120 C 
ATOM     22  C   UNL     1      -2.587  -1.294  -0.717  0.00  0.00    +0.057 C 
ATOM     23  C   UNL     1      -3.779   0.731  -0.150  0.00  0.00    +0.090 C 
ATOM     24  C   UNL     1      -3.594  -2.080  -0.135  0.00  0.00    +0.008 C 
ATOM     25  C   UNL     1      -4.785  -0.046   0.431  0.00  0.00    +0.056 C 
ATOM     26  C   UNL     1      -4.692  -1.433   0.437  0.00  0.00    +0.001 C 
BRANCH  25  30
ATOM     27  F   UNL     1      -6.874  -0.251   1.579  0.00  0.00    -0.166 F 
ATOM     28  F   UNL     1      -5.645   1.466   2.073  0.00  0.00    -0.166 F 
ATOM     29  F   UNL     1      -6.668   1.380   0.156  0.00  0.00    -0.166 F 
ATOM     30  C   UNL     1      -5.968   0.622   1.049  0.00  0.00    +0.415 C 
ENDBRANCH  25  30
ENDBRANCH  17  20
ENDBRANCH   2  17
TORSDOF 6
