REMARK  Name = 132348
REMARK  8 active torsions:
REMARK  status: ('A' for Active; 'I' for Inactive)
REMARK    1  A    between atoms: N_1  and  C1*_12
REMARK    2  A    between atoms: C_9  and  C_26
REMARK    3  A    between atoms: C2*_11  and  O2*_15
REMARK    4  A    between atoms: C3*_13  and  O3*_17
REMARK    5  A    between atoms: C4*_14  and  C5*_19
REMARK    6  A    between atoms: C5*_19  and  O5*_20
REMARK    7  A    between atoms: C_25  and  C_27
REMARK    8  A    between atoms: C_27  and  C_28
REMARK                            x       y       z     vdW  Elec       q    Type
REMARK                         _______ _______ _______ _____ _____    ______ ____
ROOT
ATOM      1  N   UNL     1       2.863  -0.293   0.490  0.00  0.00    -0.236 N 
ATOM      2  N   UNL     1       3.586  -2.399   0.610  0.00  0.00    -0.240 NA
ATOM      3  N   UNL     1       0.539  -0.684  -0.102  0.00  0.00    -0.316 NA
ATOM      4  N   UNL     1       0.062  -3.070  -0.290  0.00  0.00    -0.317 NA
ATOM      5  C   UNL     1       1.785  -1.081   0.198  0.00  0.00    +0.221 C 
ATOM      6  C   UNL     1       3.920  -1.131   0.729  0.00  0.00    +0.224 C 
ATOM      7  C   UNL     1       2.255  -2.382   0.278  0.00  0.00    +0.167 C 
ATOM      8  C   UNL     1       1.339  -3.398   0.020  0.00  0.00    +0.211 C 
ATOM      9  C   UNL     1      -0.248  -1.754  -0.330  0.00  0.00    +0.188 C 
ATOM     10  N   UNL     1       1.728  -4.747   0.079  0.00  0.00    -0.331 N 
ATOM     11  H   UNL     1       1.071  -5.457  -0.105  0.00  0.00    +0.145 HD
ATOM     12  H   UNL     1       2.657  -4.982   0.304  0.00  0.00    +0.145 HD
ENDROOT
BRANCH   1  15
ATOM     13  O4* UNL     1       1.621   1.664   0.997  0.00  0.00    -0.333 OA
ATOM     14  C2* UNL     1       3.149   1.828  -0.805  0.00  0.00    +0.187 C 
ATOM     15  C1* UNL     1       2.893   1.166   0.540  0.00  0.00    +0.226 C 
ATOM     16  C3* UNL     1       2.515   3.189  -0.597  0.00  0.00    +0.171 C 
ATOM     17  C4* UNL     1       1.287   2.851   0.241  0.00  0.00    +0.175 C 
BRANCH  14  18
ATOM     18  O2* UNL     1       4.528   1.899  -1.104  0.00  0.00    -0.378 OA
ATOM     19  H2* UNL     1       4.879   1.003  -1.227  0.00  0.00    +0.211 HD
ENDBRANCH  14  18
BRANCH  16  20
ATOM     20  O3* UNL     1       3.391   4.008   0.178  0.00  0.00    -0.379 OA
ATOM     21  H3* UNL     1       4.176   4.229  -0.347  0.00  0.00    +0.211 HD
ENDBRANCH  16  20
BRANCH  17  22
ATOM     22  C5* UNL     1       0.056   2.552  -0.603  0.00  0.00    +0.169 C 
BRANCH  22  23
ATOM     23  O5* UNL     1      -1.023   2.241   0.262  0.00  0.00    -0.379 OA
ATOM     24  H5* UNL     1      -1.814   2.049  -0.265  0.00  0.00    +0.211 HD
ENDBRANCH  22  23
ENDBRANCH  17  22
ENDBRANCH   1  15
BRANCH   9  26
ATOM     25  C   UNL     1      -2.749  -1.204  -0.937  0.00  0.00    -0.074 C 
ATOM     26  C   UNL     1      -1.608  -1.456  -0.660  0.00  0.00    +0.032 C 
BRANCH  25  27
ATOM     27  C   UNL     1      -4.144  -0.896  -1.275  0.00  0.00    +0.077 C 
BRANCH  27  28
ATOM     28  C   UNL     1      -4.678   0.246  -0.429  0.00  0.00    +0.013 C 
ATOM     29  C   UNL     1      -6.142   0.570  -0.710  0.00  0.00    +0.001 C 
ATOM     30  C   UNL     1      -4.695  -0.068   1.064  0.00  0.00    +0.001 C 
ATOM     31  C   UNL     1      -6.585   1.374   0.509  0.00  0.00    +0.000 C 
ATOM     32  C   UNL     1      -5.645   0.972   1.647  0.00  0.00    +0.000 C 
ENDBRANCH  27  28
ENDBRANCH  25  27
ENDBRANCH   9  26
TORSDOF 8
