REMARK  Name = 132399059
REMARK  9 active torsions:
REMARK  status: ('A' for Active; 'I' for Inactive)
REMARK    1  A    between atoms: O_1  and  C_7
REMARK    2  A    between atoms: O_1  and  C_18
REMARK    3  A    between atoms: C_5  and  O_13
REMARK    4  A    between atoms: C_6  and  C_15
REMARK    5  A    between atoms: C_19  and  O_23
REMARK    6  A    between atoms: C_20  and  O_25
REMARK    7  A    between atoms: C_21  and  O_27
REMARK    8  A    between atoms: C_22  and  C_29
REMARK    9  A    between atoms: C_29  and  O_30
REMARK                            x       y       z     vdW  Elec       q    Type
REMARK                         _______ _______ _______ _____ _____    ______ ____
ROOT
ATOM      1  O   UNL     1       0.748  -1.158  -0.323  0.00  0.00    -0.293 OA
ENDROOT
BRANCH   1   7
ATOM      2  O   UNL     1      -0.511   0.817  -0.053  0.00  0.00    -0.449 OA
ATOM      3  O   UNL     1      -5.311   0.914   0.452  0.00  0.00    -0.445 OA
ATOM      4  O   UNL     1      -4.084   2.787   0.661  0.00  0.00    -0.245 OA
ATOM      5  C   UNL     1      -2.970  -0.749   0.307  0.00  0.00    +0.129 C 
ATOM      6  C   UNL     1      -1.712  -1.340  -0.385  0.00  0.00    +0.121 C 
ATOM      7  C   UNL     1      -0.469  -0.599   0.170  0.00  0.00    +0.296 C 
ATOM      8  C   UNL     1      -4.288  -1.186  -0.334  0.00  0.00    +0.079 C 
ATOM      9  C   UNL     1      -2.900   0.751   0.344  0.00  0.00    +0.115 C 
ATOM     10  C   UNL     1      -5.452  -0.521   0.377  0.00  0.00    +0.212 C 
ATOM     11  C   UNL     1      -1.739   1.397   0.152  0.00  0.00    +0.179 C 
ATOM     12  C   UNL     1      -4.124   1.571   0.506  0.00  0.00    +0.342 C 
BRANCH   5  13
ATOM     13  O   UNL     1      -2.955  -1.242   1.658  0.00  0.00    -0.382 OA
ATOM     14  H   UNL     1      -2.999  -2.211   1.650  0.00  0.00    +0.211 HD
ENDBRANCH   5  13
BRANCH   6  15
ATOM     15  C   UNL     1      -1.766  -1.284  -1.889  0.00  0.00    -0.018 C 
ATOM     16  C   UNL     1      -1.708  -2.360  -2.680  0.00  0.00    -0.005 C 
ENDBRANCH   6  15
ENDBRANCH   1   7
BRANCH   1  18
ATOM     17  O   UNL     1       2.254   0.603  -0.593  0.00  0.00    -0.326 OA
ATOM     18  C   UNL     1       1.884  -0.498   0.234  0.00  0.00    +0.268 C 
ATOM     19  C   UNL     1       3.024  -1.512   0.317  0.00  0.00    +0.197 C 
ATOM     20  C   UNL     1       4.327  -0.850   0.763  0.00  0.00    +0.172 C 
ATOM     21  C   UNL     1       4.608   0.419  -0.043  0.00  0.00    +0.169 C 
ATOM     22  C   UNL     1       3.374   1.324  -0.077  0.00  0.00    +0.176 C 
BRANCH  19  23
ATOM     23  O   UNL     1       2.658  -2.520   1.260  0.00  0.00    -0.378 OA
ATOM     24  H   UNL     1       1.831  -2.942   0.977  0.00  0.00    +0.211 HD
ENDBRANCH  19  23
BRANCH  20  25
ATOM     25  O   UNL     1       5.415  -1.753   0.559  0.00  0.00    -0.379 OA
ATOM     26  H   UNL     1       5.258  -2.567   1.062  0.00  0.00    +0.211 HD
ENDBRANCH  20  25
BRANCH  21  27
ATOM     27  O   UNL     1       5.694   1.125   0.551  0.00  0.00    -0.379 OA
ATOM     28  H   UNL     1       6.477   0.553   0.574  0.00  0.00    +0.211 HD
ENDBRANCH  21  27
BRANCH  22  29
ATOM     29  C   UNL     1       3.591   2.540  -0.972  0.00  0.00    +0.169 C 
BRANCH  29  30
ATOM     30  O   UNL     1       2.411   3.322  -0.964  0.00  0.00    -0.379 OA
ATOM     31  H   UNL     1       2.534   4.100  -1.530  0.00  0.00    +0.211 HD
ENDBRANCH  29  30
ENDBRANCH  22  29
ENDBRANCH   1  18
TORSDOF 9
