132387
  -OEChem-03292013323D

 53 56  0     1  0  0  0  0  0999 V2000
   -2.2928   -2.8679    0.9310 O   0  0  0  0  0  0  0  0  0  0  0  0
   -1.1785   -0.8909    1.0598 O   0  0  0  0  0  0  0  0  0  0  0  0
   -2.8561    1.1213    0.2067 N   0  0  3  0  0  0  0  0  0  0  0  0
   -4.1507    0.5736   -1.7023 N   0  0  0  0  0  0  0  0  0  0  0  0
    2.4829   -2.2769   -0.3362 N   0  0  0  0  0  0  0  0  0  0  0  0
    2.7085   -1.5278    1.7888 N   0  0  0  0  0  0  0  0  0  0  0  0
    1.7647   -2.9630    0.5640 N   0  0  0  0  0  0  0  0  0  0  0  0
    1.8681   -2.5542    1.8362 N   0  0  0  0  0  0  0  0  0  0  0  0
   -2.0588    2.2521   -0.2725 C   0  0  0  0  0  0  0  0  0  0  0  0
   -3.1489    1.0311    1.6169 C   0  0  0  0  0  0  0  0  0  0  0  0
   -0.5986    1.8948   -0.2968 C   0  0  0  0  0  0  0  0  0  0  0  0
   -4.4743    1.7139    1.9378 C   0  0  0  0  0  0  0  0  0  0  0  0
   -3.3282    0.1628   -0.7014 C   0  0  0  0  0  0  0  0  0  0  0  0
    2.0989    1.2341   -0.3416 C   0  0  0  0  0  0  0  0  0  0  0  0
   -0.0495    1.3334   -1.4423 C   0  0  0  0  0  0  0  0  0  0  0  0
    0.1833    2.1301    0.8266 C   0  0  0  0  0  0  0  0  0  0  0  0
    1.3051    1.0017   -1.4648 C   0  0  0  0  0  0  0  0  0  0  0  0
    1.5379    1.7983    0.8040 C   0  0  0  0  0  0  0  0  0  0  0  0
    3.5038    0.8899   -0.3650 C   0  0  0  0  0  0  0  0  0  0  0  0
   -2.9359   -1.1640   -0.5405 C   0  0  0  0  0  0  0  0  0  0  0  0
   -4.8522    1.6075    3.4089 C   0  0  0  0  0  0  0  0  0  0  0  0
    3.9609   -0.3702    0.0295 C   0  0  0  0  0  0  0  0  0  0  0  0
   -3.4077   -2.1089   -1.4450 C   0  0  0  0  0  0  0  0  0  0  0  0
    4.4190    1.8532   -0.7972 C   0  0  0  0  0  0  0  0  0  0  0  0
    5.3238   -0.6648   -0.0078 C   0  0  0  0  0  0  0  0  0  0  0  0
   -4.5891   -0.3730   -2.5622 C   0  0  0  0  0  0  0  0  0  0  0  0
   -4.2506   -1.7140   -2.4781 C   0  0  0  0  0  0  0  0  0  0  0  0
   -2.0535   -1.5875    0.5378 C   0  0  0  0  0  0  0  0  0  0  0  0
    5.7818    1.5587   -0.8346 C   0  0  0  0  0  0  0  0  0  0  0  0
    3.0527   -1.3930    0.4806 C   0  0  0  0  0  0  0  0  0  0  0  0
    6.2342    0.2996   -0.4400 C   0  0  0  0  0  0  0  0  0  0  0  0
   -2.2148    3.1279    0.3712 H   0  0  0  0  0  0  0  0  0  0  0  0
   -2.3872    2.5735   -1.2697 H   0  0  0  0  0  0  0  0  0  0  0  0
   -2.3532    1.4941    2.2116 H   0  0  0  0  0  0  0  0  0  0  0  0
   -3.2336    0.0017    1.9765 H   0  0  0  0  0  0  0  0  0  0  0  0
   -5.2783    1.2717    1.3364 H   0  0  0  0  0  0  0  0  0  0  0  0
   -4.4240    2.7734    1.6588 H   0  0  0  0  0  0  0  0  0  0  0  0
   -0.6582    1.1475   -2.3227 H   0  0  0  0  0  0  0  0  0  0  0  0
   -0.2391    2.5736    1.7234 H   0  0  0  0  0  0  0  0  0  0  0  0
    1.7260    0.5619   -2.3659 H   0  0  0  0  0  0  0  0  0  0  0  0
    2.1425    1.9865    1.6882 H   0  0  0  0  0  0  0  0  0  0  0  0
   -5.8044    2.1144    3.5936 H   0  0  0  0  0  0  0  0  0  0  0  0
   -4.0899    2.0722    4.0421 H   0  0  0  0  0  0  0  0  0  0  0  0
   -4.9595    0.5608    3.7107 H   0  0  0  0  0  0  0  0  0  0  0  0
    4.0864    2.8408   -1.1093 H   0  0  0  0  0  0  0  0  0  0  0  0
   -3.1267   -3.1565   -1.3790 H   0  0  0  0  0  0  0  0  0  0  0  0
    5.6948   -1.6409    0.2963 H   0  0  0  0  0  0  0  0  0  0  0  0
   -5.2426   -0.0135   -3.3503 H   0  0  0  0  0  0  0  0  0  0  0  0
   -4.6281   -2.4323   -3.1967 H   0  0  0  0  0  0  0  0  0  0  0  0
    6.4909    2.3094   -1.1711 H   0  0  0  0  0  0  0  0  0  0  0  0
    7.2954    0.0704   -0.4691 H   0  0  0  0  0  0  0  0  0  0  0  0
   -1.6931   -3.1445    1.6564 H   0  0  0  0  0  0  0  0  0  0  0  0
    1.1760   -3.7450    0.2979 H   0  0  0  0  0  0  0  0  0  0  0  0
  1 28  1  0  0  0  0
  1 52  1  0  0  0  0
  2 28  2  0  0  0  0
  3  9  1  0  0  0  0
  3 10  1  0  0  0  0
  3 13  1  0  0  0  0
  4 13  1  0  0  0  0
  4 26  2  0  0  0  0
  5  7  1  0  0  0  0
  5 30  2  0  0  0  0
  6  8  2  0  0  0  0
  6 30  1  0  0  0  0
  7  8  1  0  0  0  0
  7 53  1  0  0  0  0
  9 11  1  0  0  0  0
  9 32  1  0  0  0  0
  9 33  1  0  0  0  0
 10 12  1  0  0  0  0
 10 34  1  0  0  0  0
 10 35  1  0  0  0  0
 11 15  2  0  0  0  0
 11 16  1  0  0  0  0
 12 21  1  0  0  0  0
 12 36  1  0  0  0  0
 12 37  1  0  0  0  0
 13 20  2  0  0  0  0
 14 17  2  0  0  0  0
 14 18  1  0  0  0  0
 14 19  1  0  0  0  0
 15 17  1  0  0  0  0
 15 38  1  0  0  0  0
 16 18  2  0  0  0  0
 16 39  1  0  0  0  0
 17 40  1  0  0  0  0
 18 41  1  0  0  0  0
 19 22  1  0  0  0  0
 19 24  2  0  0  0  0
 20 23  1  0  0  0  0
 20 28  1  0  0  0  0
 21 42  1  0  0  0  0
 21 43  1  0  0  0  0
 21 44  1  0  0  0  0
 22 25  2  0  0  0  0
 22 30  1  0  0  0  0
 23 27  2  0  0  0  0
 23 46  1  0  0  0  0
 24 29  1  0  0  0  0
 24 45  1  0  0  0  0
 25 31  1  0  0  0  0
 25 47  1  0  0  0  0
 26 27  1  0  0  0  0
 26 48  1  0  0  0  0
 27 49  1  0  0  0  0
 29 31  2  0  0  0  0
 29 50  1  0  0  0  0
 31 51  1  0  0  0  0
M  END
> <PUBCHEM_COMPOUND_CID>
132387

> <PUBCHEM_CONFORMER_RMSD>
1

> <PUBCHEM_CONFORMER_DIVERSEORDER>
1
33
22
12
26
19
25
11
17
13
32
7
18
9
31
35
34
23
21
10
27
16
24
5
30
29
28
14
6
15
2
20
3
4
8

> <PUBCHEM_MMFF94_PARTIAL_CHARGES>
40
1 -0.65
10 0.37
11 -0.14
13 0.41
15 -0.15
16 -0.15
17 -0.15
18 -0.15
2 -0.57
20 0.09
22 0.05
23 -0.15
24 -0.15
25 -0.15
26 0.16
27 -0.15
28 0.63
29 -0.15
3 -0.84
30 0.46
31 -0.15
38 0.15
39 0.15
4 -0.62
40 0.15
41 0.15
45 0.15
46 0.15
47 0.15
48 0.15
49 0.15
5 -0.71
50 0.15
51 0.15
52 0.5
53 0.27
6 -0.23
7 0.57
8 -0.42
9 0.51

> <PUBCHEM_EFFECTIVE_ROTOR_COUNT>
8

> <PUBCHEM_PHARMACOPHORE_FEATURES>
11
1 1 acceptor
1 2 acceptor
1 21 hydrophobe
1 3 cation
1 4 acceptor
3 1 2 28 anion
3 5 6 30 cation
5 5 6 7 8 30 rings
6 11 14 15 16 17 18 rings
6 19 22 24 25 29 31 rings
6 4 13 20 23 26 27 rings

> <PUBCHEM_HEAVY_ATOM_COUNT>
31

> <PUBCHEM_ATOM_DEF_STEREO_COUNT>
0

> <PUBCHEM_ATOM_UDEF_STEREO_COUNT>
0

> <PUBCHEM_BOND_DEF_STEREO_COUNT>
0

> <PUBCHEM_BOND_UDEF_STEREO_COUNT>
0

> <PUBCHEM_ISOTOPIC_ATOM_COUNT>
0

> <PUBCHEM_COMPONENT_COUNT>
1

> <PUBCHEM_CACTVS_TAUTO_COUNT>
2

> <PUBCHEM_CONFORMER_ID>
0002052300000001

> <PUBCHEM_MMFF94_ENERGY>
107.5781

> <PUBCHEM_FEATURE_SELFOVERLAP>
55.879

> <PUBCHEM_SHAPE_FINGERPRINT>
10366900 7 18341886420312948660
11135926 11 18114186320192470618
11513181 2 18201438013485508918
12553582 1 18334855004672099640
12633257 1 18341892935656705792
12788726 201 18200306620172698833
14068700 675 17702934989253859487
14294032 229 17203058383733347897
14395042 70 16121944741974336401
14765038 42 18269012954324532696
14787075 74 18341613763436970124
14840074 17 18261122858703971444
14931854 50 18334845138984573622
14950920 106 12678892510658859805
15537594 2 18337962203009618760
16067690 210 16773512145000861536
17138139 8 18196635509792850670
17809404 112 15647332983558213826
18608769 82 17750230473697199563
20028762 73 18340474583739629534
20511986 3 18341883083012681013
22393880 68 18265600164557607718
23559900 14 18191574444695794300
392239 28 18341883083730099816
46194498 28 16879067653637785999
463206 1 18408882974927918575
469060 322 16516262849972466083

> <PUBCHEM_SHAPE_MULTIPOLES>
596.34
12.26
3.12
2.32
8
1.03
-0.58
-0.94
1.59
-1.57
-0.99
-3.61
0.05
-3.9

> <PUBCHEM_SHAPE_SELFOVERLAP>
1306.496

> <PUBCHEM_SHAPE_VOLUME>
322.5

> <PUBCHEM_COORDINATE_TYPE>
2
5
10

$$$$
