132472902
  -OEChem-03292013293D

 67 70  0     1  0  0  0  0  0999 V2000
   -0.7488   -0.2785    1.1904 O   0  0  0  0  0  0  0  0  0  0  0  0
    2.3234    1.2178    1.0371 O   0  0  0  0  0  0  0  0  0  0  0  0
    0.5057   -1.1275   -2.9235 O   0  0  0  0  0  0  0  0  0  0  0  0
    2.2002   -1.1334   -0.2949 O   0  0  0  0  0  0  0  0  0  0  0  0
   -2.2046   -1.4285   -2.6217 O   0  0  0  0  0  0  0  0  0  0  0  0
    4.0718    2.5162    1.8078 O   0  0  0  0  0  0  0  0  0  0  0  0
    3.8638   -2.6986   -0.6146 O   0  0  0  0  0  0  0  0  0  0  0  0
   -0.4760    1.4905   -0.4102 C   0  0  2  0  0  0  0  0  0  0  0  0
    0.0418    2.8111    0.1256 C   0  0  2  0  0  0  0  0  0  0  0  0
   -0.9108    2.8106   -1.0376 C   0  0  0  0  0  0  0  0  0  0  0  0
   -1.4905    0.6550    0.3809 C   0  0  2  0  0  0  0  0  0  0  0  0
    0.3881    0.6448   -1.3077 C   0  0  0  0  0  0  0  0  0  0  0  0
    1.4753    3.1775   -0.0710 C   0  0  0  0  0  0  0  0  0  0  0  0
    1.9026    0.9790   -1.3713 C   0  0  1  0  0  0  0  0  0  0  0  0
    2.3390    1.9263   -0.2070 C   0  0  2  0  0  0  0  0  0  0  0  0
   -2.3903    1.4526    1.3504 C   0  0  0  0  0  0  0  0  0  0  0  0
   -2.3105   -0.1771   -0.5819 C   0  0  0  0  0  0  0  0  0  0  0  0
   -0.1834   -0.3680   -2.0038 C   0  0  0  0  0  0  0  0  0  0  0  0
    2.7826   -0.2950   -1.2644 C   0  0  0  0  0  0  0  0  0  0  0  0
   -3.5339    0.5863    1.8899 C   0  0  0  0  0  0  0  0  0  0  0  0
    2.2153    1.6657   -2.7200 C   0  0  0  0  0  0  0  0  0  0  0  0
   -1.6309   -0.7080   -1.8092 C   0  0  0  0  0  0  0  0  0  0  0  0
   -4.4416    0.0433    0.7605 C   0  0  2  0  0  0  0  0  0  0  0  0
   -3.6213   -0.4304   -0.4243 C   0  0  0  0  0  0  0  0  0  0  0  0
   -5.4089    1.1362    0.2720 C   0  0  0  0  0  0  0  0  0  0  0  0
   -5.2645   -1.0930    1.3175 C   0  0  0  0  0  0  0  0  0  0  0  0
    3.2489    1.6224    1.9527 C   0  0  0  0  0  0  0  0  0  0  0  0
    2.8416   -2.3271   -0.0530 C   0  0  0  0  0  0  0  0  0  0  0  0
   -4.8974   -2.3779    1.2666 C   0  0  0  0  0  0  0  0  0  0  0  0
    3.1161    0.7974    3.1968 C   0  0  0  0  0  0  0  0  0  0  0  0
    2.0932   -3.1236    1.0014 C   0  0  0  0  0  0  0  0  0  0  0  0
    1.0440   -4.0039    0.3328 C   0  0  0  0  0  0  0  0  0  0  0  0
    3.0598   -3.9618    1.8340 C   0  0  0  0  0  0  0  0  0  0  0  0
   -0.3346    3.1858    1.0690 H   0  0  0  0  0  0  0  0  0  0  0  0
   -1.9153    3.1791   -0.8736 H   0  0  0  0  0  0  0  0  0  0  0  0
   -0.5315    3.0818   -2.0166 H   0  0  0  0  0  0  0  0  0  0  0  0
    1.5877    3.8274   -0.9457 H   0  0  0  0  0  0  0  0  0  0  0  0
    1.8016    3.7664    0.7945 H   0  0  0  0  0  0  0  0  0  0  0  0
    3.3668    2.2508   -0.4232 H   0  0  0  0  0  0  0  0  0  0  0  0
   -2.8203    2.3393    0.8757 H   0  0  0  0  0  0  0  0  0  0  0  0
   -1.8031    1.8051    2.2077 H   0  0  0  0  0  0  0  0  0  0  0  0
    3.8108   -0.0383   -0.9777 H   0  0  0  0  0  0  0  0  0  0  0  0
    2.8385   -0.8251   -2.2225 H   0  0  0  0  0  0  0  0  0  0  0  0
   -3.1000   -0.2403    2.4700 H   0  0  0  0  0  0  0  0  0  0  0  0
   -4.1245    1.1751    2.6041 H   0  0  0  0  0  0  0  0  0  0  0  0
    3.2717    1.9522   -2.7788 H   0  0  0  0  0  0  0  0  0  0  0  0
    1.6188    2.5701   -2.8734 H   0  0  0  0  0  0  0  0  0  0  0  0
    2.0150    1.0026   -3.5691 H   0  0  0  0  0  0  0  0  0  0  0  0
   -0.1705    0.2346    1.7809 H   0  0  0  0  0  0  0  0  0  0  0  0
   -4.1604   -0.9845   -1.1916 H   0  0  0  0  0  0  0  0  0  0  0  0
   -0.1124   -1.7856   -3.2855 H   0  0  0  0  0  0  0  0  0  0  0  0
   -6.0062    1.5424    1.0972 H   0  0  0  0  0  0  0  0  0  0  0  0
   -6.1091    0.7481   -0.4786 H   0  0  0  0  0  0  0  0  0  0  0  0
   -4.8747    1.9749   -0.1892 H   0  0  0  0  0  0  0  0  0  0  0  0
   -6.1844   -0.8474    1.8439 H   0  0  0  0  0  0  0  0  0  0  0  0
   -5.5309   -3.1364    1.7157 H   0  0  0  0  0  0  0  0  0  0  0  0
   -3.9761   -2.7177    0.8085 H   0  0  0  0  0  0  0  0  0  0  0  0
    3.3015   -0.2545    2.9645 H   0  0  0  0  0  0  0  0  0  0  0  0
    2.1177    0.9272    3.6221 H   0  0  0  0  0  0  0  0  0  0  0  0
    3.8546    1.1281    3.9326 H   0  0  0  0  0  0  0  0  0  0  0  0
    1.6007   -2.4141    1.6781 H   0  0  0  0  0  0  0  0  0  0  0  0
    0.4742   -4.5686    1.0777 H   0  0  0  0  0  0  0  0  0  0  0  0
    3.8268   -3.3276    2.2919 H   0  0  0  0  0  0  0  0  0  0  0  0
    0.3380   -3.3965   -0.2444 H   0  0  0  0  0  0  0  0  0  0  0  0
    1.5052   -4.7167   -0.3598 H   0  0  0  0  0  0  0  0  0  0  0  0
    2.5293   -4.4858    2.6357 H   0  0  0  0  0  0  0  0  0  0  0  0
    3.5734   -4.7102    1.2204 H   0  0  0  0  0  0  0  0  0  0  0  0
  1 11  1  0  0  0  0
  1 49  1  0  0  0  0
  2 15  1  0  0  0  0
  2 27  1  0  0  0  0
  3 18  1  0  0  0  0
  3 51  1  0  0  0  0
  4 19  1  0  0  0  0
  4 28  1  0  0  0  0
  5 22  2  0  0  0  0
  6 27  2  0  0  0  0
  7 28  2  0  0  0  0
  8  9  1  0  0  0  0
  8 10  1  0  0  0  0
  8 11  1  0  0  0  0
  8 12  1  0  0  0  0
  9 10  1  0  0  0  0
  9 13  1  0  0  0  0
  9 34  1  0  0  0  0
 10 35  1  0  0  0  0
 10 36  1  0  0  0  0
 11 16  1  0  0  0  0
 11 17  1  0  0  0  0
 12 14  1  0  0  0  0
 12 18  2  0  0  0  0
 13 15  1  0  0  0  0
 13 37  1  0  0  0  0
 13 38  1  0  0  0  0
 14 15  1  0  0  0  0
 14 19  1  0  0  0  0
 14 21  1  0  0  0  0
 15 39  1  0  0  0  0
 16 20  1  0  0  0  0
 16 40  1  0  0  0  0
 16 41  1  0  0  0  0
 17 22  1  0  0  0  0
 17 24  2  0  0  0  0
 18 22  1  0  0  0  0
 19 42  1  0  0  0  0
 19 43  1  0  0  0  0
 20 23  1  0  0  0  0
 20 44  1  0  0  0  0
 20 45  1  0  0  0  0
 21 46  1  0  0  0  0
 21 47  1  0  0  0  0
 21 48  1  0  0  0  0
 23 24  1  0  0  0  0
 23 25  1  0  0  0  0
 23 26  1  0  0  0  0
 24 50  1  0  0  0  0
 25 52  1  0  0  0  0
 25 53  1  0  0  0  0
 25 54  1  0  0  0  0
 26 29  2  0  0  0  0
 26 55  1  0  0  0  0
 27 30  1  0  0  0  0
 28 31  1  0  0  0  0
 29 56  1  0  0  0  0
 29 57  1  0  0  0  0
 30 58  1  0  0  0  0
 30 59  1  0  0  0  0
 30 60  1  0  0  0  0
 31 32  1  0  0  0  0
 31 33  1  0  0  0  0
 31 61  1  0  0  0  0
 32 62  1  0  0  0  0
 32 64  1  0  0  0  0
 32 65  1  0  0  0  0
 33 63  1  0  0  0  0
 33 66  1  0  0  0  0
 33 67  1  0  0  0  0
M  END
> <PUBCHEM_COMPOUND_CID>
132472902

> <PUBCHEM_CONFORMER_RMSD>
1

> <PUBCHEM_CONFORMER_DIVERSEORDER>
1
9
2
11
5
10
4
8
7
3
6

> <PUBCHEM_MMFF94_PARTIAL_CHARGES>
36
1 -0.68
10 -0.2
11 0.51
12 -0.18
13 0.09
14 0.14
15 0.28
17 -0.12
18 0.09
19 0.28
2 -0.43
22 0.54
23 0.28
24 -0.29
26 -0.29
27 0.66
28 0.66
29 -0.3
3 -0.53
30 0.06
31 0.06
34 0.1
35 0.1
36 0.1
4 -0.43
49 0.4
5 -0.57
50 0.15
51 0.45
55 0.15
56 0.15
57 0.15
6 -0.57
7 -0.57
8 -0.05
9 -0.19

> <PUBCHEM_EFFECTIVE_ROTOR_COUNT>
8.4

> <PUBCHEM_PHARMACOPHORE_FEATURES>
11
1 1 acceptor
1 1 donor
1 29 hydrophobe
1 3 donor
1 5 acceptor
1 6 acceptor
1 7 acceptor
3 31 32 33 hydrophobe
6 11 16 17 20 23 24 rings
6 8 11 12 17 18 22 rings
7 8 9 10 12 13 14 15 rings

> <PUBCHEM_HEAVY_ATOM_COUNT>
33

> <PUBCHEM_ATOM_DEF_STEREO_COUNT>
6

> <PUBCHEM_ATOM_UDEF_STEREO_COUNT>
0

> <PUBCHEM_BOND_DEF_STEREO_COUNT>
0

> <PUBCHEM_BOND_UDEF_STEREO_COUNT>
0

> <PUBCHEM_ISOTOPIC_ATOM_COUNT>
0

> <PUBCHEM_COMPONENT_COUNT>
1

> <PUBCHEM_CACTVS_TAUTO_COUNT>
2

> <PUBCHEM_CONFORMER_ID>
07E5604600000001

> <PUBCHEM_MMFF94_ENERGY>
86.2973

> <PUBCHEM_FEATURE_SELFOVERLAP>
55.871

> <PUBCHEM_SHAPE_FINGERPRINT>
11578080 2 18270103618019452777
12156800 1 17833564766062762610
12422481 6 18130211718682679984
13533116 47 18262532480699757763
13583140 156 18410296939061482981
13965767 371 17918276445808377261
14178342 30 18054221300311499863
14863182 85 18260834851382508576
14955137 171 17844821282671876958
15664445 248 14924813179545897895
20691752 17 18268141136087614732
20775530 9 17680428844836977466
21033648 29 17632587071589437433
23419403 2 17972859393997500564
23559900 14 18187653466140066581
244849 19 17970044704819067109
35225 105 17689462771725708122
392239 28 18266996454826960594
460360 51 18040984168804440231
463206 1 18115046146596420851
484985 159 16958438846599847995
5104073 3 17988381316512855883

> <PUBCHEM_SHAPE_MULTIPOLES>
638.04
8.47
4.23
2.69
9.57
3.35
-0.18
2.89
4.53
-4.3
1.06
-1.65
-0.29
0.29

> <PUBCHEM_SHAPE_SELFOVERLAP>
1364.735

> <PUBCHEM_SHAPE_VOLUME>
349.9

> <PUBCHEM_COORDINATE_TYPE>
2
5
10

$$$$
