REMARK  Name = 132448
REMARK  8 active torsions:
REMARK  status: ('A' for Active; 'I' for Inactive)
REMARK    1  A    between atoms: C_4  and  C_20
REMARK    2  A    between atoms: C_7  and  C_10
REMARK    3  A    between atoms: C_8  and  S_13
REMARK    4  A    between atoms: C_10  and  O_11
REMARK    5  A    between atoms: S_13  and  C_14
REMARK    6  A    between atoms: C_14  and  C_15
REMARK    7  A    between atoms: C_15  and  N_16
REMARK    8  A    between atoms: C_20  and  O_21
REMARK                            x       y       z     vdW  Elec       q    Type
REMARK                         _______ _______ _______ _____ _____    ______ ____
ROOT
ATOM      1  O   UNL     1      -2.736   1.866  -0.388  0.00  0.00    -0.274 OA
ATOM      2  N   UNL     1      -1.131   0.366   0.476  0.00  0.00    -0.254 N 
ATOM      3  C   UNL     1      -1.383  -1.084   0.329  0.00  0.00    +0.096 C 
ATOM      4  C   UNL     1      -2.748  -0.688  -0.296  0.00  0.00    +0.125 C 
ATOM      5  C   UNL     1      -0.185  -1.597  -0.477  0.00  0.00    +0.055 C 
ATOM      6  C   UNL     1      -2.304   0.776  -0.086  0.00  0.00    +0.233 C 
ATOM      7  C   UNL     1       0.117   0.672   0.013  0.00  0.00    +0.132 C 
ATOM      8  C   UNL     1       0.724  -0.395  -0.520  0.00  0.00    +0.025 C 
ENDROOT
BRANCH   7  10
ATOM      9  O   UNL     1       1.364   2.555  -0.730  0.00  0.00    -0.244 OA
ATOM     10  C   UNL     1       0.612   2.043   0.085  0.00  0.00    +0.352 C 
BRANCH  10  11
ATOM     11  O   UNL     1       0.113   2.654   1.182  0.00  0.00    -0.476 OA
ATOM     12  H   UNL     1      -0.460   2.187   1.758  0.00  0.00    +0.295 HD
ENDBRANCH  10  11
ENDBRANCH   7  10
BRANCH   8  13
ATOM     13  S   UNL     1       2.281  -0.459  -1.236  0.00  0.00    -0.119 S 
BRANCH  13  14
ATOM     14  C   UNL     1       3.286  -0.856   0.213  0.00  0.00    +0.038 C 
BRANCH  14  15
ATOM     15  C   UNL     1       4.749  -1.008  -0.181  0.00  0.00    -0.074 C 
BRANCH  15  16
ATOM     16  N   UNL     1       5.550  -1.329   0.996  0.00  0.00    +0.381 N 
ATOM     17  H   UNL     1       6.528  -1.429   0.726  0.00  0.00    -0.089 HD
ATOM     18  H   UNL     1       5.219  -2.203   1.405  0.00  0.00    -0.089 HD
ATOM     19  H   UNL     1       5.462  -0.579   1.682  0.00  0.00    -0.089 HD
ENDBRANCH  15  16
ENDBRANCH  14  15
ENDBRANCH  13  14
ENDBRANCH   8  13
BRANCH   4  20
ATOM     20  C   UNL     1      -4.001  -1.079   0.451  0.00  0.00    +0.148 C 
BRANCH  20  21
ATOM     21  O   UNL     1      -4.308  -2.437   0.168  0.00  0.00    -0.381 OA
ATOM     22  H   UNL     1      -5.113  -2.693   0.646  0.00  0.00    +0.210 HD
ENDBRANCH  20  21
ENDBRANCH   4  20
TORSDOF 8
