132427331
  -OEChem-03292013293D

 32 33  0     0  0  0  0  0  0999 V2000
   -2.2823    0.9286   -0.4161 S   0  0  0  0  0  0  0  0  0  0  0  0
   -5.2858    0.0926   -0.3934 S   0  0  0  0  0  0  0  0  0  0  0  0
    4.2974    0.3758    0.2041 O   0  0  0  0  0  0  0  0  0  0  0  0
    3.2657   -2.1857   -0.0115 O   0  0  0  0  0  0  0  0  0  0  0  0
    2.5755    2.5415    0.3288 O   0  0  0  0  0  0  0  0  0  0  0  0
   -5.4462    1.4880   -0.7926 O   0  0  0  0  0  0  0  0  0  0  0  0
   -5.8724   -0.3696    0.8615 O   0  0  0  0  0  0  0  0  0  0  0  0
   -1.8549   -1.5379    0.3002 N   0  0  0  0  0  0  0  0  0  0  0  0
   -3.1999   -1.3737    0.1605 N   0  0  0  0  0  0  0  0  0  0  0  0
    0.1884   -0.2148    0.0760 C   0  0  0  0  0  0  0  0  0  0  0  0
    2.9485    0.1818    0.1610 C   0  0  0  0  0  0  0  0  0  0  0  0
    2.4327   -1.1097    0.0542 C   0  0  0  0  0  0  0  0  0  0  0  0
    2.0845    1.2750    0.2254 C   0  0  0  0  0  0  0  0  0  0  0  0
    1.0526   -1.3080    0.0117 C   0  0  0  0  0  0  0  0  0  0  0  0
    0.7044    1.0765    0.1828 C   0  0  0  0  0  0  0  0  0  0  0  0
   -1.2503   -0.4227    0.0326 C   0  0  0  0  0  0  0  0  0  0  0  0
   -3.6021   -0.1329   -0.2127 C   0  0  0  0  0  0  0  0  0  0  0  0
    4.9639    0.5637   -1.0423 C   0  0  0  0  0  0  0  0  0  0  0  0
    2.6564   -3.4708   -0.1194 C   0  0  0  0  0  0  0  0  0  0  0  0
    1.6239    3.6023    0.3892 C   0  0  0  0  0  0  0  0  0  0  0  0
    0.6035   -2.2911   -0.0768 H   0  0  0  0  0  0  0  0  0  0  0  0
    0.0227    1.9106    0.2684 H   0  0  0  0  0  0  0  0  0  0  0  0
   -3.7984   -2.1715    0.3406 H   0  0  0  0  0  0  0  0  0  0  0  0
    6.0297    0.7047   -0.8428 H   0  0  0  0  0  0  0  0  0  0  0  0
    4.5831    1.4540   -1.5527 H   0  0  0  0  0  0  0  0  0  0  0  0
    4.8414   -0.3164   -1.6814 H   0  0  0  0  0  0  0  0  0  0  0  0
    3.4656   -4.2077   -0.1576 H   0  0  0  0  0  0  0  0  0  0  0  0
    2.0913   -3.5732   -1.0522 H   0  0  0  0  0  0  0  0  0  0  0  0
    2.0538   -3.7083    0.7639 H   0  0  0  0  0  0  0  0  0  0  0  0
    2.1906    4.5368    0.4600 H   0  0  0  0  0  0  0  0  0  0  0  0
    1.0057    3.5408    1.2914 H   0  0  0  0  0  0  0  0  0  0  0  0
    1.0274    3.6654   -0.5275 H   0  0  0  0  0  0  0  0  0  0  0  0
  1 16  1  0  0  0  0
  1 17  1  0  0  0  0
  2  6  2  0  0  0  0
  2  7  2  0  0  0  0
  2 17  2  0  0  0  0
  3 11  1  0  0  0  0
  3 18  1  0  0  0  0
  4 12  1  0  0  0  0
  4 19  1  0  0  0  0
  5 13  1  0  0  0  0
  5 20  1  0  0  0  0
  8  9  1  0  0  0  0
  8 16  2  0  0  0  0
  9 17  1  0  0  0  0
  9 23  1  0  0  0  0
 10 14  2  0  0  0  0
 10 15  1  0  0  0  0
 10 16  1  0  0  0  0
 11 12  2  0  0  0  0
 11 13  1  0  0  0  0
 12 14  1  0  0  0  0
 13 15  2  0  0  0  0
 14 21  1  0  0  0  0
 15 22  1  0  0  0  0
 18 24  1  0  0  0  0
 18 25  1  0  0  0  0
 18 26  1  0  0  0  0
 19 27  1  0  0  0  0
 19 28  1  0  0  0  0
 19 29  1  0  0  0  0
 20 30  1  0  0  0  0
 20 31  1  0  0  0  0
 20 32  1  0  0  0  0
M  END
> <PUBCHEM_COMPOUND_CID>
132427331

> <PUBCHEM_CONFORMER_RMSD>
0.6

> <PUBCHEM_CONFORMER_DIVERSEORDER>
3
5
4
6
2
1

> <PUBCHEM_MMFF94_PARTIAL_CHARGES>
23
1 -0.28
10 0.09
11 0.08
12 0.08
13 0.08
14 -0.15
15 -0.15
16 0.5
17 0.22
18 0.28
19 0.28
2 1.28
20 0.28
21 0.15
22 0.15
23 0.37
3 -0.36
4 -0.36
5 -0.36
6 -0.65
7 -0.65
8 -0.51
9 -0.37

> <PUBCHEM_EFFECTIVE_ROTOR_COUNT>
4

> <PUBCHEM_PHARMACOPHORE_FEATURES>
7
1 3 acceptor
1 4 acceptor
1 5 acceptor
1 8 acceptor
1 9 donor
5 1 8 9 16 17 rings
6 10 11 12 13 14 15 rings

> <PUBCHEM_HEAVY_ATOM_COUNT>
20

> <PUBCHEM_ATOM_DEF_STEREO_COUNT>
0

> <PUBCHEM_ATOM_UDEF_STEREO_COUNT>
0

> <PUBCHEM_BOND_DEF_STEREO_COUNT>
0

> <PUBCHEM_BOND_UDEF_STEREO_COUNT>
0

> <PUBCHEM_ISOTOPIC_ATOM_COUNT>
0

> <PUBCHEM_COMPONENT_COUNT>
1

> <PUBCHEM_CACTVS_TAUTO_COUNT>
4

> <PUBCHEM_CONFORMER_ID>
07E4AE4300000003

> <PUBCHEM_MMFF94_ENERGY>
82.2348

> <PUBCHEM_FEATURE_SELFOVERLAP>
35.531

> <PUBCHEM_SHAPE_FINGERPRINT>
10411042 1 18123751950816151234
10608611 8 18336259145666649365
10693767 8 18059860520043052510
10967382 1 18411417306755139938
11471102 20 18411979152516935230
116883 192 17909830934113499398
12107183 9 17839188403071722489
12236239 1 17346600789768084849
12293681 160 17629213877110430688
12403259 226 18262512572993246445
12730499 353 18336272326546767123
13140716 1 18195799902583239688
13533116 47 18342457002750348131
13583140 156 18337398231376499867
13675066 3 18113339730588258995
13955234 65 18413105086757162563
14866123 147 17043732314447093379
15081414 286 18412270505860488881
15196674 1 18336826390782279215
15442244 35 18197499528046944257
1601671 61 18409448094240946020
16945 1 18340197592249034138
17844677 252 18412831257623955033
18335252 114 18194950848317309421
19591789 44 16035215087964286786
200 152 17989202655656173843
20645477 56 18187643626802651111
20645477 70 18340205189561494911
20832881 197 18117557327863783091
21033648 29 17895179018493214893
21065198 57 18410011040252749843
21267235 1 18412271626815090227
21279426 13 18119806920422682037
21478907 32 17834956369488918154
21637258 2 15625954080301044934
21709351 56 18270675488803661767
221357 26 18338510855423360205
22289505 5 18410006598671192060
23402655 69 18413102845169121645
23557571 272 17458057166958503373
23559900 14 18412257341769785667
2748010 2 17832993020168975010
3004659 81 18115027390600585854
3060560 45 17988928877340245926
335352 9 18411417341220256742
34934 24 18341606036405663174
3545911 37 18409732880716420139
4072396 5 18338221718583423330
495365 180 18200582726286945144
5104073 3 18335138653424021321
5281201 14 18408882911078493885
54040823 5 18341334418384074090
543358 83 18412547578463819275
58051976 100 18341891948078309735
59755656 215 18409168796738567718
633830 44 18198337549307529612
6443956 14 18337954467821186390
7364860 26 18411979182787278770
8272917 22 18341897385185165862
9709674 26 18408886265327191155
9999458 23 18339080505499142740

> <PUBCHEM_SHAPE_MULTIPOLES>
379.98
10.92
3.05
0.75
13.19
0.36
0.08
0.39
1.39
-3.64
-0.29
0.07
0.1
0.57

> <PUBCHEM_SHAPE_SELFOVERLAP>
783.212

> <PUBCHEM_SHAPE_VOLUME>
221.5

> <PUBCHEM_COORDINATE_TYPE>
2
5
10

$$$$
