REMARK  Name = 13241292
REMARK  5 active torsions:
REMARK  status: ('A' for Active; 'I' for Inactive)
REMARK    1  A    between atoms: C_7  and  C_25
REMARK    2  A    between atoms: C_8  and  C_26
REMARK    3  A    between atoms: C_15  and  O_22
REMARK    4  A    between atoms: C_26  and  O_27
REMARK    5  A    between atoms: O_27  and  C_29
REMARK                            x       y       z     vdW  Elec       q    Type
REMARK                         _______ _______ _______ _____ _____    ______ ____
ROOT
ATOM      1  O   UNL     1      -0.964  -0.400   2.606  0.00  0.00    -0.448 OA
ATOM      2  O   UNL     1      -1.397  -2.234  -1.160  0.00  0.00    -0.291 OA
ATOM      3  O   UNL     1      -1.454  -2.444   1.803  0.00  0.00    -0.250 OA
ATOM      4  C   UNL     1      -0.295   1.272   0.904  0.00  0.00    +0.049 C 
ATOM      5  C   UNL     1      -1.467   0.792  -0.030  0.00  0.00    +0.021 C 
ATOM      6  C   UNL     1      -2.116  -0.547   0.469  0.00  0.00    +0.145 C 
ATOM      7  C   UNL     1       1.034   0.452   0.607  0.00  0.00    +0.074 C 
ATOM      8  C   UNL     1       1.903   0.922  -0.625  0.00  0.00    +0.072 C 
ATOM      9  C   UNL     1       0.020   2.788   0.808  0.00  0.00    +0.007 C 
ATOM     10  C   UNL     1      -2.566   1.859  -0.296  0.00  0.00    +0.001 C 
ATOM     11  C   UNL     1      -3.630  -0.393   0.768  0.00  0.00    +0.022 C 
ATOM     12  C   UNL     1      -4.217  -0.091  -0.611  0.00  0.00    +0.026 C 
ATOM     13  C   UNL     1      -0.828   1.005   2.338  0.00  0.00    +0.209 C 
ATOM     14  C   UNL     1      -3.793   1.318  -1.054  0.00  0.00    +0.004 C 
ATOM     15  C   UNL     1       2.068   2.462  -0.620  0.00  0.00    +0.114 C 
ATOM     16  C   UNL     1       0.737   3.197  -0.471  0.00  0.00    +0.030 C 
ATOM     17  C   UNL     1      -2.233  -1.441  -0.761  0.00  0.00    +0.178 C 
ATOM     18  C   UNL     1      -1.469  -1.225   1.659  0.00  0.00    +0.323 C 
ATOM     19  C   UNL     1      -3.531  -1.150  -1.436  0.00  0.00    +0.013 C 
ATOM     20  C   UNL     1       1.297   0.442  -1.968  0.00  0.00    +0.007 C 
ATOM     21  C   UNL     1      -3.968  -1.788  -2.522  0.00  0.00    -0.002 C 
ENDROOT
BRANCH  15  22
ATOM     22  O   UNL     1       2.706   2.898  -1.820  0.00  0.00    -0.384 OA
ATOM     23  H   UNL     1       3.553   2.436  -1.922  0.00  0.00    +0.210 HD
ENDBRANCH  15  22
BRANCH   7  25
ATOM     24  O   UNL     1       2.197  -0.578   2.457  0.00  0.00    -0.288 OA
ATOM     25  C   UNL     1       1.900   0.444   1.847  0.00  0.00    +0.207 C 
ENDBRANCH   7  25
BRANCH   8  26
ATOM     26  C   UNL     1       3.314   0.268  -0.577  0.00  0.00    +0.211 C 
BRANCH  26  27
ATOM     27  O   UNL     1       3.133  -1.127  -0.608  0.00  0.00    -0.448 OA
BRANCH  27  29
ATOM     28  O   UNL     1       5.417  -1.459  -0.519  0.00  0.00    -0.250 OA
ATOM     29  C   UNL     1       4.274  -1.891  -0.574  0.00  0.00    +0.318 C 
ATOM     30  C   UNL     1       3.929  -3.349  -0.612  0.00  0.00    +0.121 C 
ENDBRANCH  27  29
ENDBRANCH  26  27
ENDBRANCH   8  26
TORSDOF 5
