132489978
  -OEChem-03292013293D

 46 48  0     1  0  0  0  0  0999 V2000
    7.2847   -0.7002   -0.4088 Cl  0  0  0  0  0  0  0  0  0  0  0  0
    0.8445    3.7754    0.0097 O   0  0  0  0  0  0  0  0  0  0  0  0
   -4.3200   -2.6094    0.5704 O   0  0  0  0  0  0  0  0  0  0  0  0
    0.8038   -2.2189    0.3470 O   0  0  0  0  0  0  0  0  0  0  0  0
    3.0999    2.5803   -0.1574 O   0  0  0  0  0  0  0  0  0  0  0  0
   -3.7506    2.0114    1.0558 O   0  0  0  0  0  0  0  0  0  0  0  0
   -6.5430   -2.2549    0.7300 O   0  0  0  0  0  0  0  0  0  0  0  0
    5.4098    1.5539   -0.3396 O   0  0  0  0  0  0  0  0  0  0  0  0
    5.7044   -3.2068   -0.1064 O   0  0  0  0  0  0  0  0  0  0  0  0
   -3.7064   -0.1130    0.1275 N   0  0  0  0  0  0  0  0  0  0  0  0
   -5.8179    0.1726   -1.0860 C   0  0  0  0  0  0  0  0  0  0  0  0
   -5.1301   -0.3539    0.1919 C   0  0  1  0  0  0  0  0  0  0  0  0
    0.5117    0.1099    0.2480 C   0  0  0  0  0  0  0  0  0  0  0  0
    1.1127    1.3634    0.1160 C   0  0  0  0  0  0  0  0  0  0  0  0
   -7.3448    0.1457   -0.9748 C   0  0  0  0  0  0  0  0  0  0  0  0
   -5.3664   -0.5532   -2.3572 C   0  0  0  0  0  0  0  0  0  0  0  0
   -1.6583    1.1695    0.4141 C   0  0  0  0  0  0  0  0  0  0  0  0
    3.3959    0.2503   -0.0588 C   0  0  0  0  0  0  0  0  0  0  0  0
    2.7948   -1.0033    0.0729 C   0  0  0  0  0  0  0  0  0  0  0  0
   -0.8771    0.0136    0.3972 C   0  0  0  0  0  0  0  0  0  0  0  0
    1.3307   -1.1194    0.2313 C   0  0  0  0  0  0  0  0  0  0  0  0
    2.5768    1.4794   -0.0421 C   0  0  0  0  0  0  0  0  0  0  0  0
   -3.1010    1.0691    0.5693 C   0  0  0  0  0  0  0  0  0  0  0  0
    0.3250    2.5208    0.1333 C   0  0  0  0  0  0  0  0  0  0  0  0
   -1.0584    2.4204    0.2825 C   0  0  0  0  0  0  0  0  0  0  0  0
   -5.4195   -1.8189    0.5055 C   0  0  0  0  0  0  0  0  0  0  0  0
    4.7846    0.3465   -0.2079 C   0  0  0  0  0  0  0  0  0  0  0  0
    3.5825   -2.1606    0.0552 C   0  0  0  0  0  0  0  0  0  0  0  0
    4.9660   -2.0602   -0.0934 C   0  0  0  0  0  0  0  0  0  0  0  0
    5.5658   -0.8093   -0.2248 C   0  0  0  0  0  0  0  0  0  0  0  0
   -5.5315    1.2271   -1.2048 H   0  0  0  0  0  0  0  0  0  0  0  0
   -5.5055    0.2100    1.0558 H   0  0  0  0  0  0  0  0  0  0  0  0
   -3.1492   -0.8259   -0.3313 H   0  0  0  0  0  0  0  0  0  0  0  0
   -5.6233   -1.6171   -2.3241 H   0  0  0  0  0  0  0  0  0  0  0  0
   -7.7426   -0.8727   -1.0125 H   0  0  0  0  0  0  0  0  0  0  0  0
   -7.7951    0.6998   -1.8060 H   0  0  0  0  0  0  0  0  0  0  0  0
   -7.6796    0.6161   -0.0446 H   0  0  0  0  0  0  0  0  0  0  0  0
   -5.8502   -0.1204   -3.2396 H   0  0  0  0  0  0  0  0  0  0  0  0
   -4.2849   -0.4683   -2.5024 H   0  0  0  0  0  0  0  0  0  0  0  0
   -1.3241   -0.9670    0.5329 H   0  0  0  0  0  0  0  0  0  0  0  0
   -1.6594    3.3270    0.2898 H   0  0  0  0  0  0  0  0  0  0  0  0
    3.1238   -3.1412    0.1570 H   0  0  0  0  0  0  0  0  0  0  0  0
    1.8074    3.7415   -0.0889 H   0  0  0  0  0  0  0  0  0  0  0  0
   -4.5479   -3.5364    0.7962 H   0  0  0  0  0  0  0  0  0  0  0  0
    4.7871    2.2868   -0.2295 H   0  0  0  0  0  0  0  0  0  0  0  0
    5.1123   -3.9712   -0.0028 H   0  0  0  0  0  0  0  0  0  0  0  0
  1 30  1  0  0  0  0
  2 24  1  0  0  0  0
  2 43  1  0  0  0  0
  3 26  1  0  0  0  0
  3 44  1  0  0  0  0
  4 21  2  0  0  0  0
  5 22  2  0  0  0  0
  6 23  2  0  0  0  0
  7 26  2  0  0  0  0
  8 27  1  0  0  0  0
  8 45  1  0  0  0  0
  9 29  1  0  0  0  0
  9 46  1  0  0  0  0
 10 12  1  0  0  0  0
 10 23  1  0  0  0  0
 10 33  1  0  0  0  0
 11 12  1  0  0  0  0
 11 15  1  0  0  0  0
 11 16  1  0  0  0  0
 11 31  1  0  0  0  0
 12 26  1  0  0  0  0
 12 32  1  0  0  0  0
 13 14  2  0  0  0  0
 13 20  1  0  0  0  0
 13 21  1  0  0  0  0
 14 22  1  0  0  0  0
 14 24  1  0  0  0  0
 15 35  1  0  0  0  0
 15 36  1  0  0  0  0
 15 37  1  0  0  0  0
 16 34  1  0  0  0  0
 16 38  1  0  0  0  0
 16 39  1  0  0  0  0
 17 20  2  0  0  0  0
 17 23  1  0  0  0  0
 17 25  1  0  0  0  0
 18 19  1  0  0  0  0
 18 22  1  0  0  0  0
 18 27  2  0  0  0  0
 19 21  1  0  0  0  0
 19 28  2  0  0  0  0
 20 40  1  0  0  0  0
 24 25  2  0  0  0  0
 25 41  1  0  0  0  0
 27 30  1  0  0  0  0
 28 29  1  0  0  0  0
 28 42  1  0  0  0  0
 29 30  2  0  0  0  0
M  END
> <PUBCHEM_COMPOUND_CID>
132489978

> <PUBCHEM_CONFORMER_RMSD>
0.8

> <PUBCHEM_CONFORMER_DIVERSEORDER>
2
10
9
5
4
3
1
11
12
6
7
8
13
14

> <PUBCHEM_MMFF94_PARTIAL_CHARGES>
35
1 -0.18
10 -0.73
12 0.36
13 0.09
14 0.09
17 0.09
18 0.09
19 0.09
2 -0.53
20 -0.15
21 0.4
22 0.4
23 0.54
24 0.08
25 -0.15
26 0.66
27 0.08
28 -0.15
29 0.08
3 -0.65
30 0.18
33 0.37
4 -0.57
40 0.15
41 0.15
42 0.15
43 0.45
44 0.5
45 0.45
46 0.45
5 -0.57
6 -0.57
7 -0.57
8 -0.53
9 -0.53

> <PUBCHEM_EFFECTIVE_ROTOR_COUNT>
5

> <PUBCHEM_PHARMACOPHORE_FEATURES>
14
1 10 donor
1 2 donor
1 3 acceptor
1 4 acceptor
1 5 acceptor
1 6 acceptor
1 7 acceptor
1 8 donor
1 9 donor
3 11 15 16 hydrophobe
3 3 7 26 anion
6 13 14 17 20 24 25 rings
6 13 14 18 19 21 22 rings
6 18 19 27 28 29 30 rings

> <PUBCHEM_HEAVY_ATOM_COUNT>
30

> <PUBCHEM_ATOM_DEF_STEREO_COUNT>
1

> <PUBCHEM_ATOM_UDEF_STEREO_COUNT>
0

> <PUBCHEM_BOND_DEF_STEREO_COUNT>
0

> <PUBCHEM_BOND_UDEF_STEREO_COUNT>
0

> <PUBCHEM_ISOTOPIC_ATOM_COUNT>
0

> <PUBCHEM_COMPONENT_COUNT>
1

> <PUBCHEM_CACTVS_TAUTO_COUNT>
114

> <PUBCHEM_CONFORMER_ID>
07E5A2FA00000002

> <PUBCHEM_MMFF94_ENERGY>
86.7713

> <PUBCHEM_FEATURE_SELFOVERLAP>
71.152

> <PUBCHEM_SHAPE_FINGERPRINT>
10693767 8 18341881992122727399
11135609 187 18119532287123931380
11135926 11 18334575703407912955
11578080 2 12758302543742727510
117089 54 18055925281854238382
11963148 33 18409443696332591794
12166972 35 17895199912949473140
12236239 1 17988925556829528009
12422481 6 17060342872688286334
12645989 146 18123196706361210662
13862211 1 18409731721259808234
14068700 675 17489296500117412369
15064986 266 18335423457523021381
15131766 46 16083363188541553030
15183329 4 18186515480379901915
15196674 1 18338803316868255152
15927050 60 17694504050019454900
16087824 20 18411139091753740917
17857418 61 18273494568071921005
18681886 176 18413102883554951634
20028762 73 18272366421977109750
20281389 69 9439400233469432783
21033650 10 16515677807102854373
21267235 1 18412553118966408418
21279426 13 18333448746738512307
22393880 68 17967803969104600667
23522609 53 17986702361340467833
23559900 14 18338229466588517169
24771293 8 18342457054559429536
24771750 20 17610073630022788428
3004659 81 18187079572588908633
314194 84 18201435904534440831
335352 9 18410573969026643005
3882209 13 17107590915023634227
4015057 19 18261964032512990625
4073 2 18113905999987119107
439807 62 18262242226778277907
46194498 28 17603864563216469333
465052 167 18272375269577408814
484989 97 18261684782292435258
5104073 3 18202285766655780584
6431902 208 18412546509460334035
7495541 125 17489580152267729544
7970288 3 18338516322711317730

> <PUBCHEM_SHAPE_MULTIPOLES>
567.32
18.06
3.27
0.98
8.8
0.7
0.44
-10.7
4.34
-1.4
-0.48
1.76
-0.14
0.14

> <PUBCHEM_SHAPE_SELFOVERLAP>
1240.546

> <PUBCHEM_SHAPE_VOLUME>
306.9

> <PUBCHEM_COORDINATE_TYPE>
2
5
10

$$$$
