REMARK  Name = 132489
REMARK  6 active torsions:
REMARK  status: ('A' for Active; 'I' for Inactive)
REMARK    1  A    between atoms: C_1  and  C_8
REMARK    2  A    between atoms: C_1  and  N_15
REMARK    3  A    between atoms: C_1  and  C_25
REMARK    4  A    between atoms: C_4  and  C_11
REMARK    5  A    between atoms: C_16  and  C_20
REMARK    6  A    between atoms: C_25  and  C_26
REMARK                            x       y       z     vdW  Elec       q    Type
REMARK                         _______ _______ _______ _____ _____    ______ ____
ROOT
ATOM      1  C   UNL     1       0.283   1.381  -0.174  0.00  0.00    +0.149 C 
ENDROOT
BRANCH   1   8
ATOM      2  O   UNL     1       0.566  -0.325   1.461  0.00  0.00    -0.273 OA
ATOM      3  N   UNL     1       1.941  -0.406  -0.399  0.00  0.00    -0.272 N 
ATOM      4  C   UNL     1       2.559  -1.690  -0.093  0.00  0.00    +0.152 C 
ATOM      5  C   UNL     1       3.237  -2.112  -1.391  0.00  0.00    +0.031 C 
ATOM      6  C   UNL     1       2.405   0.109  -1.684  0.00  0.00    +0.094 C 
ATOM      7  C   UNL     1       3.577  -0.784  -2.062  0.00  0.00    +0.024 C 
ATOM      8  C   UNL     1       0.932   0.138   0.380  0.00  0.00    +0.244 C 
BRANCH   4  11
ATOM      9  O   UNL     1       3.748  -0.335   1.476  0.00  0.00    -0.274 OA
ATOM     10  N   UNL     1       4.224  -2.584   1.399  0.00  0.00    -0.327 N 
ATOM     11  C   UNL     1       3.554  -1.452   1.003  0.00  0.00    +0.237 C 
ATOM     12  H   UNL     1       4.900  -2.532   2.114  0.00  0.00    +0.145 HD
ATOM     13  H   UNL     1       4.030  -3.448   0.968  0.00  0.00    +0.145 HD
ENDBRANCH   4  11
ENDBRANCH   1   8
BRANCH   1  15
ATOM     14  O   UNL     1      -1.846  -0.061  -1.522  0.00  0.00    -0.273 OA
ATOM     15  N   UNL     1      -1.085   1.256   0.242  0.00  0.00    -0.297 N 
ATOM     16  C   UNL     1      -2.041   0.542  -0.470  0.00  0.00    +0.241 C 
ATOM     17  H   UNL     1      -1.360   1.700   1.077  0.00  0.00    +0.150 HD
BRANCH  16  20
ATOM     18  O   UNL     1      -5.143  -2.390  -0.661  0.00  0.00    -0.275 OA
ATOM     19  N   UNL     1      -4.260  -0.222  -0.632  0.00  0.00    -0.298 N 
ATOM     20  C   UNL     1      -3.379   0.551   0.197  0.00  0.00    +0.149 C 
ATOM     21  C   UNL     1      -3.382  -0.194   1.519  0.00  0.00    +0.039 C 
ATOM     22  C   UNL     1      -3.691  -1.641   1.136  0.00  0.00    +0.087 C 
ATOM     23  C   UNL     1      -4.476  -1.506  -0.145  0.00  0.00    +0.223 C 
ATOM     24  H   UNL     1      -4.668   0.121  -1.460  0.00  0.00    +0.150 HD
ENDBRANCH  16  20
ENDBRANCH   1  15
BRANCH   1  25
ATOM     25  C   UNL     1       0.927   2.646   0.374  0.00  0.00    +0.029 C 
BRANCH  25  26
ATOM     26  C   UNL     1       0.319   3.915  -0.228  0.00  0.00    +0.002 C 
ATOM     27  C   UNL     1       1.028   5.163   0.274  0.00  0.00    +0.000 C 
ENDBRANCH  25  26
ENDBRANCH   1  25
TORSDOF 6
