REMARK  Name = 132494150
REMARK  11 active torsions:
REMARK  status: ('A' for Active; 'I' for Inactive)
REMARK    1  A    between atoms: C_1  and  C_3
REMARK    2  A    between atoms: C_1  and  C_16
REMARK    3  A    between atoms: C_11  and  O_13
REMARK    4  A    between atoms: C_16  and  O_17
REMARK    5  A    between atoms: O_17  and  C_18
REMARK    6  A    between atoms: C_18  and  C_19
REMARK    7  A    between atoms: C_19  and  O_20
REMARK    8  A    between atoms: C_19  and  C_24
REMARK    9  A    between atoms: O_20  and  N_23
REMARK   10  A    between atoms: C_24  and  O_25
REMARK   11  A    between atoms: O_25  and  N_28
REMARK                            x       y       z     vdW  Elec       q    Type
REMARK                         _______ _______ _______ _____ _____    ______ ____
ROOT
ATOM      1  C   UNL     1      -0.284  -3.348   0.050  0.00  0.00    +0.121 C 
ATOM      2  C   UNL     1      -0.761  -4.361  -1.010  0.00  0.00    +0.016 C 
ENDROOT
BRANCH   1   3
ATOM      3  C   UNL     1      -1.287  -2.283   0.339  0.00  0.00    -0.012 C 
ATOM      4  C   UNL     1      -2.636  -0.406  -0.419  0.00  0.00    -0.000 C 
ATOM      5  C   UNL     1      -1.693  -1.415  -0.675  0.00  0.00    -0.004 C 
ATOM      6  C   UNL     1      -3.175  -0.276   0.883  0.00  0.00    +0.003 C 
ATOM      7  C   UNL     1      -1.817  -2.156   1.619  0.00  0.00    -0.004 C 
ATOM      8  C   UNL     1      -2.755  -1.159   1.891  0.00  0.00    -0.000 C 
ATOM      9  C   UNL     1      -3.056   0.478  -1.427  0.00  0.00    +0.003 C 
ATOM     10  C   UNL     1      -4.118   0.733   1.139  0.00  0.00    +0.037 C 
ATOM     11  C   UNL     1      -4.523   1.601   0.125  0.00  0.00    +0.139 C 
ATOM     12  C   UNL     1      -3.993   1.474  -1.155  0.00  0.00    +0.037 C 
BRANCH  11  13
ATOM     13  O   UNL     1      -5.439   2.574   0.390  0.00  0.00    -0.471 OA
ATOM     14  C   UNL     1      -5.809   3.427  -0.692  0.00  0.00    +0.252 C 
ENDBRANCH  11  13
ENDBRANCH   1   3
BRANCH   1  16
ATOM     15  O   UNL     1       1.635  -3.021  -1.425  0.00  0.00    -0.250 OA
ATOM     16  C   UNL     1       1.082  -2.782  -0.359  0.00  0.00    +0.321 C 
BRANCH  16  17
ATOM     17  O   UNL     1       1.571  -1.958   0.616  0.00  0.00    -0.444 OA
BRANCH  17  18
ATOM     18  C   UNL     1       2.832  -1.343   0.332  0.00  0.00    +0.259 C 
BRANCH  18  19
ATOM     19  C   UNL     1       2.587  -0.014  -0.369  0.00  0.00    +0.290 C 
BRANCH  19  20
ATOM     20  O   UNL     1       1.804   0.807   0.501  0.00  0.00    -0.332 OA
BRANCH  20  23
ATOM     21  O   UNL     1       1.360   1.864  -1.385  0.00  0.00    -0.090 OA
ATOM     22  O   UNL     1       0.434   2.622   0.496  0.00  0.00    -0.090 OA
ATOM     23  N   UNL     1       1.135   1.861  -0.174  0.00  0.00    +0.218 N 
ENDBRANCH  20  23
ENDBRANCH  19  20
BRANCH  19  24
ATOM     24  C   UNL     1       3.897   0.705  -0.673  0.00  0.00    +0.293 C 
BRANCH  24  25
ATOM     25  O   UNL     1       4.597   0.967   0.539  0.00  0.00    -0.332 OA
BRANCH  25  28
ATOM     26  O   UNL     1       6.071   1.869  -0.842  0.00  0.00    -0.090 OA
ATOM     27  O   UNL     1       6.506   1.903   1.345  0.00  0.00    -0.090 OA
ATOM     28  N   UNL     1       5.835   1.638   0.344  0.00  0.00    +0.218 N 
ENDBRANCH  25  28
ENDBRANCH  24  25
ENDBRANCH  19  24
ENDBRANCH  18  19
ENDBRANCH  17  18
ENDBRANCH  16  17
ENDBRANCH   1  16
TORSDOF 11
