REMARK  Name = 132487406
REMARK  5 active torsions:
REMARK  status: ('A' for Active; 'I' for Inactive)
REMARK    1  A    between atoms: C_9  and  O_23
REMARK    2  A    between atoms: C_12  and  O_25
REMARK    3  A    between atoms: C_13  and  O_27
REMARK    4  A    between atoms: C_15  and  O_29
REMARK    5  A    between atoms: C_18  and  O_31
REMARK                            x       y       z     vdW  Elec       q    Type
REMARK                         _______ _______ _______ _____ _____    ______ ____
ROOT
ATOM      1  O   UNL     1       1.117   2.341   0.406  0.00  0.00    -0.451 OA
ATOM      2  O   UNL     1       2.817   3.093   1.678  0.00  0.00    -0.247 OA
ATOM      3  C   UNL     1       1.299   0.280  -1.013  0.00  0.00    +0.042 C 
ATOM      4  C   UNL     1       0.271  -0.627  -0.210  0.00  0.00    +0.035 C 
ATOM      5  C   UNL     1      -1.279  -0.338  -0.505  0.00  0.00    +0.033 C 
ATOM      6  C   UNL     1       2.739   0.107  -0.408  0.00  0.00    +0.044 C 
ATOM      7  C   UNL     1       0.906   1.772  -0.905  0.00  0.00    +0.169 C 
ATOM      8  C   UNL     1      -1.507   1.216  -0.326  0.00  0.00    +0.024 C 
ATOM      9  C   UNL     1       0.711  -2.121  -0.177  0.00  0.00    +0.137 C 
ATOM     10  C   UNL     1      -0.570   2.035  -1.235  0.00  0.00    +0.048 C 
ATOM     11  C   UNL     1       3.165  -1.396  -0.436  0.00  0.00    +0.032 C 
ATOM     12  C   UNL     1       2.166  -2.323   0.280  0.00  0.00    +0.137 C 
ATOM     13  C   UNL     1      -2.206  -1.024   0.567  0.00  0.00    +0.142 C 
ATOM     14  C   UNL     1       1.408  -0.035  -2.534  0.00  0.00    +0.004 C 
ATOM     15  C   UNL     1       2.866   0.790   0.963  0.00  0.00    +0.210 C 
ATOM     16  C   UNL     1      -1.735  -0.828  -1.904  0.00  0.00    +0.003 C 
ATOM     17  C   UNL     1      -2.972   1.634  -0.380  0.00  0.00    -0.046 C 
ATOM     18  C   UNL     1      -3.690  -0.625   0.448  0.00  0.00    +0.163 C 
ATOM     19  C   UNL     1       4.596  -1.644   0.056  0.00  0.00    +0.003 C 
ATOM     20  C   UNL     1       2.312   2.191   1.016  0.00  0.00    +0.344 C 
ATOM     21  C   UNL     1      -3.939   0.780  -0.003  0.00  0.00    -0.003 C 
ATOM     22  C   UNL     1      -3.326   3.040  -0.773  0.00  0.00    +0.026 C 
ENDROOT
BRANCH   9  23
ATOM     23  O   UNL     1       0.530  -2.749  -1.437  0.00  0.00    -0.382 OA
ATOM     24  H   UNL     1      -0.386  -2.625  -1.731  0.00  0.00    +0.210 HD
ENDBRANCH   9  23
BRANCH  12  25
ATOM     25  O   UNL     1       2.248  -2.143   1.692  0.00  0.00    -0.382 OA
ATOM     26  H   UNL     1       1.614  -2.732   2.130  0.00  0.00    +0.210 HD
ENDBRANCH  12  25
BRANCH  13  27
ATOM     27  O   UNL     1      -2.168  -2.448   0.449  0.00  0.00    -0.382 OA
ATOM     28  H   UNL     1      -1.250  -2.754   0.517  0.00  0.00    +0.210 HD
ENDBRANCH  13  27
BRANCH  15  29
ATOM     29  O   UNL     1       4.228   0.904   1.361  0.00  0.00    -0.374 OA
ATOM     30  H   UNL     1       4.644   0.028   1.347  0.00  0.00    +0.211 HD
ENDBRANCH  15  29
BRANCH  18  31
ATOM     31  O   UNL     1      -4.297  -0.823   1.727  0.00  0.00    -0.347 OA
ATOM     32  C   UNL     1      -5.690  -1.059   1.604  0.00  0.00    +0.175 C 
ENDBRANCH  18  31
TORSDOF 5
