REMARK  Name = 132451917
REMARK  6 active torsions:
REMARK  status: ('A' for Active; 'I' for Inactive)
REMARK    1  A    between atoms: C_3  and  C_12
REMARK    2  A    between atoms: C_6  and  O_22
REMARK    3  A    between atoms: C_8  and  O_24
REMARK    4  A    between atoms: C_10  and  O_26
REMARK    5  A    between atoms: C_13  and  O_18
REMARK    6  A    between atoms: C_14  and  O_20
REMARK                            x       y       z     vdW  Elec       q    Type
REMARK                         _______ _______ _______ _____ _____    ______ ____
ROOT
ATOM      1  O   UNL     1      -0.263   0.958  -0.217  0.00  0.00    -0.450 OA
ATOM      2  O   UNL     1      -1.624  -2.689   0.987  0.00  0.00    -0.283 OA
ATOM      3  C   UNL     1       0.608  -0.039   0.193  0.00  0.00    +0.188 A 
ATOM      4  C   UNL     1      -2.136  -0.536   0.173  0.00  0.00    +0.110 A 
ATOM      5  C   UNL     1      -1.608   0.691  -0.224  0.00  0.00    +0.155 A 
ATOM      6  C   UNL     1       0.227  -1.261   0.608  0.00  0.00    +0.208 A 
ATOM      7  C   UNL     1      -1.218  -1.594   0.621  0.00  0.00    +0.238 A 
ATOM      8  C   UNL     1      -3.516  -0.752   0.145  0.00  0.00    +0.143 C 
ATOM      9  C   UNL     1      -2.458   1.711  -0.652  0.00  0.00    +0.074 C 
ATOM     10  C   UNL     1      -3.836   1.499  -0.681  0.00  0.00    +0.140 C 
ATOM     11  C   UNL     1      -4.364   0.270  -0.283  0.00  0.00    +0.073 C 
ENDROOT
BRANCH   3  12
ATOM     12  C   UNL     1       2.020   0.380   0.155  0.00  0.00    +0.105 C 
ATOM     13  C   UNL     1       2.934  -0.320  -0.633  0.00  0.00    +0.145 C 
ATOM     14  C   UNL     1       2.443   1.477   0.905  0.00  0.00    +0.140 C 
ATOM     15  C   UNL     1       4.271   0.077  -0.670  0.00  0.00    +0.037 C 
ATOM     16  C   UNL     1       3.780   1.874   0.868  0.00  0.00    +0.037 C 
ATOM     17  C   UNL     1       4.694   1.173   0.081  0.00  0.00    +0.006 C 
BRANCH  13  18
ATOM     18  O   UNL     1       2.549  -1.397  -1.377  0.00  0.00    -0.471 OA
ATOM     19  C   UNL     1       3.559  -2.044  -2.148  0.00  0.00    +0.252 C 
ENDBRANCH  13  18
BRANCH  14  20
ATOM     20  O   UNL     1       1.573   2.180   1.685  0.00  0.00    -0.505 OA
ATOM     21  H   UNL     1       0.671   1.930   1.724  0.00  0.00    +0.292 HD
ENDBRANCH  14  20
ENDBRANCH   3  12
BRANCH   6  22
ATOM     22  O   UNL     1       1.117  -2.220   1.040  0.00  0.00    -0.501 OA
ATOM     23  H   UNL     1       2.036  -2.038   1.044  0.00  0.00    +0.292 HD
ENDBRANCH   6  22
BRANCH   8  24
ATOM     24  O   UNL     1      -4.083  -1.931   0.524  0.00  0.00    -0.505 OA
ATOM     25  H   UNL     1      -3.542  -2.638   0.817  0.00  0.00    +0.292 HD
ENDBRANCH   8  24
BRANCH  10  26
ATOM     26  O   UNL     1      -4.668   2.493  -1.099  0.00  0.00    -0.505 OA
ATOM     27  H   UNL     1      -4.314   3.318  -1.366  0.00  0.00    +0.292 HD
ENDBRANCH  10  26
TORSDOF 6
