132490000
  -OEChem-03292013293D

 31 34  0     1  0  0  0  0  0999 V2000
    1.2257    1.7664   -0.3217 S   0  0  0  0  0  0  0  0  0  0  0  0
    0.1388   -2.0066    0.1605 O   0  0  0  0  0  0  0  0  0  0  0  0
    0.7904    2.5057    0.8487 O   0  0  0  0  0  0  0  0  0  0  0  0
    0.7317    2.1231   -1.6384 O   0  0  0  0  0  0  0  0  0  0  0  0
    0.0825   -1.1370   -2.6862 O   0  0  0  0  0  0  0  0  0  0  0  0
    2.0601   -2.9644    1.0007 O   0  0  0  0  0  0  0  0  0  0  0  0
    3.2335   -0.2660    0.7952 N   0  0  0  0  0  0  0  0  0  0  0  0
   -1.9617   -0.3383   -1.8434 N   0  0  0  0  0  0  0  0  0  0  0  0
   -0.2322   -0.6973   -0.2760 C   0  0  2  0  0  0  0  0  0  0  0  0
    0.9811    0.0926   -0.0497 C   0  0  0  0  0  0  0  0  0  0  0  0
   -1.4886   -0.2222    0.3868 C   0  0  0  0  0  0  0  0  0  0  0  0
    1.9719   -0.6347    0.4515 C   0  0  0  0  0  0  0  0  0  0  0  0
    3.0177    1.8681   -0.3864 C   0  0  0  0  0  0  0  0  0  0  0  0
   -0.6295   -0.7666   -1.7654 C   0  0  0  0  0  0  0  0  0  0  0  0
    3.6756    1.1163    0.7704 C   0  0  0  0  0  0  0  0  0  0  0  0
   -2.4676   -0.0212   -0.5858 C   0  0  0  0  0  0  0  0  0  0  0  0
    1.4449   -1.9989    0.5827 C   0  0  0  0  0  0  0  0  0  0  0  0
   -1.7662    0.0172    1.7202 C   0  0  0  0  0  0  0  0  0  0  0  0
   -3.7384    0.4234   -0.2812 C   0  0  0  0  0  0  0  0  0  0  0  0
   -3.0464    0.4692    2.0549 C   0  0  0  0  0  0  0  0  0  0  0  0
   -4.0234    0.6712    1.0626 C   0  0  0  0  0  0  0  0  0  0  0  0
    3.2855    2.9288   -0.3681 H   0  0  0  0  0  0  0  0  0  0  0  0
    3.3270    1.4476   -1.3500 H   0  0  0  0  0  0  0  0  0  0  0  0
    4.7649    1.1504    0.6667 H   0  0  0  0  0  0  0  0  0  0  0  0
    3.4174    1.5899    1.7244 H   0  0  0  0  0  0  0  0  0  0  0  0
    3.8398   -0.9712    1.1998 H   0  0  0  0  0  0  0  0  0  0  0  0
   -2.5024   -0.2742   -2.6978 H   0  0  0  0  0  0  0  0  0  0  0  0
   -1.0171   -0.1363    2.4892 H   0  0  0  0  0  0  0  0  0  0  0  0
   -4.4903    0.5754   -1.0469 H   0  0  0  0  0  0  0  0  0  0  0  0
   -3.2917    0.6675    3.0950 H   0  0  0  0  0  0  0  0  0  0  0  0
   -5.0113    1.0226    1.3484 H   0  0  0  0  0  0  0  0  0  0  0  0
  1  3  2  0  0  0  0
  1  4  2  0  0  0  0
  1 10  1  0  0  0  0
  1 13  1  0  0  0  0
  2  9  1  0  0  0  0
  2 17  1  0  0  0  0
  5 14  2  0  0  0  0
  6 17  2  0  0  0  0
  7 12  1  0  0  0  0
  7 15  1  0  0  0  0
  7 26  1  0  0  0  0
  8 14  1  0  0  0  0
  8 16  1  0  0  0  0
  8 27  1  0  0  0  0
  9 10  1  0  0  0  0
  9 11  1  0  0  0  0
  9 14  1  0  0  0  0
 10 12  2  0  0  0  0
 11 16  1  0  0  0  0
 11 18  2  0  0  0  0
 12 17  1  0  0  0  0
 13 15  1  0  0  0  0
 13 22  1  0  0  0  0
 13 23  1  0  0  0  0
 15 24  1  0  0  0  0
 15 25  1  0  0  0  0
 16 19  2  0  0  0  0
 18 20  1  0  0  0  0
 18 28  1  0  0  0  0
 19 21  1  0  0  0  0
 19 29  1  0  0  0  0
 20 21  2  0  0  0  0
 20 30  1  0  0  0  0
 21 31  1  0  0  0  0
M  END
> <PUBCHEM_COMPOUND_CID>
132490000

> <PUBCHEM_CONFORMER_RMSD>
0.6

> <PUBCHEM_CONFORMER_DIVERSEORDER>
1

> <PUBCHEM_MMFF94_PARTIAL_CHARGES>
27
1 1.21
10 -0.16
11 -0.14
12 0.11
13 0.11
14 0.57
15 0.37
16 0.12
17 0.71
18 -0.15
19 -0.15
2 -0.43
20 -0.15
21 -0.15
26 0.4
27 0.37
28 0.15
29 0.15
3 -0.65
30 0.15
31 0.15
4 -0.65
5 -0.57
6 -0.57
7 -0.87
8 -0.55
9 0.62

> <PUBCHEM_EFFECTIVE_ROTOR_COUNT>
1

> <PUBCHEM_PHARMACOPHORE_FEATURES>
11
1 3 acceptor
1 4 acceptor
1 5 acceptor
1 6 acceptor
1 7 cation
1 7 donor
1 8 donor
5 2 9 10 12 17 rings
5 8 9 11 14 16 rings
6 1 7 10 12 13 15 rings
6 11 16 18 19 20 21 rings

> <PUBCHEM_HEAVY_ATOM_COUNT>
21

> <PUBCHEM_ATOM_DEF_STEREO_COUNT>
1

> <PUBCHEM_ATOM_UDEF_STEREO_COUNT>
0

> <PUBCHEM_BOND_DEF_STEREO_COUNT>
0

> <PUBCHEM_BOND_UDEF_STEREO_COUNT>
0

> <PUBCHEM_ISOTOPIC_ATOM_COUNT>
0

> <PUBCHEM_COMPONENT_COUNT>
1

> <PUBCHEM_CACTVS_TAUTO_COUNT>
10

> <PUBCHEM_CONFORMER_ID>
07E5A31000000001

> <PUBCHEM_MMFF94_ENERGY>
42.4366

> <PUBCHEM_FEATURE_SELFOVERLAP>
56.006

> <PUBCHEM_SHAPE_FINGERPRINT>
10382601 240 18198649668749504624
104564 63 18267029345116911192
10498660 4 16343428306689000777
10863032 1 18335984288981107155
10948715 1 17132120151501494292
11471102 22 18186518774145064235
11640471 11 18060137669327779633
12236239 1 18060410313862142651
12491281 212 17632300133065490488
12633257 1 17385724724635602761
12788726 201 17482262017643275062
13134695 92 18268135479631639481
13140716 1 18334848468333190674
13583140 156 18410011070391237777
13965767 371 17701837496013117897
14787075 74 17839455936416343331
14817 1 17040677295497772510
15309172 13 18115305712622544624
15534591 1 18059578065222336578
15775835 57 18202004364825700241
16945 1 18334297556460585608
17357990 137 17846503612354547049
1813 80 17768819671684930446
18219364 16 18041828618955502860
18981168 100 17344101604254618499
19049666 15 17314778599535247291
20715895 44 17552923923979058529
21197605 99 17908986505295692865
21524375 3 18128546040260706917
21756936 100 17980215393645675172
22112679 90 17845915377971001582
22149856 69 16125863440587991897
23175994 123 17898286109008288594
23419403 2 17605544453685139502
23526113 38 17170645836332091911
23557571 272 15051440665916517229
23559900 14 15864630536293098722
2748010 2 17832400031172249782
298252 57 17560535004714729462
350125 39 17829898976741062632
3797600 57 17914636074862952939
4340502 62 18339372950265582059
4409770 3 15320579817684835447
474 4 18340200898946740392
568465 68 17821449058061761346
77492 1 17988629792512304819
81228 2 17110419915354052370
8272917 22 18336831896766854995
9981440 41 16621496193133909880

> <PUBCHEM_SHAPE_MULTIPOLES>
396.71
5.64
2.29
1.87
1.9
0.38
-0.72
-2.04
2.14
-2.11
0.2
0.9
0.25
-0.84

> <PUBCHEM_SHAPE_SELFOVERLAP>
887.024

> <PUBCHEM_SHAPE_VOLUME>
211.4

> <PUBCHEM_COORDINATE_TYPE>
2
5
10

$$$$
