REMARK  Name = 132489977
REMARK  8 active torsions:
REMARK  status: ('A' for Active; 'I' for Inactive)
REMARK    1  A    between atoms: C_5  and  C_19
REMARK    2  A    between atoms: C_11  and  O_29
REMARK    3  A    between atoms: C_13  and  O_31
REMARK    4  A    between atoms: C_15  and  O_33
REMARK    5  A    between atoms: N_18  and  C_21
REMARK    6  A    between atoms: C_21  and  C_22
REMARK    7  A    between atoms: C_21  and  C_26
REMARK    8  A    between atoms: C_26  and  O_27
REMARK                            x       y       z     vdW  Elec       q    Type
REMARK                         _______ _______ _______ _____ _____    ______ ____
ROOT
ATOM      1  O   UNL     1       1.323   2.285   0.276  0.00  0.00    -0.287 OA
ATOM      2  O   UNL     1       3.535  -2.560  -0.158  0.00  0.00    -0.286 OA
ATOM      3  C   UNL     1       0.994  -0.040   0.256  0.00  0.00    +0.045 C 
ATOM      4  C   UNL     1       1.572  -1.306   0.142  0.00  0.00    +0.076 C 
ATOM      5  C   UNL     1      -1.185  -1.061   0.523  0.00  0.00    +0.056 C 
ATOM      6  C   UNL     1       3.864  -0.235  -0.140  0.00  0.00    +0.076 C 
ATOM      7  C   UNL     1       3.286   1.032  -0.026  0.00  0.00    +0.048 C 
ATOM      8  C   UNL     1      -0.388   0.082   0.447  0.00  0.00    +0.008 C 
ATOM      9  C   UNL     1       1.830   1.175   0.177  0.00  0.00    +0.196 C 
ATOM     10  C   UNL     1       3.028  -1.450  -0.059  0.00  0.00    +0.202 C 
ATOM     11  C   UNL     1       0.768  -2.450   0.219  0.00  0.00    +0.137 C 
ATOM     12  C   UNL     1      -0.608  -2.324   0.409  0.00  0.00    +0.041 C 
ATOM     13  C   UNL     1       5.246  -0.357  -0.332  0.00  0.00    +0.140 C 
ATOM     14  C   UNL     1       4.090   2.175  -0.103  0.00  0.00    +0.040 C 
ATOM     15  C   UNL     1       5.466   2.049  -0.294  0.00  0.00    +0.137 C 
ATOM     16  C   UNL     1       6.043   0.786  -0.409  0.00  0.00    +0.073 C 
ENDROOT
BRANCH   5  19
ATOM     17  O   UNL     1      -3.259  -1.834   1.295  0.00  0.00    -0.270 OA
ATOM     18  N   UNL     1      -3.223   0.244   0.266  0.00  0.00    -0.293 N 
ATOM     19  C   UNL     1      -2.620  -0.933   0.723  0.00  0.00    +0.246 C 
ATOM     20  H   UNL     1      -2.656   0.915  -0.178  0.00  0.00    +0.150 HD
BRANCH  18  21
ATOM     21  C   UNL     1      -4.632   0.529   0.412  0.00  0.00    +0.172 C 
BRANCH  21  22
ATOM     22  C   UNL     1      -4.929   2.038   0.548  0.00  0.00    +0.029 C 
ATOM     23  C   UNL     1      -4.163   2.650   1.726  0.00  0.00    +0.002 C 
ATOM     24  C   UNL     1      -4.640   2.830  -0.731  0.00  0.00    +0.002 C 
ENDBRANCH  21  22
BRANCH  21  26
ATOM     25  O   UNL     1      -4.927  -0.661  -1.673  0.00  0.00    -0.248 OA
ATOM     26  C   UNL     1      -5.446  -0.096  -0.716  0.00  0.00    +0.335 C 
BRANCH  26  27
ATOM     27  O   UNL     1      -6.787   0.053  -0.528  0.00  0.00    -0.443 OA
ATOM     28  C   UNL     1      -7.625  -0.506  -1.545  0.00  0.00    +0.256 C 
ENDBRANCH  26  27
ENDBRANCH  21  26
ENDBRANCH  18  21
ENDBRANCH   5  19
BRANCH  11  29
ATOM     29  O   UNL     1       1.266  -3.716   0.115  0.00  0.00    -0.505 OA
ATOM     30  H   UNL     1       2.184  -3.849  -0.014  0.00  0.00    +0.292 HD
ENDBRANCH  11  29
BRANCH  13  31
ATOM     31  O   UNL     1       5.875  -1.560  -0.452  0.00  0.00    -0.505 OA
ATOM     32  H   UNL     1       5.381  -2.354  -0.407  0.00  0.00    +0.292 HD
ENDBRANCH  13  31
BRANCH  15  33
ATOM     33  O   UNL     1       6.246   3.162  -0.368  0.00  0.00    -0.505 OA
ATOM     34  H   UNL     1       5.859   4.012  -0.292  0.00  0.00    +0.292 HD
ENDBRANCH  15  33
TORSDOF 8
