13241292
  -OEChem-03292013303D

 57 60  0     1  0  0  0  0  0999 V2000
   -0.9638   -0.4002    2.6064 O   0  0  0  0  0  0  0  0  0  0  0  0
    2.7062    2.8982   -1.8199 O   0  0  0  0  0  0  0  0  0  0  0  0
   -1.3973   -2.2344   -1.1603 O   0  0  0  0  0  0  0  0  0  0  0  0
   -1.4542   -2.4441    1.8030 O   0  0  0  0  0  0  0  0  0  0  0  0
    3.1327   -1.1266   -0.6082 O   0  0  0  0  0  0  0  0  0  0  0  0
    2.1975   -0.5777    2.4569 O   0  0  0  0  0  0  0  0  0  0  0  0
    5.4172   -1.4591   -0.5188 O   0  0  0  0  0  0  0  0  0  0  0  0
   -0.2949    1.2721    0.9044 C   0  0  1  0  0  0  0  0  0  0  0  0
   -1.4669    0.7919   -0.0304 C   0  0  1  0  0  0  0  0  0  0  0  0
   -2.1162   -0.5474    0.4689 C   0  0  1  0  0  0  0  0  0  0  0  0
    1.0344    0.4520    0.6071 C   0  0  1  0  0  0  0  0  0  0  0  0
    1.9031    0.9216   -0.6246 C   0  0  1  0  0  0  0  0  0  0  0  0
    0.0200    2.7883    0.8080 C   0  0  0  0  0  0  0  0  0  0  0  0
   -2.5663    1.8590   -0.2965 C   0  0  0  0  0  0  0  0  0  0  0  0
   -3.6300   -0.3932    0.7683 C   0  0  0  0  0  0  0  0  0  0  0  0
   -4.2167   -0.0914   -0.6112 C   0  0  1  0  0  0  0  0  0  0  0  0
   -0.8281    1.0047    2.3378 C   0  0  0  0  0  0  0  0  0  0  0  0
   -3.7933    1.3176   -1.0544 C   0  0  0  0  0  0  0  0  0  0  0  0
    2.0676    2.4625   -0.6204 C   0  0  2  0  0  0  0  0  0  0  0  0
    0.7372    3.1966   -0.4707 C   0  0  0  0  0  0  0  0  0  0  0  0
   -2.2331   -1.4408   -0.7612 C   0  0  0  0  0  0  0  0  0  0  0  0
   -1.4691   -1.2246    1.6590 C   0  0  0  0  0  0  0  0  0  0  0  0
   -3.5314   -1.1501   -1.4364 C   0  0  0  0  0  0  0  0  0  0  0  0
    3.3140    0.2680   -0.5769 C   0  0  0  0  0  0  0  0  0  0  0  0
    1.2967    0.4421   -1.9681 C   0  0  0  0  0  0  0  0  0  0  0  0
    1.9003    0.4438    1.8466 C   0  0  0  0  0  0  0  0  0  0  0  0
   -3.9680   -1.7885   -2.5220 C   0  0  0  0  0  0  0  0  0  0  0  0
    4.2738   -1.8913   -0.5737 C   0  0  0  0  0  0  0  0  0  0  0  0
    3.9286   -3.3492   -0.6122 C   0  0  0  0  0  0  0  0  0  0  0  0
   -1.0426    0.6080   -1.0173 H   0  0  0  0  0  0  0  0  0  0  0  0
    0.7665   -0.5987    0.4364 H   0  0  0  0  0  0  0  0  0  0  0  0
    0.6577    3.0802    1.6537 H   0  0  0  0  0  0  0  0  0  0  0  0
   -0.8854    3.3930    0.9278 H   0  0  0  0  0  0  0  0  0  0  0  0
   -2.1589    2.6948   -0.8756 H   0  0  0  0  0  0  0  0  0  0  0  0
   -2.9104    2.2859    0.6533 H   0  0  0  0  0  0  0  0  0  0  0  0
   -3.8449    0.3867    1.5072 H   0  0  0  0  0  0  0  0  0  0  0  0
   -4.0528   -1.3260    1.1704 H   0  0  0  0  0  0  0  0  0  0  0  0
   -5.3053   -0.2044   -0.6303 H   0  0  0  0  0  0  0  0  0  0  0  0
   -0.1475    1.4045    3.0977 H   0  0  0  0  0  0  0  0  0  0  0  0
   -1.7948    1.4873    2.5227 H   0  0  0  0  0  0  0  0  0  0  0  0
   -4.6259    2.0114   -0.8819 H   0  0  0  0  0  0  0  0  0  0  0  0
   -3.5992    1.3418   -2.1343 H   0  0  0  0  0  0  0  0  0  0  0  0
    2.7174    2.7665    0.2103 H   0  0  0  0  0  0  0  0  0  0  0  0
    0.1029    3.0384   -1.3488 H   0  0  0  0  0  0  0  0  0  0  0  0
    0.9278    4.2773   -0.4508 H   0  0  0  0  0  0  0  0  0  0  0  0
    3.8758    0.5664    0.3159 H   0  0  0  0  0  0  0  0  0  0  0  0
    3.9111    0.5640   -1.4483 H   0  0  0  0  0  0  0  0  0  0  0  0
    0.9453   -0.5936   -1.9084 H   0  0  0  0  0  0  0  0  0  0  0  0
    0.4609    1.0625   -2.2984 H   0  0  0  0  0  0  0  0  0  0  0  0
    2.0324    0.4863   -2.7807 H   0  0  0  0  0  0  0  0  0  0  0  0
    2.2741    1.4230    2.1906 H   0  0  0  0  0  0  0  0  0  0  0  0
    3.6463    2.6596   -1.7618 H   0  0  0  0  0  0  0  0  0  0  0  0
   -4.9352   -1.5503   -2.9513 H   0  0  0  0  0  0  0  0  0  0  0  0
   -3.3768   -2.5571   -3.0074 H   0  0  0  0  0  0  0  0  0  0  0  0
    3.3963   -3.5782   -1.5388 H   0  0  0  0  0  0  0  0  0  0  0  0
    3.3177   -3.6068    0.2566 H   0  0  0  0  0  0  0  0  0  0  0  0
    4.8476   -3.9414   -0.5813 H   0  0  0  0  0  0  0  0  0  0  0  0
  1 17  1  0  0  0  0
  1 22  1  0  0  0  0
  2 19  1  0  0  0  0
  2 52  1  0  0  0  0
  3 21  2  0  0  0  0
  4 22  2  0  0  0  0
  5 24  1  0  0  0  0
  5 28  1  0  0  0  0
  6 26  2  0  0  0  0
  7 28  2  0  0  0  0
  8  9  1  0  0  0  0
  8 11  1  0  0  0  0
  8 13  1  0  0  0  0
  8 17  1  0  0  0  0
  9 10  1  0  0  0  0
  9 14  1  0  0  0  0
  9 30  1  0  0  0  0
 10 15  1  0  0  0  0
 10 21  1  0  0  0  0
 10 22  1  0  0  0  0
 11 12  1  0  0  0  0
 11 26  1  0  0  0  0
 11 31  1  0  0  0  0
 12 19  1  0  0  0  0
 12 24  1  0  0  0  0
 12 25  1  0  0  0  0
 13 20  1  0  0  0  0
 13 32  1  0  0  0  0
 13 33  1  0  0  0  0
 14 18  1  0  0  0  0
 14 34  1  0  0  0  0
 14 35  1  0  0  0  0
 15 16  1  0  0  0  0
 15 36  1  0  0  0  0
 15 37  1  0  0  0  0
 16 18  1  0  0  0  0
 16 23  1  0  0  0  0
 16 38  1  0  0  0  0
 17 39  1  0  0  0  0
 17 40  1  0  0  0  0
 18 41  1  0  0  0  0
 18 42  1  0  0  0  0
 19 20  1  0  0  0  0
 19 43  1  0  0  0  0
 20 44  1  0  0  0  0
 20 45  1  0  0  0  0
 21 23  1  0  0  0  0
 23 27  2  0  0  0  0
 24 46  1  0  0  0  0
 24 47  1  0  0  0  0
 25 48  1  0  0  0  0
 25 49  1  0  0  0  0
 25 50  1  0  0  0  0
 26 51  1  0  0  0  0
 27 53  1  0  0  0  0
 27 54  1  0  0  0  0
 28 29  1  0  0  0  0
 29 55  1  0  0  0  0
 29 56  1  0  0  0  0
 29 57  1  0  0  0  0
M  END
> <PUBCHEM_COMPOUND_CID>
13241292

> <PUBCHEM_CONFORMER_RMSD>
0.8

> <PUBCHEM_CONFORMER_DIVERSEORDER>
1
5
21
18
19
7
16
4
11
13
24
8
14
15
2
3
12
25
22
9
10
23
17
20
6

> <PUBCHEM_MMFF94_PARTIAL_CHARGES>
24
1 -0.43
10 0.12
11 0.06
16 0.14
17 0.28
19 0.28
2 -0.68
21 0.49
22 0.66
23 -0.12
24 0.28
26 0.45
27 -0.3
28 0.66
29 0.06
3 -0.57
4 -0.57
5 -0.43
51 0.06
52 0.4
53 0.15
54 0.15
6 -0.57
7 -0.57

> <PUBCHEM_EFFECTIVE_ROTOR_COUNT>
6

> <PUBCHEM_PHARMACOPHORE_FEATURES>
9
1 2 acceptor
1 2 donor
1 3 acceptor
1 4 acceptor
1 6 acceptor
1 7 acceptor
6 1 8 9 10 17 22 rings
6 8 11 12 13 19 20 rings
8 9 10 14 15 16 18 21 23 rings

> <PUBCHEM_HEAVY_ATOM_COUNT>
29

> <PUBCHEM_ATOM_DEF_STEREO_COUNT>
7

> <PUBCHEM_ATOM_UDEF_STEREO_COUNT>
0

> <PUBCHEM_BOND_DEF_STEREO_COUNT>
0

> <PUBCHEM_BOND_UDEF_STEREO_COUNT>
0

> <PUBCHEM_ISOTOPIC_ATOM_COUNT>
0

> <PUBCHEM_COMPONENT_COUNT>
1

> <PUBCHEM_CACTVS_TAUTO_COUNT>
2

> <PUBCHEM_CONFORMER_ID>
00CA0BCC00000001

> <PUBCHEM_MMFF94_ENERGY>
109.2613

> <PUBCHEM_FEATURE_SELFOVERLAP>
45.702

> <PUBCHEM_SHAPE_FINGERPRINT>
10863032 1 18191313886283200261
11578080 2 17703501151379283576
11640471 11 14131278153290050713
12035759 4 17752767922730882314
12156800 1 16471432187004378238
12422481 6 17480613471713483747
12788726 201 18045780079479244304
128993 33 15864616358631863133
13004483 165 18267296526679474014
13224815 77 16557915678778820445
13911987 19 17397293962325179996
15534591 1 11386666134177044624
16945 1 18041830831154090417
17349148 13 17418102004962663854
1813 80 18337096896212179426
18186145 218 17313377959361075653
18981168 100 16081910672728888617
20465049 17 18115021888868825341
20600515 1 16415481557950340065
20626108 58 17774708866115314335
20775438 99 17764281222592862591
20775530 9 17845926441649170391
23419403 2 16843291567999454888
23559900 14 18343292653014776104
238 59 17903913701318143660
3027735 51 17901667060066792210
392239 28 8717956821402383141
4280585 95 18261387807411333530
463206 1 18201995573017498935
484985 159 16839952201363573694
5161694 15 17748829652110118839
57527585 103 17903959636194828387
633830 44 18040988562561180989
70251023 43 18339073908503111855
9709674 26 18261396714266085621
9981440 41 17688305003203974256

> <PUBCHEM_SHAPE_MULTIPOLES>
555.72
7.78
3.34
2.29
2.93
0.16
0.89
-5.37
-3.58
2.15
-1.07
-0.56
-0.21
-0.74

> <PUBCHEM_SHAPE_SELFOVERLAP>
1199.421

> <PUBCHEM_SHAPE_VOLUME>
299.9

> <PUBCHEM_COORDINATE_TYPE>
2
5
10

$$$$
