REMARK  Name = 132488
REMARK  9 active torsions:
REMARK  status: ('A' for Active; 'I' for Inactive)
REMARK    1  A    between atoms: C_1  and  C_21
REMARK    2  A    between atoms: C_3  and  O_7
REMARK    3  A    between atoms: C_4  and  N_9
REMARK    4  A    between atoms: N_9  and  N_10
REMARK    5  A    between atoms: N_10  and  C_11
REMARK    6  A    between atoms: C_12  and  C_18
REMARK    7  A    between atoms: C_18  and  O_19
REMARK    8  A    between atoms: C_21  and  C_23
REMARK    9  A    between atoms: C_23  and  O_24
REMARK                            x       y       z     vdW  Elec       q    Type
REMARK                         _______ _______ _______ _____ _____    ______ ____
ROOT
ATOM      1  C   UNL     1       3.534  -0.108  -0.548  0.00  0.00    +0.024 C 
ATOM      2  C   UNL     1       2.161   0.083  -0.700  0.00  0.00    +0.017 C 
ATOM      3  C   UNL     1       4.023  -1.338  -0.110  0.00  0.00    +0.130 C 
ATOM      4  C   UNL     1       1.283  -0.959  -0.414  0.00  0.00    +0.089 C 
ATOM      5  C   UNL     1       3.139  -2.379   0.175  0.00  0.00    +0.038 C 
ATOM      6  C   UNL     1       1.766  -2.188   0.023  0.00  0.00    +0.021 C 
ENDROOT
BRANCH   3   7
ATOM      7  O   UNL     1       5.362  -1.542   0.043  0.00  0.00    -0.506 OA
ATOM      8  H   UNL     1       5.965  -0.850  -0.145  0.00  0.00    +0.292 HD
ENDBRANCH   3   7
BRANCH   4   9
ATOM      9  N   UNL     1      -0.101  -0.767  -0.568  0.00  0.00    -0.128 NA
BRANCH   9  10
ATOM     10  N   UNL     1      -0.595  -0.340   0.502  0.00  0.00    -0.128 NA
BRANCH  10  11
ATOM     11  C   UNL     1      -1.972  -0.149   0.350  0.00  0.00    +0.089 C 
ATOM     12  C   UNL     1      -4.719   0.233   0.048  0.00  0.00    +0.076 C 
ATOM     13  C   UNL     1      -2.857  -1.189   0.635  0.00  0.00    +0.018 C 
ATOM     14  C   UNL     1      -2.461   1.082  -0.087  0.00  0.00    +0.018 C 
ATOM     15  C   UNL     1      -4.230  -0.998   0.484  0.00  0.00    +0.008 C 
ATOM     16  C   UNL     1      -3.834   1.273  -0.238  0.00  0.00    +0.008 C 
BRANCH  12  18
ATOM     17  O   UNL     1      -7.021  -0.417   0.110  0.00  0.00    -0.245 OA
ATOM     18  C   UNL     1      -6.151   0.432  -0.112  0.00  0.00    +0.338 C 
BRANCH  18  19
ATOM     19  O   UNL     1      -6.458   1.686  -0.542  0.00  0.00    -0.477 OA
ATOM     20  H   UNL     1      -5.774   2.307  -0.701  0.00  0.00    +0.295 HD
ENDBRANCH  18  19
ENDBRANCH  12  18
ENDBRANCH  10  11
ENDBRANCH   9  10
ENDBRANCH   4   9
BRANCH   1  21
ATOM     21  C   UNL     1       4.466   1.016  -0.859  0.00  0.00    +0.139 C 
BRANCH  21  23
ATOM     22  O   UNL     1       4.264   1.776   1.446  0.00  0.00    -0.250 OA
ATOM     23  C   UNL     1       4.757   1.905   0.334  0.00  0.00    +0.318 C 
BRANCH  23  24
ATOM     24  O   UNL     1       5.644   2.888   0.027  0.00  0.00    -0.480 OA
ATOM     25  H   UNL     1       5.996   2.948  -0.840  0.00  0.00    +0.295 HD
ENDBRANCH  23  24
ENDBRANCH  21  23
ENDBRANCH   1  21
TORSDOF 9
