REMARK  Name = 132497
REMARK  3 active torsions:
REMARK  status: ('A' for Active; 'I' for Inactive)
REMARK    1  A    between atoms: C_7  and  C_17
REMARK    2  A    between atoms: C_18  and  N_23
REMARK    3  A    between atoms: N_23  and  S_25
REMARK                            x       y       z     vdW  Elec       q    Type
REMARK                         _______ _______ _______ _____ _____    ______ ____
ROOT
ATOM      1  N   UNL     1       1.552  -0.731  -0.032  0.00  0.00    -0.382 NA
ATOM      2  N   UNL     1       2.465   1.881  -0.005  0.00  0.00    -0.320 NA
ATOM      3  N   UNL     1       4.655   1.131   0.055  0.00  0.00    -0.259 NA
ATOM      4  N   UNL     1       0.226   2.663  -0.065  0.00  0.00    -0.330 N 
ATOM      5  N   UNL     1       5.155  -1.214   0.067  0.00  0.00    -0.310 NA
ATOM      6  N   UNL     1       6.875   0.373   0.116  0.00  0.00    -0.283 N 
ATOM      7  C   UNL     1       0.698   0.303  -0.054  0.00  0.00    +0.177 C 
ATOM      8  C   UNL     1       2.867  -0.443   0.004  0.00  0.00    +0.261 C 
ATOM      9  C   UNL     1       1.149   1.595  -0.041  0.00  0.00    +0.219 C 
ATOM     10  C   UNL     1       3.342   0.871   0.018  0.00  0.00    +0.186 C 
ATOM     11  C   UNL     1       3.828  -1.435   0.030  0.00  0.00    +0.232 C 
ATOM     12  C   UNL     1       5.495   0.079   0.077  0.00  0.00    +0.208 C 
ATOM     13  H   UNL     1       0.549   3.593  -0.056  0.00  0.00    +0.145 HD
ATOM     14  H   UNL     1      -0.741   2.478  -0.092  0.00  0.00    +0.145 HD
ATOM     15  H   UNL     1       7.179   1.309   0.125  0.00  0.00    +0.156 HD
ATOM     16  H   UNL     1       7.534  -0.358   0.133  0.00  0.00    +0.156 HD
ATOM     17  N   UNL     1       3.390  -2.785   0.017  0.00  0.00    -0.329 N 
ATOM     18  H   UNL     1       4.049  -3.516   0.035  0.00  0.00    +0.145 HD
ATOM     19  H   UNL     1       2.428  -2.990  -0.010  0.00  0.00    +0.145 HD
ENDROOT
BRANCH   7  20
ATOM     20  C   UNL     1      -0.699  -0.063  -0.092  0.00  0.00    +0.034 C 
ATOM     21  C   UNL     1      -3.399  -0.771  -0.166  0.00  0.00    +0.064 C 
ATOM     22  C   UNL     1      -1.343  -0.239  -1.318  0.00  0.00    +0.004 C 
ATOM     23  C   UNL     1      -1.409  -0.241   1.097  0.00  0.00    +0.004 C 
ATOM     24  C   UNL     1      -2.692  -0.593  -1.355  0.00  0.00    +0.016 C 
ATOM     25  C   UNL     1      -2.758  -0.595   1.060  0.00  0.00    +0.016 C 
BRANCH  21  26
ATOM     26  N   UNL     1      -4.780  -1.133  -0.204  0.00  0.00    -0.219 N 
ATOM     27  H   UNL     1      -5.059  -2.032  -0.493  0.00  0.00    +0.173 HD
BRANCH  26  28
ATOM     28  S   UNL     1      -5.943   0.045   0.269  0.00  0.00    +0.056 S 
ATOM     29  O   UNL     1      -7.231  -0.610   0.403  0.00  0.00    -0.154 OA
ATOM     30  O   UNL     1      -5.429   0.883   1.334  0.00  0.00    -0.154 OA
ATOM     31  C   UNL     1      -6.016   1.028  -1.212  0.00  0.00    +0.200 C 
ENDBRANCH  26  28
ENDBRANCH  21  26
ENDBRANCH   7  20
TORSDOF 3
