132487404
  -OEChem-03292013293D

 37 40  0     0  0  0  0  0  0999 V2000
    1.6632   -2.6047    0.0018 O   0  0  0  0  0  0  0  0  0  0  0  0
    1.3419    2.9141    0.0004 O   0  0  0  0  0  0  0  0  0  0  0  0
   -0.8524   -2.6734   -0.0005 O   0  0  0  0  0  0  0  0  0  0  0  0
   -1.1644    2.6591    0.0005 O   0  0  0  0  0  0  0  0  0  0  0  0
   -3.7198    2.5819   -0.0001 O   0  0  0  0  0  0  0  0  0  0  0  0
    4.2096   -2.4332   -0.0004 O   0  0  0  0  0  0  0  0  0  0  0  0
    0.3287   -0.6193    0.0012 C   0  0  0  0  0  0  0  0  0  0  0  0
    0.2391    0.7714    0.0010 C   0  0  0  0  0  0  0  0  0  0  0  0
   -2.2125   -0.7843    0.0004 C   0  0  0  0  0  0  0  0  0  0  0  0
   -2.3023    0.6090    0.0003 C   0  0  0  0  0  0  0  0  0  0  0  0
    2.7624   -0.4728    0.0003 C   0  0  0  0  0  0  0  0  0  0  0  0
    2.6715    0.9382    0.0000 C   0  0  0  0  0  0  0  0  0  0  0  0
    1.5849   -1.2389    0.0009 C   0  0  0  0  0  0  0  0  0  0  0  0
    1.4054    1.5469    0.0006 C   0  0  0  0  0  0  0  0  0  0  0  0
   -0.8938   -1.4495    0.0006 C   0  0  0  0  0  0  0  0  0  0  0  0
   -1.0798    1.4378    0.0006 C   0  0  0  0  0  0  0  0  0  0  0  0
   -3.3786   -1.5593    0.0002 C   0  0  0  0  0  0  0  0  0  0  0  0
   -3.5582    1.2278    0.0001 C   0  0  0  0  0  0  0  0  0  0  0  0
   -4.6281   -0.9387   -0.0008 C   0  0  0  0  0  0  0  0  0  0  0  0
    4.0296   -1.0791   -0.0003 C   0  0  0  0  0  0  0  0  0  0  0  0
    3.8506    1.7019   -0.0011 C   0  0  0  0  0  0  0  0  0  0  0  0
   -4.7177    0.4519   -0.0007 C   0  0  0  0  0  0  0  0  0  0  0  0
    5.1902   -0.3052   -0.0012 C   0  0  0  0  0  0  0  0  0  0  0  0
    5.1009    1.0833   -0.0018 C   0  0  0  0  0  0  0  0  0  0  0  0
   -5.8702   -1.7646   -0.0020 C   0  0  0  0  0  0  0  0  0  0  0  0
   -3.3252   -2.6453    0.0022 H   0  0  0  0  0  0  0  0  0  0  0  0
    3.8210    2.7893   -0.0014 H   0  0  0  0  0  0  0  0  0  0  0  0
   -5.6910    0.9374    0.0006 H   0  0  0  0  0  0  0  0  0  0  0  0
    6.1736   -0.7681   -0.0017 H   0  0  0  0  0  0  0  0  0  0  0  0
    6.0044    1.6861   -0.0027 H   0  0  0  0  0  0  0  0  0  0  0  0
   -6.1603   -2.0080    1.0249 H   0  0  0  0  0  0  0  0  0  0  0  0
   -6.6991   -1.2346   -0.4835 H   0  0  0  0  0  0  0  0  0  0  0  0
   -5.7223   -2.6975   -0.5566 H   0  0  0  0  0  0  0  0  0  0  0  0
    0.8399   -2.9970    0.3296 H   0  0  0  0  0  0  0  0  0  0  0  0
    0.4514    3.2205    0.2260 H   0  0  0  0  0  0  0  0  0  0  0  0
   -2.8617    3.0313    0.0021 H   0  0  0  0  0  0  0  0  0  0  0  0
    5.1598   -2.6398   -0.0009 H   0  0  0  0  0  0  0  0  0  0  0  0
  1 13  1  0  0  0  0
  1 34  1  0  0  0  0
  2 14  1  0  0  0  0
  2 35  1  0  0  0  0
  3 15  2  0  0  0  0
  4 16  2  0  0  0  0
  5 18  1  0  0  0  0
  5 36  1  0  0  0  0
  6 20  1  0  0  0  0
  6 37  1  0  0  0  0
  7  8  1  0  0  0  0
  7 13  2  0  0  0  0
  7 15  1  0  0  0  0
  8 14  2  0  0  0  0
  8 16  1  0  0  0  0
  9 10  2  0  0  0  0
  9 15  1  0  0  0  0
  9 17  1  0  0  0  0
 10 16  1  0  0  0  0
 10 18  1  0  0  0  0
 11 12  2  0  0  0  0
 11 13  1  0  0  0  0
 11 20  1  0  0  0  0
 12 14  1  0  0  0  0
 12 21  1  0  0  0  0
 17 19  2  0  0  0  0
 17 26  1  0  0  0  0
 18 22  2  0  0  0  0
 19 22  1  0  0  0  0
 19 25  1  0  0  0  0
 20 23  2  0  0  0  0
 21 24  2  0  0  0  0
 21 27  1  0  0  0  0
 22 28  1  0  0  0  0
 23 24  1  0  0  0  0
 23 29  1  0  0  0  0
 24 30  1  0  0  0  0
 25 31  1  0  0  0  0
 25 32  1  0  0  0  0
 25 33  1  0  0  0  0
M  END
> <PUBCHEM_COMPOUND_CID>
132487404

> <PUBCHEM_CONFORMER_RMSD>
0.6

> <PUBCHEM_CONFORMER_DIVERSEORDER>
1

> <PUBCHEM_MMFF94_PARTIAL_CHARGES>
32
1 -0.53
10 0.09
13 0.08
14 0.08
15 0.4
16 0.4
17 -0.15
18 0.08
19 -0.14
2 -0.53
20 0.08
21 -0.15
22 -0.15
23 -0.15
24 -0.15
25 0.14
26 0.15
27 0.15
28 0.15
29 0.15
3 -0.57
30 0.15
34 0.45
35 0.45
36 0.45
37 0.45
4 -0.57
5 -0.53
6 -0.53
7 0.09
8 0.09
9 0.09

> <PUBCHEM_EFFECTIVE_ROTOR_COUNT>
0

> <PUBCHEM_PHARMACOPHORE_FEATURES>
10
1 1 donor
1 2 donor
1 3 acceptor
1 4 acceptor
1 5 donor
1 6 donor
6 11 12 20 21 23 24 rings
6 7 8 11 12 13 14 rings
6 7 8 9 10 15 16 rings
6 9 10 17 18 19 22 rings

> <PUBCHEM_HEAVY_ATOM_COUNT>
25

> <PUBCHEM_ATOM_DEF_STEREO_COUNT>
0

> <PUBCHEM_ATOM_UDEF_STEREO_COUNT>
0

> <PUBCHEM_BOND_DEF_STEREO_COUNT>
0

> <PUBCHEM_BOND_UDEF_STEREO_COUNT>
0

> <PUBCHEM_ISOTOPIC_ATOM_COUNT>
0

> <PUBCHEM_COMPONENT_COUNT>
1

> <PUBCHEM_CACTVS_TAUTO_COUNT>
842

> <PUBCHEM_CONFORMER_ID>
07E598EC00000001

> <PUBCHEM_MMFF94_ENERGY>
90.7944

> <PUBCHEM_FEATURE_SELFOVERLAP>
50.83

> <PUBCHEM_SHAPE_FINGERPRINT>
10 15 18265604554932173208
10616163 171 18411983546242033911
10906281 52 18265916763618199730
10967382 1 18410574032454133152
1100329 8 18194682798321071547
11578080 2 16879896453434956951
11963148 33 18264764531368410963
12011746 2 18410012160505867902
12107183 9 17833831568903371131
12236239 1 17894346691757448356
12403259 226 18410569596117484917
12788726 201 17775017773006414520
12838862 33 18267002007433573440
13140716 1 17978226389404359288
13402501 40 18410011060994226859
138480 1 17690279309496763494
13862211 1 18410289233220468050
14341114 176 18409736179140624659
14787075 74 18334858337471431331
14790565 3 18410300219900038860
15196674 1 18410573963676627652
15536298 74 18413670214211334666
15927050 60 17333653172414701221
17492 89 18339079276775187338
1813 80 17312821580596854452
18681886 176 18411134779812427568
19591789 44 18410572851385781422
200 152 18202281420470545075
20028762 73 18130222778640946047
20691752 17 17386009433732878832
21236236 1 18412263922345478641
21267235 1 18410863173916091526
21279426 13 18338516326736512950
21421861 104 17825382986312560650
221357 26 18412261761649692815
221490 88 18335989782270619971
23402539 116 18342733048650766639
23559900 14 18412257341933582224
3004659 81 18260548905751089374
335352 9 18338798892608575516
34797466 226 17131277977524687060
350125 39 18411420626923310209
3545911 37 18411138073761816310
3680242 22 18263079920982668746
3886686 26 16965449316349437834
4073 2 18113905986954511179
4214541 1 18410856534097183393
474 4 17604436305326277236
5104073 3 18411699855035760608
59755656 215 18408602569862593887
9709674 26 18410017640905652083

> <PUBCHEM_SHAPE_MULTIPOLES>
479.27
11.13
2.93
0.59
1.91
0.3
0
-1.95
0.01
0.08
0
0.01
0
0

> <PUBCHEM_SHAPE_SELFOVERLAP>
1106.596

> <PUBCHEM_SHAPE_VOLUME>
243.4

> <PUBCHEM_COORDINATE_TYPE>
2
5
10

$$$$
