REMARK  Name = 132472902
REMARK  9 active torsions:
REMARK  status: ('A' for Active; 'I' for Inactive)
REMARK    1  A    between atoms: C_5  and  O_19
REMARK    2  A    between atoms: C_8  and  C_29
REMARK    3  A    between atoms: C_9  and  O_25
REMARK    4  A    between atoms: C_12  and  O_21
REMARK    5  A    between atoms: C_16  and  C_23
REMARK    6  A    between atoms: O_25  and  C_27
REMARK    7  A    between atoms: C_29  and  O_30
REMARK    8  A    between atoms: O_30  and  C_32
REMARK    9  A    between atoms: C_32  and  C_33
REMARK                            x       y       z     vdW  Elec       q    Type
REMARK                         _______ _______ _______ _____ _____    ______ ____
ROOT
ATOM      1  O   UNL     1      -2.205  -1.429  -2.622  0.00  0.00    -0.284 OA
ATOM      2  C   UNL     1      -0.476   1.490  -0.410  0.00  0.00    +0.045 C 
ATOM      3  C   UNL     1       0.042   2.811   0.126  0.00  0.00    +0.010 C 
ATOM      4  C   UNL     1      -0.911   2.811  -1.038  0.00  0.00    +0.007 C 
ATOM      5  C   UNL     1      -1.490   0.655   0.381  0.00  0.00    +0.113 C 
ATOM      6  C   UNL     1       0.388   0.645  -1.308  0.00  0.00    +0.001 C 
ATOM      7  C   UNL     1       1.475   3.178  -0.071  0.00  0.00    +0.044 C 
ATOM      8  C   UNL     1       1.903   0.979  -1.371  0.00  0.00    +0.095 C 
ATOM      9  C   UNL     1       2.339   1.926  -0.207  0.00  0.00    +0.176 C 
ATOM     10  C   UNL     1      -2.390   1.453   1.350  0.00  0.00    +0.032 C 
ATOM     11  C   UNL     1      -2.311  -0.177  -0.582  0.00  0.00    +0.040 C 
ATOM     12  C   UNL     1      -0.183  -0.368  -2.004  0.00  0.00    +0.165 C 
ATOM     13  C   UNL     1      -3.534   0.586   1.890  0.00  0.00    +0.011 C 
ATOM     14  C   UNL     1       2.215   1.666  -2.720  0.00  0.00    +0.012 C 
ATOM     15  C   UNL     1      -1.631  -0.708  -1.809  0.00  0.00    +0.226 C 
ATOM     16  C   UNL     1      -4.442   0.043   0.760  0.00  0.00    +0.037 C 
ATOM     17  C   UNL     1      -3.621  -0.430  -0.424  0.00  0.00    -0.021 C 
ATOM     18  C   UNL     1      -5.409   1.136   0.272  0.00  0.00    +0.009 C 
ENDROOT
BRANCH   5  19
ATOM     19  O   UNL     1      -0.749  -0.279   1.190  0.00  0.00    -0.382 OA
ATOM     20  H   UNL     1      -0.204   0.208   1.828  0.00  0.00    +0.211 HD
ENDBRANCH   5  19
BRANCH  12  21
ATOM     21  O   UNL     1       0.506  -1.127  -2.924  0.00  0.00    -0.503 OA
ATOM     22  H   UNL     1       1.413  -0.958  -3.085  0.00  0.00    +0.292 HD
ENDBRANCH  12  21
BRANCH  16  23
ATOM     23  C   UNL     1      -5.264  -1.093   1.317  0.00  0.00    -0.023 C 
ATOM     24  C   UNL     1      -4.897  -2.378   1.267  0.00  0.00    -0.005 C 
ENDBRANCH  16  23
BRANCH   9  25
ATOM     25  O   UNL     1       2.323   1.218   1.037  0.00  0.00    -0.452 OA
BRANCH  25  27
ATOM     26  O   UNL     1       4.072   2.516   1.808  0.00  0.00    -0.250 OA
ATOM     27  C   UNL     1       3.249   1.622   1.953  0.00  0.00    +0.317 C 
ATOM     28  C   UNL     1       3.116   0.797   3.197  0.00  0.00    +0.121 C 
ENDBRANCH  25  27
ENDBRANCH   9  25
BRANCH   8  29
ATOM     29  C   UNL     1       2.783  -0.295  -1.264  0.00  0.00    +0.216 C 
BRANCH  29  30
ATOM     30  O   UNL     1       2.200  -1.133  -0.295  0.00  0.00    -0.448 OA
BRANCH  30  32
ATOM     31  O   UNL     1       3.864  -2.699  -0.615  0.00  0.00    -0.250 OA
ATOM     32  C   UNL     1       2.842  -2.327  -0.053  0.00  0.00    +0.316 C 
BRANCH  32  33
ATOM     33  C   UNL     1       2.093  -3.124   1.001  0.00  0.00    +0.099 C 
ATOM     34  C   UNL     1       1.044  -4.004   0.333  0.00  0.00    +0.012 C 
ATOM     35  C   UNL     1       3.060  -3.962   1.834  0.00  0.00    +0.012 C 
ENDBRANCH  32  33
ENDBRANCH  30  32
ENDBRANCH  29  30
ENDBRANCH   8  29
TORSDOF 9
