REMARK  Name = 132429
REMARK  11 active torsions:
REMARK  status: ('A' for Active; 'I' for Inactive)
REMARK    1  A    between atoms: C_1  and  N_23
REMARK    2  A    between atoms: C_2  and  C_9
REMARK    3  A    between atoms: C_4  and  N_19
REMARK    4  A    between atoms: C_5  and  N_22
REMARK    5  A    between atoms: N_8  and  C_11
REMARK    6  A    between atoms: C_11  and  C_12
REMARK    7  A    between atoms: C_12  and  N_13
REMARK    8  A    between atoms: N_23  and  C_24
REMARK    9  A    between atoms: N_23  and  C_27
REMARK   10  A    between atoms: C_24  and  C_26
REMARK   11  A    between atoms: C_27  and  C_29
REMARK                            x       y       z     vdW  Elec       q    Type
REMARK                         _______ _______ _______ _____ _____    ______ ____
ROOT
ATOM      1  C   UNL     1      -1.815   0.049   0.025  0.00  0.00    +0.071 C 
ATOM      2  C   UNL     1       0.398  -0.811  -0.266  0.00  0.00    +0.077 C 
ATOM      3  C   UNL     1      -0.465   0.267  -0.248  0.00  0.00    +0.022 C 
ATOM      4  C   UNL     1      -2.276  -1.244   0.275  0.00  0.00    +0.158 C 
ATOM      5  C   UNL     1      -0.036  -2.099  -0.022  0.00  0.00    +0.149 C 
ATOM      6  C   UNL     1      -1.386  -2.318   0.251  0.00  0.00    +0.050 C 
ENDROOT
BRANCH   2   9
ATOM      7  O   UNL     1       2.207  -0.547  -1.735  0.00  0.00    -0.270 OA
ATOM      8  N   UNL     1       2.641  -0.268   0.527  0.00  0.00    -0.303 N 
ATOM      9  C   UNL     1       1.827  -0.540  -0.567  0.00  0.00    +0.247 C 
ATOM     10  H   UNL     1       2.244  -0.286   1.427  0.00  0.00    +0.150 HD
BRANCH   8  11
ATOM     11  C   UNL     1       4.040   0.038   0.396  0.00  0.00    +0.067 C 
BRANCH  11  12
ATOM     12  C   UNL     1       4.263   1.535   0.236  0.00  0.00    -0.056 C 
BRANCH  12  13
ATOM     13  N   UNL     1       5.693   1.827   0.134  0.00  0.00    +0.385 N 
ATOM     14  C   UNL     1       6.390   1.398   1.345  0.00  0.00    -0.101 C 
ATOM     15  C   UNL     1       6.265   1.175  -1.044  0.00  0.00    -0.101 C 
ATOM     16  H   UNL     1       5.810   2.835   0.033  0.00  0.00    -0.080 HD
ENDBRANCH  12  13
ENDBRANCH  11  12
ENDBRANCH   8  11
ENDBRANCH   2   9
BRANCH   4  19
ATOM     17  O   UNL     1      -4.017  -2.673   0.770  0.00  0.00    -0.126 OA
ATOM     18  O   UNL     1      -4.448  -0.529   0.575  0.00  0.00    -0.126 OA
ATOM     19  N   UNL     1      -3.649  -1.495   0.554  0.00  0.00    +0.059 N 
ENDBRANCH   4  19
BRANCH   5  22
ATOM     20  O   UNL     1       0.392  -4.356   0.182  0.00  0.00    -0.126 OA
ATOM     21  O   UNL     1       2.064  -3.014  -0.291  0.00  0.00    -0.126 OA
ATOM     22  N   UNL     1       0.851  -3.212  -0.045  0.00  0.00    +0.058 N 
ENDBRANCH   5  22
BRANCH   1  23
ATOM     23  N   UNL     1      -2.697   1.153   0.042  0.00  0.00    -0.304 N 
BRANCH  23  24
ATOM     24  C   UNL     1      -2.942   1.874   1.274  0.00  0.00    +0.108 C 
BRANCH  24  26
ATOM     25 CL   UNL     1      -2.246   3.912   2.955  0.00  0.00    -0.112 Cl
ATOM     26  C   UNL     1      -1.948   3.011   1.448  0.00  0.00    +0.116 C 
ENDBRANCH  24  26
ENDBRANCH  23  24
BRANCH  23  27
ATOM     27  C   UNL     1      -3.374   1.566  -1.169  0.00  0.00    +0.108 C 
BRANCH  27  29
ATOM     28 CL   UNL     1      -3.275   2.904  -3.550  0.00  0.00    -0.112 Cl
ATOM     29  C   UNL     1      -2.456   2.398  -2.051  0.00  0.00    +0.116 C 
ENDBRANCH  27  29
ENDBRANCH  23  27
ENDBRANCH   1  23
TORSDOF 11
