REMARK  Name = 13248214
REMARK  4 active torsions:
REMARK  status: ('A' for Active; 'I' for Inactive)
REMARK    1  A    between atoms: N_3  and  C1*_12
REMARK    2  A    between atoms: C3*_14  and  O3*_16
REMARK    3  A    between atoms: C4*_15  and  C5*_18
REMARK    4  A    between atoms: C5*_18  and  O5*_19
REMARK                            x       y       z     vdW  Elec       q    Type
REMARK                         _______ _______ _______ _____ _____    ______ ____
ROOT
ATOM      1  O   UNL     1      -1.163   2.801  -0.406  0.00  0.00    -0.252 OA
ATOM      2  O   UNL     1      -4.386  -0.405   0.083  0.00  0.00    -0.252 OA
ATOM      3  N   UNL     1      -0.447   0.602  -0.146  0.00  0.00    -0.223 N 
ATOM      4  N   UNL     1      -2.169  -1.110   0.115  0.00  0.00    -0.244 N 
ATOM      5  N   UNL     1      -2.719   1.170   0.018  0.00  0.00    -0.223 N 
ATOM      6  C   UNL     1      -0.787  -0.724   0.340  0.00  0.00    +0.197 C 
ATOM      7  C   UNL     1      -1.407   1.613  -0.184  0.00  0.00    +0.314 C 
ATOM      8  C   UNL     1      -3.180  -0.149   0.085  0.00  0.00    +0.312 C 
ATOM      9  C   UNL     1      -2.485  -2.528   0.186  0.00  0.00    +0.118 C 
ATOM     10  H   UNL     1      -3.401   1.872   0.125  0.00  0.00    +0.161 HD
ENDROOT
BRANCH   3  12
ATOM     11  O4* UNL     1       1.579  -0.205  -0.994  0.00  0.00    -0.335 OA
ATOM     12  C1* UNL     1       0.944   0.898  -0.334  0.00  0.00    +0.199 C 
ATOM     13  C2* UNL     1       1.680   1.127   0.976  0.00  0.00    +0.083 C 
ATOM     14  C3* UNL     1       3.063   0.600   0.670  0.00  0.00    +0.144 C 
ATOM     15  C4* UNL     1       2.789  -0.548  -0.292  0.00  0.00    +0.173 C 
BRANCH  14  16
ATOM     16  O3* UNL     1       3.828   1.609   0.016  0.00  0.00    -0.382 OA
ATOM     17  H3* UNL     1       3.999   2.337   0.635  0.00  0.00    +0.210 HD
ENDBRANCH  14  16
BRANCH  15  18
ATOM     18  C5* UNL     1       2.558  -1.875   0.419  0.00  0.00    +0.169 C 
BRANCH  18  19
ATOM     19  O5* UNL     1       2.302  -2.877  -0.552  0.00  0.00    -0.379 OA
ATOM     20  H5* UNL     1       2.153  -3.726  -0.108  0.00  0.00    +0.211 HD
ENDBRANCH  18  19
ENDBRANCH  15  18
ENDBRANCH   3  12
TORSDOF 4
