132494150
  -OEChem-03292013293D

 46 47  0     1  0  0  0  0  0999 V2000
    1.5706   -1.9577    0.6161 O   0  0  0  0  0  0  0  0  0  0  0  0
    1.8044    0.8067    0.5007 O   0  0  0  0  0  0  0  0  0  0  0  0
    1.6346   -3.0214   -1.4255 O   0  0  0  0  0  0  0  0  0  0  0  0
    4.5968    0.9666    0.5390 O   0  0  0  0  0  0  0  0  0  0  0  0
   -5.4385    2.5738    0.3896 O   0  0  0  0  0  0  0  0  0  0  0  0
    1.3601    1.8642   -1.3854 O   0  5  0  0  0  0  0  0  0  0  0  0
    0.4343    2.6219    0.4962 O   0  0  0  0  0  0  0  0  0  0  0  0
    6.0706    1.8688   -0.8422 O   0  5  0  0  0  0  0  0  0  0  0  0
    6.5056    1.9033    1.3446 O   0  0  0  0  0  0  0  0  0  0  0  0
    1.1353    1.8607   -0.1745 N   0  3  0  0  0  0  0  0  0  0  0  0
    5.8346    1.6380    0.3444 N   0  3  0  0  0  0  0  0  0  0  0  0
   -0.2837   -3.3479    0.0497 C   0  0  1  0  0  0  0  0  0  0  0  0
   -1.2872   -2.2833    0.3385 C   0  0  0  0  0  0  0  0  0  0  0  0
   -2.6358   -0.4056   -0.4191 C   0  0  0  0  0  0  0  0  0  0  0  0
   -1.6929   -1.4145   -0.6750 C   0  0  0  0  0  0  0  0  0  0  0  0
   -3.1748   -0.2762    0.8830 C   0  0  0  0  0  0  0  0  0  0  0  0
   -1.8173   -2.1560    1.6189 C   0  0  0  0  0  0  0  0  0  0  0  0
   -0.7612   -4.3611   -1.0105 C   0  0  0  0  0  0  0  0  0  0  0  0
    1.0823   -2.7818   -0.3594 C   0  0  0  0  0  0  0  0  0  0  0  0
    2.5874   -0.0139   -0.3694 C   0  0  2  0  0  0  0  0  0  0  0  0
   -2.7550   -1.1595    1.8910 C   0  0  0  0  0  0  0  0  0  0  0  0
    2.8318   -1.3434    0.3323 C   0  0  0  0  0  0  0  0  0  0  0  0
   -3.0556    0.4776   -1.4271 C   0  0  0  0  0  0  0  0  0  0  0  0
   -4.1177    0.7327    1.1389 C   0  0  0  0  0  0  0  0  0  0  0  0
    3.8969    0.7052   -0.6731 C   0  0  0  0  0  0  0  0  0  0  0  0
   -4.5232    1.6015    0.1254 C   0  0  0  0  0  0  0  0  0  0  0  0
   -3.9933    1.4742   -1.1551 C   0  0  0  0  0  0  0  0  0  0  0  0
   -5.8092    3.4273   -0.6922 C   0  0  0  0  0  0  0  0  0  0  0  0
   -0.0907   -3.9340    0.9594 H   0  0  0  0  0  0  0  0  0  0  0  0
   -1.2711   -1.5123   -1.6738 H   0  0  0  0  0  0  0  0  0  0  0  0
   -1.5111   -2.8243    2.4194 H   0  0  0  0  0  0  0  0  0  0  0  0
   -0.8991   -3.8943   -1.9921 H   0  0  0  0  0  0  0  0  0  0  0  0
   -0.0298   -5.1681   -1.1312 H   0  0  0  0  0  0  0  0  0  0  0  0
   -1.7154   -4.8108   -0.7149 H   0  0  0  0  0  0  0  0  0  0  0  0
    2.0439   -0.2461   -1.2948 H   0  0  0  0  0  0  0  0  0  0  0  0
   -3.1558   -1.0782    2.8992 H   0  0  0  0  0  0  0  0  0  0  0  0
    3.3106   -1.1866    1.3052 H   0  0  0  0  0  0  0  0  0  0  0  0
    3.4843   -2.0062   -0.2482 H   0  0  0  0  0  0  0  0  0  0  0  0
   -2.6534    0.3960   -2.4349 H   0  0  0  0  0  0  0  0  0  0  0  0
   -4.5419    0.8457    2.1350 H   0  0  0  0  0  0  0  0  0  0  0  0
    3.7136    1.6522   -1.1910 H   0  0  0  0  0  0  0  0  0  0  0  0
    4.5033    0.0593   -1.3216 H   0  0  0  0  0  0  0  0  0  0  0  0
   -4.2636    2.1145   -1.9878 H   0  0  0  0  0  0  0  0  0  0  0  0
   -6.3000    2.8681   -1.4961 H   0  0  0  0  0  0  0  0  0  0  0  0
   -4.9568    4.0124   -1.0536 H   0  0  0  0  0  0  0  0  0  0  0  0
   -6.5443    4.1400   -0.3041 H   0  0  0  0  0  0  0  0  0  0  0  0
  1 19  1  0  0  0  0
  1 22  1  0  0  0  0
  2 10  1  0  0  0  0
  2 20  1  0  0  0  0
  3 19  2  0  0  0  0
  4 11  1  0  0  0  0
  4 25  1  0  0  0  0
  5 26  1  0  0  0  0
  5 28  1  0  0  0  0
  6 10  1  0  0  0  0
  7 10  2  0  0  0  0
  8 11  1  0  0  0  0
  9 11  2  0  0  0  0
 12 13  1  0  0  0  0
 12 18  1  0  0  0  0
 12 19  1  0  0  0  0
 12 29  1  0  0  0  0
 13 15  2  0  0  0  0
 13 17  1  0  0  0  0
 14 15  1  0  0  0  0
 14 16  2  0  0  0  0
 14 23  1  0  0  0  0
 15 30  1  0  0  0  0
 16 21  1  0  0  0  0
 16 24  1  0  0  0  0
 17 21  2  0  0  0  0
 17 31  1  0  0  0  0
 18 32  1  0  0  0  0
 18 33  1  0  0  0  0
 18 34  1  0  0  0  0
 20 22  1  0  0  0  0
 20 25  1  0  0  0  0
 20 35  1  0  0  0  0
 21 36  1  0  0  0  0
 22 37  1  0  0  0  0
 22 38  1  0  0  0  0
 23 27  2  0  0  0  0
 23 39  1  0  0  0  0
 24 26  2  0  0  0  0
 24 40  1  0  0  0  0
 25 41  1  0  0  0  0
 25 42  1  0  0  0  0
 26 27  1  0  0  0  0
 27 43  1  0  0  0  0
 28 44  1  0  0  0  0
 28 45  1  0  0  0  0
 28 46  1  0  0  0  0
M  CHG  4   6  -1   8  -1  10   1  11   1
M  END
> <PUBCHEM_COMPOUND_CID>
132494150

> <PUBCHEM_CONFORMER_RMSD>
1

> <PUBCHEM_CONFORMER_DIVERSEORDER>
1
138
92
97
19
64
12
56
120
87
74
101
59
125
70
127
84
100
118
72
132
117
83
80
131
130
135
75
111
37
124
154
30
86
33
153
10
152
31
105
7
141
146
53
106
102
49
103
136
93
9
150
99
76
142
44
95
155
20
94
126
55
113
134
45
112
98
63
145
24
128
78
107
50
144
17
29
79
88
4
140
32
11
14
133
58
156
25
47
52
69
148
18
81
48
46
26
66
110
60
6
13
77
82
40
147
39
27
2
16
122
15
89
38
3
123
139
143
149
62
57
71
21
68
54
108
8
119
121
67
28
43
22
115
5
41
73
96
85
90
116
129
65
137
114
91
61
23
104
42
151
35
36
51
34
109

> <PUBCHEM_MMFF94_PARTIAL_CHARGES>
31
1 -0.43
10 1.03
11 1.03
12 0.2
13 -0.14
15 -0.15
17 -0.15
19 0.66
2 -0.27
20 0.28
21 -0.15
22 0.28
23 -0.15
24 -0.15
25 0.28
26 0.08
27 -0.15
28 0.28
3 -0.57
30 0.15
31 0.15
36 0.15
39 0.15
4 -0.27
40 0.15
43 0.15
5 -0.36
6 -0.52
7 -0.52
8 -0.52
9 -0.52

> <PUBCHEM_EFFECTIVE_ROTOR_COUNT>
11

> <PUBCHEM_PHARMACOPHORE_FEATURES>
9
1 18 hydrophobe
1 3 acceptor
1 5 acceptor
1 6 acceptor
1 7 acceptor
1 8 acceptor
1 9 acceptor
6 13 14 15 16 17 21 rings
6 14 16 23 24 26 27 rings

> <PUBCHEM_HEAVY_ATOM_COUNT>
28

> <PUBCHEM_ATOM_DEF_STEREO_COUNT>
2

> <PUBCHEM_ATOM_UDEF_STEREO_COUNT>
0

> <PUBCHEM_BOND_DEF_STEREO_COUNT>
0

> <PUBCHEM_BOND_UDEF_STEREO_COUNT>
0

> <PUBCHEM_ISOTOPIC_ATOM_COUNT>
0

> <PUBCHEM_COMPONENT_COUNT>
1

> <PUBCHEM_CACTVS_TAUTO_COUNT>
21

> <PUBCHEM_CONFORMER_ID>
07E5B34600000001

> <PUBCHEM_MMFF94_ENERGY>
89.0446

> <PUBCHEM_FEATURE_SELFOVERLAP>
45.841

> <PUBCHEM_SHAPE_FINGERPRINT>
105312 117 18341332288080314934
10675989 125 17977383837381493033
11112241 14 17917423276562201088
12107698 1 17751643388449755139
12422481 6 18113609085198791906
12633257 1 16877948268974830143
12788726 201 17988083266356263729
13402501 40 18188776020357108429
14294032 229 18271249434375157139
14856354 85 16588312747581694266
16110190 28 17749113322037398252
17093844 170 18263365789457799388
21401589 2 18259984864501409347
21475661 188 18043253431933798533
23559900 14 17099770149329530983
350125 39 18194406816818866915
474 4 18267864974344125355
56638632 10 18201450207129426449
57724786 102 18261386703182940274
7226269 152 18271812375844002504
7288768 16 18186804656190874003
9862522 239 18336828705395592542
9981440 41 18409168818250827899

> <PUBCHEM_SHAPE_MULTIPOLES>
513.44
12.04
4.69
1.4
9.1
2.68
-0.17
-16.41
-1.11
-0.59
0.95
-0.57
0.31
1.4

> <PUBCHEM_SHAPE_SELFOVERLAP>
1080.114

> <PUBCHEM_SHAPE_VOLUME>
288.7

> <PUBCHEM_COORDINATE_TYPE>
2
5
10

$$$$
