REMARK  Name = 132428
REMARK  4 active torsions:
REMARK  status: ('A' for Active; 'I' for Inactive)
REMARK    1  A    between atoms: C_7  and  C_20
REMARK    2  A    between atoms: C_20  and  C_21
REMARK    3  A    between atoms: C_21  and  C_22
REMARK    4  A    between atoms: C_22  and  N_23
REMARK                            x       y       z     vdW  Elec       q    Type
REMARK                         _______ _______ _______ _____ _____    ______ ____
ROOT
ATOM      1  N   UNL     1       0.295   0.478  -0.719  0.00  0.00    -0.386 NA
ATOM      2  N   UNL     1       1.350  -1.891   0.246  0.00  0.00    -0.320 NA
ATOM      3  N   UNL     1       3.397  -0.862   0.578  0.00  0.00    -0.259 NA
ATOM      4  N   UNL     1       3.715   1.453   0.040  0.00  0.00    -0.310 NA
ATOM      5  N   UNL     1       1.916   2.705  -0.842  0.00  0.00    -0.329 N 
ATOM      6  N   UNL     1       5.474   0.178   0.912  0.00  0.00    -0.283 N 
ATOM      7  C   UNL     1      -0.453  -0.634  -0.639  0.00  0.00    +0.154 C 
ATOM      8  C   UNL     1       0.069  -1.804  -0.162  0.00  0.00    +0.215 C 
ATOM      9  C   UNL     1       1.575   0.389  -0.310  0.00  0.00    +0.260 C 
ATOM     10  C   UNL     1       2.121  -0.800   0.178  0.00  0.00    +0.186 C 
ATOM     11  C   UNL     1       2.428   1.476  -0.352  0.00  0.00    +0.232 C 
ATOM     12  C   UNL     1       4.130   0.264   0.489  0.00  0.00    +0.208 C 
ATOM     13  H   UNL     1       2.497   3.498  -0.885  0.00  0.00    +0.145 HD
ATOM     14  H   UNL     1       0.979   2.765  -1.139  0.00  0.00    +0.145 HD
ATOM     15  H   UNL     1       5.831  -0.674   1.251  0.00  0.00    +0.156 HD
ATOM     16  H   UNL     1       6.056   0.972   0.867  0.00  0.00    +0.156 HD
ATOM     17  N   UNL     1      -0.748  -2.954  -0.091  0.00  0.00    -0.330 N 
ATOM     18  H   UNL     1      -0.379  -3.800   0.251  0.00  0.00    +0.145 HD
ATOM     19  H   UNL     1      -1.687  -2.909  -0.385  0.00  0.00    +0.145 HD
ENDROOT
BRANCH   7  20
ATOM     20  C   UNL     1      -1.868  -0.519  -1.092  0.00  0.00    +0.061 C 
BRANCH  20  21
ATOM     21  C   UNL     1      -2.815  -0.113   0.048  0.00  0.00    -0.015 C 
BRANCH  21  22
ATOM     22  C   UNL     1      -4.254   0.042  -0.441  0.00  0.00    -0.077 C 
BRANCH  22  23
ATOM     23  N   UNL     1      -5.129   0.407   0.666  0.00  0.00    +0.384 N 
ATOM     24  C   UNL     1      -6.516   0.524   0.211  0.00  0.00    -0.101 C 
ATOM     25  C   UNL     1      -4.689   1.661   1.280  0.00  0.00    -0.101 C 
ATOM     26  H   UNL     1      -5.080  -0.332   1.368  0.00  0.00    -0.080 HD
ENDBRANCH  22  23
ENDBRANCH  21  22
ENDBRANCH  20  21
ENDBRANCH   7  20
TORSDOF 4
