REMARK  Name = 132437
REMARK  9 active torsions:
REMARK  status: ('A' for Active; 'I' for Inactive)
REMARK    1  A    between atoms: N_3  and  N_14
REMARK    2  A    between atoms: C_4  and  C_7
REMARK    3  A    between atoms: C_5  and  O_30
REMARK    4  A    between atoms: N_14  and  C_16
REMARK    5  A    between atoms: C_15  and  C_22
REMARK    6  A    between atoms: C_16  and  C_19
REMARK    7  A    between atoms: C_19  and  O_20
REMARK    8  A    between atoms: C_22  and  N_25
REMARK    9  A    between atoms: O_30  and  C_31
REMARK                            x       y       z     vdW  Elec       q    Type
REMARK                         _______ _______ _______ _____ _____    ______ ____
ROOT
ATOM      1  O   UNL     1       1.905  -1.409  -1.980  0.00  0.00    -0.275 OA
ATOM      2  O   UNL     1       2.486   0.478   1.695  0.00  0.00    -0.224 OA
ATOM      3  N   UNL     1       1.216  -0.038  -0.213  0.00  0.00    -0.117 N 
ATOM      4  C   UNL     1       1.883  -1.149  -0.775  0.00  0.00    +0.230 C 
ATOM      5  C   UNL     1       1.532   0.703   0.954  0.00  0.00    +0.427 C 
ENDROOT
BRANCH   4   7
ATOM      6  N   UNL     1       2.561  -3.395  -0.371  0.00  0.00    +0.391 N 
ATOM      7  C   UNL     1       2.590  -2.044   0.189  0.00  0.00    +0.019 C 
ATOM      8  C   UNL     1       4.065  -1.688   0.354  0.00  0.00    -0.015 C 
ATOM      9  C   UNL     1       4.818  -2.920  -0.124  0.00  0.00    -0.025 C 
ATOM     10  C   UNL     1       3.807  -4.036   0.038  0.00  0.00    -0.081 C 
ATOM     11  H   UNL     1       2.502  -3.355  -1.388  0.00  0.00    -0.084 HD
ATOM     12  H   UNL     1       1.750  -3.917  -0.038  0.00  0.00    -0.084 HD
ENDBRANCH   4   7
BRANCH   3  14
ATOM     13  O   UNL     1      -2.179   0.287  -1.369  0.00  0.00    -0.271 OA
ATOM     14  N   UNL     1       0.086   0.393  -0.948  0.00  0.00    -0.186 N 
ATOM     15  C   UNL     1      -1.198  -0.092  -0.725  0.00  0.00    +0.263 C 
BRANCH  14  16
ATOM     16  C   UNL     1       0.397   1.392  -1.958  0.00  0.00    +0.194 C 
ATOM     17  C   UNL     1       0.021   0.873  -3.337  0.00  0.00    +0.035 C 
BRANCH  16  19
ATOM     18  O   UNL     1      -1.078   2.873  -0.750  0.00  0.00    -0.248 OA
ATOM     19  C   UNL     1      -0.298   2.717  -1.683  0.00  0.00    +0.337 C 
BRANCH  19  20
ATOM     20  O   UNL     1       0.058   3.682  -2.578  0.00  0.00    -0.443 OA
ATOM     21  C   UNL     1      -0.547   4.964  -2.382  0.00  0.00    +0.256 C 
ENDBRANCH  19  20
ENDBRANCH  16  19
ENDBRANCH  14  16
BRANCH  15  22
ATOM     22  C   UNL     1      -1.325  -1.142   0.368  0.00  0.00    +0.188 C 
BRANCH  22  25
ATOM     23  O   UNL     1      -2.645  -3.363  -1.041  0.00  0.00    -0.269 OA
ATOM     24  O   UNL     1      -3.436  -0.035   2.066  0.00  0.00    -0.269 OA
ATOM     25  N   UNL     1      -2.688  -1.575   0.470  0.00  0.00    -0.214 N 
ATOM     26  C   UNL     1      -4.666  -2.789   0.135  0.00  0.00    +0.063 C 
ATOM     27  C   UNL     1      -4.928  -1.693   1.155  0.00  0.00    +0.063 C 
ATOM     28  C   UNL     1      -3.220  -2.639  -0.240  0.00  0.00    +0.256 C 
ATOM     29  C   UNL     1      -3.616  -0.980   1.310  0.00  0.00    +0.256 C 
ENDBRANCH  22  25
ENDBRANCH  15  22
ENDBRANCH   3  14
BRANCH   5  30
ATOM     30  O   UNL     1       0.641   1.724   1.185  0.00  0.00    -0.441 OA
BRANCH  30  31
ATOM     31  C   UNL     1       0.883   2.522   2.349  0.00  0.00    +0.138 C 
ATOM     32  C   UNL     1       0.820   1.620   3.580  0.00  0.00    +0.044 C 
ATOM     33  C   UNL     1      -0.208   3.589   2.409  0.00  0.00    +0.044 C 
ATOM     34  C   UNL     1       2.261   3.169   2.217  0.00  0.00    +0.044 C 
ENDBRANCH  30  31
ENDBRANCH   5  30
TORSDOF 9
