REMARK  Name = 132445
REMARK  8 active torsions:
REMARK  status: ('A' for Active; 'I' for Inactive)
REMARK    1  A    between atoms: CA_5  and  N_13
REMARK    2  A    between atoms: CA_7  and  C_12
REMARK    3  A    between atoms: C_8  and  C_28
REMARK    4  A    between atoms: N_13  and  C_16
REMARK    5  A    between atoms: N_15  and  C_21
REMARK    6  A    between atoms: C_21  and  C_22
REMARK    7  A    between atoms: C_28  and  S_29
REMARK    8  A    between atoms: S_29  and  C_34
REMARK                            x       y       z     vdW  Elec       q    Type
REMARK                         _______ _______ _______ _____ _____    ______ ____
ROOT
ATOM      1  S   UNL     1      -1.518   2.189  -1.801  0.00  0.00    -0.114 S 
ATOM      2  O   UNL     1       0.428   0.633   2.126  0.00  0.00    -0.273 OA
ATOM      3  N   UNL     1      -1.264   1.535   0.756  0.00  0.00    -0.242 N 
ATOM      4  C   UNL     1      -0.929   2.618  -0.147  0.00  0.00    +0.155 C 
ATOM      5  CA  UNL     1       0.549   2.292   0.166  0.00  0.00    +0.176 C 
ATOM      6  C   UNL     1      -0.024   1.335   1.252  0.00  0.00    +0.251 C 
ATOM      7  CA  UNL     1      -2.510   1.018   0.905  0.00  0.00    +0.129 C 
ATOM      8  C   UNL     1      -3.487   1.283   0.007  0.00  0.00    -0.002 C 
ATOM      9  C   UNL     1      -3.262   2.083  -1.273  0.00  0.00    +0.083 C 
ENDROOT
BRANCH   7  12
ATOM     10  O   UNL     1      -2.537  -1.120   1.872  0.00  0.00    -0.239 OA
ATOM     11  OXT UNL     1      -3.198   0.678   3.123  0.00  0.00    -0.239 OA
ATOM     12  C   UNL     1      -2.776   0.096   2.090  0.00  0.00    +0.401 C 
ENDBRANCH   7  12
BRANCH   5  13
ATOM     13  N   UNL     1       1.296   1.628  -0.858  0.00  0.00    -0.325 N 
ATOM     14  H   UNL     1       0.789   1.337  -1.650  0.00  0.00    +0.147 HD
BRANCH  13  16
ATOM     15  N   UNL     1       5.353   0.797  -0.867  0.00  0.00    -0.299 N 
ATOM     16  C   UNL     1       2.671   1.347  -0.861  0.00  0.00    +0.044 C 
ATOM     17  C   UNL     1       3.251   0.682  -1.942  0.00  0.00    +0.010 C 
ATOM     18  C   UNL     1       3.470   1.729   0.217  0.00  0.00    +0.030 C 
ATOM     19  C   UNL     1       4.613   0.417  -1.918  0.00  0.00    +0.119 C 
ATOM     20  C   UNL     1       4.826   1.437   0.187  0.00  0.00    +0.063 C 
BRANCH  15  21
ATOM     21  C   UNL     1       6.783   0.504  -0.869  0.00  0.00    +0.118 C 
BRANCH  21  22
ATOM     22  C   UNL     1       7.065  -0.836  -0.247  0.00  0.00    -0.002 C 
ATOM     23  C   UNL     1       7.084  -1.971  -1.047  0.00  0.00    -0.003 C 
ATOM     24  C   UNL     1       7.303  -0.922   1.119  0.00  0.00    -0.003 C 
ATOM     25  C   UNL     1       7.345  -3.214  -0.470  0.00  0.00    -0.000 C 
ATOM     26  C   UNL     1       7.564  -2.165   1.695  0.00  0.00    -0.000 C 
ATOM     27  C   UNL     1       7.585  -3.311   0.900  0.00  0.00    -0.000 C 
ENDBRANCH  21  22
ENDBRANCH  15  21
ENDBRANCH  13  16
ENDBRANCH   5  13
BRANCH   8  28
ATOM     28  C   UNL     1      -4.907   0.775   0.103  0.00  0.00    +0.089 C 
BRANCH  28  29
ATOM     29  S   UNL     1      -5.028  -0.814  -0.734  0.00  0.00    -0.070 S 
BRANCH  29  34
ATOM     30  N   UNL     1      -7.304  -2.292  -0.941  0.00  0.00    -0.206 N 
ATOM     31  N   UNL     1      -7.581  -0.436   0.146  0.00  0.00    -0.101 NA
ATOM     32  N   UNL     1      -8.597  -2.278  -0.591  0.00  0.00    -0.042 NA
ATOM     33  N   UNL     1      -8.761  -1.141   0.074  0.00  0.00    -0.022 NA
ATOM     34  C   UNL     1      -6.740  -1.177  -0.481  0.00  0.00    +0.211 A 
ATOM     35  C   UNL     1      -6.763  -3.399  -1.689  0.00  0.00    +0.158 C 
ENDBRANCH  29  34
ENDBRANCH  28  29
ENDBRANCH   8  28
TORSDOF 8
