132488
  -OEChem-03292013323D

 34 35  0     0  0  0  0  0  0999 V2000
    5.3616   -1.5418    0.0434 O   0  0  0  0  0  0  0  0  0  0  0  0
    5.6444    2.8878    0.0270 O   0  0  0  0  0  0  0  0  0  0  0  0
    4.2645    1.7762    1.4463 O   0  0  0  0  0  0  0  0  0  0  0  0
   -6.4578    1.6861   -0.5425 O   0  0  0  0  0  0  0  0  0  0  0  0
   -7.0206   -0.4174    0.1095 O   0  0  0  0  0  0  0  0  0  0  0  0
   -0.1005   -0.7669   -0.5676 N   0  0  0  0  0  0  0  0  0  0  0  0
   -0.5953   -0.3403    0.5022 N   0  0  0  0  0  0  0  0  0  0  0  0
    3.5342   -0.1078   -0.5481 C   0  0  0  0  0  0  0  0  0  0  0  0
    4.4662    1.0165   -0.8587 C   0  0  0  0  0  0  0  0  0  0  0  0
    2.1607    0.0827   -0.7004 C   0  0  0  0  0  0  0  0  0  0  0  0
    4.0232   -1.3384   -0.1101 C   0  0  0  0  0  0  0  0  0  0  0  0
    1.2833   -0.9585   -0.4140 C   0  0  0  0  0  0  0  0  0  0  0  0
    3.1389   -2.3787    0.1755 C   0  0  0  0  0  0  0  0  0  0  0  0
    1.7655   -2.1883    0.0231 C   0  0  0  0  0  0  0  0  0  0  0  0
   -1.9722   -0.1493    0.3497 C   0  0  0  0  0  0  0  0  0  0  0  0
    4.7567    1.9054    0.3338 C   0  0  0  0  0  0  0  0  0  0  0  0
   -4.7190    0.2332    0.0477 C   0  0  0  0  0  0  0  0  0  0  0  0
   -2.8568   -1.1893    0.6352 C   0  0  0  0  0  0  0  0  0  0  0  0
   -2.4611    1.0820   -0.0868 C   0  0  0  0  0  0  0  0  0  0  0  0
   -4.2303   -0.9980    0.4842 C   0  0  0  0  0  0  0  0  0  0  0  0
   -3.8345    1.2733   -0.2377 C   0  0  0  0  0  0  0  0  0  0  0  0
   -6.1509    0.4316   -0.1118 C   0  0  0  0  0  0  0  0  0  0  0  0
    5.4172    0.6311   -1.2442 H   0  0  0  0  0  0  0  0  0  0  0  0
    4.0372    1.6448   -1.6492 H   0  0  0  0  0  0  0  0  0  0  0  0
    1.7737    1.0406   -1.0401 H   0  0  0  0  0  0  0  0  0  0  0  0
    3.5060   -3.3428    0.5173 H   0  0  0  0  0  0  0  0  0  0  0  0
    1.0834   -3.0042    0.2470 H   0  0  0  0  0  0  0  0  0  0  0  0
   -2.4854   -2.1520    0.9768 H   0  0  0  0  0  0  0  0  0  0  0  0
   -1.7793    1.8984   -0.3108 H   0  0  0  0  0  0  0  0  0  0  0  0
   -4.9028   -1.8211    0.7117 H   0  0  0  0  0  0  0  0  0  0  0  0
   -4.1719    2.2475   -0.5801 H   0  0  0  0  0  0  0  0  0  0  0  0
    5.5110   -2.4514    0.3536 H   0  0  0  0  0  0  0  0  0  0  0  0
    5.8325    3.4640    0.7984 H   0  0  0  0  0  0  0  0  0  0  0  0
   -7.4254    1.8097   -0.6463 H   0  0  0  0  0  0  0  0  0  0  0  0
  1 11  1  0  0  0  0
  1 32  1  0  0  0  0
  2 16  1  0  0  0  0
  2 33  1  0  0  0  0
  3 16  2  0  0  0  0
  4 22  1  0  0  0  0
  4 34  1  0  0  0  0
  5 22  2  0  0  0  0
  6  7  2  0  0  0  0
  6 12  1  0  0  0  0
  7 15  1  0  0  0  0
  8  9  1  0  0  0  0
  8 10  1  0  0  0  0
  8 11  2  0  0  0  0
  9 16  1  0  0  0  0
  9 23  1  0  0  0  0
  9 24  1  0  0  0  0
 10 12  2  0  0  0  0
 10 25  1  0  0  0  0
 11 13  1  0  0  0  0
 12 14  1  0  0  0  0
 13 14  2  0  0  0  0
 13 26  1  0  0  0  0
 14 27  1  0  0  0  0
 15 18  2  0  0  0  0
 15 19  1  0  0  0  0
 17 20  2  0  0  0  0
 17 21  1  0  0  0  0
 17 22  1  0  0  0  0
 18 20  1  0  0  0  0
 18 28  1  0  0  0  0
 19 21  2  0  0  0  0
 19 29  1  0  0  0  0
 20 30  1  0  0  0  0
 21 31  1  0  0  0  0
M  END
> <PUBCHEM_COMPOUND_CID>
132488

> <PUBCHEM_CONFORMER_RMSD>
0.8

> <PUBCHEM_CONFORMER_DIVERSEORDER>
1
5
4
8
6
9
3
7
2

> <PUBCHEM_MMFF94_PARTIAL_CHARGES>
32
1 -0.53
10 -0.15
11 0.08
12 0.18
13 -0.15
14 -0.15
15 0.18
16 0.66
17 0.09
18 -0.15
19 -0.15
2 -0.65
20 -0.15
21 -0.15
22 0.63
25 0.15
26 0.15
27 0.15
28 0.15
29 0.15
3 -0.57
30 0.15
31 0.15
32 0.45
33 0.5
34 0.5
4 -0.65
5 -0.57
6 -0.18
7 -0.18
8 -0.14
9 0.2

> <PUBCHEM_EFFECTIVE_ROTOR_COUNT>
5

> <PUBCHEM_PHARMACOPHORE_FEATURES>
9
1 1 donor
1 2 acceptor
1 3 acceptor
1 4 acceptor
1 5 acceptor
3 2 3 16 anion
3 4 5 22 anion
6 15 17 18 19 20 21 rings
6 8 10 11 12 13 14 rings

> <PUBCHEM_HEAVY_ATOM_COUNT>
22

> <PUBCHEM_ATOM_DEF_STEREO_COUNT>
0

> <PUBCHEM_ATOM_UDEF_STEREO_COUNT>
0

> <PUBCHEM_BOND_DEF_STEREO_COUNT>
0

> <PUBCHEM_BOND_UDEF_STEREO_COUNT>
0

> <PUBCHEM_ISOTOPIC_ATOM_COUNT>
0

> <PUBCHEM_COMPONENT_COUNT>
1

> <PUBCHEM_CACTVS_TAUTO_COUNT>
5

> <PUBCHEM_CONFORMER_ID>
0002058800000001

> <PUBCHEM_MMFF94_ENERGY>
57.5199

> <PUBCHEM_FEATURE_SELFOVERLAP>
45.788

> <PUBCHEM_SHAPE_FINGERPRINT>
10411042 1 17978511924228737502
10595046 47 18413670201996495279
10835480 77 18408318878957311901
11128504 68 16056883554418151120
12107183 9 17398388629102498395
12403259 415 18114176402290110380
12616971 3 17917700284429825006
13533116 47 17168700821632158106
13878862 14 18339060636949010428
13955234 65 18336828585416427954
14251732 16 18410576219283758723
14461889 52 18188494687098910691
14528608 73 18273215313313688695
14931854 50 17774454875225804520
15475509 35 16371271235776624738
16079462 125 18113611275379068061
17844677 252 18341057306867263377
1813 80 14549015464149288875
19427546 62 18336267933286138846
20157964 124 18411138030379626806
20281389 69 18260550000878254477
20511986 3 18334284371533784711
20645477 70 18339083666189468695
21315764 268 18261387819394434997
21344244 78 18127957621795046290
21859007 373 17024290947681727575
23402539 116 18334856079162763079
23559900 14 18187372003763830422
23569914 2 17612821112139108333
239999 70 18272657792648004838
2916195 48 18259703389783239113
29717793 49 17917153792828186982
300161 21 18334574651045628935
3004659 81 18260832553364229282
3411729 13 18334573586468505816
34797466 226 17989215845247539245
3545911 37 18260271823856139599
4073 2 17822020838378863826
5104073 3 18261399927149725555
5283173 99 18114740413760278421
542803 24 17703795795247156795
67856867 119 18408600331947392178
7808743 9 18049724324436647408
9971528 1 17676493830333576910

> <PUBCHEM_SHAPE_MULTIPOLES>
413.44
16.67
2.37
0.83
14.63
0.44
-0.08
6.56
0
-3.86
-0.26
-0.45
0.16
0.96

> <PUBCHEM_SHAPE_SELFOVERLAP>
892.512

> <PUBCHEM_SHAPE_VOLUME>
225.9

> <PUBCHEM_COORDINATE_TYPE>
2
5
10

$$$$
