132489977
  -OEChem-03292013293D

 49 51  0     1  0  0  0  0  0999 V2000
   -6.7874    0.0527   -0.5277 O   0  0  0  0  0  0  0  0  0  0  0  0
    1.2656   -3.7159    0.1149 O   0  0  0  0  0  0  0  0  0  0  0  0
   -3.2594   -1.8336    1.2952 O   0  0  0  0  0  0  0  0  0  0  0  0
   -4.9267   -0.6613   -1.6726 O   0  0  0  0  0  0  0  0  0  0  0  0
    1.3230    2.2853    0.2761 O   0  0  0  0  0  0  0  0  0  0  0  0
    3.5352   -2.5599   -0.1583 O   0  0  0  0  0  0  0  0  0  0  0  0
    5.8755   -1.5600   -0.4518 O   0  0  0  0  0  0  0  0  0  0  0  0
    6.2460    3.1624   -0.3684 O   0  0  0  0  0  0  0  0  0  0  0  0
   -3.2227    0.2441    0.2664 N   0  0  0  0  0  0  0  0  0  0  0  0
   -4.9289    2.0378    0.5484 C   0  0  0  0  0  0  0  0  0  0  0  0
   -4.6323    0.5286    0.4122 C   0  0  1  0  0  0  0  0  0  0  0  0
    0.9939   -0.0403    0.2560 C   0  0  0  0  0  0  0  0  0  0  0  0
   -4.1633    2.6498    1.7255 C   0  0  0  0  0  0  0  0  0  0  0  0
   -4.6396    2.8296   -0.7313 C   0  0  0  0  0  0  0  0  0  0  0  0
    1.5719   -1.3064    0.1419 C   0  0  0  0  0  0  0  0  0  0  0  0
   -1.1847   -1.0606    0.5231 C   0  0  0  0  0  0  0  0  0  0  0  0
    3.8641   -0.2346   -0.1399 C   0  0  0  0  0  0  0  0  0  0  0  0
    3.2862    1.0315   -0.0257 C   0  0  0  0  0  0  0  0  0  0  0  0
   -2.6199   -0.9335    0.7231 C   0  0  0  0  0  0  0  0  0  0  0  0
   -0.3876    0.0819    0.4470 C   0  0  0  0  0  0  0  0  0  0  0  0
   -5.4461   -0.0961   -0.7157 C   0  0  0  0  0  0  0  0  0  0  0  0
    1.8301    1.1749    0.1767 C   0  0  0  0  0  0  0  0  0  0  0  0
    3.0283   -1.4499   -0.0595 C   0  0  0  0  0  0  0  0  0  0  0  0
    0.7683   -2.4504    0.2188 C   0  0  0  0  0  0  0  0  0  0  0  0
   -0.6080   -2.3240    0.4093 C   0  0  0  0  0  0  0  0  0  0  0  0
    5.2456   -0.3567   -0.3319 C   0  0  0  0  0  0  0  0  0  0  0  0
    4.0895    2.1755   -0.1032 C   0  0  0  0  0  0  0  0  0  0  0  0
    5.4657    2.0492   -0.2944 C   0  0  0  0  0  0  0  0  0  0  0  0
    6.0425    0.7858   -0.4087 C   0  0  0  0  0  0  0  0  0  0  0  0
   -7.6247   -0.5060   -1.5454 C   0  0  0  0  0  0  0  0  0  0  0  0
   -5.9994    2.1578    0.7623 H   0  0  0  0  0  0  0  0  0  0  0  0
   -4.9623    0.0235    1.3300 H   0  0  0  0  0  0  0  0  0  0  0  0
   -2.6802    0.8918   -0.2948 H   0  0  0  0  0  0  0  0  0  0  0  0
   -3.5806    2.7879   -1.0051 H   0  0  0  0  0  0  0  0  0  0  0  0
   -5.2254    2.4545   -1.5762 H   0  0  0  0  0  0  0  0  0  0  0  0
   -3.0815    2.6438    1.5557 H   0  0  0  0  0  0  0  0  0  0  0  0
   -4.3676    2.1001    2.6503 H   0  0  0  0  0  0  0  0  0  0  0  0
   -4.4684    3.6899    1.8832 H   0  0  0  0  0  0  0  0  0  0  0  0
   -4.9040    3.8842   -0.5957 H   0  0  0  0  0  0  0  0  0  0  0  0
   -0.8180    1.0723    0.5657 H   0  0  0  0  0  0  0  0  0  0  0  0
   -1.2223   -3.2201    0.4629 H   0  0  0  0  0  0  0  0  0  0  0  0
    3.6512    3.1666   -0.0154 H   0  0  0  0  0  0  0  0  0  0  0  0
    7.1156    0.6927   -0.5576 H   0  0  0  0  0  0  0  0  0  0  0  0
    2.2249   -3.6991   -0.0185 H   0  0  0  0  0  0  0  0  0  0  0  0
    5.2407   -2.2889   -0.3888 H   0  0  0  0  0  0  0  0  0  0  0  0
   -7.4689   -1.5868   -1.6129 H   0  0  0  0  0  0  0  0  0  0  0  0
   -7.4233   -0.0246   -2.5072 H   0  0  0  0  0  0  0  0  0  0  0  0
   -8.6658   -0.3179   -1.2700 H   0  0  0  0  0  0  0  0  0  0  0  0
    5.6837    3.9498   -0.2695 H   0  0  0  0  0  0  0  0  0  0  0  0
  1 21  1  0  0  0  0
  1 30  1  0  0  0  0
  2 24  1  0  0  0  0
  2 44  1  0  0  0  0
  3 19  2  0  0  0  0
  4 21  2  0  0  0  0
  5 22  2  0  0  0  0
  6 23  2  0  0  0  0
  7 26  1  0  0  0  0
  7 45  1  0  0  0  0
  8 28  1  0  0  0  0
  8 49  1  0  0  0  0
  9 11  1  0  0  0  0
  9 19  1  0  0  0  0
  9 33  1  0  0  0  0
 10 11  1  0  0  0  0
 10 13  1  0  0  0  0
 10 14  1  0  0  0  0
 10 31  1  0  0  0  0
 11 21  1  0  0  0  0
 11 32  1  0  0  0  0
 12 15  2  0  0  0  0
 12 20  1  0  0  0  0
 12 22  1  0  0  0  0
 13 36  1  0  0  0  0
 13 37  1  0  0  0  0
 13 38  1  0  0  0  0
 14 34  1  0  0  0  0
 14 35  1  0  0  0  0
 14 39  1  0  0  0  0
 15 23  1  0  0  0  0
 15 24  1  0  0  0  0
 16 19  1  0  0  0  0
 16 20  2  0  0  0  0
 16 25  1  0  0  0  0
 17 18  2  0  0  0  0
 17 23  1  0  0  0  0
 17 26  1  0  0  0  0
 18 22  1  0  0  0  0
 18 27  1  0  0  0  0
 20 40  1  0  0  0  0
 24 25  2  0  0  0  0
 25 41  1  0  0  0  0
 26 29  2  0  0  0  0
 27 28  2  0  0  0  0
 27 42  1  0  0  0  0
 28 29  1  0  0  0  0
 29 43  1  0  0  0  0
 30 46  1  0  0  0  0
 30 47  1  0  0  0  0
 30 48  1  0  0  0  0
M  END
> <PUBCHEM_COMPOUND_CID>
132489977

> <PUBCHEM_CONFORMER_RMSD>
0.8

> <PUBCHEM_CONFORMER_DIVERSEORDER>
3
16
2
1
27
19
11
4
28
9
13
10
7
8
12
5
20
6
26
17
15
14
21
18
22
29
25
23
24

> <PUBCHEM_MMFF94_PARTIAL_CHARGES>
35
1 -0.43
11 0.36
12 0.09
15 0.09
16 0.09
17 0.09
18 0.09
19 0.54
2 -0.53
20 -0.15
21 0.66
22 0.4
23 0.4
24 0.08
25 -0.15
26 0.08
27 -0.15
28 0.08
29 -0.15
3 -0.57
30 0.28
33 0.37
4 -0.57
40 0.15
41 0.15
42 0.15
43 0.15
44 0.45
45 0.45
49 0.45
5 -0.57
6 -0.57
7 -0.53
8 -0.53
9 -0.73

> <PUBCHEM_EFFECTIVE_ROTOR_COUNT>
6

> <PUBCHEM_PHARMACOPHORE_FEATURES>
12
1 2 donor
1 3 acceptor
1 4 acceptor
1 5 acceptor
1 6 acceptor
1 7 donor
1 8 donor
1 9 donor
3 10 13 14 hydrophobe
6 12 15 16 20 24 25 rings
6 12 15 17 18 22 23 rings
6 17 18 26 27 28 29 rings

> <PUBCHEM_HEAVY_ATOM_COUNT>
30

> <PUBCHEM_ATOM_DEF_STEREO_COUNT>
1

> <PUBCHEM_ATOM_UDEF_STEREO_COUNT>
0

> <PUBCHEM_BOND_DEF_STEREO_COUNT>
0

> <PUBCHEM_BOND_UDEF_STEREO_COUNT>
0

> <PUBCHEM_ISOTOPIC_ATOM_COUNT>
0

> <PUBCHEM_COMPONENT_COUNT>
1

> <PUBCHEM_CACTVS_TAUTO_COUNT>
114

> <PUBCHEM_CONFORMER_ID>
07E5A2F900000003

> <PUBCHEM_MMFF94_ENERGY>
87.1272

> <PUBCHEM_FEATURE_SELFOVERLAP>
60.939

> <PUBCHEM_SHAPE_FINGERPRINT>
10411042 1 17617099105940443314
10595046 47 18342736287499043743
10693767 8 17987241028239829222
10835480 77 18336266868324153488
12236239 1 17846781784353779010
12422481 6 17458347429338217812
12838862 33 18339633543327550920
13402501 40 18333448746543255765
14117953 113 18409452514543210748
14528608 73 18413108346600344951
14681490 219 18413103940402216829
14767858 380 18272644675938441783
14790565 3 18410581669291406272
14931854 50 18343301466250978133
15183329 4 18408886222102717912
15196674 1 18337961181350773362
16994733 274 16299214711549953061
17780758 139 11386367045924432165
18608769 82 18334863866049442059
19611394 137 17751094698594599169
20028762 73 18129382605865093110
21033648 144 18259701194917911639
21033648 29 18191298480293343776
21279426 13 18339652161482966124
21304253 335 18260840327713860948
21521239 73 18131348617863864591
221357 26 18413383229382719333
23522609 53 17774459204615480377
23559900 14 18339073921504422345
2838139 119 18408323259153553374
335352 9 18410296905087126398
350125 39 18195255631179279907
4058900 60 18114473313981059202
4073 2 18114187479037432866
465052 167 8862950472435505016
5104073 3 18186807989127733234

> <PUBCHEM_SHAPE_MULTIPOLES>
565.45
17.47
3.46
1.04
10.47
0.12
0.03
7.85
6.14
-1.89
-0.39
1.87
0.14
-0.93

> <PUBCHEM_SHAPE_SELFOVERLAP>
1238.375

> <PUBCHEM_SHAPE_VOLUME>
303.5

> <PUBCHEM_COORDINATE_TYPE>
2
5
10

$$$$
