REMARK  Name = 132449
REMARK  9 active torsions:
REMARK  status: ('A' for Active; 'I' for Inactive)
REMARK    1  A    between atoms: C_1  and  P_3
REMARK    2  A    between atoms: C_1  and  P_9
REMARK    3  A    between atoms: C_1  and  O_15
REMARK    4  A    between atoms: P_3  and  O_5
REMARK    5  A    between atoms: P_3  and  O_7
REMARK    6  A    between atoms: P_9  and  O_11
REMARK    7  A    between atoms: P_9  and  O_13
REMARK    8  A    between atoms: O_15  and  C_16
REMARK    9  A    between atoms: C_21  and  O_22
REMARK                            x       y       z     vdW  Elec       q    Type
REMARK                         _______ _______ _______ _____ _____    ______ ____
ROOT
ATOM      1  C   UNL     1      -1.120   0.040   0.289  0.00  0.00    +0.316 C 
ATOM      2  C   UNL     1      -0.522   0.075   1.707  0.00  0.00    +0.069 C 
ENDROOT
BRANCH   1   3
ATOM      3  P   UNL     1      -2.126   1.562   0.005  0.00  0.00    +0.384 P 
ATOM      4  O   UNL     1      -1.360   2.845   0.122  0.00  0.00    -0.254 OA
BRANCH   3   5
ATOM      5  O   UNL     1      -3.332   1.398   1.070  0.00  0.00    -0.321 OA
ATOM      6  H   UNL     1      -3.930   2.159   1.002  0.00  0.00    +0.220 HD
ENDBRANCH   3   5
BRANCH   3   7
ATOM      7  O   UNL     1      -2.838   1.276  -1.417  0.00  0.00    -0.321 OA
ATOM      8  H   UNL     1      -3.398   2.031  -1.656  0.00  0.00    +0.220 HD
ENDBRANCH   3   7
ENDBRANCH   1   3
BRANCH   1   9
ATOM      9  P   UNL     1      -1.942  -1.607   0.013  0.00  0.00    +0.384 P 
ATOM     10  O   UNL     1      -1.012  -2.778   0.137  0.00  0.00    -0.254 OA
BRANCH   9  11
ATOM     11  O   UNL     1      -3.183  -1.599   1.050  0.00  0.00    -0.321 OA
ATOM     12  H   UNL     1      -3.674  -2.432   0.972  0.00  0.00    +0.220 HD
ENDBRANCH   9  11
BRANCH   9  13
ATOM     13  O   UNL     1      -2.650  -1.442  -1.430  0.00  0.00    -0.321 OA
ATOM     14  H   UNL     1      -3.110  -2.265  -1.660  0.00  0.00    +0.220 HD
ENDBRANCH   9  13
ENDBRANCH   1   9
BRANCH   1  15
ATOM     15  O   UNL     1      -0.177   0.013  -0.803  0.00  0.00    -0.460 OA
BRANCH  15  16
ATOM     16  C   UNL     1       1.152   0.021  -0.501  0.00  0.00    +0.140 C 
ATOM     17  C   UNL     1       1.831  -1.183  -0.317  0.00  0.00    +0.040 C 
ATOM     18  C   UNL     1       1.830   1.232  -0.378  0.00  0.00    +0.040 C 
ATOM     19  C   UNL     1       3.191  -1.174  -0.009  0.00  0.00    +0.040 C 
ATOM     20  C   UNL     1       3.190   1.241  -0.069  0.00  0.00    +0.040 C 
ATOM     21  C   UNL     1       3.871   0.037   0.115  0.00  0.00    +0.134 C 
BRANCH  21  22
ATOM     22  O   UNL     1       5.198   0.045   0.416  0.00  0.00    -0.506 OA
ATOM     23  H   UNL     1       5.655  -0.763   0.540  0.00  0.00    +0.292 HD
ENDBRANCH  21  22
ENDBRANCH  15  16
ENDBRANCH   1  15
TORSDOF 9
