132489979
  -OEChem-03292013293D

 52 54  0     1  0  0  0  0  0999 V2000
    6.4344   -0.1219   -1.1025 O   0  0  0  0  0  0  0  0  0  0  0  0
    4.3495   -0.3792   -2.0364 O   0  0  0  0  0  0  0  0  0  0  0  0
    2.9916    2.5200   -0.3926 O   0  0  0  0  0  0  0  0  0  0  0  0
   -1.8005    3.7698    0.4998 O   0  0  0  0  0  0  0  0  0  0  0  0
   -1.2013   -2.1226   -0.4815 O   0  0  0  0  0  0  0  0  0  0  0  0
   -3.9489    2.3801    0.3753 O   0  0  0  0  0  0  0  0  0  0  0  0
   -6.1863    1.1366    0.2723 O   0  0  0  0  0  0  0  0  0  0  0  0
   -6.0407   -3.5368   -0.4903 O   0  0  0  0  0  0  0  0  0  0  0  0
    3.0825    0.3062    0.2928 N   0  0  0  0  0  0  0  0  0  0  0  0
    5.0205   -0.8195    1.3670 C   0  0  2  0  0  0  0  0  0  0  0  0
    4.5199    0.1925    0.3083 C   0  0  1  0  0  0  0  0  0  0  0  0
    4.6307   -2.2563    0.9571 C   0  0  0  0  0  0  0  0  0  0  0  0
    4.5209   -0.4751    2.7771 C   0  0  0  0  0  0  0  0  0  0  0  0
    5.0720   -0.1345   -1.0756 C   0  0  0  0  0  0  0  0  0  0  0  0
    5.1427   -3.3235    1.9152 C   0  0  0  0  0  0  0  0  0  0  0  0
    2.4305    1.4786   -0.0619 C   0  0  0  0  0  0  0  0  0  0  0  0
   -1.1258    0.1953   -0.1089 C   0  0  0  0  0  0  0  0  0  0  0  0
    0.9467    1.4412   -0.0019 C   0  0  0  0  0  0  0  0  0  0  0  0
   -1.8437    1.3721    0.1144 C   0  0  0  0  0  0  0  0  0  0  0  0
    0.2726    0.2309   -0.1670 C   0  0  0  0  0  0  0  0  0  0  0  0
   -4.0245    0.0629    0.0013 C   0  0  0  0  0  0  0  0  0  0  0  0
   -3.3065   -1.1139   -0.2220 C   0  0  0  0  0  0  0  0  0  0  0  0
   -1.8309   -1.0906   -0.2850 C   0  0  0  0  0  0  0  0  0  0  0  0
   -3.3194    1.3487    0.1782 C   0  0  0  0  0  0  0  0  0  0  0  0
   -1.1634    2.5845    0.2796 C   0  0  0  0  0  0  0  0  0  0  0  0
    0.2302    2.6155    0.2211 C   0  0  0  0  0  0  0  0  0  0  0  0
   -5.4230    0.0273    0.0583 C   0  0  0  0  0  0  0  0  0  0  0  0
   -3.9869   -2.3261   -0.3877 C   0  0  0  0  0  0  0  0  0  0  0  0
   -5.3804   -2.3572   -0.3301 C   0  0  0  0  0  0  0  0  0  0  0  0
   -6.0970   -1.1830   -0.1076 C   0  0  0  0  0  0  0  0  0  0  0  0
    7.0346   -0.4222   -2.3668 C   0  0  0  0  0  0  0  0  0  0  0  0
    6.1175   -0.7688    1.3928 H   0  0  0  0  0  0  0  0  0  0  0  0
    4.9161    1.1852    0.5611 H   0  0  0  0  0  0  0  0  0  0  0  0
    3.5423   -2.3599    0.8838 H   0  0  0  0  0  0  0  0  0  0  0  0
    5.0367   -2.4880   -0.0341 H   0  0  0  0  0  0  0  0  0  0  0  0
    3.4471   -0.6611    2.8828 H   0  0  0  0  0  0  0  0  0  0  0  0
    4.7079    0.5799    3.0042 H   0  0  0  0  0  0  0  0  0  0  0  0
    5.0432   -1.0654    3.5365 H   0  0  0  0  0  0  0  0  0  0  0  0
    2.5489   -0.5041    0.5841 H   0  0  0  0  0  0  0  0  0  0  0  0
    6.2235   -3.2340    2.0629 H   0  0  0  0  0  0  0  0  0  0  0  0
    4.6500   -3.2602    2.8898 H   0  0  0  0  0  0  0  0  0  0  0  0
    4.9384   -4.3197    1.5094 H   0  0  0  0  0  0  0  0  0  0  0  0
    0.8120   -0.6876   -0.3782 H   0  0  0  0  0  0  0  0  0  0  0  0
    0.7476    3.5627    0.3557 H   0  0  0  0  0  0  0  0  0  0  0  0
   -3.4389   -3.2490   -0.5618 H   0  0  0  0  0  0  0  0  0  0  0  0
   -7.1831   -1.2124   -0.0634 H   0  0  0  0  0  0  0  0  0  0  0  0
   -2.7610    3.6459    0.5204 H   0  0  0  0  0  0  0  0  0  0  0  0
    8.1203   -0.3759   -2.2470 H   0  0  0  0  0  0  0  0  0  0  0  0
    6.7592   -1.4319   -2.6858 H   0  0  0  0  0  0  0  0  0  0  0  0
    6.7318    0.3167   -3.1148 H   0  0  0  0  0  0  0  0  0  0  0  0
   -5.6302    1.9234    0.3723 H   0  0  0  0  0  0  0  0  0  0  0  0
   -5.3908   -4.2460   -0.6343 H   0  0  0  0  0  0  0  0  0  0  0  0
  1 14  1  0  0  0  0
  1 31  1  0  0  0  0
  2 14  2  0  0  0  0
  3 16  2  0  0  0  0
  4 25  1  0  0  0  0
  4 47  1  0  0  0  0
  5 23  2  0  0  0  0
  6 24  2  0  0  0  0
  7 27  1  0  0  0  0
  7 51  1  0  0  0  0
  8 29  1  0  0  0  0
  8 52  1  0  0  0  0
  9 11  1  0  0  0  0
  9 16  1  0  0  0  0
  9 39  1  0  0  0  0
 10 11  1  0  0  0  0
 10 12  1  0  0  0  0
 10 13  1  0  0  0  0
 10 32  1  0  0  0  0
 11 14  1  0  0  0  0
 11 33  1  0  0  0  0
 12 15  1  0  0  0  0
 12 34  1  0  0  0  0
 12 35  1  0  0  0  0
 13 36  1  0  0  0  0
 13 37  1  0  0  0  0
 13 38  1  0  0  0  0
 15 40  1  0  0  0  0
 15 41  1  0  0  0  0
 15 42  1  0  0  0  0
 16 18  1  0  0  0  0
 17 19  2  0  0  0  0
 17 20  1  0  0  0  0
 17 23  1  0  0  0  0
 18 20  2  0  0  0  0
 18 26  1  0  0  0  0
 19 24  1  0  0  0  0
 19 25  1  0  0  0  0
 20 43  1  0  0  0  0
 21 22  2  0  0  0  0
 21 24  1  0  0  0  0
 21 27  1  0  0  0  0
 22 23  1  0  0  0  0
 22 28  1  0  0  0  0
 25 26  2  0  0  0  0
 26 44  1  0  0  0  0
 27 30  2  0  0  0  0
 28 29  2  0  0  0  0
 28 45  1  0  0  0  0
 29 30  1  0  0  0  0
 30 46  1  0  0  0  0
 31 48  1  0  0  0  0
 31 49  1  0  0  0  0
 31 50  1  0  0  0  0
M  END
> <PUBCHEM_COMPOUND_CID>
132489979

> <PUBCHEM_CONFORMER_RMSD>
1

> <PUBCHEM_CONFORMER_DIVERSEORDER>
1
26
13
8
14
7
17
10
2
16
5
4
6
3
9
12
21
19
11
22
25
24
15
20
23
27
18

> <PUBCHEM_MMFF94_PARTIAL_CHARGES>
35
1 -0.43
11 0.36
14 0.66
16 0.54
17 0.09
18 0.09
19 0.09
2 -0.57
20 -0.15
21 0.09
22 0.09
23 0.4
24 0.4
25 0.08
26 -0.15
27 0.08
28 -0.15
29 0.08
3 -0.57
30 -0.15
31 0.28
39 0.37
4 -0.53
43 0.15
44 0.15
45 0.15
46 0.15
47 0.45
5 -0.57
51 0.45
52 0.45
6 -0.57
7 -0.53
8 -0.53
9 -0.73

> <PUBCHEM_EFFECTIVE_ROTOR_COUNT>
7

> <PUBCHEM_PHARMACOPHORE_FEATURES>
13
1 13 hydrophobe
1 15 hydrophobe
1 2 acceptor
1 3 acceptor
1 4 donor
1 5 acceptor
1 6 acceptor
1 7 donor
1 8 donor
1 9 donor
6 17 18 19 20 25 26 rings
6 17 19 21 22 23 24 rings
6 21 22 27 28 29 30 rings

> <PUBCHEM_HEAVY_ATOM_COUNT>
31

> <PUBCHEM_ATOM_DEF_STEREO_COUNT>
2

> <PUBCHEM_ATOM_UDEF_STEREO_COUNT>
0

> <PUBCHEM_BOND_DEF_STEREO_COUNT>
0

> <PUBCHEM_BOND_UDEF_STEREO_COUNT>
0

> <PUBCHEM_ISOTOPIC_ATOM_COUNT>
0

> <PUBCHEM_COMPONENT_COUNT>
1

> <PUBCHEM_CACTVS_TAUTO_COUNT>
114

> <PUBCHEM_CONFORMER_ID>
07E5A2FB00000001

> <PUBCHEM_MMFF94_ENERGY>
88.0968

> <PUBCHEM_FEATURE_SELFOVERLAP>
66.015

> <PUBCHEM_SHAPE_FINGERPRINT>
10319926 262 18130784551603671921
10622 236 18115293476498517890
10939801 23 18341042038965206832
12107183 9 18193272983996678745
12166972 35 18041279980202630957
12236239 1 17967533454214698089
12342043 65 17274273755652814868
12422481 6 17203327836025556055
12788726 201 18409736123216431424
13150687 139 17604448366517909718
13402501 40 17917159329473529110
13533116 47 18113616755773343922
13673619 4 16916800552710986988
13782708 43 17346875658790026935
14347332 77 18334006186085148261
14394314 77 18410853269943475817
15001296 14 18188764084305428530
15042514 8 18339636755324953897
15183329 4 18410012143737591671
15196674 1 18341050839131968221
15250474 111 18262514780648797074
15537594 2 18333738996380485498
17492 89 18337381674219285402
17857418 61 18334853922223861130
17980427 23 12103566437644942971
1813 80 17894342298185701300
18608769 82 18202005426030645902
18681886 176 18342182198258723092
1979834 28 17917990560206611678
21033648 29 16486399976912695480
21267235 1 18340496646431948381
21279426 13 18410850006300690853
21703447 108 17408227523173331579
23522609 53 18116741571677295852
23559900 14 18201157757968078152
3004659 81 18336267928779863476
335352 9 18412545410660921621
3383291 50 18339359794280308899
3680242 22 18409451358147130835
3882209 13 16835964697401165959
3886686 26 17476633179507690618
4073 2 18116155665222975168
5104073 3 18201158870986652553
59755656 215 18342178830465994111
6138700 20 18341901800806970839
6823239 73 18059859450859282816
7970288 3 18336816576413503131
86090 222 16557934280651374486

> <PUBCHEM_SHAPE_MULTIPOLES>
586.03
17.44
3.6
1.51
5.59
0.16
-0.11
11.06
2.74
-2.57
-0.83
4.39
0.68
-2.61

> <PUBCHEM_SHAPE_SELFOVERLAP>
1276.694

> <PUBCHEM_SHAPE_VOLUME>
315.9

> <PUBCHEM_COORDINATE_TYPE>
2
5
10

$$$$
