REMARK  Name = 132487818
REMARK  5 active torsions:
REMARK  status: ('A' for Active; 'I' for Inactive)
REMARK    1  A    between atoms: C_2  and  O_21
REMARK    2  A    between atoms: C_3  and  O_23
REMARK    3  A    between atoms: C_4  and  O_25
REMARK    4  A    between atoms: C_16  and  O_27
REMARK    5  A    between atoms: C_19  and  O_29
REMARK                            x       y       z     vdW  Elec       q    Type
REMARK                         _______ _______ _______ _____ _____    ______ ____
ROOT
ATOM      1  O   UNL     1       1.770  -2.621   1.500  0.00  0.00    -0.293 OA
ATOM      2  C   UNL     1       2.699  -0.181   0.291  0.00  0.00    +0.171 C 
ATOM      3  C   UNL     1       3.229   1.038  -0.506  0.00  0.00    +0.144 C 
ATOM      4  C   UNL     1       2.178  -1.375  -0.540  0.00  0.00    +0.197 C 
ATOM      5  C   UNL     1       2.248   1.796  -1.433  0.00  0.00    +0.058 C 
ATOM      6  C   UNL     1       0.939   2.177  -0.783  0.00  0.00    -0.019 C 
ATOM      7  C   UNL     1       0.408  -3.315  -0.354  0.00  0.00    +0.072 C 
ATOM      8  C   UNL     1       1.473  -2.443   0.317  0.00  0.00    +0.180 C 
ATOM      9  C   UNL     1      -0.907  -3.437   0.456  0.00  0.00    +0.034 C 
ATOM     10  C   UNL     1      -1.843  -2.266   0.254  0.00  0.00    -0.022 C 
ATOM     11  C   UNL     1      -1.271   1.389  -0.073  0.00  0.00    +0.036 C 
ATOM     12  C   UNL     1      -0.130   1.294  -0.893  0.00  0.00    -0.001 C 
ATOM     13  C   UNL     1      -2.071   0.167   0.045  0.00  0.00    +0.036 C 
ATOM     14  C   UNL     1      -1.375  -0.976   0.483  0.00  0.00    -0.001 C 
ATOM     15  C   UNL     1       0.774   3.306   0.021  0.00  0.00    -0.001 C 
ATOM     16  C   UNL     1      -1.431   2.526   0.715  0.00  0.00    +0.134 C 
ATOM     17  C   UNL     1      -3.146  -2.407  -0.226  0.00  0.00    -0.001 C 
ATOM     18  C   UNL     1      -0.419   3.494   0.735  0.00  0.00    +0.036 C 
ATOM     19  C   UNL     1      -3.370   0.014  -0.430  0.00  0.00    +0.134 C 
ATOM     20  C   UNL     1      -3.913  -1.272  -0.535  0.00  0.00    +0.036 C 
ENDROOT
BRANCH   2  21
ATOM     21  O   UNL     1       3.804  -0.642   1.090  0.00  0.00    -0.379 OA
ATOM     22  H   UNL     1       4.148   0.093   1.621  0.00  0.00    +0.211 HD
ENDBRANCH   2  21
BRANCH   3  23
ATOM     23  O   UNL     1       3.737   1.982   0.451  0.00  0.00    -0.382 OA
ATOM     24  H   UNL     1       4.357   1.535   1.048  0.00  0.00    +0.210 HD
ENDBRANCH   3  23
BRANCH   4  25
ATOM     25  O   UNL     1       3.230  -2.008  -1.247  0.00  0.00    -0.375 OA
ATOM     26  H   UNL     1       3.690  -1.354  -1.796  0.00  0.00    +0.211 HD
ENDBRANCH   4  25
BRANCH  16  27
ATOM     27  O   UNL     1      -2.515   2.681   1.522  0.00  0.00    -0.506 OA
ATOM     28  H   UNL     1      -3.199   2.040   1.518  0.00  0.00    +0.292 HD
ENDBRANCH  16  27
BRANCH  19  29
ATOM     29  O   UNL     1      -4.098   1.081  -0.860  0.00  0.00    -0.506 OA
ATOM     30  H   UNL     1      -3.745   1.946  -0.794  0.00  0.00    +0.292 HD
ENDBRANCH  19  29
TORSDOF 5
