REMARK  Name = 132491878
REMARK  5 active torsions:
REMARK  status: ('A' for Active; 'I' for Inactive)
REMARK    1  A    between atoms: C_9  and  O_23
REMARK    2  A    between atoms: C_12  and  O_25
REMARK    3  A    between atoms: C_13  and  O_27
REMARK    4  A    between atoms: C_15  and  O_29
REMARK    5  A    between atoms: C_18  and  O_31
REMARK                            x       y       z     vdW  Elec       q    Type
REMARK                         _______ _______ _______ _____ _____    ______ ____
ROOT
ATOM      1  O   UNL     1       0.791   2.370   0.303  0.00  0.00    -0.451 OA
ATOM      2  O   UNL     1       2.518   3.280   1.425  0.00  0.00    -0.247 OA
ATOM      3  C   UNL     1       1.009   0.258  -1.033  0.00  0.00    +0.042 C 
ATOM      4  C   UNL     1       0.091  -0.668  -0.124  0.00  0.00    +0.035 C 
ATOM      5  C   UNL     1      -1.489  -0.484  -0.330  0.00  0.00    +0.033 C 
ATOM      6  C   UNL     1       2.492   0.198  -0.516  0.00  0.00    +0.044 C 
ATOM      7  C   UNL     1       0.534   1.727  -0.965  0.00  0.00    +0.169 C 
ATOM      8  C   UNL     1      -1.800   1.061  -0.204  0.00  0.00    +0.024 C 
ATOM      9  C   UNL     1       0.624  -2.130  -0.055  0.00  0.00    +0.137 C 
ATOM     10  C   UNL     1      -0.974   1.888  -1.209  0.00  0.00    +0.048 C 
ATOM     11  C   UNL     1       3.007  -1.277  -0.506  0.00  0.00    +0.032 C 
ATOM     12  C   UNL     1       2.114  -2.225   0.314  0.00  0.00    +0.137 C 
ATOM     13  C   UNL     1      -2.303  -1.171   0.830  0.00  0.00    +0.142 C 
ATOM     14  C   UNL     1       1.041  -0.124  -2.542  0.00  0.00    +0.004 C 
ATOM     15  C   UNL     1       2.664   0.952   0.812  0.00  0.00    +0.210 C 
ATOM     16  C   UNL     1      -2.001  -1.066  -1.673  0.00  0.00    +0.003 C 
ATOM     17  C   UNL     1      -3.288   1.389  -0.181  0.00  0.00    -0.046 C 
ATOM     18  C   UNL     1      -3.813  -0.865   0.791  0.00  0.00    +0.159 C 
ATOM     19  C   UNL     1       4.478  -1.417  -0.098  0.00  0.00    +0.003 C 
ATOM     20  C   UNL     1       2.029   2.320   0.839  0.00  0.00    +0.344 C 
ATOM     21  C   UNL     1      -4.176   0.500   0.296  0.00  0.00    -0.004 C 
ATOM     22  C   UNL     1      -3.752   2.752  -0.612  0.00  0.00    +0.026 C 
ENDROOT
BRANCH   9  23
ATOM     23  O   UNL     1       0.402  -2.828  -1.271  0.00  0.00    -0.382 OA
ATOM     24  H   UNL     1      -0.537  -2.772  -1.510  0.00  0.00    +0.210 HD
ENDBRANCH   9  23
BRANCH  12  25
ATOM     25  O   UNL     1       2.273  -1.973   1.709  0.00  0.00    -0.382 OA
ATOM     26  H   UNL     1       1.705  -2.576   2.213  0.00  0.00    +0.210 HD
ENDBRANCH  12  25
BRANCH  13  27
ATOM     27  O   UNL     1      -2.185  -2.594   0.773  0.00  0.00    -0.382 OA
ATOM     28  H   UNL     1      -1.247  -2.842   0.794  0.00  0.00    +0.210 HD
ENDBRANCH  13  27
BRANCH  15  29
ATOM     29  O   UNL     1       4.038   1.165   1.113  0.00  0.00    -0.374 OA
ATOM     30  H   UNL     1       4.505   0.314   1.111  0.00  0.00    +0.211 HD
ENDBRANCH  15  29
BRANCH  18  31
ATOM     31  O   UNL     1      -4.325  -1.037   2.115  0.00  0.00    -0.378 OA
ATOM     32  H   UNL     1      -4.092  -1.921   2.440  0.00  0.00    +0.211 HD
ENDBRANCH  18  31
TORSDOF 5
