REMARK  Name = 132499713
REMARK  8 active torsions:
REMARK  status: ('A' for Active; 'I' for Inactive)
REMARK    1  A    between atoms: C_3  and  C_22
REMARK    2  A    between atoms: C_9  and  O_16
REMARK    3  A    between atoms: C_11  and  O_18
REMARK    4  A    between atoms: C_12  and  O_20
REMARK    5  A    between atoms: C_22  and  C_23
REMARK    6  A    between atoms: C_23  and  C_24
REMARK    7  A    between atoms: C_24  and  C_25
REMARK    8  A    between atoms: C_25  and  O_27
REMARK                            x       y       z     vdW  Elec       q    Type
REMARK                         _______ _______ _______ _____ _____    ______ ____
ROOT
ATOM      1  O   UNL     1      -0.501  -1.015   0.918  0.00  0.00    -0.449 OA
ATOM      2  O   UNL     1      -0.465  -1.461   3.189  0.00  0.00    -0.245 OA
ATOM      3  C   UNL     1      -1.458  -2.054   0.640  0.00  0.00    +0.169 C 
ATOM      4  C   UNL     1      -1.197  -2.592  -0.776  0.00  0.00    +0.044 C 
ATOM      5  C   UNL     1       0.089  -3.424  -0.909  0.00  0.00    +0.004 C 
ATOM      6  C   UNL     1       1.419  -2.659  -0.888  0.00  0.00    +0.000 C 
ATOM      7  C   UNL     1       1.613  -1.739  -2.097  0.00  0.00    +0.002 C 
ATOM      8  C   UNL     1       2.991  -1.064  -2.125  0.00  0.00    +0.029 C 
ATOM      9  C   UNL     1       3.224   0.015  -1.054  0.00  0.00    +0.113 C 
ATOM     10  C   UNL     1       2.339   1.251  -1.258  0.00  0.00    +0.061 C 
ATOM     11  C   UNL     1       2.541   2.397  -0.245  0.00  0.00    +0.144 C 
ATOM     12  C   UNL     1       2.293   2.059   1.243  0.00  0.00    +0.159 C 
ATOM     13  C   UNL     1       1.103   1.154   1.450  0.00  0.00    +0.012 C 
ATOM     14  C   UNL     1      -0.072  -0.865   2.199  0.00  0.00    +0.341 C 
ATOM     15  C   UNL     1       1.084   0.054   2.216  0.00  0.00    +0.080 C 
ENDROOT
BRANCH   9  16
ATOM     16  O   UNL     1       4.596   0.412  -1.115  0.00  0.00    -0.384 OA
ATOM     17  H   UNL     1       5.163  -0.365  -0.987  0.00  0.00    +0.210 HD
ENDBRANCH   9  16
BRANCH  11  18
ATOM     18  O   UNL     1       1.641   3.443  -0.630  0.00  0.00    -0.382 OA
ATOM     19  H   UNL     1       1.786   3.666  -1.563  0.00  0.00    +0.210 HD
ENDBRANCH  11  18
BRANCH  12  20
ATOM     20  O   UNL     1       3.473   1.475   1.792  0.00  0.00    -0.378 OA
ATOM     21  H   UNL     1       4.225   2.071   1.649  0.00  0.00    +0.211 HD
ENDBRANCH  12  20
BRANCH   3  22
ATOM     22  C   UNL     1      -2.854  -1.449   0.743  0.00  0.00    +0.044 C 
BRANCH  22  23
ATOM     23  C   UNL     1      -3.044  -0.315  -0.263  0.00  0.00    +0.006 C 
BRANCH  23  24
ATOM     24  C   UNL     1      -4.435   0.307  -0.134  0.00  0.00    +0.029 C 
BRANCH  24  25
ATOM     25  C   UNL     1      -4.673   1.476  -1.096  0.00  0.00    +0.111 C 
ATOM     26  C   UNL     1      -6.039   2.130  -0.939  0.00  0.00    +0.032 C 
BRANCH  25  27
ATOM     27  O   UNL     1      -3.670   2.464  -0.861  0.00  0.00    -0.384 OA
ATOM     28  H   UNL     1      -2.792   2.063  -0.957  0.00  0.00    +0.210 HD
ENDBRANCH  25  27
ENDBRANCH  24  25
ENDBRANCH  23  24
ENDBRANCH  22  23
ENDBRANCH   3  22
TORSDOF 8
