REMARK  Name = 132494169
REMARK  12 active torsions:
REMARK  status: ('A' for Active; 'I' for Inactive)
REMARK    1  A    between atoms: N_3  and  C_10
REMARK    2  A    between atoms: C_4  and  C_35
REMARK    3  A    between atoms: C_8  and  O_21
REMARK    4  A    between atoms: C_8  and  C_23
REMARK    5  A    between atoms: C_11  and  O_15
REMARK    6  A    between atoms: C_12  and  O_17
REMARK    7  A    between atoms: C_13  and  O_19
REMARK    8  A    between atoms: C_24  and  C_25
REMARK    9  A    between atoms: C_26  and  C_27
REMARK   10  A    between atoms: C_28  and  C_29
REMARK   11  A    between atoms: C_30  and  C_32
REMARK   12  A    between atoms: C_35  and  C_38
REMARK                            x       y       z     vdW  Elec       q    Type
REMARK                         _______ _______ _______ _____ _____    ______ ____
ROOT
ATOM      1  O   UNL     1       3.125  -2.207  -0.037  0.00  0.00    -0.270 OA
ATOM      2  O   UNL     1       0.842   1.844   0.695  0.00  0.00    -0.289 OA
ATOM      3  N   UNL     1       3.806   0.016   0.428  0.00  0.00    -0.246 N 
ATOM      4  C   UNL     1       3.228   1.349   0.668  0.00  0.00    +0.149 C 
ATOM      5  C   UNL     1       2.908  -1.029   0.185  0.00  0.00    +0.257 C 
ATOM      6  C   UNL     1       1.750   1.040   0.564  0.00  0.00    +0.199 C 
ATOM      7  C   UNL     1       1.581  -0.396   0.268  0.00  0.00    +0.123 C 
ATOM      8  C   UNL     1       0.408  -1.023   0.102  0.00  0.00    +0.141 C 
ENDROOT
BRANCH   3  10
ATOM      9  O   UNL     1       5.468  -1.476   1.062  0.00  0.00    -0.333 OA
ATOM     10  C   UNL     1       5.229  -0.185   0.503  0.00  0.00    +0.225 C 
ATOM     11  C   UNL     1       5.898  -0.057  -0.869  0.00  0.00    +0.187 C 
ATOM     12  C   UNL     1       7.397  -0.364  -0.771  0.00  0.00    +0.171 C 
ATOM     13  C   UNL     1       7.664  -1.657   0.010  0.00  0.00    +0.169 C 
ATOM     14  C   UNL     1       6.856  -1.712   1.306  0.00  0.00    +0.176 C 
BRANCH  11  15
ATOM     15  O   UNL     1       5.285  -0.977  -1.773  0.00  0.00    -0.378 OA
ATOM     16  H   UNL     1       4.336  -0.784  -1.836  0.00  0.00    +0.211 HD
ENDBRANCH  11  15
BRANCH  12  17
ATOM     17  O   UNL     1       8.032   0.727  -0.107  0.00  0.00    -0.379 OA
ATOM     18  H   UNL     1       7.864   1.546  -0.599  0.00  0.00    +0.211 HD
ENDBRANCH  12  17
BRANCH  13  19
ATOM     19  O   UNL     1       7.314  -2.772  -0.808  0.00  0.00    -0.379 OA
ATOM     20  H   UNL     1       7.824  -2.741  -1.632  0.00  0.00    +0.211 HD
ENDBRANCH  13  19
ENDBRANCH   3  10
BRANCH   8  21
ATOM     21  O   UNL     1       0.339  -2.375  -0.174  0.00  0.00    -0.505 OA
ATOM     22  H   UNL     1       1.126  -2.878  -0.249  0.00  0.00    +0.292 HD
ENDBRANCH   8  21
BRANCH   8  23
ATOM     23  C   UNL     1      -0.864  -0.332   0.198  0.00  0.00    +0.037 C 
ATOM     24  C   UNL     1      -2.072  -0.897   0.043  0.00  0.00    +0.003 C 
BRANCH  24  25
ATOM     25  C   UNL     1      -3.309  -0.152   0.150  0.00  0.00    +0.000 C 
ATOM     26  C   UNL     1      -4.517  -0.715  -0.005  0.00  0.00    +0.000 C 
BRANCH  26  27
ATOM     27  C   UNL     1      -5.753   0.031   0.102  0.00  0.00    +0.000 C 
ATOM     28  C   UNL     1      -6.961  -0.531  -0.052  0.00  0.00    +0.000 C 
BRANCH  28  29
ATOM     29  C   UNL     1      -8.197   0.214   0.055  0.00  0.00    +0.000 C 
ATOM     30  C   UNL     1      -9.406  -0.348  -0.100  0.00  0.00    +0.001 C 
BRANCH  30  32
ATOM     31 CL   UNL     1     -12.246  -1.729  -0.474  0.00  0.00    -0.087 Cl
ATOM     32  C   UNL     1     -10.640   0.404   0.008  0.00  0.00    +0.007 C 
ATOM     33  C   UNL     1     -11.890  -0.068  -0.130  0.00  0.00    +0.036 C 
ATOM     34  C   UNL     1     -13.106   0.798   0.000  0.00  0.00    +0.044 C 
ENDBRANCH  30  32
ENDBRANCH  28  29
ENDBRANCH  26  27
ENDBRANCH  24  25
ENDBRANCH   8  23
BRANCH   4  35
ATOM     35  C   UNL     1       3.642   2.382  -0.363  0.00  0.00    +0.113 C 
BRANCH  35  38
ATOM     36  O   UNL     1       2.497   4.115   0.887  0.00  0.00    -0.275 OA
ATOM     37  N   UNL     1       2.777   4.382  -1.380  0.00  0.00    -0.329 N 
ATOM     38  C   UNL     1       2.915   3.700  -0.190  0.00  0.00    +0.222 C 
ATOM     39  H   UNL     1       2.320   5.254  -1.397  0.00  0.00    +0.145 HD
ATOM     40  H   UNL     1       3.135   3.997  -2.212  0.00  0.00    +0.145 HD
ENDBRANCH  35  38
ENDBRANCH   4  35
TORSDOF 12
