REMARK  Name = 132488016
REMARK  6 active torsions:
REMARK  status: ('A' for Active; 'I' for Inactive)
REMARK    1  A    between atoms: C_2  and  O_10
REMARK    2  A    between atoms: C_2  and  C_24
REMARK    3  A    between atoms: C_3  and  C_12
REMARK    4  A    between atoms: C_5  and  N_7
REMARK    5  A    between atoms: C_12  and  C_16
REMARK    6  A    between atoms: C_17  and  O_22
REMARK                            x       y       z     vdW  Elec       q    Type
REMARK                         _______ _______ _______ _____ _____    ______ ____
ROOT
ATOM      1  O   UNL     1       2.162  -1.045  -1.619  0.00  0.00    -0.289 OA
ATOM      2  C   UNL     1       3.158  -0.068   0.374  0.00  0.00    +0.166 C 
ATOM      3  C   UNL     1       0.910   0.581  -0.415  0.00  0.00    +0.028 C 
ATOM      4  C   UNL     1       2.512   0.941   1.329  0.00  0.00    +0.079 C 
ATOM      5  C   UNL     1       1.179   1.269   0.703  0.00  0.00    +0.021 C 
ATOM      6  C   UNL     1       2.082  -0.282  -0.666  0.00  0.00    +0.198 C 
ENDROOT
BRANCH   5   7
ATOM      7  N   UNL     1       0.396   2.194   1.321  0.00  0.00    -0.360 N 
ATOM      8  H   UNL     1      -0.480   2.432   0.939  0.00  0.00    +0.142 HD
ATOM      9  H   UNL     1       0.705   2.627   2.150  0.00  0.00    +0.142 HD
ENDBRANCH   5   7
BRANCH   2  10
ATOM     10  O   UNL     1       4.272   0.519  -0.276  0.00  0.00    -0.375 OA
ATOM     11  H   UNL     1       4.005   1.361  -0.678  0.00  0.00    +0.211 HD
ENDBRANCH   2  10
BRANCH   3  12
ATOM     12  C   UNL     1      -0.271   0.600  -1.309  0.00  0.00    +0.058 C 
ATOM     13  C   UNL     1      -0.469   1.985  -1.931  0.00  0.00    +0.010 C 
BRANCH  12  16
ATOM     14  O   UNL     1      -2.919  -1.735   0.019  0.00  0.00    -0.425 OA
ATOM     15  O   UNL     1      -1.036  -2.074  -1.187  0.00  0.00    -0.245 OA
ATOM     16  C   UNL     1      -1.520   0.174  -0.592  0.00  0.00    +0.091 C 
ATOM     17  C   UNL     1      -2.377   0.987   0.044  0.00  0.00    +0.139 C 
ATOM     18  C   UNL     1      -1.791  -1.290  -0.618  0.00  0.00    +0.345 C 
ATOM     19  C   UNL     1      -3.550   0.476   0.701  0.00  0.00    +0.070 C 
ATOM     20  C   UNL     1      -3.792  -0.839   0.676  0.00  0.00    +0.130 C 
ATOM     21  C   UNL     1      -4.972  -1.488   1.318  0.00  0.00    +0.073 C 
BRANCH  17  22
ATOM     22  O   UNL     1      -2.255   2.353   0.151  0.00  0.00    -0.506 OA
ATOM     23  H   UNL     1      -1.525   2.790  -0.242  0.00  0.00    +0.292 HD
ENDBRANCH  17  22
ENDBRANCH  12  16
ENDBRANCH   3  12
BRANCH   2  24
ATOM     24  C   UNL     1       3.526  -1.366   1.006  0.00  0.00    +0.008 C 
ATOM     25  C   UNL     1       4.755  -1.893   0.974  0.00  0.00    -0.002 C 
ENDBRANCH   2  24
TORSDOF 6
