REMARK  Name = 132426
REMARK  2 active torsions:
REMARK  status: ('A' for Active; 'I' for Inactive)
REMARK    1  A    between atoms: C_7  and  C_20
REMARK    2  A    between atoms: C_20  and  N_21
REMARK                            x       y       z     vdW  Elec       q    Type
REMARK                         _______ _______ _______ _____ _____    ______ ____
ROOT
ATOM      1  N   UNL     1      -0.510   0.710  -0.480  0.00  0.00    -0.388 NA
ATOM      2  N   UNL     1       0.294  -1.881   0.063  0.00  0.00    -0.320 NA
ATOM      3  N   UNL     1       2.487  -1.171   0.283  0.00  0.00    -0.259 NA
ATOM      4  N   UNL     1       3.070   1.138  -0.003  0.00  0.00    -0.310 NA
ATOM      5  N   UNL     1       1.386   2.713  -0.516  0.00  0.00    -0.329 N 
ATOM      6  N   UNL     1       4.711  -0.454   0.502  0.00  0.00    -0.283 N 
ATOM      7  C   UNL     1      -1.393  -0.299  -0.452  0.00  0.00    +0.133 C 
ATOM      8  C   UNL     1       0.779   0.407  -0.234  0.00  0.00    +0.260 C 
ATOM      9  C   UNL     1      -0.996  -1.580  -0.183  0.00  0.00    +0.213 C 
ATOM     10  C   UNL     1       1.199  -0.896   0.042  0.00  0.00    +0.186 C 
ATOM     11  C   UNL     1       1.767   1.374  -0.240  0.00  0.00    +0.232 C 
ATOM     12  C   UNL     1       3.357  -0.144   0.249  0.00  0.00    +0.208 C 
ATOM     13  H   UNL     1       2.065   3.426  -0.528  0.00  0.00    +0.145 HD
ATOM     14  H   UNL     1       0.442   2.929  -0.695  0.00  0.00    +0.145 HD
ATOM     15  H   UNL     1       4.976  -1.383   0.693  0.00  0.00    +0.156 HD
ATOM     16  H   UNL     1       5.390   0.259   0.488  0.00  0.00    +0.156 HD
ATOM     17  N   UNL     1      -1.954  -2.616  -0.160  0.00  0.00    -0.330 N 
ATOM     18  H   UNL     1      -1.675  -3.541   0.033  0.00  0.00    +0.145 HD
ATOM     19  H   UNL     1      -2.902  -2.415  -0.337  0.00  0.00    +0.145 HD
ENDROOT
BRANCH   7  20
ATOM     20  C   UNL     1      -2.816   0.052  -0.724  0.00  0.00    -0.013 C 
BRANCH  20  21
ATOM     21  N   UNL     1      -3.549   0.399   0.495  0.00  0.00    +0.389 N 
ATOM     22  C   UNL     1      -4.936   0.736   0.176  0.00  0.00    -0.100 C 
ATOM     23  C   UNL     1      -2.897   1.512   1.182  0.00  0.00    -0.100 C 
ATOM     24  H   UNL     1      -3.548  -0.409   1.116  0.00  0.00    -0.079 HD
ENDBRANCH  20  21
ENDBRANCH   7  20
TORSDOF 2
