REMARK  Name = 132497578
REMARK  6 active torsions:
REMARK  status: ('A' for Active; 'I' for Inactive)
REMARK    1  A    between atoms: C_9  and  O_25
REMARK    2  A    between atoms: C_13  and  O_27
REMARK    3  A    between atoms: C_16  and  O_29
REMARK    4  A    between atoms: C_18  and  O_31
REMARK    5  A    between atoms: C_19  and  O_33
REMARK    6  A    between atoms: C_23  and  O_35
REMARK                            x       y       z     vdW  Elec       q    Type
REMARK                         _______ _______ _______ _____ _____    ______ ____
ROOT
ATOM      1  O   UNL     1       4.262  -1.975  -2.095  0.00  0.00    -0.286 OA
ATOM      2  O   UNL     1      -5.404   1.553  -0.314  0.00  0.00    -0.286 OA
ATOM      3  C   UNL     1       0.713  -0.427  -0.446  0.00  0.00    +0.092 C 
ATOM      4  C   UNL     1      -0.013  -1.191   0.707  0.00  0.00    +0.045 C 
ATOM      5  C   UNL     1       2.109  -0.022   0.064  0.00  0.00    -0.003 C 
ATOM      6  C   UNL     1      -1.515  -1.052   0.701  0.00  0.00    +0.013 C 
ATOM      7  C   UNL     1      -0.045   0.832  -0.870  0.00  0.00    -0.012 C 
ATOM      8  C   UNL     1      -2.127   0.069   0.118  0.00  0.00    +0.008 C 
ATOM      9  C   UNL     1       0.791  -1.363  -1.655  0.00  0.00    +0.126 C 
ATOM     10  C   UNL     1      -1.342   1.091  -0.608  0.00  0.00    +0.031 C 
ATOM     11  C   UNL     1       3.289  -0.538  -0.493  0.00  0.00    +0.070 C 
ATOM     12  C   UNL     1      -3.521   0.218   0.217  0.00  0.00    +0.073 C 
ATOM     13  C   UNL     1      -2.299  -2.008   1.363  0.00  0.00    +0.138 C 
ATOM     14  C   UNL     1       1.925  -1.841  -2.180  0.00  0.00    +0.075 C 
ATOM     15  C   UNL     1       2.233   0.904   1.123  0.00  0.00    +0.034 C 
ATOM     16  C   UNL     1      -2.009   2.299  -1.080  0.00  0.00    +0.142 C 
ATOM     17  C   UNL     1       3.241  -1.489  -1.620  0.00  0.00    +0.201 C 
ATOM     18  C   UNL     1      -4.297  -0.747   0.868  0.00  0.00    +0.140 C 
ATOM     19  C   UNL     1       4.545  -0.153   0.000  0.00  0.00    +0.139 C 
ATOM     20  C   UNL     1      -3.683  -1.861   1.436  0.00  0.00    +0.073 C 
ATOM     21  C   UNL     1      -4.188   1.415  -0.353  0.00  0.00    +0.202 C 
ATOM     22  C   UNL     1      -3.334   2.463  -0.967  0.00  0.00    +0.079 C 
ATOM     23  C   UNL     1       3.483   1.288   1.611  0.00  0.00    +0.141 C 
ATOM     24  C   UNL     1       4.638   0.757   1.051  0.00  0.00    +0.074 C 
ENDROOT
BRANCH   9  25
ATOM     25  O   UNL     1      -0.435  -1.722  -2.199  0.00  0.00    -0.475 OA
ATOM     26  C   UNL     1      -0.509  -1.323  -3.549  0.00  0.00    +0.252 C 
ENDBRANCH   9  25
BRANCH  13  27
ATOM     27  O   UNL     1      -1.730  -3.094   1.962  0.00  0.00    -0.472 OA
ATOM     28  C   UNL     1      -1.348  -2.951   3.328  0.00  0.00    +0.252 C 
ENDBRANCH  13  27
BRANCH  16  29
ATOM     29  O   UNL     1      -1.203   3.266  -1.648  0.00  0.00    -0.471 OA
ATOM     30  C   UNL     1      -0.742   4.170  -0.665  0.00  0.00    +0.252 C 
ENDBRANCH  16  29
BRANCH  18  31
ATOM     31  O   UNL     1      -5.651  -0.651   0.986  0.00  0.00    -0.505 OA
ATOM     32  H   UNL     1      -6.103   0.083   0.618  0.00  0.00    +0.292 HD
ENDBRANCH  18  31
BRANCH  19  33
ATOM     33  O   UNL     1       5.718  -0.627  -0.510  0.00  0.00    -0.505 OA
ATOM     34  H   UNL     1       5.706  -1.242  -1.218  0.00  0.00    +0.292 HD
ENDBRANCH  19  33
BRANCH  23  35
ATOM     35  O   UNL     1       3.569   2.181   2.634  0.00  0.00    -0.471 OA
ATOM     36  C   UNL     1       4.877   2.529   3.084  0.00  0.00    +0.252 C 
ENDBRANCH  23  35
TORSDOF 6
