REMARK  Name = 132451973
REMARK  7 active torsions:
REMARK  status: ('A' for Active; 'I' for Inactive)
REMARK    1  A    between atoms: C_3  and  C_12
REMARK    2  A    between atoms: C_8  and  O_24
REMARK    3  A    between atoms: C_9  and  O_26
REMARK    4  A    between atoms: C_10  and  O_28
REMARK    5  A    between atoms: C_13  and  O_18
REMARK    6  A    between atoms: C_14  and  O_20
REMARK    7  A    between atoms: C_15  and  O_22
REMARK                            x       y       z     vdW  Elec       q    Type
REMARK                         _______ _______ _______ _____ _____    ______ ____
ROOT
ATOM      1  O   UNL     1      -0.546   0.513   0.231  0.00  0.00    -0.450 OA
ATOM      2  O   UNL     1      -1.723  -3.009  -1.445  0.00  0.00    -0.286 OA
ATOM      3  C   UNL     1       0.366  -0.361  -0.341  0.00  0.00    +0.155 C 
ATOM      4  C   UNL     1      -2.343  -1.024  -0.322  0.00  0.00    +0.110 C 
ATOM      5  C   UNL     1      -1.873   0.165   0.233  0.00  0.00    +0.188 C 
ATOM      6  C   UNL     1       0.036  -1.530  -0.912  0.00  0.00    +0.080 C 
ATOM      7  C   UNL     1      -1.380  -1.950  -0.938  0.00  0.00    +0.205 C 
ATOM      8  C   UNL     1      -2.765   1.061   0.822  0.00  0.00    +0.207 C 
ATOM      9  C   UNL     1      -3.706  -1.327  -0.292  0.00  0.00    +0.143 C 
ATOM     10  C   UNL     1      -4.128   0.762   0.854  0.00  0.00    +0.174 C 
ATOM     11  C   UNL     1      -4.597  -0.429   0.298  0.00  0.00    +0.077 C 
ENDROOT
BRANCH   3  12
ATOM     12  C   UNL     1       1.763   0.114  -0.295  0.00  0.00    +0.105 C 
ATOM     13  C   UNL     1       2.738  -0.644   0.354  0.00  0.00    +0.178 C 
ATOM     14  C   UNL     1       2.107   1.323  -0.900  0.00  0.00    +0.145 C 
ATOM     15  C   UNL     1       4.058  -0.193   0.397  0.00  0.00    +0.173 C 
ATOM     16  C   UNL     1       3.427   1.774  -0.857  0.00  0.00    +0.040 C 
ATOM     17  C   UNL     1       4.402   1.016  -0.208  0.00  0.00    +0.043 C 
BRANCH  13  18
ATOM     18  O   UNL     1       2.418  -1.829   0.951  0.00  0.00    -0.468 OA
ATOM     19  C   UNL     1       2.021  -1.776   2.318  0.00  0.00    +0.253 C 
ENDBRANCH  13  18
BRANCH  14  20
ATOM     20  O   UNL     1       1.176   2.086  -1.542  0.00  0.00    -0.471 OA
ATOM     21  C   UNL     1       0.980   1.833  -2.931  0.00  0.00    +0.252 C 
ENDBRANCH  14  20
BRANCH  15  22
ATOM     22  O   UNL     1       5.021  -0.923   1.026  0.00  0.00    -0.468 OA
ATOM     23  C   UNL     1       6.343  -0.389   1.023  0.00  0.00    +0.253 C 
ENDBRANCH  15  22
ENDBRANCH   3  12
BRANCH   8  24
ATOM     24  O   UNL     1      -2.313   2.226   1.366  0.00  0.00    -0.465 OA
ATOM     25  C   UNL     1      -2.253   3.361   0.505  0.00  0.00    +0.253 C 
ENDBRANCH   8  24
BRANCH   9  26
ATOM     26  O   UNL     1      -4.215  -2.475  -0.820  0.00  0.00    -0.505 OA
ATOM     27  H   UNL     1      -3.643  -3.099  -1.223  0.00  0.00    +0.292 HD
ENDBRANCH   9  26
BRANCH  10  28
ATOM     28  O   UNL     1      -5.013   1.626   1.424  0.00  0.00    -0.503 OA
ATOM     29  H   UNL     1      -4.709   2.429   1.800  0.00  0.00    +0.292 HD
ENDBRANCH  10  28
TORSDOF 7
