REMARK  Name = 132472107
REMARK  6 active torsions:
REMARK  status: ('A' for Active; 'I' for Inactive)
REMARK    1  A    between atoms: C_6  and  O_22
REMARK    2  A    between atoms: C_7  and  O_26
REMARK    3  A    between atoms: C_10  and  O_24
REMARK    4  A    between atoms: C_14  and  O_30
REMARK    5  A    between atoms: O_26  and  C_28
REMARK    6  A    between atoms: O_30  and  C_32
REMARK                            x       y       z     vdW  Elec       q    Type
REMARK                         _______ _______ _______ _____ _____    ______ ____
ROOT
ATOM      1  O   UNL     1      -2.938   1.219  -2.390  0.00  0.00    -0.292 OA
ATOM      2  C   UNL     1       0.339   0.528   0.895  0.00  0.00    +0.006 C 
ATOM      3  C   UNL     1      -0.979   1.149   0.221  0.00  0.00    +0.036 C 
ATOM      4  C   UNL     1      -1.938   0.092  -0.428  0.00  0.00    +0.086 C 
ATOM      5  C   UNL     1       0.995  -0.482  -0.130  0.00  0.00    +0.046 C 
ATOM      6  C   UNL     1      -1.215  -0.949  -1.302  0.00  0.00    +0.157 C 
ATOM      7  C   UNL     1       0.006  -1.578  -0.620  0.00  0.00    +0.196 C 
ATOM      8  C   UNL     1       2.453  -0.990   0.215  0.00  0.00    +0.040 C 
ATOM      9  C   UNL     1      -2.864  -0.552   0.627  0.00  0.00    +0.014 C 
ATOM     10  C   UNL     1      -1.746   2.158   1.147  0.00  0.00    +0.111 C 
ATOM     11  C   UNL     1       1.363   1.689   1.124  0.00  0.00    +0.004 C 
ATOM     12  C   UNL     1      -3.814   0.586   1.002  0.00  0.00    +0.028 C 
ATOM     13  C   UNL     1      -3.048   1.646   1.804  0.00  0.00    +0.034 C 
ATOM     14  C   UNL     1       3.373   0.231   0.529  0.00  0.00    +0.169 C 
ATOM     15  C   UNL     1      -3.020   0.833  -1.235  0.00  0.00    +0.171 C 
ATOM     16  C   UNL     1       0.032  -0.079   2.285  0.00  0.00    +0.000 C 
ATOM     17  C   UNL     1       2.770   1.226   1.517  0.00  0.00    +0.044 C 
ATOM     18  C   UNL     1      -4.200   1.083  -0.357  0.00  0.00    +0.012 C 
ATOM     19  C   UNL     1       2.526  -1.994   1.383  0.00  0.00    +0.004 C 
ATOM     20  C   UNL     1       3.052  -1.732  -1.013  0.00  0.00    +0.004 C 
ATOM     21  C   UNL     1      -5.355   1.601  -0.774  0.00  0.00    -0.002 C 
ENDROOT
BRANCH   6  22
ATOM     22  O   UNL     1      -0.724  -0.347  -2.506  0.00  0.00    -0.380 OA
ATOM     23  H   UNL     1      -1.459   0.070  -2.982  0.00  0.00    +0.211 HD
ENDBRANCH   6  22
BRANCH  10  24
ATOM     24  O   UNL     1      -2.042   3.351   0.404  0.00  0.00    -0.384 OA
ATOM     25  H   UNL     1      -1.232   3.681  -0.014  0.00  0.00    +0.210 HD
ENDBRANCH  10  24
BRANCH   7  26
ATOM     26  O   UNL     1      -0.401  -2.453   0.416  0.00  0.00    -0.450 OA
BRANCH  26  28
ATOM     27  O   UNL     1      -0.532  -4.199  -1.091  0.00  0.00    -0.250 OA
ATOM     28  C   UNL     1      -0.639  -3.744   0.040  0.00  0.00    +0.318 C 
ATOM     29  C   UNL     1      -1.060  -4.549   1.232  0.00  0.00    +0.121 C 
ENDBRANCH  26  28
ENDBRANCH   7  26
BRANCH  14  30
ATOM     30  O   UNL     1       3.724   0.942  -0.663  0.00  0.00    -0.452 OA
BRANCH  30  32
ATOM     31  O   UNL     1       5.754   1.527   0.272  0.00  0.00    -0.250 OA
ATOM     32  C   UNL     1       4.949   1.543  -0.649  0.00  0.00    +0.317 C 
ATOM     33  C   UNL     1       5.179   2.245  -1.953  0.00  0.00    +0.121 C 
ENDBRANCH  30  32
ENDBRANCH  14  30
TORSDOF 6
