132451917
  -OEChem-03292013293D

 35 37  0     0  0  0  0  0  0999 V2000
   -0.2632    0.9583   -0.2171 O   0  0  0  0  0  0  0  0  0  0  0  0
    2.5492   -1.3973   -1.3767 O   0  0  0  0  0  0  0  0  0  0  0  0
    1.1170   -2.2199    1.0405 O   0  0  0  0  0  0  0  0  0  0  0  0
   -4.0828   -1.9308    0.5240 O   0  0  0  0  0  0  0  0  0  0  0  0
   -1.6238   -2.6891    0.9865 O   0  0  0  0  0  0  0  0  0  0  0  0
    1.5729    2.1802    1.6853 O   0  0  0  0  0  0  0  0  0  0  0  0
   -4.6677    2.4927   -1.0989 O   0  0  0  0  0  0  0  0  0  0  0  0
    0.6075   -0.0390    0.1926 C   0  0  0  0  0  0  0  0  0  0  0  0
   -2.1359   -0.5357    0.1727 C   0  0  0  0  0  0  0  0  0  0  0  0
   -1.6077    0.6905   -0.2242 C   0  0  0  0  0  0  0  0  0  0  0  0
    2.0200    0.3799    0.1546 C   0  0  0  0  0  0  0  0  0  0  0  0
    0.2269   -1.2610    0.6078 C   0  0  0  0  0  0  0  0  0  0  0  0
   -1.2179   -1.5939    0.6211 C   0  0  0  0  0  0  0  0  0  0  0  0
   -3.5160   -0.7516    0.1455 C   0  0  0  0  0  0  0  0  0  0  0  0
    2.9337   -0.3203   -0.6333 C   0  0  0  0  0  0  0  0  0  0  0  0
   -2.4577    1.7108   -0.6524 C   0  0  0  0  0  0  0  0  0  0  0  0
    2.4429    1.4768    0.9053 C   0  0  0  0  0  0  0  0  0  0  0  0
   -3.8362    1.4991   -0.6813 C   0  0  0  0  0  0  0  0  0  0  0  0
   -4.3641    0.2704   -0.2831 C   0  0  0  0  0  0  0  0  0  0  0  0
    4.2706    0.0766   -0.6703 C   0  0  0  0  0  0  0  0  0  0  0  0
    3.7797    1.8737    0.8684 C   0  0  0  0  0  0  0  0  0  0  0  0
    4.6935    1.1734    0.0807 C   0  0  0  0  0  0  0  0  0  0  0  0
    3.5590   -2.0439   -2.1477 C   0  0  0  0  0  0  0  0  0  0  0  0
   -2.0486    2.6690   -0.9628 H   0  0  0  0  0  0  0  0  0  0  0  0
   -5.4386    0.1038   -0.3048 H   0  0  0  0  0  0  0  0  0  0  0  0
    5.0391   -0.4151   -1.2564 H   0  0  0  0  0  0  0  0  0  0  0  0
    4.1241    2.7260    1.4479 H   0  0  0  0  0  0  0  0  0  0  0  0
    5.7343    1.4832    0.0529 H   0  0  0  0  0  0  0  0  0  0  0  0
    0.6010   -3.0059    1.2904 H   0  0  0  0  0  0  0  0  0  0  0  0
   -3.4015   -2.5639    0.7973 H   0  0  0  0  0  0  0  0  0  0  0  0
    2.0521    2.9023    2.1267 H   0  0  0  0  0  0  0  0  0  0  0  0
   -5.5859    2.1750   -1.0552 H   0  0  0  0  0  0  0  0  0  0  0  0
    3.0775   -2.8750   -2.6737 H   0  0  0  0  0  0  0  0  0  0  0  0
    4.3361   -2.4817   -1.5119 H   0  0  0  0  0  0  0  0  0  0  0  0
    3.9695   -1.3801   -2.9164 H   0  0  0  0  0  0  0  0  0  0  0  0
  1  8  1  0  0  0  0
  1 10  1  0  0  0  0
  2 15  1  0  0  0  0
  2 23  1  0  0  0  0
  3 12  1  0  0  0  0
  3 29  1  0  0  0  0
  4 14  1  0  0  0  0
  4 30  1  0  0  0  0
  5 13  2  0  0  0  0
  6 17  1  0  0  0  0
  6 31  1  0  0  0  0
  7 18  1  0  0  0  0
  7 32  1  0  0  0  0
  8 11  1  0  0  0  0
  8 12  2  0  0  0  0
  9 10  1  0  0  0  0
  9 13  1  0  0  0  0
  9 14  2  0  0  0  0
 10 16  2  0  0  0  0
 11 15  1  0  0  0  0
 11 17  2  0  0  0  0
 12 13  1  0  0  0  0
 14 19  1  0  0  0  0
 15 20  2  0  0  0  0
 16 18  1  0  0  0  0
 16 24  1  0  0  0  0
 17 21  1  0  0  0  0
 18 19  2  0  0  0  0
 19 25  1  0  0  0  0
 20 22  1  0  0  0  0
 20 26  1  0  0  0  0
 21 22  2  0  0  0  0
 21 27  1  0  0  0  0
 22 28  1  0  0  0  0
 23 33  1  0  0  0  0
 23 34  1  0  0  0  0
 23 35  1  0  0  0  0
M  END
> <PUBCHEM_COMPOUND_CID>
132451917

> <PUBCHEM_CONFORMER_RMSD>
0.6

> <PUBCHEM_CONFORMER_DIVERSEORDER>
3
6
2
5
4
1

> <PUBCHEM_MMFF94_PARTIAL_CHARGES>
32
1 -0.16
10 0.08
11 0.03
12 0.09
13 0.47
14 0.08
15 0.08
16 -0.15
17 0.08
18 0.08
19 -0.15
2 -0.36
20 -0.15
21 -0.15
22 -0.15
23 0.28
24 0.15
25 0.15
26 0.15
27 0.15
28 0.15
29 0.45
3 -0.53
30 0.45
31 0.45
32 0.45
4 -0.53
5 -0.57
6 -0.53
7 -0.53
8 0.05
9 0.09

> <PUBCHEM_EFFECTIVE_ROTOR_COUNT>
2

> <PUBCHEM_PHARMACOPHORE_FEATURES>
10
1 1 acceptor
1 2 acceptor
1 3 donor
1 4 donor
1 5 acceptor
1 6 donor
1 7 donor
6 1 8 9 10 12 13 rings
6 11 15 17 20 21 22 rings
6 9 10 14 16 18 19 rings

> <PUBCHEM_HEAVY_ATOM_COUNT>
23

> <PUBCHEM_ATOM_DEF_STEREO_COUNT>
0

> <PUBCHEM_ATOM_UDEF_STEREO_COUNT>
0

> <PUBCHEM_BOND_DEF_STEREO_COUNT>
0

> <PUBCHEM_BOND_UDEF_STEREO_COUNT>
0

> <PUBCHEM_ISOTOPIC_ATOM_COUNT>
0

> <PUBCHEM_COMPONENT_COUNT>
1

> <PUBCHEM_CACTVS_TAUTO_COUNT>
150

> <PUBCHEM_CONFORMER_ID>
07E50E4D00000003

> <PUBCHEM_MMFF94_ENERGY>
80.094

> <PUBCHEM_FEATURE_SELFOVERLAP>
50.776

> <PUBCHEM_SHAPE_FINGERPRINT>
10319926 262 18263062453719954320
10411042 1 17468201484406677539
10498660 4 18187641375839270837
10608611 8 18339640143653041864
10646746 165 18334572455963808832
10871710 139 16105572467843874916
1100329 8 17259060693031540312
12173636 292 18188203217922770783
12236239 1 16443339923240329936
12390115 104 18337681836662361473
12403259 415 18340485663715652808
12623949 98 17628663000347105511
12788726 201 16012440319645568754
13134695 92 17346597452652816968
13140716 1 17970054557621685131
13402501 40 18340204188949795616
13544592 145 18338806615170861190
13911987 19 17701834391474546108
14251757 17 18342181041983754656
14341114 328 14852183783901472237
15196674 1 18334009480103407843
15219456 202 18343585174325280764
15375358 24 18412543240852837964
16945 1 18113900515545970843
18186145 218 18339366270926557721
19049666 15 18341900671035204536
200 152 16917074364711511424
20510252 161 18410292549325611073
20645477 70 17704081681139541158
21033648 29 18411408540701093689
21279426 13 18338234852065848070
221357 26 18202281360346842869
22182313 1 18338247040988205963
22393880 68 18337107869748346615
23366157 5 17387124274099454546
23402539 116 18334849546063792612
23526113 38 18271815613900891722
23557571 272 18335990860180823636
23559900 14 18411140199939400702
2748010 2 18192158315482075283
3323516 105 18343588438453070038
350125 39 17898563181463873796
4028521 119 18411134732092877565
495365 180 17631720686438234200
4990 188 18341895160354793542
5104073 3 18260545593724695593
5281201 14 18343591741166863300
5895379 119 18041010548187845308
633830 44 18269546153234608437
7399639 24 17624689455153846498
7808743 9 18113900515414504892
9709674 26 18340492256543063190

> <PUBCHEM_SHAPE_MULTIPOLES>
432.24
9.33
2.66
1.29
1.49
0.38
-0.27
-2.8
-2.4
0.4
0.2
-0.83
0.3
2.72

> <PUBCHEM_SHAPE_SELFOVERLAP>
966.037

> <PUBCHEM_SHAPE_VOLUME>
229.4

> <PUBCHEM_COORDINATE_TYPE>
2
5
10

$$$$
