REMARK  Name = 132489991
REMARK  12 active torsions:
REMARK  status: ('A' for Active; 'I' for Inactive)
REMARK    1  A    between atoms: C_3  and  O_15
REMARK    2  A    between atoms: C_3  and  C_21
REMARK    3  A    between atoms: C_8  and  O_17
REMARK    4  A    between atoms: O_17  and  C_19
REMARK    5  A    between atoms: C_21  and  C_22
REMARK    6  A    between atoms: C_22  and  C_24
REMARK    7  A    between atoms: N_23  and  C_30
REMARK    8  A    between atoms: C_25  and  C_29
REMARK    9  A    between atoms: C_30  and  C_31
REMARK   10  A    between atoms: C_31  and  C_32
REMARK   11  A    between atoms: C_32  and  C_34
REMARK   12  A    between atoms: C_34  and  O_35
REMARK                            x       y       z     vdW  Elec       q    Type
REMARK                         _______ _______ _______ _____ _____    ______ ____
ROOT
ATOM      1  C   UNL     1       1.843   0.730   0.539  0.00  0.00    +0.023 C 
ATOM      2  C   UNL     1       3.302   1.242   0.206  0.00  0.00    +0.006 C 
ATOM      3  C   UNL     1       0.796   1.778  -0.068  0.00  0.00    +0.088 C 
ATOM      4  C   UNL     1       4.491   0.236   0.466  0.00  0.00    +0.037 C 
ATOM      5  C   UNL     1       1.662  -0.675  -0.108  0.00  0.00    +0.006 C 
ATOM      6  C   UNL     1       1.059   3.217   0.485  0.00  0.00    +0.025 C 
ATOM      7  C   UNL     1       3.533   2.651   0.788  0.00  0.00    +0.000 C 
ATOM      8  C   UNL     1       4.140  -1.141  -0.165  0.00  0.00    +0.169 C 
ATOM      9  C   UNL     1       2.514   3.655   0.258  0.00  0.00    +0.002 C 
ATOM     10  C   UNL     1       2.768  -1.665   0.242  0.00  0.00    +0.044 C 
ATOM     11  C   UNL     1       1.582   0.585   2.062  0.00  0.00    +0.002 C 
ATOM     12  C   UNL     1       4.890   0.088   1.950  0.00  0.00    +0.004 C 
ATOM     13  C   UNL     1       5.767   0.754  -0.260  0.00  0.00    +0.004 C 
ATOM     14  C   UNL     1       0.137   4.288  -0.121  0.00  0.00    +0.002 C 
ENDROOT
BRANCH   3  15
ATOM     15  O   UNL     1       0.978   1.845  -1.495  0.00  0.00    -0.387 OA
ATOM     16  H   UNL     1       1.894   2.094  -1.693  0.00  0.00    +0.210 HD
ENDBRANCH   3  15
BRANCH   8  17
ATOM     17  O   UNL     1       5.125  -2.116   0.178  0.00  0.00    -0.452 OA
BRANCH  17  19
ATOM     18  O   UNL     1       4.784  -3.189  -1.839  0.00  0.00    -0.250 OA
ATOM     19  C   UNL     1       5.345  -3.086  -0.757  0.00  0.00    +0.317 C 
ATOM     20  C   UNL     1       6.397  -4.033  -0.263  0.00  0.00    +0.121 C 
ENDBRANCH  17  19
ENDBRANCH   8  17
BRANCH   3  21
ATOM     21  C   UNL     1      -0.676   1.381   0.165  0.00  0.00    +0.032 C 
BRANCH  21  22
ATOM     22  C   UNL     1      -1.568   1.966  -0.920  0.00  0.00    +0.031 C 
BRANCH  22  24
ATOM     23  N   UNL     1      -4.915   0.446  -0.619  0.00  0.00    -0.278 N 
ATOM     24  C   UNL     1      -3.008   1.581  -0.698  0.00  0.00    +0.003 C 
ATOM     25  C   UNL     1      -3.593   0.365  -0.971  0.00  0.00    +0.117 C 
ATOM     26  C   UNL     1      -4.014   2.423  -0.162  0.00  0.00    +0.014 C 
ATOM     27  C   UNL     1      -5.183   1.695  -0.125  0.00  0.00    +0.066 C 
BRANCH  25  29
ATOM     28  N   UNL     1      -2.463  -1.734  -1.969  0.00  0.00    -0.190 NA
ATOM     29  C   UNL     1      -2.970  -0.791  -1.521  0.00  0.00    +0.115 C 
ENDBRANCH  25  29
BRANCH  23  30
ATOM     30  C   UNL     1      -5.895  -0.612  -0.741  0.00  0.00    +0.097 C 
BRANCH  30  31
ATOM     31  C   UNL     1      -6.610  -0.956   0.573  0.00  0.00    +0.033 C 
BRANCH  31  32
ATOM     32  C   UNL     1      -5.699  -1.527   1.658  0.00  0.00    +0.111 C 
BRANCH  32  34
ATOM     33  O   UNL     1      -3.748  -2.851   1.130  0.00  0.00    -0.250 OA
ATOM     34  C   UNL     1      -4.967  -2.767   1.208  0.00  0.00    +0.314 C 
BRANCH  34  35
ATOM     35  O   UNL     1      -5.806  -3.784   0.894  0.00  0.00    -0.480 OA
ATOM     36  H   UNL     1      -6.733  -3.668   0.971  0.00  0.00    +0.295 HD
ENDBRANCH  34  35
ENDBRANCH  32  34
ENDBRANCH  31  32
ENDBRANCH  30  31
ENDBRANCH  23  30
ENDBRANCH  22  24
ENDBRANCH  21  22
ENDBRANCH   3  21
TORSDOF 12
