REMARK  Name = 132466
REMARK  3 active torsions:
REMARK  status: ('A' for Active; 'I' for Inactive)
REMARK    1  A    between atoms: C_21  and  S_25
REMARK    2  A    between atoms: S_25  and  C_26
REMARK    3  A    between atoms: C_26  and  C_27
REMARK                            x       y       z     vdW  Elec       q    Type
REMARK                         _______ _______ _______ _____ _____    ______ ____
ROOT
ATOM      1  O   UNL     1      -6.033  -2.760  -0.480  0.00  0.00    -0.350 OA
ATOM      2  N   UNL     1      -1.517   2.814  -0.011  0.00  0.00    -0.238 N 
ATOM      3  N   UNL     1      -3.601  -1.404  -0.095  0.00  0.00    -0.276 N 
ATOM      4  N   UNL     1      -1.705   5.659   0.126  0.00  0.00    +0.386 N 
ATOM      5  N   UNL     1      -2.573   0.705  -0.054  0.00  0.00    -0.311 NA
ATOM      6  N   UNL     1      -0.193   0.871   0.204  0.00  0.00    -0.324 NA
ATOM      7  N   UNL     1      -1.162  -2.645   0.218  0.00  0.00    -0.238 NA
ATOM      8  N   UNL     1       1.218  -2.479   0.476  0.00  0.00    -0.235 NA
ATOM      9  C   UNL     1      -2.747   3.448   0.484  0.00  0.00    +0.080 C 
ATOM     10  C   UNL     1      -0.300   3.627   0.086  0.00  0.00    +0.080 C 
ATOM     11  C   UNL     1      -2.901   4.849  -0.105  0.00  0.00    -0.059 C 
ATOM     12  C   UNL     1      -0.541   5.023  -0.488  0.00  0.00    -0.059 C 
ATOM     13  C   UNL     1      -4.860  -0.827   0.397  0.00  0.00    +0.125 C 
ATOM     14  C   UNL     1      -3.744  -2.373  -1.187  0.00  0.00    +0.125 C 
ATOM     15  C   UNL     1      -2.437  -0.635   0.007  0.00  0.00    +0.217 C 
ATOM     16  C   UNL     1      -1.427   1.419   0.048  0.00  0.00    +0.204 C 
ATOM     17  C   UNL     1      -5.862  -1.942   0.677  0.00  0.00    +0.164 C 
ATOM     18  C   UNL     1      -4.807  -3.405  -0.825  0.00  0.00    +0.164 C 
ATOM     19  C   UNL     1      -1.237  -1.301   0.163  0.00  0.00    +0.155 C 
ATOM     20  C   UNL     1      -0.119  -0.473   0.258  0.00  0.00    +0.189 C 
ATOM     21  C   UNL     1       1.082  -1.138   0.414  0.00  0.00    +0.136 C 
ATOM     22  C   UNL     1       0.069  -3.163   0.373  0.00  0.00    +0.251 C 
ATOM     23  H   UNL     1      -1.549   5.751   1.130  0.00  0.00    -0.084 HD
ATOM     24  H   UNL     1      -1.841   6.580  -0.291  0.00  0.00    -0.084 HD
ENDROOT
BRANCH  21  25
ATOM     25  S   UNL     1       2.620  -0.228   0.553  0.00  0.00    -0.088 S 
BRANCH  25  26
ATOM     26  C   UNL     1       3.798  -1.402  -0.170  0.00  0.00    +0.090 C 
BRANCH  26  27
ATOM     27  C   UNL     1       5.203  -0.867  -0.175  0.00  0.00    -0.011 C 
ATOM     28  C   UNL     1       6.031  -1.107   0.914  0.00  0.00    -0.003 C 
ATOM     29  C   UNL     1       5.655  -0.138  -1.267  0.00  0.00    -0.003 C 
ATOM     30  C   UNL     1       7.334  -0.610   0.910  0.00  0.00    -0.000 C 
ATOM     31  C   UNL     1       6.959   0.358  -1.271  0.00  0.00    -0.000 C 
ATOM     32  C   UNL     1       7.798   0.123  -0.182  0.00  0.00    -0.000 C 
ENDBRANCH  26  27
ENDBRANCH  25  26
ENDBRANCH  21  25
TORSDOF 3
