REMARK  Name = 132488008
REMARK  3 active torsions:
REMARK  status: ('A' for Active; 'I' for Inactive)
REMARK    1  A    between atoms: C_6  and  C_24
REMARK    2  A    between atoms: C_13  and  O_34
REMARK    3  A    between atoms: C_25  and  N_31
REMARK                            x       y       z     vdW  Elec       q    Type
REMARK                         _______ _______ _______ _____ _____    ______ ____
ROOT
ATOM      1  O   UNL     1      -0.595  -2.091  -0.552  0.00  0.00    -0.275 OA
ATOM      2  O   UNL     1      -1.097   2.933   1.093  0.00  0.00    -0.294 OA
ATOM      3  O   UNL     1       3.189   2.098   1.329  0.00  0.00    -0.270 OA
ATOM      4  N   UNL     1       0.916  -1.073   0.889  0.00  0.00    -0.306 N 
ATOM      5  N   UNL     1       2.015   2.572  -0.626  0.00  0.00    -0.296 N 
ATOM      6  C   UNL     1      -1.110   0.123   0.325  0.00  0.00    +0.112 C 
ATOM      7  C   UNL     1       1.920  -2.133   0.980  0.00  0.00    +0.072 C 
ATOM      8  C   UNL     1       2.525  -2.508  -0.392  0.00  0.00    +0.022 C 
ATOM      9  C   UNL     1      -0.555   1.266  -0.544  0.00  0.00    +0.080 C 
ATOM     10  C   UNL     1       4.060  -2.624  -0.347  0.00  0.00    +0.036 C 
ATOM     11  C   UNL     1      -0.263  -1.144   0.157  0.00  0.00    +0.227 C 
ATOM     12  C   UNL     1      -0.263   2.521   0.279  0.00  0.00    +0.169 C 
ATOM     13  C   UNL     1       4.811  -1.339  -0.752  0.00  0.00    +0.133 C 
ATOM     14  C   UNL     1       1.370  -3.358   1.711  0.00  0.00    +0.021 C 
ATOM     15  C   UNL     1       0.966   3.381  -0.034  0.00  0.00    +0.130 C 
ATOM     16  C   UNL     1       4.329  -0.112  -0.032  0.00  0.00    +0.007 C 
ATOM     17  C   UNL     1       0.570   4.514  -0.969  0.00  0.00    +0.029 C 
ATOM     18  C   UNL     1       3.653   0.861  -0.656  0.00  0.00    +0.056 C 
ATOM     19  C   UNL     1       2.969   1.915   0.137  0.00  0.00    +0.246 C 
ATOM     20  H   UNL     1       1.089  -0.242   1.388  0.00  0.00    +0.149 HD
ATOM     21  H   UNL     1       2.051   2.486  -1.606  0.00  0.00    +0.150 HD
ENDROOT
BRANCH   6  24
ATOM     22  O   UNL     1      -3.107   0.263   2.268  0.00  0.00    -0.270 OA
ATOM     23  N   UNL     1      -4.818  -0.366   0.875  0.00  0.00    -0.284 N 
ATOM     24  C   UNL     1      -2.534  -0.197  -0.005  0.00  0.00    +0.053 C 
ATOM     25  C   UNL     1      -2.996  -0.573  -1.220  0.00  0.00    +0.043 C 
ATOM     26  C   UNL     1      -3.496  -0.076   1.151  0.00  0.00    +0.247 C 
ATOM     27  C   UNL     1      -4.417  -0.852  -1.384  0.00  0.00    +0.024 C 
ATOM     28  C   UNL     1      -5.277  -0.746  -0.362  0.00  0.00    +0.029 C 
ATOM     29  C   UNL     1      -6.742  -1.022  -0.479  0.00  0.00    +0.047 C 
ATOM     30  H   UNL     1      -5.470  -0.296   1.609  0.00  0.00    +0.155 HD
BRANCH  25  31
ATOM     31  N   UNL     1      -2.226  -0.719  -2.343  0.00  0.00    -0.357 N 
ATOM     32  H   UNL     1      -1.258  -0.546  -2.302  0.00  0.00    +0.142 HD
ATOM     33  H   UNL     1      -2.641  -0.997  -3.192  0.00  0.00    +0.142 HD
ENDBRANCH  25  31
ENDBRANCH   6  24
BRANCH  13  34
ATOM     34  O   UNL     1       6.204  -1.514  -0.498  0.00  0.00    -0.380 OA
ATOM     35  H   UNL     1       6.521  -2.305  -0.961  0.00  0.00    +0.211 HD
ENDBRANCH  13  34
TORSDOF 3
