132427624
  -OEChem-03292013293D

 63 66  0     1  0  0  0  0  0999 V2000
   -3.0750    2.8177   -0.4149 S   0  0  2  0  0  0  0  0  0  0  0  0
   -3.0219   -3.2025   -0.0729 O   0  0  0  0  0  0  0  0  0  0  0  0
    0.6514   -1.2132   -2.5101 O   0  0  0  0  0  0  0  0  0  0  0  0
    1.1153   -0.0056    2.8146 O   0  0  0  0  0  0  0  0  0  0  0  0
   -4.2786    3.5647    0.0793 O   0  0  0  0  0  0  0  0  0  0  0  0
    0.0537    2.9605   -1.0544 O   0  0  0  0  0  0  0  0  0  0  0  0
   -4.0801   -1.1567   -0.1493 N   0  0  0  0  0  0  0  0  0  0  0  0
    1.4795   -1.3810    1.0015 N   0  0  0  0  0  0  0  0  0  0  0  0
   -0.7002   -1.6596   -0.6858 N   0  0  0  0  0  0  0  0  0  0  0  0
    0.2038    1.8878    1.0012 N   0  0  0  0  0  0  0  0  0  0  0  0
   -4.1972    0.2776   -0.4748 C   0  0  1  0  0  0  0  0  0  0  0  0
   -5.6317    0.6462   -0.0451 C   0  0  0  0  0  0  0  0  0  0  0  0
    1.7375   -1.6672   -0.4159 C   0  0  1  0  0  0  0  0  0  0  0  0
   -6.3621   -0.6875    0.0098 C   0  0  0  0  0  0  0  0  0  0  0  0
   -5.2862   -1.6309    0.5124 C   0  0  0  0  0  0  0  0  0  0  0  0
    2.1149   -3.1559   -0.4495 C   0  0  0  0  0  0  0  0  0  0  0  0
    2.5257   -3.4727    0.9813 C   0  0  0  0  0  0  0  0  0  0  0  0
    1.6039   -2.5913    1.8020 C   0  0  0  0  0  0  0  0  0  0  0  0
   -3.1574    1.1258    0.2671 C   0  0  0  0  0  0  0  0  0  0  0  0
   -3.0627   -2.0371   -0.4815 C   0  0  0  0  0  0  0  0  0  0  0  0
    0.5171   -1.4401   -1.3072 C   0  0  0  0  0  0  0  0  0  0  0  0
    1.3086   -0.1414    1.6019 C   0  0  0  0  0  0  0  0  0  0  0  0
    1.3799    1.0859    0.6975 C   0  0  2  0  0  0  0  0  0  0  0  0
   -1.9594   -1.5316   -1.3890 C   0  0  0  0  0  0  0  0  0  0  0  0
   -1.6535    3.3714    0.5796 C   0  0  0  0  0  0  0  0  0  0  0  0
    2.6623    1.8584    0.9775 C   0  0  0  0  0  0  0  0  0  0  0  0
   -0.3763    2.7418    0.0766 C   0  0  0  0  0  0  0  0  0  0  0  0
    3.8315    1.2948    0.2148 C   0  0  0  0  0  0  0  0  0  0  0  0
    4.6181    0.2932    0.7838 C   0  0  0  0  0  0  0  0  0  0  0  0
    4.1282    1.7744   -1.0608 C   0  0  0  0  0  0  0  0  0  0  0  0
    5.7015   -0.2289    0.0770 C   0  0  0  0  0  0  0  0  0  0  0  0
    5.2115    1.2525   -1.7677 C   0  0  0  0  0  0  0  0  0  0  0  0
    5.9981    0.2507   -1.1988 C   0  0  0  0  0  0  0  0  0  0  0  0
   -4.0955    0.3753   -1.5621 H   0  0  0  0  0  0  0  0  0  0  0  0
   -5.6470    1.1033    0.9520 H   0  0  0  0  0  0  0  0  0  0  0  0
   -6.1030    1.3480   -0.7401 H   0  0  0  0  0  0  0  0  0  0  0  0
    2.5594   -1.0414   -0.7686 H   0  0  0  0  0  0  0  0  0  0  0  0
   -7.2422   -0.6654    0.6580 H   0  0  0  0  0  0  0  0  0  0  0  0
   -6.6809   -0.9775   -0.9986 H   0  0  0  0  0  0  0  0  0  0  0  0
   -5.1353   -1.5303    1.5929 H   0  0  0  0  0  0  0  0  0  0  0  0
   -5.4960   -2.6779    0.2754 H   0  0  0  0  0  0  0  0  0  0  0  0
    2.9222   -3.3547   -1.1617 H   0  0  0  0  0  0  0  0  0  0  0  0
    1.2634   -3.7850   -0.7375 H   0  0  0  0  0  0  0  0  0  0  0  0
    2.4289   -4.5333    1.2283 H   0  0  0  0  0  0  0  0  0  0  0  0
    3.5697   -3.1758    1.1388 H   0  0  0  0  0  0  0  0  0  0  0  0
    0.6067   -3.0343    1.8980 H   0  0  0  0  0  0  0  0  0  0  0  0
    1.9986   -2.3810    2.8001 H   0  0  0  0  0  0  0  0  0  0  0  0
   -3.3760    1.1879    1.3389 H   0  0  0  0  0  0  0  0  0  0  0  0
   -2.1643    0.6861    0.1692 H   0  0  0  0  0  0  0  0  0  0  0  0
    1.3144    0.8305   -0.3608 H   0  0  0  0  0  0  0  0  0  0  0  0
   -1.9280   -2.1645   -2.2826 H   0  0  0  0  0  0  0  0  0  0  0  0
   -2.0718   -0.5011   -1.7230 H   0  0  0  0  0  0  0  0  0  0  0  0
   -0.7145   -1.8649    0.3088 H   0  0  0  0  0  0  0  0  0  0  0  0
    2.8962    1.8791    2.0503 H   0  0  0  0  0  0  0  0  0  0  0  0
    2.5433    2.9133    0.6946 H   0  0  0  0  0  0  0  0  0  0  0  0
   -1.8462    3.1542    1.6338 H   0  0  0  0  0  0  0  0  0  0  0  0
   -1.5662    4.4564    0.4657 H   0  0  0  0  0  0  0  0  0  0  0  0
   -0.2083    1.8036    1.9262 H   0  0  0  0  0  0  0  0  0  0  0  0
    4.3991   -0.0890    1.7772 H   0  0  0  0  0  0  0  0  0  0  0  0
    3.5209    2.5522   -1.5161 H   0  0  0  0  0  0  0  0  0  0  0  0
    6.3133   -1.0094    0.5197 H   0  0  0  0  0  0  0  0  0  0  0  0
    5.4419    1.6251   -2.7615 H   0  0  0  0  0  0  0  0  0  0  0  0
    6.8412   -0.1561   -1.7495 H   0  0  0  0  0  0  0  0  0  0  0  0
  1  5  2  0  0  0  0
  1 19  1  0  0  0  0
  1 25  1  0  0  0  0
  2 20  2  0  0  0  0
  3 21  2  0  0  0  0
  4 22  2  0  0  0  0
  6 27  2  0  0  0  0
  7 11  1  0  0  0  0
  7 15  1  0  0  0  0
  7 20  1  0  0  0  0
  8 13  1  0  0  0  0
  8 18  1  0  0  0  0
  8 22  1  0  0  0  0
  9 21  1  0  0  0  0
  9 24  1  0  0  0  0
  9 53  1  0  0  0  0
 10 23  1  0  0  0  0
 10 27  1  0  0  0  0
 10 58  1  0  0  0  0
 11 12  1  0  0  0  0
 11 19  1  0  0  0  0
 11 34  1  0  0  0  0
 12 14  1  0  0  0  0
 12 35  1  0  0  0  0
 12 36  1  0  0  0  0
 13 16  1  0  0  0  0
 13 21  1  0  0  0  0
 13 37  1  0  0  0  0
 14 15  1  0  0  0  0
 14 38  1  0  0  0  0
 14 39  1  0  0  0  0
 15 40  1  0  0  0  0
 15 41  1  0  0  0  0
 16 17  1  0  0  0  0
 16 42  1  0  0  0  0
 16 43  1  0  0  0  0
 17 18  1  0  0  0  0
 17 44  1  0  0  0  0
 17 45  1  0  0  0  0
 18 46  1  0  0  0  0
 18 47  1  0  0  0  0
 19 48  1  0  0  0  0
 19 49  1  0  0  0  0
 20 24  1  0  0  0  0
 22 23  1  0  0  0  0
 23 26  1  0  0  0  0
 23 50  1  0  0  0  0
 24 51  1  0  0  0  0
 24 52  1  0  0  0  0
 25 27  1  0  0  0  0
 25 56  1  0  0  0  0
 25 57  1  0  0  0  0
 26 28  1  0  0  0  0
 26 54  1  0  0  0  0
 26 55  1  0  0  0  0
 28 29  2  0  0  0  0
 28 30  1  0  0  0  0
 29 31  1  0  0  0  0
 29 59  1  0  0  0  0
 30 32  2  0  0  0  0
 30 60  1  0  0  0  0
 31 33  2  0  0  0  0
 31 61  1  0  0  0  0
 32 33  1  0  0  0  0
 32 62  1  0  0  0  0
 33 63  1  0  0  0  0
M  END
> <PUBCHEM_COMPOUND_CID>
132427624

> <PUBCHEM_CONFORMER_RMSD>
0.8

> <PUBCHEM_CONFORMER_DIVERSEORDER>
1
28
39
13
32
10
43
6
35
30
24
14
23
22
40
18
42
21
34
45
4
36
37
27
33
9
19
31
16
25
29
38
2
15
5
41
20
11
17
44
12
26
3
7
8

> <PUBCHEM_MMFF94_PARTIAL_CHARGES>
36
1 0.11
10 -0.73
11 0.3
13 0.36
15 0.3
18 0.3
19 0.19
2 -0.57
20 0.57
21 0.57
22 0.57
23 0.36
24 0.36
25 0.25
26 0.14
27 0.57
28 -0.14
29 -0.15
3 -0.57
30 -0.15
31 -0.15
32 -0.15
33 -0.15
4 -0.57
5 -0.5
53 0.37
58 0.37
59 0.15
6 -0.57
60 0.15
61 0.15
62 0.15
63 0.15
7 -0.66
8 -0.66
9 -0.73

> <PUBCHEM_EFFECTIVE_ROTOR_COUNT>
4.4

> <PUBCHEM_PHARMACOPHORE_FEATURES>
10
1 10 donor
1 2 acceptor
1 3 acceptor
1 4 acceptor
1 5 acceptor
1 6 acceptor
1 9 donor
5 7 11 12 14 15 rings
5 8 13 16 17 18 rings
6 28 29 30 31 32 33 rings

> <PUBCHEM_HEAVY_ATOM_COUNT>
33

> <PUBCHEM_ATOM_DEF_STEREO_COUNT>
3

> <PUBCHEM_ATOM_UDEF_STEREO_COUNT>
1

> <PUBCHEM_BOND_DEF_STEREO_COUNT>
0

> <PUBCHEM_BOND_UDEF_STEREO_COUNT>
0

> <PUBCHEM_ISOTOPIC_ATOM_COUNT>
0

> <PUBCHEM_COMPONENT_COUNT>
1

> <PUBCHEM_CACTVS_TAUTO_COUNT>
8

> <PUBCHEM_CONFORMER_ID>
07E4AF6800000001

> <PUBCHEM_MMFF94_ENERGY>
85.8223

> <PUBCHEM_FEATURE_SELFOVERLAP>
50.749

> <PUBCHEM_SHAPE_FINGERPRINT>
10190108 129 18335715943814424635
10759866 29 18336263431774751616
11421498 54 18260545645037669859
11488393 25 17630342852181857718
11513181 2 17916297247864245847
11578080 2 17387399152042770005
12422481 6 18053914343884828834
12467345 10 18335702698325129142
12553582 1 18267847532503028873
12788726 201 18335693932534567129
13140716 1 17980473779051964089
13402501 40 18202848764249499853
13726171 33 18200326398317905153
14251751 93 18413666920235494076
14251757 17 17632030666986223020
14790565 3 18337954605518654556
14930077 153 18120953943111127356
14955137 171 18268716198059683457
15001296 14 18191579959449502897
1601671 61 18272367611286716370
16112460 7 17984994700261522977
19319366 153 18187641405603757803
20764821 26 18125430918045759717
23559900 14 17840302225019319143
27425 322 17459759116464465857
338550 245 18336827494741959084
3493558 16 17389399413018172686
5776283 40 18124043583680849412
59755656 215 18413392037848654919

> <PUBCHEM_SHAPE_MULTIPOLES>
633.7
12.5
4.35
1.66
3.97
0.28
-0.15
1.31
2.28
1.69
-0.25
-1.56
-0.4
-0.97

> <PUBCHEM_SHAPE_SELFOVERLAP>
1319.459

> <PUBCHEM_SHAPE_VOLUME>
359.1

> <PUBCHEM_COORDINATE_TYPE>
2
5
10

$$$$
