REMARK  Name = 132419
REMARK  10 active torsions:
REMARK  status: ('A' for Active; 'I' for Inactive)
REMARK    1  A    between atoms: S_1  and  C_2
REMARK    2  A    between atoms: S_1  and  C_14
REMARK    3  A    between atoms: C_2  and  C_3
REMARK    4  A    between atoms: C_3  and  C_4
REMARK    5  A    between atoms: C_4  and  N_6
REMARK    6  A    between atoms: C_4  and  C_11
REMARK    7  A    between atoms: C_11  and  O_12
REMARK    8  A    between atoms: C_14  and  C_17
REMARK    9  A    between atoms: N_16  and  C_18
REMARK   10  A    between atoms: N_16  and  C_24
REMARK                            x       y       z     vdW  Elec       q    Type
REMARK                         _______ _______ _______ _____ _____    ______ ____
ROOT
ATOM      1  S   UNK A   1      -0.634   2.260   2.060  0.00  0.00    -0.131 S 
ENDROOT
BRANCH   1   2
ATOM      2  C   UNK A   1      -1.819   1.521   0.897  0.00  0.00    +0.060 C 
BRANCH   2   3
ATOM      3  C   UNK A   1      -2.335   0.186   1.439  0.00  0.00    +0.043 C 
BRANCH   3   4
ATOM      4  C   UNK A   1      -3.340  -0.508   0.509  0.00  0.00    +0.172 C 
BRANCH   4   6
ATOM      5  O   UNK A   0      -2.057  -3.076   0.079  0.00  0.00    -0.275 OA
ATOM      6  N   UNK A   1      -2.709  -0.980  -0.697  0.00  0.00    -0.297 N 
ATOM      7  C   UNK A   0      -2.119  -2.230  -0.809  0.00  0.00    +0.223 C 
ATOM      8  C   UNK A   0      -1.558  -2.478  -2.184  0.00  0.00    +0.095 C 
ATOM      9  H   UNK A   1      -2.697  -0.385  -1.481  0.00  0.00    +0.150 HD
ENDBRANCH   4   6
BRANCH   4  11
ATOM     10  O   UNK A   1      -5.295   0.790   1.103  0.00  0.00    -0.248 OA
ATOM     11  C   UNK A   1      -4.554   0.364   0.224  0.00  0.00    +0.332 C 
BRANCH  11  12
ATOM     12  O   UNK A   1      -4.787   0.589  -1.091  0.00  0.00    -0.479 OA
ATOM     13  H   UNK A   1      -4.200   0.247  -1.737  0.00  0.00    +0.295 HD
ENDBRANCH  11  12
ENDBRANCH   4  11
ENDBRANCH   3   4
ENDBRANCH   2   3
ENDBRANCH   1   2
BRANCH   1  14
ATOM     14  C   UNK A   1       0.830   1.319   1.572  0.00  0.00    +0.143 C 
BRANCH  14  17
ATOM     15  O   UNK A   1       1.421   3.098   0.080  0.00  0.00    -0.274 OA
ATOM     16  N   UNK A   1       2.107   0.942  -0.521  0.00  0.00    -0.260 N 
ATOM     17  C   UNK A   1       1.464   1.887   0.311  0.00  0.00    +0.240 C 
BRANCH  16  18
ATOM     18  C   UNK A   1       2.674  -0.254   0.075  0.00  0.00    +0.054 C 
ATOM     19  C   UNK A   1       3.673  -0.144   1.043  0.00  0.00    +0.015 C 
ATOM     20  C   UNK A   1       2.220  -1.512  -0.319  0.00  0.00    +0.015 C 
ATOM     21  C   UNK A   1       4.218  -1.293   1.617  0.00  0.00    +0.001 C 
ATOM     22  C   UNK A   1       2.765  -2.661   0.255  0.00  0.00    +0.001 C 
ATOM     23  C   UNK A   1       3.764  -2.551   1.223  0.00  0.00    +0.000 C 
ENDBRANCH  16  18
BRANCH  16  24
ATOM     24  C   UNK A   1       2.217   1.139  -1.974  0.00  0.00    +0.080 C 
ATOM     25  C   UNK A   1       3.019   2.397  -2.279  0.00  0.00    +0.022 C 
ATOM     26  C   UNK A   1       0.835   1.196  -2.612  0.00  0.00    +0.022 C 
ENDBRANCH  16  24
ENDBRANCH  14  17
ENDBRANCH   1  14
TORSDOF 10
