132487818
  -OEChem-03292013293D

 45 47  0     1  0  0  0  0  0999 V2000
    3.8037   -0.6423    1.0896 O   0  0  0  0  0  0  0  0  0  0  0  0
    3.7375    1.9820    0.4508 O   0  0  0  0  0  0  0  0  0  0  0  0
    3.2297   -2.0084   -1.2470 O   0  0  0  0  0  0  0  0  0  0  0  0
    1.7705   -2.6214    1.4997 O   0  0  0  0  0  0  0  0  0  0  0  0
   -2.5155    2.6807    1.5225 O   0  0  0  0  0  0  0  0  0  0  0  0
   -4.0983    1.0809   -0.8595 O   0  0  0  0  0  0  0  0  0  0  0  0
    2.6989   -0.1809    0.2912 C   0  0  1  0  0  0  0  0  0  0  0  0
    3.2287    1.0384   -0.5065 C   0  0  1  0  0  0  0  0  0  0  0  0
    2.1778   -1.3750   -0.5402 C   0  0  2  0  0  0  0  0  0  0  0  0
    2.2479    1.7957   -1.4333 C   0  0  0  0  0  0  0  0  0  0  0  0
    0.9385    2.1773   -0.7828 C   0  0  0  0  0  0  0  0  0  0  0  0
    0.4077   -3.3148   -0.3537 C   0  0  0  0  0  0  0  0  0  0  0  0
    1.4734   -2.4432    0.3169 C   0  0  0  0  0  0  0  0  0  0  0  0
   -0.9067   -3.4373    0.4562 C   0  0  0  0  0  0  0  0  0  0  0  0
   -1.8426   -2.2661    0.2544 C   0  0  0  0  0  0  0  0  0  0  0  0
   -1.2707    1.3889   -0.0731 C   0  0  0  0  0  0  0  0  0  0  0  0
   -0.1304    1.2938   -0.8929 C   0  0  0  0  0  0  0  0  0  0  0  0
   -2.0709    0.1672    0.0450 C   0  0  0  0  0  0  0  0  0  0  0  0
   -1.3751   -0.9762    0.4828 C   0  0  0  0  0  0  0  0  0  0  0  0
    0.7741    3.3057    0.0207 C   0  0  0  0  0  0  0  0  0  0  0  0
   -1.4306    2.5255    0.7147 C   0  0  0  0  0  0  0  0  0  0  0  0
   -3.1457   -2.4066   -0.2261 C   0  0  0  0  0  0  0  0  0  0  0  0
   -0.4188    3.4944    0.7354 C   0  0  0  0  0  0  0  0  0  0  0  0
   -3.3698    0.0143   -0.4301 C   0  0  0  0  0  0  0  0  0  0  0  0
   -3.9133   -1.2723   -0.5349 C   0  0  0  0  0  0  0  0  0  0  0  0
    1.9354    0.1561    1.0017 H   0  0  0  0  0  0  0  0  0  0  0  0
    4.0962    0.7219   -1.0988 H   0  0  0  0  0  0  0  0  0  0  0  0
    1.4581   -1.0172   -1.2758 H   0  0  0  0  0  0  0  0  0  0  0  0
    2.0481    1.1842   -2.3222 H   0  0  0  0  0  0  0  0  0  0  0  0
    2.7217    2.7150   -1.8015 H   0  0  0  0  0  0  0  0  0  0  0  0
    0.8591   -4.3082   -0.4643 H   0  0  0  0  0  0  0  0  0  0  0  0
    0.2041   -2.9395   -1.3626 H   0  0  0  0  0  0  0  0  0  0  0  0
   -0.7019   -3.5450    1.5278 H   0  0  0  0  0  0  0  0  0  0  0  0
   -1.4164   -4.3548    0.1368 H   0  0  0  0  0  0  0  0  0  0  0  0
   -0.0270    0.4281   -1.5446 H   0  0  0  0  0  0  0  0  0  0  0  0
   -0.3836   -0.8430    0.9080 H   0  0  0  0  0  0  0  0  0  0  0  0
    1.5767    4.0311    0.1227 H   0  0  0  0  0  0  0  0  0  0  0  0
    3.4703   -1.3390    1.6798 H   0  0  0  0  0  0  0  0  0  0  0  0
    4.1615    2.7033   -0.0446 H   0  0  0  0  0  0  0  0  0  0  0  0
   -3.5686   -3.3936   -0.3937 H   0  0  0  0  0  0  0  0  0  0  0  0
    2.8305   -2.6479   -1.8613 H   0  0  0  0  0  0  0  0  0  0  0  0
   -0.5184    4.3791    1.3603 H   0  0  0  0  0  0  0  0  0  0  0  0
   -4.9215   -1.4131   -0.9178 H   0  0  0  0  0  0  0  0  0  0  0  0
   -2.4365    3.5231    2.0021 H   0  0  0  0  0  0  0  0  0  0  0  0
   -4.9667    0.7692   -1.1670 H   0  0  0  0  0  0  0  0  0  0  0  0
  1  7  1  0  0  0  0
  1 38  1  0  0  0  0
  2  8  1  0  0  0  0
  2 39  1  0  0  0  0
  3  9  1  0  0  0  0
  3 41  1  0  0  0  0
  4 13  2  0  0  0  0
  5 21  1  0  0  0  0
  5 44  1  0  0  0  0
  6 24  1  0  0  0  0
  6 45  1  0  0  0  0
  7  8  1  0  0  0  0
  7  9  1  0  0  0  0
  7 26  1  0  0  0  0
  8 10  1  0  0  0  0
  8 27  1  0  0  0  0
  9 13  1  0  0  0  0
  9 28  1  0  0  0  0
 10 11  1  0  0  0  0
 10 29  1  0  0  0  0
 10 30  1  0  0  0  0
 11 17  2  0  0  0  0
 11 20  1  0  0  0  0
 12 13  1  0  0  0  0
 12 14  1  0  0  0  0
 12 31  1  0  0  0  0
 12 32  1  0  0  0  0
 14 15  1  0  0  0  0
 14 33  1  0  0  0  0
 14 34  1  0  0  0  0
 15 19  2  0  0  0  0
 15 22  1  0  0  0  0
 16 17  1  0  0  0  0
 16 18  1  0  0  0  0
 16 21  2  0  0  0  0
 17 35  1  0  0  0  0
 18 19  1  0  0  0  0
 18 24  2  0  0  0  0
 19 36  1  0  0  0  0
 20 23  2  0  0  0  0
 20 37  1  0  0  0  0
 21 23  1  0  0  0  0
 22 25  2  0  0  0  0
 22 40  1  0  0  0  0
 23 42  1  0  0  0  0
 24 25  1  0  0  0  0
 25 43  1  0  0  0  0
M  END
> <PUBCHEM_COMPOUND_CID>
132487818

> <PUBCHEM_CONFORMER_RMSD>
0.6

> <PUBCHEM_CONFORMER_DIVERSEORDER>
1
4
2
5
3

> <PUBCHEM_MMFF94_PARTIAL_CHARGES>
34
1 -0.68
10 0.14
11 -0.14
12 0.06
13 0.45
14 0.14
15 -0.14
17 -0.15
19 -0.15
2 -0.68
20 -0.15
21 0.08
22 -0.15
23 -0.15
24 0.08
25 -0.15
3 -0.68
35 0.15
36 0.15
37 0.15
38 0.4
39 0.4
4 -0.57
40 0.15
41 0.4
42 0.15
43 0.15
44 0.45
45 0.45
5 -0.53
6 -0.53
7 0.28
8 0.28
9 0.34

> <PUBCHEM_EFFECTIVE_ROTOR_COUNT>
1.2

> <PUBCHEM_PHARMACOPHORE_FEATURES>
11
1 1 acceptor
1 1 donor
1 2 acceptor
1 2 donor
1 3 acceptor
1 3 donor
1 4 acceptor
1 5 donor
1 6 donor
6 11 16 17 20 21 23 rings
6 15 18 19 22 24 25 rings

> <PUBCHEM_HEAVY_ATOM_COUNT>
25

> <PUBCHEM_ATOM_DEF_STEREO_COUNT>
3

> <PUBCHEM_ATOM_UDEF_STEREO_COUNT>
0

> <PUBCHEM_BOND_DEF_STEREO_COUNT>
0

> <PUBCHEM_BOND_UDEF_STEREO_COUNT>
0

> <PUBCHEM_ISOTOPIC_ATOM_COUNT>
0

> <PUBCHEM_COMPONENT_COUNT>
1

> <PUBCHEM_CACTVS_TAUTO_COUNT>
998

> <PUBCHEM_CONFORMER_ID>
07E59A8A00000001

> <PUBCHEM_MMFF94_ENERGY>
85.8793

> <PUBCHEM_FEATURE_SELFOVERLAP>
55.848

> <PUBCHEM_SHAPE_FINGERPRINT>
10498660 4 18410573963703488751
10616163 171 17903079180587988094
10675989 125 18264757771464037429
10708813 3 17908994209796115049
10967382 1 18337955721840659095
1100329 8 18409450284563497091
11370993 70 17977376466984848501
12038231 1 18122628245077778127
12156800 1 12595627173428581358
12539773 59 17414422901875874517
12553582 1 18196107731094351265
12633257 1 17693653715097928450
12788726 201 18271820041854230049
13122387 1 18050004393988010663
13140716 1 18337397032473651131
13402501 40 16538211571257060769
14081887 123 18199457934713864448
14117953 113 18119514454065446390
14178342 30 17979061696588433336
14251757 17 17534598453350457221
14765038 42 17693408893188044953
14790565 3 18196939873151870025
14931854 50 18264773348908714407
19930381 70 18411136965507721367
20715895 44 18044073701841498205
20905425 154 17616822466589661350
21857420 4 13282298603345153324
22113638 7 18338505443305410374
2334 1 18336836384675486798
23559900 14 18341889731838612084
238 59 17905855387783006047
392239 28 18198896110305963400
463206 1 17908982454666103663
6443956 14 18410572920258317149
9709674 26 18265900335489988943

> <PUBCHEM_SHAPE_MULTIPOLES>
479.27
6.15
4.99
1.12
0.51
0.16
0.05
0.67
-0.84
-0.17
1.08
-0.34
-0.16
-0.38

> <PUBCHEM_SHAPE_SELFOVERLAP>
1034.062

> <PUBCHEM_SHAPE_VOLUME>
260.2

> <PUBCHEM_COORDINATE_TYPE>
2
5
10

$$$$
