132428
  -OEChem-03292013323D

 37 38  0     0  0  0  0  0  0999 V2000
   -5.1292    0.4069    0.6665 N   0  0  0  0  0  0  0  0  0  0  0  0
    0.2949    0.4778   -0.7186 N   0  0  0  0  0  0  0  0  0  0  0  0
    1.3500   -1.8914    0.2462 N   0  0  0  0  0  0  0  0  0  0  0  0
   -0.7482   -2.9539   -0.0915 N   0  0  0  0  0  0  0  0  0  0  0  0
    3.3973   -0.8618    0.5778 N   0  0  0  0  0  0  0  0  0  0  0  0
    3.7148    1.4533    0.0397 N   0  0  0  0  0  0  0  0  0  0  0  0
    1.9158    2.7051   -0.8419 N   0  0  0  0  0  0  0  0  0  0  0  0
    5.4745    0.1785    0.9118 N   0  0  0  0  0  0  0  0  0  0  0  0
   -2.8150   -0.1127    0.0481 C   0  0  0  0  0  0  0  0  0  0  0  0
   -1.8677   -0.5191   -1.0924 C   0  0  0  0  0  0  0  0  0  0  0  0
   -4.2541    0.0416   -0.4411 C   0  0  0  0  0  0  0  0  0  0  0  0
   -0.4528   -0.6337   -0.6388 C   0  0  0  0  0  0  0  0  0  0  0  0
    0.0693   -1.8045   -0.1619 C   0  0  0  0  0  0  0  0  0  0  0  0
    1.5753    0.3890   -0.3104 C   0  0  0  0  0  0  0  0  0  0  0  0
   -6.5156    0.5238    0.2112 C   0  0  0  0  0  0  0  0  0  0  0  0
   -4.6887    1.6612    1.2795 C   0  0  0  0  0  0  0  0  0  0  0  0
    2.1212   -0.7996    0.1785 C   0  0  0  0  0  0  0  0  0  0  0  0
    2.4280    1.4755   -0.3520 C   0  0  0  0  0  0  0  0  0  0  0  0
    4.1302    0.2639    0.4893 C   0  0  0  0  0  0  0  0  0  0  0  0
   -2.7710   -0.8557    0.8546 H   0  0  0  0  0  0  0  0  0  0  0  0
   -2.4277    0.8272    0.4574 H   0  0  0  0  0  0  0  0  0  0  0  0
   -2.2117   -1.4423   -1.5735 H   0  0  0  0  0  0  0  0  0  0  0  0
   -1.9167    0.2460   -1.8792 H   0  0  0  0  0  0  0  0  0  0  0  0
   -4.2963    0.7874   -1.2459 H   0  0  0  0  0  0  0  0  0  0  0  0
   -4.5815   -0.9148   -0.8677 H   0  0  0  0  0  0  0  0  0  0  0  0
   -6.8586   -0.4212   -0.2246 H   0  0  0  0  0  0  0  0  0  0  0  0
   -6.6397    1.3147   -0.5376 H   0  0  0  0  0  0  0  0  0  0  0  0
   -7.1818    0.7382    1.0543 H   0  0  0  0  0  0  0  0  0  0  0  0
   -4.5307    2.4570    0.5423 H   0  0  0  0  0  0  0  0  0  0  0  0
   -3.7796    1.5291    1.8739 H   0  0  0  0  0  0  0  0  0  0  0  0
   -5.4392    2.0191    1.9954 H   0  0  0  0  0  0  0  0  0  0  0  0
   -0.3076   -3.7974    0.2560 H   0  0  0  0  0  0  0  0  0  0  0  0
   -1.7363   -2.8410    0.0956 H   0  0  0  0  0  0  0  0  0  0  0  0
    2.5498    3.4942   -0.8573 H   0  0  0  0  0  0  0  0  0  0  0  0
    0.9242    2.8844   -0.7420 H   0  0  0  0  0  0  0  0  0  0  0  0
    6.0641    0.9979    0.8625 H   0  0  0  0  0  0  0  0  0  0  0  0
    5.8319   -0.7013    1.2577 H   0  0  0  0  0  0  0  0  0  0  0  0
  1 11  1  0  0  0  0
  1 15  1  0  0  0  0
  1 16  1  0  0  0  0
  2 12  1  0  0  0  0
  2 14  2  0  0  0  0
  3 13  1  0  0  0  0
  3 17  2  0  0  0  0
  4 13  1  0  0  0  0
  4 32  1  0  0  0  0
  4 33  1  0  0  0  0
  5 17  1  0  0  0  0
  5 19  2  0  0  0  0
  6 18  2  0  0  0  0
  6 19  1  0  0  0  0
  7 18  1  0  0  0  0
  7 34  1  0  0  0  0
  7 35  1  0  0  0  0
  8 19  1  0  0  0  0
  8 36  1  0  0  0  0
  8 37  1  0  0  0  0
  9 10  1  0  0  0  0
  9 11  1  0  0  0  0
  9 20  1  0  0  0  0
  9 21  1  0  0  0  0
 10 12  1  0  0  0  0
 10 22  1  0  0  0  0
 10 23  1  0  0  0  0
 11 24  1  0  0  0  0
 11 25  1  0  0  0  0
 12 13  2  0  0  0  0
 14 17  1  0  0  0  0
 14 18  1  0  0  0  0
 15 26  1  0  0  0  0
 15 27  1  0  0  0  0
 15 28  1  0  0  0  0
 16 29  1  0  0  0  0
 16 30  1  0  0  0  0
 16 31  1  0  0  0  0
M  END
> <PUBCHEM_COMPOUND_CID>
132428

> <PUBCHEM_CONFORMER_RMSD>
0.6

> <PUBCHEM_CONFORMER_DIVERSEORDER>
1
8
22
14
18
13
23
21
9
7
6
3
19
5
4
15
2
11
16
12
20
24
25
10
17

> <PUBCHEM_MMFF94_PARTIAL_CHARGES>
24
1 -0.81
10 0.14
11 0.27
12 0.17
13 0.41
14 0.31
15 0.27
16 0.27
17 0.62
18 0.41
19 0.72
2 -0.62
3 -0.62
32 0.4
33 0.4
34 0.4
35 0.4
36 0.4
37 0.4
4 -0.9
5 -0.62
6 -0.62
7 -0.9
8 -0.9

> <PUBCHEM_EFFECTIVE_ROTOR_COUNT>
4

> <PUBCHEM_PHARMACOPHORE_FEATURES>
9
1 1 cation
1 2 acceptor
1 4 cation
1 4 donor
1 7 donor
1 8 donor
4 5 6 8 19 cation
6 2 3 12 13 14 17 rings
6 5 6 14 17 18 19 rings

> <PUBCHEM_HEAVY_ATOM_COUNT>
19

> <PUBCHEM_ATOM_DEF_STEREO_COUNT>
0

> <PUBCHEM_ATOM_UDEF_STEREO_COUNT>
0

> <PUBCHEM_BOND_DEF_STEREO_COUNT>
0

> <PUBCHEM_BOND_UDEF_STEREO_COUNT>
0

> <PUBCHEM_ISOTOPIC_ATOM_COUNT>
0

> <PUBCHEM_COMPONENT_COUNT>
1

> <PUBCHEM_CACTVS_TAUTO_COUNT>
66

> <PUBCHEM_CONFORMER_ID>
0002054C00000001

> <PUBCHEM_MMFF94_ENERGY>
69.136

> <PUBCHEM_FEATURE_SELFOVERLAP>
45.714

> <PUBCHEM_SHAPE_FINGERPRINT>
10354089 29 18409168805017350161
10465860 228 18342745065847999799
10498660 4 15841000940853847177
10688039 33 17603864464448363933
11045977 3 17749396979131178179
11724838 91 18342455972195340031
12236239 1 17988918960234287799
12251169 10 18260826016207616583
12390115 104 17974867360318650092
12633257 1 17748826336638089713
12644460 14 18114173108303642234
13140716 1 18189611829646115594
13464513 79 11314027972097952576
13540713 5 17973995443624187462
13583140 156 16516505781717022007
15188451 53 16516260651571137835
15209294 21 18273209794275509913
15295992 7 18128814320839253073
15342816 4 8142091978362163785
15475509 35 16443617979085769354
15475509 8 18270701778963476284
16945 1 18116692150004825214
18222031 100 10737283554152258950
19784866 9 18412825768080660153
20157964 124 18339078169706879021
20739085 24 18264214603944513862
21267235 1 18187640247043476850
21501502 16 17973436895891048678
21503847 285 18271253707450280975
21524375 3 18272088318538481719
21637258 2 14273724158287173688
221357 26 10735878336281571091
23184049 59 18260829314816268621
23402539 116 17703782647872235533
23557571 272 15553873511939854655
25147074 1 18116991298513509246
26918003 58 17821450158201246849
2748010 2 17974828598481182502
2838139 119 15912177941789096000
2916195 48 17560509698593393985
3004659 81 7997964657684282449
33382 64 14924493149312493824
335352 9 18410009949299447566
351380 3 11458426843191165577
42630746 31 18412545388289338167
474 4 18410858759190598371
5104073 3 18116982489830770272
633830 44 18272092690778285671
7832392 63 18265608961077540182
8272917 22 18341335487815204239
960060 61 10231750094055193395
9999458 23 17894914044395421646

> <PUBCHEM_SHAPE_MULTIPOLES>
351.16
11.73
2.18
0.94
12.45
0.4
0.02
-5.23
3.99
-0.72
-0.12
0.26
-0.21
-1.06

> <PUBCHEM_SHAPE_SELFOVERLAP>
740.15

> <PUBCHEM_SHAPE_VOLUME>
190

> <PUBCHEM_COORDINATE_TYPE>
2
5
10

$$$$
