REMARK  Name = 132427643
REMARK  10 active torsions:
REMARK  status: ('A' for Active; 'I' for Inactive)
REMARK    1  A    between atoms: N_3  and  C_20
REMARK    2  A    between atoms: C_20  and  C_21
REMARK    3  A    between atoms: C_21  and  O_22
REMARK    4  A    between atoms: C_21  and  C_24
REMARK    5  A    between atoms: C_24  and  O_25
REMARK    6  A    between atoms: C_24  and  C_30
REMARK    7  A    between atoms: O_25  and  S_26
REMARK    8  A    between atoms: C_30  and  O_31
REMARK    9  A    between atoms: C_30  and  C_33
REMARK   10  A    between atoms: C_33  and  O_34
REMARK                            x       y       z     vdW  Elec       q    Type
REMARK                         _______ _______ _______ _____ _____    ______ ____
ROOT
ATOM      1  O   UNL     1      -1.263   4.340  -1.185  0.00  0.00    -0.266 OA
ATOM      2  O   UNL     1       2.372   3.542   1.512  0.00  0.00    -0.193 OA
ATOM      3  N   UNL     1      -0.756   0.111   1.101  0.00  0.00    -0.270 N 
ATOM      4  N   UNL     1      -2.171   1.864  -0.617  0.00  0.00    -0.396 NA
ATOM      5  N   UNL     1       0.848   1.864   1.316  0.00  0.00    -0.303 NA
ATOM      6  N   UNL     1       0.585   3.957   0.178  0.00  0.00    -0.196 N 
ATOM      7  C   UNL     1      -1.972  -0.312   0.519  0.00  0.00    +0.150 C 
ATOM      8  C   UNL     1      -0.258   1.380   0.832  0.00  0.00    +0.232 C 
ATOM      9  C   UNL     1      -2.657   0.578  -0.332  0.00  0.00    +0.131 C 
ATOM     10  C   UNL     1      -2.542  -1.580   0.743  0.00  0.00    -0.004 C 
ATOM     11  C   UNL     1      -1.058   2.260  -0.088  0.00  0.00    +0.230 C 
ATOM     12  C   UNL     1      -3.748  -1.951   0.142  0.00  0.00    -0.028 C 
ATOM     13  C   UNL     1      -3.867   0.195  -0.930  0.00  0.00    +0.025 C 
ATOM     14  C   UNL     1      -4.411  -1.064  -0.695  0.00  0.00    -0.024 C 
ATOM     15  C   UNL     1      -0.604   3.639  -0.436  0.00  0.00    +0.293 C 
ATOM     16  C   UNL     1      -4.305  -3.310   0.416  0.00  0.00    +0.030 C 
ATOM     17  C   UNL     1      -5.700  -1.435  -1.349  0.00  0.00    +0.031 C 
ATOM     18  C   UNL     1       1.316   3.128   1.030  0.00  0.00    +0.273 C 
ATOM     19  H   UNL     1       0.954   4.852   0.001  0.00  0.00    +0.169 HD
ENDROOT
BRANCH   3  20
ATOM     20  C   UNL     1      -0.053  -0.820   1.983  0.00  0.00    +0.126 C 
BRANCH  20  21
ATOM     21  C   UNL     1       0.655  -1.897   1.152  0.00  0.00    +0.162 C 
BRANCH  21  22
ATOM     22  O   UNL     1       0.895  -3.030   1.987  0.00  0.00    -0.380 OA
ATOM     23  H   UNL     1       1.343  -3.721   1.474  0.00  0.00    +0.211 HD
ENDBRANCH  21  22
BRANCH  21  24
ATOM     24  C   UNL     1       1.992  -1.407   0.562  0.00  0.00    +0.205 C 
BRANCH  24  25
ATOM     25  O   UNL     1       1.742  -0.594  -0.584  0.00  0.00    -0.198 OA
BRANCH  25  26
ATOM     26  S   UNL     1       2.893   0.437  -1.108  0.00  0.00    +0.239 S 
ATOM     27  O   UNL     1       2.045   1.605  -1.867  0.00  0.00    -0.116 OA
ATOM     28  O   UNL     1       3.506   1.034   0.065  0.00  0.00    -0.022 OA
ATOM     29  O   UNL     1       3.715  -0.234  -2.098  0.00  0.00    -0.116 OA
ENDBRANCH  25  26
ENDBRANCH  24  25
BRANCH  24  30
ATOM     30  C   UNL     1       2.928  -2.560   0.152  0.00  0.00    +0.172 C 
BRANCH  30  31
ATOM     31  O   UNL     1       4.263  -2.061   0.043  0.00  0.00    -0.379 OA
ATOM     32  H   UNL     1       4.529  -1.662   0.885  0.00  0.00    +0.211 HD
ENDBRANCH  30  31
BRANCH  30  33
ATOM     33  C   UNL     1       2.532  -3.183  -1.185  0.00  0.00    +0.169 C 
BRANCH  33  34
ATOM     34  O   UNL     1       3.080  -4.496  -1.259  0.00  0.00    -0.379 OA
ATOM     35  H   UNL     1       2.834  -4.901  -2.106  0.00  0.00    +0.211 HD
ENDBRANCH  33  34
ENDBRANCH  30  33
ENDBRANCH  24  30
ENDBRANCH  21  24
ENDBRANCH  20  21
ENDBRANCH   3  20
TORSDOF 10
