REMARK  Name = 132427624
REMARK  2 active torsions:
REMARK  status: ('A' for Active; 'I' for Inactive)
REMARK    1  A    between atoms: C_23  and  C_29
REMARK    2  A    between atoms: C_29  and  C_30
REMARK                            x       y       z     vdW  Elec       q    Type
REMARK                         _______ _______ _______ _____ _____    ______ ____
ROOT
ATOM      1  S   UNL     1      -3.075   2.818  -0.415  0.00  0.00    +0.053 S 
ATOM      2  O   UNL     1      -3.022  -3.203  -0.073  0.00  0.00    -0.273 OA
ATOM      3  O   UNL     1       0.651  -1.213  -2.510  0.00  0.00    -0.273 OA
ATOM      4  O   UNL     1       1.115  -0.006   2.815  0.00  0.00    -0.273 OA
ATOM      5  O   UNL     1      -4.279   3.565   0.079  0.00  0.00    -0.255 OA
ATOM      6  O   UNL     1       0.054   2.961  -1.054  0.00  0.00    -0.274 OA
ATOM      7  N   UNL     1      -4.080  -1.157  -0.149  0.00  0.00    -0.279 N 
ATOM      8  N   UNL     1       1.480  -1.381   1.002  0.00  0.00    -0.272 N 
ATOM      9  N   UNL     1      -0.700  -1.660  -0.686  0.00  0.00    -0.295 N 
ATOM     10  N   UNL     1       0.204   1.888   1.001  0.00  0.00    -0.297 N 
ATOM     11  C   UNL     1      -4.197   0.278  -0.475  0.00  0.00    +0.089 C 
ATOM     12  C   UNL     1      -5.632   0.646  -0.045  0.00  0.00    +0.023 C 
ATOM     13  C   UNL     1       1.738  -1.667  -0.416  0.00  0.00    +0.152 C 
ATOM     14  C   UNL     1      -6.362  -0.688   0.010  0.00  0.00    +0.023 C 
ATOM     15  C   UNL     1      -5.286  -1.631   0.512  0.00  0.00    +0.093 C 
ATOM     16  C   UNL     1       2.115  -3.156  -0.450  0.00  0.00    +0.031 C 
ATOM     17  C   UNL     1       2.526  -3.473   0.981  0.00  0.00    +0.024 C 
ATOM     18  C   UNL     1       1.604  -2.591   1.802  0.00  0.00    +0.094 C 
ATOM     19  C   UNL     1      -3.157   1.126   0.267  0.00  0.00    +0.112 C 
ATOM     20  C   UNL     1      -3.063  -2.037  -0.481  0.00  0.00    +0.246 C 
ATOM     21  C   UNL     1       0.517  -1.440  -1.307  0.00  0.00    +0.241 C 
ATOM     22  C   UNL     1       1.309  -0.141   1.602  0.00  0.00    +0.244 C 
ATOM     23  C   UNL     1       1.380   1.086   0.698  0.00  0.00    +0.153 C 
ATOM     24  C   UNL     1      -1.959  -1.532  -1.389  0.00  0.00    +0.176 C 
ATOM     25  C   UNL     1      -1.653   3.371   0.580  0.00  0.00    +0.176 C 
ATOM     26  C   UNL     1      -0.376   2.742   0.077  0.00  0.00    +0.236 C 
ATOM     27  H   UNL     1      -0.710  -1.911   0.266  0.00  0.00    +0.150 HD
ATOM     28  H   UNL     1      -0.195   1.821   1.899  0.00  0.00    +0.150 HD
ENDROOT
BRANCH  23  29
ATOM     29  C   UNL     1       2.662   1.858   0.978  0.00  0.00    +0.055 C 
BRANCH  29  30
ATOM     30  C   UNL     1       3.832   1.295   0.215  0.00  0.00    -0.020 C 
ATOM     31  C   UNL     1       4.618   0.293   0.784  0.00  0.00    -0.004 C 
ATOM     32  C   UNL     1       4.128   1.774  -1.061  0.00  0.00    -0.004 C 
ATOM     33  C   UNL     1       5.702  -0.229   0.077  0.00  0.00    -0.000 C 
ATOM     34  C   UNL     1       5.212   1.252  -1.768  0.00  0.00    -0.000 C 
ATOM     35  C   UNL     1       5.998   0.251  -1.199  0.00  0.00    -0.000 C 
ENDBRANCH  29  30
ENDBRANCH  23  29
TORSDOF 2
