REMARK  Name = 132427331
REMARK  5 active torsions:
REMARK  status: ('A' for Active; 'I' for Inactive)
REMARK    1  A    between atoms: C_1  and  C_13
REMARK    2  A    between atoms: C_2  and  O_16
REMARK    3  A    between atoms: C_3  and  O_18
REMARK    4  A    between atoms: C_4  and  O_20
REMARK    5  A    between atoms: S_8  and  C_14
REMARK                            x       y       z     vdW  Elec       q    Type
REMARK                         _______ _______ _______ _____ _____    ______ ____
ROOT
ATOM      1  C   UNL     1       0.188  -0.215   0.076  0.00  0.00    +0.031 C 
ATOM      2  C   UNL     1       2.949   0.182   0.161  0.00  0.00    +0.206 C 
ATOM      3  C   UNL     1       2.433  -1.110   0.054  0.00  0.00    +0.176 C 
ATOM      4  C   UNL     1       2.084   1.275   0.225  0.00  0.00    +0.176 C 
ATOM      5  C   UNL     1       1.053  -1.308   0.012  0.00  0.00    +0.042 C 
ATOM      6  C   UNL     1       0.704   1.077   0.183  0.00  0.00    +0.042 C 
ENDROOT
BRANCH   1  10
ATOM      7  S   UNL     1      -2.282   0.929  -0.416  0.00  0.00    -0.049 S 
ATOM      8  N   UNL     1      -1.855  -1.538   0.300  0.00  0.00    -0.177 NA
ATOM      9  N   UNL     1      -3.200  -1.374   0.161  0.00  0.00    -0.229 N 
ATOM     10  C   UNL     1      -1.250  -0.423   0.033  0.00  0.00    +0.127 C 
ATOM     11  C   UNL     1      -3.602  -0.133  -0.213  0.00  0.00    +0.268 C 
ATOM     12  H   UNL     1      -3.838  -2.107   0.320  0.00  0.00    +0.171 HD
BRANCH  11  13
ATOM     13  S   UNL     1      -5.286   0.093  -0.393  0.00  0.00    +0.011 S 
ATOM     14  O   UNL     1      -5.446   1.488  -0.793  0.00  0.00    -0.076 OA
ATOM     15  O   UNL     1      -5.872  -0.370   0.862  0.00  0.00    -0.076 OA
ENDBRANCH  11  13
ENDBRANCH   1  10
BRANCH   2  16
ATOM     16  O   UNL     1       4.297   0.376   0.204  0.00  0.00    -0.465 OA
ATOM     17  C   UNL     1       4.964   0.564  -1.042  0.00  0.00    +0.253 C 
ENDBRANCH   2  16
BRANCH   3  18
ATOM     18  O   UNL     1       3.266  -2.186  -0.011  0.00  0.00    -0.468 OA
ATOM     19  C   UNL     1       2.656  -3.471  -0.119  0.00  0.00    +0.253 C 
ENDBRANCH   3  18
BRANCH   4  20
ATOM     20  O   UNL     1       2.575   2.542   0.329  0.00  0.00    -0.468 OA
ATOM     21  C   UNL     1       1.624   3.602   0.389  0.00  0.00    +0.253 C 
ENDBRANCH   4  20
TORSDOF 5
