REMARK  Name = 132489980
REMARK  9 active torsions:
REMARK  status: ('A' for Active; 'I' for Inactive)
REMARK    1  A    between atoms: C_5  and  C_19
REMARK    2  A    between atoms: C_11  and  O_30
REMARK    3  A    between atoms: C_13  and  O_32
REMARK    4  A    between atoms: C_15  and  O_34
REMARK    5  A    between atoms: N_18  and  CA_21
REMARK    6  A    between atoms: CA_21  and  C_23
REMARK    7  A    between atoms: CA_21  and  CB_26
REMARK    8  A    between atoms: C_23  and  O_24
REMARK    9  A    between atoms: CB_26  and  CG1_28
REMARK                            x       y       z     vdW  Elec       q    Type
REMARK                         _______ _______ _______ _____ _____    ______ ____
ROOT
ATOM      1  O   UNL     1      -1.236  -2.293  -0.350  0.00  0.00    -0.287 OA
ATOM      2  O   UNL     1      -3.468   2.536   0.158  0.00  0.00    -0.286 OA
ATOM      3  C   UNL     1      -0.919   0.035  -0.318  0.00  0.00    +0.045 C 
ATOM      4  C   UNL     1      -1.503   1.296  -0.186  0.00  0.00    +0.076 C 
ATOM      5  C   UNL     1       1.248   1.069  -0.614  0.00  0.00    +0.056 C 
ATOM      6  C   UNL     1       0.459  -0.078  -0.533  0.00  0.00    +0.008 C 
ATOM      7  C   UNL     1      -3.784   0.209   0.125  0.00  0.00    +0.076 C 
ATOM      8  C   UNL     1      -3.201  -1.053  -0.007  0.00  0.00    +0.048 C 
ATOM      9  C   UNL     1      -1.747  -1.186  -0.233  0.00  0.00    +0.196 C 
ATOM     10  C   UNL     1      -2.957   1.430   0.041  0.00  0.00    +0.202 C 
ATOM     11  C   UNL     1      -0.708   2.446  -0.269  0.00  0.00    +0.137 C 
ATOM     12  C   UNL     1       0.666   2.329  -0.482  0.00  0.00    +0.041 C 
ATOM     13  C   UNL     1      -5.163   0.322   0.338  0.00  0.00    +0.140 C 
ATOM     14  C   UNL     1      -3.996  -2.202   0.075  0.00  0.00    +0.040 C 
ATOM     15  C   UNL     1      -5.370  -2.085   0.288  0.00  0.00    +0.137 C 
ATOM     16  C   UNL     1      -5.952  -0.826   0.419  0.00  0.00    +0.073 C 
ENDROOT
BRANCH   5  19
ATOM     17  O   UNL     1       3.314   1.877  -1.374  0.00  0.00    -0.270 OA
ATOM     18  N   UNL     1       3.297  -0.226  -0.397  0.00  0.00    -0.293 N 
ATOM     19  C   ACE A   0       2.681   0.952  -0.836  0.00  0.00    +0.246 C 
ATOM     20  H   UNL     1       2.735  -0.917   0.021  0.00  0.00    +0.150 HD
BRANCH  18  21
ATOM     21  CA  UNL     1       4.714  -0.481  -0.523  0.00  0.00    +0.171 C 
BRANCH  21  23
ATOM     22  OXT UNL     1       6.114  -2.379  -1.071  0.00  0.00    -0.248 OA
ATOM     23  C   UNL     1       4.994  -1.949  -0.818  0.00  0.00    +0.332 C 
BRANCH  23  24
ATOM     24  O   UNL     1       3.901  -2.749  -0.788  0.00  0.00    -0.479 OA
ATOM     25  H   UNL     1       3.060  -2.387  -0.591  0.00  0.00    +0.295 HD
ENDBRANCH  23  24
ENDBRANCH  21  23
BRANCH  21  26
ATOM     26  CB  UNL     1       5.526   0.018   0.697  0.00  0.00    +0.029 C 
ATOM     27  CG2 UNL     1       5.708   1.542   0.699  0.00  0.00    +0.002 C 
BRANCH  26  28
ATOM     28  CG1 UNL     1       4.877  -0.482   2.006  0.00  0.00    +0.002 C 
ATOM     29  CD1 UNL     1       5.653  -0.095   3.258  0.00  0.00    +0.000 C 
ENDBRANCH  26  28
ENDBRANCH  21  26
ENDBRANCH  18  21
ENDBRANCH   5  19
BRANCH  11  30
ATOM     30  O   UNL     1      -1.211   3.707  -0.150  0.00  0.00    -0.505 OA
ATOM     31  H   UNL     1      -2.128   3.834  -0.005  0.00  0.00    +0.292 HD
ENDBRANCH  11  30
BRANCH  13  32
ATOM     32  O   UNL     1      -5.798   1.520   0.475  0.00  0.00    -0.505 OA
ATOM     33  H   UNL     1      -5.309   2.318   0.428  0.00  0.00    +0.292 HD
ENDBRANCH  13  32
BRANCH  15  34
ATOM     34  O   UNL     1      -6.142  -3.204   0.368  0.00  0.00    -0.505 OA
ATOM     35  H   UNL     1      -5.751  -4.050   0.280  0.00  0.00    +0.292 HD
ENDBRANCH  15  34
TORSDOF 9
