132499713
  -OEChem-03292013293D

 56 56  0     1  0  0  0  0  0999 V2000
   -0.5010   -1.0152    0.9178 O   0  0  0  0  0  0  0  0  0  0  0  0
    4.5958    0.4120   -1.1146 O   0  0  0  0  0  0  0  0  0  0  0  0
    1.6415    3.4432   -0.6305 O   0  0  0  0  0  0  0  0  0  0  0  0
    3.4730    1.4751    1.7922 O   0  0  0  0  0  0  0  0  0  0  0  0
   -3.6698    2.4639   -0.8609 O   0  0  0  0  0  0  0  0  0  0  0  0
   -0.4649   -1.4612    3.1895 O   0  0  0  0  0  0  0  0  0  0  0  0
   -1.4579   -2.0538    0.6404 C   0  0  2  0  0  0  0  0  0  0  0  0
   -1.1973   -2.5923   -0.7757 C   0  0  0  0  0  0  0  0  0  0  0  0
    0.0893   -3.4243   -0.9089 C   0  0  0  0  0  0  0  0  0  0  0  0
    1.4191   -2.6592   -0.8883 C   0  0  0  0  0  0  0  0  0  0  0  0
    1.6128   -1.7389   -2.0972 C   0  0  0  0  0  0  0  0  0  0  0  0
    2.9908   -1.0638   -2.1253 C   0  0  0  0  0  0  0  0  0  0  0  0
    3.2243    0.0153   -1.0544 C   0  0  2  0  0  0  0  0  0  0  0  0
   -2.8539   -1.4486    0.7431 C   0  0  0  0  0  0  0  0  0  0  0  0
    2.3392    1.2507   -1.2576 C   0  0  0  0  0  0  0  0  0  0  0  0
   -3.0437   -0.3150   -0.2631 C   0  0  0  0  0  0  0  0  0  0  0  0
    2.5411    2.3968   -0.2447 C   0  0  2  0  0  0  0  0  0  0  0  0
   -4.4346    0.3070   -0.1342 C   0  0  0  0  0  0  0  0  0  0  0  0
    2.2932    2.0590    1.2434 C   0  0  1  0  0  0  0  0  0  0  0  0
   -4.6731    1.4755   -1.0963 C   0  0  1  0  0  0  0  0  0  0  0  0
    1.1029    1.1544    1.4500 C   0  0  0  0  0  0  0  0  0  0  0  0
   -0.0717   -0.8651    2.1989 C   0  0  0  0  0  0  0  0  0  0  0  0
    1.0838    0.0540    2.2159 C   0  0  0  0  0  0  0  0  0  0  0  0
   -6.0389    2.1303   -0.9393 C   0  0  0  0  0  0  0  0  0  0  0  0
   -1.3573   -2.8732    1.3628 H   0  0  0  0  0  0  0  0  0  0  0  0
   -1.1475   -1.7800   -1.5061 H   0  0  0  0  0  0  0  0  0  0  0  0
   -2.0360   -3.2388   -1.0635 H   0  0  0  0  0  0  0  0  0  0  0  0
    0.0339   -3.9855   -1.8506 H   0  0  0  0  0  0  0  0  0  0  0  0
    0.1074   -4.1760   -0.1099 H   0  0  0  0  0  0  0  0  0  0  0  0
    2.2284   -3.4009   -0.8868 H   0  0  0  0  0  0  0  0  0  0  0  0
    1.5237   -2.1027    0.0444 H   0  0  0  0  0  0  0  0  0  0  0  0
    1.5142   -2.3401   -3.0101 H   0  0  0  0  0  0  0  0  0  0  0  0
    0.8234   -0.9841   -2.1408 H   0  0  0  0  0  0  0  0  0  0  0  0
    3.7702   -1.8326   -2.0420 H   0  0  0  0  0  0  0  0  0  0  0  0
    3.1422   -0.6131   -3.1152 H   0  0  0  0  0  0  0  0  0  0  0  0
    3.0616   -0.4137   -0.0628 H   0  0  0  0  0  0  0  0  0  0  0  0
   -3.0061   -1.0536    1.7550 H   0  0  0  0  0  0  0  0  0  0  0  0
   -3.6104   -2.2254    0.5797 H   0  0  0  0  0  0  0  0  0  0  0  0
    2.5416    1.6625   -2.2567 H   0  0  0  0  0  0  0  0  0  0  0  0
    1.2799    0.9715   -1.2784 H   0  0  0  0  0  0  0  0  0  0  0  0
   -2.9435   -0.6793   -1.2903 H   0  0  0  0  0  0  0  0  0  0  0  0
   -2.2796    0.4553   -0.1114 H   0  0  0  0  0  0  0  0  0  0  0  0
    3.5563    2.7967   -0.3568 H   0  0  0  0  0  0  0  0  0  0  0  0
   -4.5558    0.6671    0.8958 H   0  0  0  0  0  0  0  0  0  0  0  0
   -5.1999   -0.4610   -0.3001 H   0  0  0  0  0  0  0  0  0  0  0  0
    2.0993    2.9862    1.7966 H   0  0  0  0  0  0  0  0  0  0  0  0
   -4.5554    1.1241   -2.1279 H   0  0  0  0  0  0  0  0  0  0  0  0
    5.1375   -0.3741   -0.9300 H   0  0  0  0  0  0  0  0  0  0  0  0
    0.2118    1.4214    0.8844 H   0  0  0  0  0  0  0  0  0  0  0  0
    1.8737    3.7137   -1.5352 H   0  0  0  0  0  0  0  0  0  0  0  0
    1.9191   -0.2333    2.8439 H   0  0  0  0  0  0  0  0  0  0  0  0
   -6.1559    2.5526    0.0647 H   0  0  0  0  0  0  0  0  0  0  0  0
   -6.8441    1.4104   -1.1136 H   0  0  0  0  0  0  0  0  0  0  0  0
   -6.1525    2.9595   -1.6458 H   0  0  0  0  0  0  0  0  0  0  0  0
    4.1887    2.1286    1.7139 H   0  0  0  0  0  0  0  0  0  0  0  0
   -3.8033    3.1776   -1.5077 H   0  0  0  0  0  0  0  0  0  0  0  0
  1  7  1  0  0  0  0
  1 22  1  0  0  0  0
  2 13  1  0  0  0  0
  2 48  1  0  0  0  0
  3 17  1  0  0  0  0
  3 50  1  0  0  0  0
  4 19  1  0  0  0  0
  4 55  1  0  0  0  0
  5 20  1  0  0  0  0
  5 56  1  0  0  0  0
  6 22  2  0  0  0  0
  7  8  1  0  0  0  0
  7 14  1  0  0  0  0
  7 25  1  0  0  0  0
  8  9  1  0  0  0  0
  8 26  1  0  0  0  0
  8 27  1  0  0  0  0
  9 10  1  0  0  0  0
  9 28  1  0  0  0  0
  9 29  1  0  0  0  0
 10 11  1  0  0  0  0
 10 30  1  0  0  0  0
 10 31  1  0  0  0  0
 11 12  1  0  0  0  0
 11 32  1  0  0  0  0
 11 33  1  0  0  0  0
 12 13  1  0  0  0  0
 12 34  1  0  0  0  0
 12 35  1  0  0  0  0
 13 15  1  0  0  0  0
 13 36  1  0  0  0  0
 14 16  1  0  0  0  0
 14 37  1  0  0  0  0
 14 38  1  0  0  0  0
 15 17  1  0  0  0  0
 15 39  1  0  0  0  0
 15 40  1  0  0  0  0
 16 18  1  0  0  0  0
 16 41  1  0  0  0  0
 16 42  1  0  0  0  0
 17 19  1  0  0  0  0
 17 43  1  0  0  0  0
 18 20  1  0  0  0  0
 18 44  1  0  0  0  0
 18 45  1  0  0  0  0
 19 21  1  0  0  0  0
 19 46  1  0  0  0  0
 20 24  1  0  0  0  0
 20 47  1  0  0  0  0
 21 23  2  0  0  0  0
 21 49  1  0  0  0  0
 22 23  1  0  0  0  0
 23 51  1  0  0  0  0
 24 52  1  0  0  0  0
 24 53  1  0  0  0  0
 24 54  1  0  0  0  0
M  END
> <PUBCHEM_COMPOUND_CID>
132499713

> <PUBCHEM_CONFORMER_RMSD>
0.8

> <PUBCHEM_CONFORMER_DIVERSEORDER>
2
117
28
120
24
71
43
111
107
114
21
112
127
125
31
76
40
18
134
27
79
22
42
69
121
57
93
141
94
119
14
5
29
137
36
48
90
50
38
74
44
132
54
135
26
46
64
52
58
82
4
105
138
33
39
89
70
25
140
7
108
109
84
6
41
77
87
122
20
106
61
123
34
118
83
131
3
130
95
47
23
133
35
78
99
13
12
59
63
81
115
45
143
91
139
116
1
86
142
113
60
85
110
88
17
103
62
100
136
80
67
53
66
56
37
98
49
11
8
128
97
9
92
101
124
55
10
104
68
126
129
65
30
96
16
72
73
102
75
51
15
32
19

> <PUBCHEM_MMFF94_PARTIAL_CHARGES>
20
1 -0.43
13 0.28
17 0.28
19 0.42
2 -0.68
20 0.28
21 -0.29
22 0.71
23 -0.14
3 -0.68
4 -0.68
48 0.4
49 0.15
5 -0.68
50 0.4
51 0.15
55 0.4
56 0.4
6 -0.57
7 0.28

> <PUBCHEM_EFFECTIVE_ROTOR_COUNT>
6.2

> <PUBCHEM_PHARMACOPHORE_FEATURES>
9
1 2 acceptor
1 2 donor
1 3 acceptor
1 3 donor
1 4 acceptor
1 4 donor
1 5 acceptor
1 5 donor
1 6 acceptor

> <PUBCHEM_HEAVY_ATOM_COUNT>
24

> <PUBCHEM_ATOM_DEF_STEREO_COUNT>
4

> <PUBCHEM_ATOM_UDEF_STEREO_COUNT>
1

> <PUBCHEM_BOND_DEF_STEREO_COUNT>
1

> <PUBCHEM_BOND_UDEF_STEREO_COUNT>
0

> <PUBCHEM_ISOTOPIC_ATOM_COUNT>
0

> <PUBCHEM_COMPONENT_COUNT>
1

> <PUBCHEM_CACTVS_TAUTO_COUNT>
1

> <PUBCHEM_CONFORMER_ID>
07E5C90100000002

> <PUBCHEM_MMFF94_ENERGY>
44.0449

> <PUBCHEM_FEATURE_SELFOVERLAP>
45.676

> <PUBCHEM_SHAPE_FINGERPRINT>
10382601 240 12829767500902292878
11370993 70 18129663135373628382
12104220 4 17022918855675729149
12156800 1 11308056593494317738
12769317 202 18342461391858804343
13083527 12 13901901198614838674
13402501 40 18337397049780309797
14251757 17 18340780255812226413
14468879 13 18192439786200455891
15210252 30 17182784264651761597
15322687 12 18271806783463812535
17093844 170 18413105035397318460
17921350 177 18115006568029462292
20567600 9 18194964046445802429
20600515 1 16167748089256789813
20626108 58 13039178204716246281
21315764 21 18341626905276883340
21421861 104 8790304717018056367
21857420 4 17116606875873904813
238 59 17918275367808275639
312425 83 18122632914087414164
339767 52 12463573967665889145
469060 322 16321766119388158666
513532 50 18200014163032943773
54672768 99 18411422833903699429
9925002 15 16904414308382436203

> <PUBCHEM_SHAPE_MULTIPOLES>
458.69
8.58
3.88
2.48
11.68
0.39
1.55
-7.08
-4.86
-0.41
-1.14
-1.23
0.41
2.36

> <PUBCHEM_SHAPE_SELFOVERLAP>
891.924

> <PUBCHEM_SHAPE_VOLUME>
274.3

> <PUBCHEM_COORDINATE_TYPE>
2
5
10

$$$$
