REMARK  Name = 132427
REMARK  3 active torsions:
REMARK  status: ('A' for Active; 'I' for Inactive)
REMARK    1  A    between atoms: C_7  and  C_20
REMARK    2  A    between atoms: C_20  and  C_21
REMARK    3  A    between atoms: C_21  and  N_22
REMARK                            x       y       z     vdW  Elec       q    Type
REMARK                         _______ _______ _______ _____ _____    ______ ____
ROOT
ATOM      1  N   UNL     1      -0.027   0.756  -0.487  0.00  0.00    -0.386 NA
ATOM      2  N   UNL     1       0.762  -1.835   0.080  0.00  0.00    -0.320 NA
ATOM      3  N   UNL     1       2.950  -1.126   0.345  0.00  0.00    -0.259 NA
ATOM      4  N   UNL     1       3.542   1.181   0.067  0.00  0.00    -0.310 NA
ATOM      5  N   UNL     1       1.871   2.757  -0.486  0.00  0.00    -0.329 N 
ATOM      6  N   UNL     1       5.170  -0.411   0.612  0.00  0.00    -0.283 N 
ATOM      7  C   UNL     1      -0.912  -0.252  -0.476  0.00  0.00    +0.152 C 
ATOM      8  C   UNL     1      -0.521  -1.533  -0.195  0.00  0.00    +0.215 C 
ATOM      9  C   UNL     1       1.256   0.452  -0.212  0.00  0.00    +0.260 C 
ATOM     10  C   UNL     1       1.669  -0.850   0.075  0.00  0.00    +0.186 C 
ATOM     11  C   UNL     1       2.245   1.418  -0.199  0.00  0.00    +0.232 C 
ATOM     12  C   UNL     1       3.822  -0.101   0.328  0.00  0.00    +0.208 C 
ATOM     13  H   UNL     1       2.551   3.469  -0.485  0.00  0.00    +0.145 HD
ATOM     14  H   UNL     1       0.932   2.973  -0.686  0.00  0.00    +0.145 HD
ATOM     15  H   UNL     1       5.430  -1.340   0.810  0.00  0.00    +0.156 HD
ATOM     16  H   UNL     1       5.850   0.301   0.610  0.00  0.00    +0.156 HD
ATOM     17  N   UNL     1      -1.482  -2.568  -0.191  0.00  0.00    -0.330 N 
ATOM     18  H   UNL     1      -1.208  -3.493   0.010  0.00  0.00    +0.145 HD
ATOM     19  H   UNL     1      -2.425  -2.366  -0.389  0.00  0.00    +0.145 HD
ENDROOT
BRANCH   7  20
ATOM     20  C   UNL     1      -2.328   0.100  -0.780  0.00  0.00    +0.040 C 
BRANCH  20  21
ATOM     21  C   UNL     1      -3.118   0.466   0.485  0.00  0.00    -0.070 C 
BRANCH  21  22
ATOM     22  N   UNL     1      -4.508   0.784   0.177  0.00  0.00    +0.384 N 
ATOM     23  C   UNL     1      -5.251   1.085   1.401  0.00  0.00    -0.101 C 
ATOM     24  C   UNL     1      -5.141  -0.323  -0.542  0.00  0.00    -0.101 C 
ATOM     25  H   UNL     1      -4.522   1.609  -0.422  0.00  0.00    -0.080 HD
ENDBRANCH  21  22
ENDBRANCH  20  21
ENDBRANCH   7  20
TORSDOF 3
