REMARK  Name = 132487404
REMARK  4 active torsions:
REMARK  status: ('A' for Active; 'I' for Inactive)
REMARK    1  A    between atoms: C_9  and  O_22
REMARK    2  A    between atoms: C_10  and  O_24
REMARK    3  A    between atoms: C_14  and  O_26
REMARK    4  A    between atoms: C_16  and  O_28
REMARK                            x       y       z     vdW  Elec       q    Type
REMARK                         _______ _______ _______ _____ _____    ______ ____
ROOT
ATOM      1  O   UNL     1      -0.852  -2.673  -0.001  0.00  0.00    -0.286 OA
ATOM      2  O   UNL     1      -1.164   2.659   0.001  0.00  0.00    -0.286 OA
ATOM      3  C   UNL     1       0.329  -0.619   0.001  0.00  0.00    +0.079 A 
ATOM      4  C   UNL     1       0.239   0.771   0.001  0.00  0.00    +0.079 A 
ATOM      5  C   UNL     1      -2.212  -0.784   0.000  0.00  0.00    +0.045 C 
ATOM      6  C   UNL     1      -2.302   0.609   0.000  0.00  0.00    +0.076 C 
ATOM      7  C   UNL     1       2.762  -0.473   0.000  0.00  0.00    +0.070 A 
ATOM      8  C   UNL     1       2.671   0.938   0.000  0.00  0.00    +0.040 A 
ATOM      9  C   UNL     1       1.585  -1.239   0.001  0.00  0.00    +0.140 A 
ATOM     10  C   UNL     1       1.405   1.547   0.001  0.00  0.00    +0.137 A 
ATOM     11  C   UNL     1      -0.894  -1.450   0.001  0.00  0.00    +0.199 C 
ATOM     12  C   UNL     1      -1.080   1.438   0.001  0.00  0.00    +0.202 C 
ATOM     13  C   UNL     1      -3.379  -1.559   0.000  0.00  0.00    -0.001 C 
ATOM     14  C   UNL     1      -3.558   1.228   0.000  0.00  0.00    +0.136 C 
ATOM     15  C   UNL     1      -4.628  -0.939  -0.001  0.00  0.00    -0.019 C 
ATOM     16  C   UNL     1       4.030  -1.079   0.000  0.00  0.00    +0.137 C 
ATOM     17  C   UNL     1       3.851   1.702  -0.001  0.00  0.00    +0.003 C 
ATOM     18  C   UNL     1      -4.718   0.452  -0.001  0.00  0.00    +0.032 C 
ATOM     19  C   UNL     1       5.190  -0.305  -0.001  0.00  0.00    +0.037 C 
ATOM     20  C   UNL     1       5.101   1.083  -0.002  0.00  0.00    +0.003 C 
ATOM     21  C   UNL     1      -5.870  -1.765  -0.002  0.00  0.00    +0.031 C 
ENDROOT
BRANCH   9  22
ATOM     22  O   UNL     1       1.663  -2.605   0.002  0.00  0.00    -0.505 OA
ATOM     23  H   UNL     1       0.880  -3.119   0.002  0.00  0.00    +0.292 HD
ENDBRANCH   9  22
BRANCH  10  24
ATOM     24  O   UNL     1       1.342   2.914   0.000  0.00  0.00    -0.505 OA
ATOM     25  H   UNL     1       0.510   3.344   0.001  0.00  0.00    +0.292 HD
ENDBRANCH  10  24
BRANCH  14  26
ATOM     26  O   UNL     1      -3.720   2.582   0.000  0.00  0.00    -0.505 OA
ATOM     27  H   UNL     1      -2.970   3.143   0.000  0.00  0.00    +0.292 HD
ENDBRANCH  14  26
BRANCH  16  28
ATOM     28  O   UNL     1       4.210  -2.433   0.000  0.00  0.00    -0.505 OA
ATOM     29  H   UNL     1       3.467  -3.005   0.000  0.00  0.00    +0.292 HD
ENDBRANCH  16  28
TORSDOF 4
