REMARK  Name = 132494147
REMARK  6 active torsions:
REMARK  status: ('A' for Active; 'I' for Inactive)
REMARK    1  A    between atoms: C_4  and  C_23
REMARK    2  A    between atoms: C_10  and  C_15
REMARK    3  A    between atoms: C_11  and  O_28
REMARK    4  A    between atoms: C_14  and  O_30
REMARK    5  A    between atoms: C_20  and  O_21
REMARK    6  A    between atoms: C_23  and  O_26
REMARK                            x       y       z     vdW  Elec       q    Type
REMARK                         _______ _______ _______ _____ _____    ______ ____
ROOT
ATOM      1  O   UNL     1      -4.022  -0.022  -0.253  0.00  0.00    -0.477 OA
ATOM      2  O   UNL     1       0.630  -0.121  -0.035  0.00  0.00    -0.472 OA
ATOM      3  O   UNL     1       0.885   3.969   0.192  0.00  0.00    -0.288 OA
ATOM      4  C   UNL     1      -3.517  -1.339  -0.594  0.00  0.00    +0.195 C 
ATOM      5  C   UNL     1      -2.038  -1.423  -0.187  0.00  0.00    +0.078 C 
ATOM      6  C   UNL     1      -1.716   0.023  -0.152  0.00  0.00    +0.050 C 
ATOM      7  C   UNL     1      -2.894   0.755  -0.168  0.00  0.00    +0.141 C 
ATOM      8  C   UNL     1      -0.490   0.658  -0.060  0.00  0.00    +0.144 C 
ATOM      9  C   UNL     1      -0.478   2.054   0.036  0.00  0.00    +0.105 C 
ATOM     10  C   UNL     1       1.829   0.573  -0.416  0.00  0.00    +0.222 C 
ATOM     11  C   UNL     1       2.017   1.848   0.407  0.00  0.00    +0.217 C 
ATOM     12  C   UNL     1      -2.903   2.134  -0.084  0.00  0.00    +0.073 C 
ATOM     13  C   UNL     1       0.817   2.746   0.198  0.00  0.00    +0.209 C 
ATOM     14  C   UNL     1      -1.676   2.791   0.016  0.00  0.00    +0.142 C 
ENDROOT
BRANCH  10  15
ATOM     15  C   UNL     1       2.985  -0.392  -0.231  0.00  0.00    +0.020 C 
ATOM     16  C   UNL     1       3.734  -0.804  -1.333  0.00  0.00    +0.002 C 
ATOM     17  C   UNL     1       3.299  -0.866   1.043  0.00  0.00    +0.002 C 
ATOM     18  C   UNL     1       4.797  -1.690  -1.162  0.00  0.00    +0.036 C 
ATOM     19  C   UNL     1       4.363  -1.752   1.214  0.00  0.00    +0.036 C 
ATOM     20  C   UNL     1       5.111  -2.165   0.112  0.00  0.00    +0.134 C 
BRANCH  20  21
ATOM     21  O   UNL     1       6.149  -3.029   0.279  0.00  0.00    -0.506 OA
ATOM     22  H   UNL     1       6.652  -3.306  -0.462  0.00  0.00    +0.292 HD
ENDBRANCH  20  21
ENDBRANCH  10  15
BRANCH   4  23
ATOM     23  C   UNL     1      -4.372  -2.388   0.098  0.00  0.00    +0.125 C 
ATOM     24  C   UNL     1      -5.856  -2.188  -0.218  0.00  0.00    +0.033 C 
ATOM     25  C   UNL     1      -3.931  -3.799  -0.298  0.00  0.00    +0.033 C 
BRANCH  23  26
ATOM     26  O   UNL     1      -4.195  -2.269   1.513  0.00  0.00    -0.383 OA
ATOM     27  H   UNL     1      -4.466  -1.383   1.800  0.00  0.00    +0.210 HD
ENDBRANCH  23  26
ENDBRANCH   4  23
BRANCH  11  28
ATOM     28  O   UNL     1       3.171   2.545  -0.029  0.00  0.00    -0.374 OA
ATOM     29  H   UNL     1       3.953   1.985   0.096  0.00  0.00    +0.211 HD
ENDBRANCH  11  28
BRANCH  14  30
ATOM     30  O   UNL     1      -1.698   4.152   0.112  0.00  0.00    -0.505 OA
ATOM     31  H   UNL     1      -0.895   4.630   0.181  0.00  0.00    +0.292 HD
ENDBRANCH  14  30
TORSDOF 6
