REMARK  Name = 132490000
REMARK  0 active torsions:
REMARK  status: ('A' for Active; 'I' for Inactive)
REMARK                            x       y       z     vdW  Elec       q    Type
REMARK                         _______ _______ _______ _____ _____    ______ ____
ROOT
ATOM      1  S   UNL     1       1.226   1.766  -0.322  0.00  0.00    +0.012 S 
ATOM      2  O   UNL     1       0.139  -2.007   0.161  0.00  0.00    -0.433 OA
ATOM      3  O   UNL     1       0.790   2.506   0.849  0.00  0.00    -0.169 OA
ATOM      4  O   UNL     1       0.732   2.123  -1.638  0.00  0.00    -0.169 OA
ATOM      5  O   UNL     1       0.083  -1.137  -2.686  0.00  0.00    -0.270 OA
ATOM      6  O   UNL     1       2.060  -2.964   1.001  0.00  0.00    -0.243 OA
ATOM      7  N   UNL     1       3.233  -0.266   0.795  0.00  0.00    -0.325 N 
ATOM      8  N   UNL     1      -1.962  -0.338  -1.843  0.00  0.00    -0.281 N 
ATOM      9  C   UNL     1      -0.232  -0.697  -0.276  0.00  0.00    +0.259 C 
ATOM     10  C   UNL     1       0.981   0.093  -0.050  0.00  0.00    +0.151 C 
ATOM     11  C   UNL     1      -1.489  -0.222   0.387  0.00  0.00    +0.041 C 
ATOM     12  C   UNL     1       1.972  -0.635   0.452  0.00  0.00    +0.139 C 
ATOM     13  C   UNL     1       3.018   1.868  -0.386  0.00  0.00    +0.177 C 
ATOM     14  C   UNL     1      -0.629  -0.767  -1.765  0.00  0.00    +0.272 C 
ATOM     15  C   UNL     1       3.676   1.116   0.770  0.00  0.00    +0.113 C 
ATOM     16  C   UNL     1      -2.468  -0.021  -0.586  0.00  0.00    +0.050 C 
ATOM     17  C   UNL     1       1.445  -1.999   0.583  0.00  0.00    +0.357 C 
ATOM     18  C   UNL     1      -1.766   0.017   1.720  0.00  0.00    +0.001 C 
ATOM     19  C   UNL     1      -3.738   0.423  -0.281  0.00  0.00    +0.014 C 
ATOM     20  C   UNL     1      -3.046   0.469   2.055  0.00  0.00    -0.000 C 
ATOM     21  C   UNL     1      -4.023   0.671   1.063  0.00  0.00    +0.001 C 
ATOM     22  H   UNL     1       3.872  -0.963   1.071  0.00  0.00    +0.147 HD
ATOM     23  H   UNL     1      -2.475  -0.270  -2.681  0.00  0.00    +0.155 HD
ENDROOT
TORSDOF 0
