132429
  -OEChem-03292013323D

 48 48  0     0  0  0  0  0  0999 V2000
   -2.2462    3.9119    2.9549 Cl  0  0  0  0  0  0  0  0  0  0  0  0
   -3.2753    2.9039   -3.5495 Cl  0  0  0  0  0  0  0  0  0  0  0  0
    2.2069   -0.5471   -1.7346 O   0  0  0  0  0  0  0  0  0  0  0  0
   -4.0173   -2.6730    0.7696 O   0  5  0  0  0  0  0  0  0  0  0  0
   -4.4477   -0.5292    0.5751 O   0  0  0  0  0  0  0  0  0  0  0  0
    0.3922   -4.3562    0.1817 O   0  5  0  0  0  0  0  0  0  0  0  0
    2.0638   -3.0140   -0.2908 O   0  0  0  0  0  0  0  0  0  0  0  0
   -2.6970    1.1533    0.0420 N   0  0  0  0  0  0  0  0  0  0  0  0
    2.6412   -0.2678    0.5269 N   0  0  0  0  0  0  0  0  0  0  0  0
    5.6928    1.8270    0.1337 N   0  0  0  0  0  0  0  0  0  0  0  0
   -3.6491   -1.4948    0.5536 N   0  3  0  0  0  0  0  0  0  0  0  0
    0.8509   -3.2119   -0.0449 N   0  3  0  0  0  0  0  0  0  0  0  0
   -1.8154    0.0485    0.0253 C   0  0  0  0  0  0  0  0  0  0  0  0
   -2.9422    1.8740    1.2736 C   0  0  0  0  0  0  0  0  0  0  0  0
   -3.3741    1.5664   -1.1692 C   0  0  0  0  0  0  0  0  0  0  0  0
    0.3980   -0.8115   -0.2662 C   0  0  0  0  0  0  0  0  0  0  0  0
   -0.4653    0.2673   -0.2480 C   0  0  0  0  0  0  0  0  0  0  0  0
   -2.2761   -1.2444    0.2746 C   0  0  0  0  0  0  0  0  0  0  0  0
   -0.0360   -2.0995   -0.0224 C   0  0  0  0  0  0  0  0  0  0  0  0
   -1.3862   -2.3185    0.2508 C   0  0  0  0  0  0  0  0  0  0  0  0
    4.0397    0.0383    0.3962 C   0  0  0  0  0  0  0  0  0  0  0  0
    4.2635    1.5349    0.2360 C   0  0  0  0  0  0  0  0  0  0  0  0
    1.8273   -0.5396   -0.5666 C   0  0  0  0  0  0  0  0  0  0  0  0
   -1.9476    3.0110    1.4475 C   0  0  0  0  0  0  0  0  0  0  0  0
   -2.4559    2.3984   -2.0508 C   0  0  0  0  0  0  0  0  0  0  0  0
    6.3903    1.3978    1.3453 C   0  0  0  0  0  0  0  0  0  0  0  0
    6.2648    1.1747   -1.0437 C   0  0  0  0  0  0  0  0  0  0  0  0
   -2.8780    1.1946    2.1338 H   0  0  0  0  0  0  0  0  0  0  0  0
   -3.9641    2.2736    1.2830 H   0  0  0  0  0  0  0  0  0  0  0  0
   -4.2731    2.1470   -0.9275 H   0  0  0  0  0  0  0  0  0  0  0  0
   -3.7231    0.6886   -1.7284 H   0  0  0  0  0  0  0  0  0  0  0  0
   -0.0955    1.2708   -0.4420 H   0  0  0  0  0  0  0  0  0  0  0  0
   -1.7453   -3.3265    0.4445 H   0  0  0  0  0  0  0  0  0  0  0  0
    4.4964   -0.3590    1.3068 H   0  0  0  0  0  0  0  0  0  0  0  0
    4.4156   -0.5381   -0.4539 H   0  0  0  0  0  0  0  0  0  0  0  0
    3.8280    2.0796    1.0838 H   0  0  0  0  0  0  0  0  0  0  0  0
    3.7381    1.9106   -0.6514 H   0  0  0  0  0  0  0  0  0  0  0  0
   -2.0158    3.7334    0.6310 H   0  0  0  0  0  0  0  0  0  0  0  0
   -0.9186    2.6435    1.4914 H   0  0  0  0  0  0  0  0  0  0  0  0
   -1.5707    1.8351   -2.3574 H   0  0  0  0  0  0  0  0  0  0  0  0
   -2.1197    3.3071   -1.5467 H   0  0  0  0  0  0  0  0  0  0  0  0
    2.2354   -0.2699    1.4585 H   0  0  0  0  0  0  0  0  0  0  0  0
    6.4948    0.3122    1.4437 H   0  0  0  0  0  0  0  0  0  0  0  0
    5.9032    1.7908    2.2450 H   0  0  0  0  0  0  0  0  0  0  0  0
    7.4049    1.8137    1.3417 H   0  0  0  0  0  0  0  0  0  0  0  0
    6.3672    0.0884   -0.9512 H   0  0  0  0  0  0  0  0  0  0  0  0
    5.6835    1.4005   -1.9449 H   0  0  0  0  0  0  0  0  0  0  0  0
    7.2708    1.5730   -1.2217 H   0  0  0  0  0  0  0  0  0  0  0  0
  1 24  1  0  0  0  0
  2 25  1  0  0  0  0
  3 23  2  0  0  0  0
  4 11  1  0  0  0  0
  5 11  2  0  0  0  0
  6 12  1  0  0  0  0
  7 12  2  0  0  0  0
  8 13  1  0  0  0  0
  8 14  1  0  0  0  0
  8 15  1  0  0  0  0
  9 21  1  0  0  0  0
  9 23  1  0  0  0  0
  9 42  1  0  0  0  0
 10 22  1  0  0  0  0
 10 26  1  0  0  0  0
 10 27  1  0  0  0  0
 11 18  1  0  0  0  0
 12 19  1  0  0  0  0
 13 17  1  0  0  0  0
 13 18  2  0  0  0  0
 14 24  1  0  0  0  0
 14 28  1  0  0  0  0
 14 29  1  0  0  0  0
 15 25  1  0  0  0  0
 15 30  1  0  0  0  0
 15 31  1  0  0  0  0
 16 17  2  0  0  0  0
 16 19  1  0  0  0  0
 16 23  1  0  0  0  0
 17 32  1  0  0  0  0
 18 20  1  0  0  0  0
 19 20  2  0  0  0  0
 20 33  1  0  0  0  0
 21 22  1  0  0  0  0
 21 34  1  0  0  0  0
 21 35  1  0  0  0  0
 22 36  1  0  0  0  0
 22 37  1  0  0  0  0
 24 38  1  0  0  0  0
 24 39  1  0  0  0  0
 25 40  1  0  0  0  0
 25 41  1  0  0  0  0
 26 43  1  0  0  0  0
 26 44  1  0  0  0  0
 26 45  1  0  0  0  0
 27 46  1  0  0  0  0
 27 47  1  0  0  0  0
 27 48  1  0  0  0  0
M  CHG  4   4  -1   6  -1  11   1  12   1
M  END
> <PUBCHEM_COMPOUND_CID>
132429

> <PUBCHEM_CONFORMER_RMSD>
1

> <PUBCHEM_CONFORMER_DIVERSEORDER>
1
14
16
11
5
18
8
22
4
15
2
20
7
19
10
17
13
9
3
23
12
6
25
21
24

> <PUBCHEM_MMFF94_PARTIAL_CHARGES>
30
1 -0.29
10 -0.81
11 0.91
12 0.91
13 0.1
14 0.37
15 0.37
16 0.09
17 -0.15
18 0.13
19 0.13
2 -0.29
20 -0.15
21 0.3
22 0.27
23 0.54
24 0.29
25 0.29
26 0.27
27 0.27
3 -0.57
32 0.15
33 0.15
4 -0.52
42 0.37
5 -0.52
6 -0.52
7 -0.52
8 -0.84
9 -0.73

> <PUBCHEM_EFFECTIVE_ROTOR_COUNT>
12

> <PUBCHEM_PHARMACOPHORE_FEATURES>
11
1 10 cation
1 3 acceptor
1 4 acceptor
1 4 anion
1 5 acceptor
1 6 acceptor
1 6 anion
1 7 acceptor
1 8 cation
1 9 donor
6 13 16 17 18 19 20 rings

> <PUBCHEM_HEAVY_ATOM_COUNT>
27

> <PUBCHEM_ATOM_DEF_STEREO_COUNT>
0

> <PUBCHEM_ATOM_UDEF_STEREO_COUNT>
0

> <PUBCHEM_BOND_DEF_STEREO_COUNT>
0

> <PUBCHEM_BOND_UDEF_STEREO_COUNT>
0

> <PUBCHEM_ISOTOPIC_ATOM_COUNT>
0

> <PUBCHEM_COMPONENT_COUNT>
1

> <PUBCHEM_CACTVS_TAUTO_COUNT>
2

> <PUBCHEM_CONFORMER_ID>
0002054D00000001

> <PUBCHEM_MMFF94_ENERGY>
106.8704

> <PUBCHEM_FEATURE_SELFOVERLAP>
55.988

> <PUBCHEM_SHAPE_FINGERPRINT>
10411042 1 17330555861546090802
10670039 82 18188787140523460132
11578080 2 18043245743563057237
12107183 9 17317296464479104808
12390115 104 18341065063878750488
12403259 415 18409172078146524334
12549972 3 16375804366713307721
12596602 18 17459183148490635298
13140716 1 18192439567115367779
13911987 19 18342164592396628877
13965767 371 17971481701997387536
15042514 8 17976264856656525298
17980427 23 17240203252528925478
20510252 161 18341619243118699923
20600515 1 18124051271233614943
21033648 29 18339909515892252768
21315764 268 18265327490602051184
22956985 138 16748466756026210402
23559900 14 18123462787884930162
283562 15 18410575123803666211
350125 39 18336830917192954204
392239 28 18199762482186181257
469060 322 18115045094302455233
5104073 3 18335145254325109738
5252454 2 17975443242017361292
57527585 21 17846491492094800013
633830 44 17987242123149605076
7288768 16 18265349334172632329
9981440 41 18410012134936927506

> <PUBCHEM_SHAPE_MULTIPOLES>
505.14
10.95
4.76
2.2
20.01
1.75
1.09
-8.05
-0.01
-2.86
-1.4
-2.97
-3.64
1.19

> <PUBCHEM_SHAPE_SELFOVERLAP>
1015.596

> <PUBCHEM_SHAPE_VOLUME>
300.3

> <PUBCHEM_COORDINATE_TYPE>
2
5
10

$$$$
