REMARK  Name = 132489951
REMARK  13 active torsions:
REMARK  status: ('A' for Active; 'I' for Inactive)
REMARK    1  A    between atoms: C_1  and  C_4
REMARK    2  A    between atoms: C_1  and  N_18
REMARK    3  A    between atoms: C_1  and  C_33
REMARK    4  A    between atoms: N_3  and  C_6
REMARK    5  A    between atoms: C_6  and  C_7
REMARK    6  A    between atoms: C_6  and  C_10
REMARK    7  A    between atoms: C_11  and  C_14
REMARK    8  A    between atoms: C_14  and  O_15
REMARK    9  A    between atoms: C_19  and  CA_21
REMARK   10  A    between atoms: CA_21  and  N_22
REMARK   11  A    between atoms: CA_21  and  C_30
REMARK   12  A    between atoms: N_22  and  C_25
REMARK   13  A    between atoms: C_30  and  O_31
REMARK                            x       y       z     vdW  Elec       q    Type
REMARK                         _______ _______ _______ _____ _____    ______ ____
ROOT
ATOM      1  C   UNL     1       0.548   1.505  -0.202  0.00  0.00    +0.149 C 
ENDROOT
BRANCH   1   4
ATOM      2  O   UNL     1      -0.289   2.100  -2.371  0.00  0.00    -0.273 OA
ATOM      3  N   UNL     1      -1.852   1.262  -0.883  0.00  0.00    -0.274 N 
ATOM      4  C   UNL     1      -0.563   1.665  -1.246  0.00  0.00    +0.244 C 
ATOM      5  C   UNL     1      -2.983   1.321  -1.803  0.00  0.00    +0.115 C 
BRANCH   3   6
ATOM      6  C   UNL     1      -2.173   0.748   0.447  0.00  0.00    +0.098 C 
BRANCH   6   7
ATOM      7  C   UNL     1      -2.500   1.903   1.426  0.00  0.00    +0.022 C 
ATOM      8  C   UNL     1      -3.696   2.759   0.994  0.00  0.00    +0.002 C 
ATOM      9  C   UNL     1      -2.721   1.386   2.851  0.00  0.00    +0.002 C 
ENDBRANCH   6   7
BRANCH   6  10
ATOM     10  C   UNL     1      -3.281  -0.266   0.288  0.00  0.00    -0.005 C 
ATOM     11  C   UNL     1      -3.154  -1.564  -0.046  0.00  0.00    +0.051 C 
ATOM     12  C   UNL     1      -1.863  -2.289  -0.286  0.00  0.00    +0.038 C 
BRANCH  11  14
ATOM     13  O   UNL     1      -5.512  -1.879  -0.472  0.00  0.00    -0.245 OA
ATOM     14  C   UNL     1      -4.426  -2.335  -0.150  0.00  0.00    +0.334 C 
BRANCH  14  15
ATOM     15  O   UNL     1      -4.221  -3.638   0.160  0.00  0.00    -0.477 OA
ATOM     16  H   UNL     1      -3.365  -3.933   0.401  0.00  0.00    +0.295 HD
ENDBRANCH  14  15
ENDBRANCH  11  14
ENDBRANCH   6  10
ENDBRANCH   3   6
ENDBRANCH   1   4
BRANCH   1  18
ATOM     17  O   UNL     1       1.958  -0.392   1.437  0.00  0.00    -0.273 OA
ATOM     18  N   UNL     1       1.433   0.458  -0.658  0.00  0.00    -0.297 N 
ATOM     19  C   UNL     1       2.071  -0.413   0.213  0.00  0.00    +0.248 C 
ATOM     20  H   UNL     1       1.590   0.359  -1.625  0.00  0.00    +0.150 HD
BRANCH  19  21
ATOM     21  CA  UNL     1       2.943  -1.421  -0.520  0.00  0.00    +0.211 C 
BRANCH  21  22
ATOM     22  N   UNL     1       4.098  -1.725   0.333  0.00  0.00    -0.230 NA
BRANCH  22  25
ATOM     23  N   UNL     1       5.277   0.139  -0.617  0.00  0.00    -0.370 N 
ATOM     24  N   UNL     1       6.249  -1.165   0.980  0.00  0.00    -0.370 N 
ATOM     25  C   UNL     1       5.127  -0.948   0.215  0.00  0.00    +0.189 C 
ATOM     26  H   UNL     1       4.545   0.403  -1.219  0.00  0.00    +0.159 HD
ATOM     27  H   UNL     1       6.118   0.651  -0.611  0.00  0.00    +0.159 HD
ATOM     28  H   UNL     1       6.271  -1.914   1.619  0.00  0.00    +0.159 HD
ATOM     29  H   UNL     1       7.030  -0.573   0.888  0.00  0.00    +0.159 HD
ENDBRANCH  22  25
ENDBRANCH  21  22
BRANCH  21  30
ATOM     30  C   UNL     1       2.193  -2.707  -0.849  0.00  0.00    +0.171 C 
BRANCH  30  31
ATOM     31  O   UNL     1       1.742  -3.333   0.346  0.00  0.00    -0.380 OA
ATOM     32  H   UNL     1       1.266  -4.149   0.124  0.00  0.00    +0.211 HD
ENDBRANCH  30  31
ENDBRANCH  21  30
ENDBRANCH  19  21
ENDBRANCH   1  18
BRANCH   1  33
ATOM     33  C   UNL     1       1.293   2.832   0.063  0.00  0.00    +0.027 C 
ATOM     34  C   UNL     1       2.017   2.861   1.414  0.00  0.00    +0.002 C 
ATOM     35  C   UNL     1       2.286   3.135  -1.064  0.00  0.00    +0.002 C 
ENDBRANCH   1  33
TORSDOF 13
