132426
  -OEChem-03292013323D

 31 32  0     0  0  0  0  0  0999 V2000
   -3.5491    0.3993    0.4948 N   0  0  0  0  0  0  0  0  0  0  0  0
   -0.5096    0.7103   -0.4805 N   0  0  0  0  0  0  0  0  0  0  0  0
    0.2940   -1.8811    0.0633 N   0  0  0  0  0  0  0  0  0  0  0  0
    2.4868   -1.1708    0.2827 N   0  0  0  0  0  0  0  0  0  0  0  0
   -1.9543   -2.6165   -0.1602 N   0  0  0  0  0  0  0  0  0  0  0  0
    3.0698    1.1376   -0.0029 N   0  0  0  0  0  0  0  0  0  0  0  0
    1.3856    2.7129   -0.5157 N   0  0  0  0  0  0  0  0  0  0  0  0
    4.7110   -0.4540    0.5024 N   0  0  0  0  0  0  0  0  0  0  0  0
   -2.8157    0.0524   -0.7243 C   0  0  0  0  0  0  0  0  0  0  0  0
   -1.3934   -0.2991   -0.4517 C   0  0  0  0  0  0  0  0  0  0  0  0
    0.7793    0.4073   -0.2342 C   0  0  0  0  0  0  0  0  0  0  0  0
   -0.9956   -1.5799   -0.1829 C   0  0  0  0  0  0  0  0  0  0  0  0
    1.1993   -0.8956    0.0416 C   0  0  0  0  0  0  0  0  0  0  0  0
   -4.9355    0.7356    0.1765 C   0  0  0  0  0  0  0  0  0  0  0  0
   -2.8965    1.5121    1.1824 C   0  0  0  0  0  0  0  0  0  0  0  0
    1.7668    1.3738   -0.2402 C   0  0  0  0  0  0  0  0  0  0  0  0
    3.3572   -0.1443    0.2489 C   0  0  0  0  0  0  0  0  0  0  0  0
   -2.8318    0.8967   -1.4293 H   0  0  0  0  0  0  0  0  0  0  0  0
   -3.3169   -0.7651   -1.2574 H   0  0  0  0  0  0  0  0  0  0  0  0
   -5.5016    0.9437    1.0914 H   0  0  0  0  0  0  0  0  0  0  0  0
   -5.4343   -0.1085   -0.3128 H   0  0  0  0  0  0  0  0  0  0  0  0
   -5.0103    1.6093   -0.4812 H   0  0  0  0  0  0  0  0  0  0  0  0
   -3.5132    1.8493    2.0247 H   0  0  0  0  0  0  0  0  0  0  0  0
   -2.7345    2.3766    0.5279 H   0  0  0  0  0  0  0  0  0  0  0  0
   -1.9448    1.2149    1.6343 H   0  0  0  0  0  0  0  0  0  0  0  0
   -1.6034   -3.5479    0.0289 H   0  0  0  0  0  0  0  0  0  0  0  0
   -2.8887   -2.4030    0.1664 H   0  0  0  0  0  0  0  0  0  0  0  0
    2.1187    3.4111   -0.5072 H   0  0  0  0  0  0  0  0  0  0  0  0
    0.4429    2.9997   -0.2822 H   0  0  0  0  0  0  0  0  0  0  0  0
    5.4012    0.2840    0.4861 H   0  0  0  0  0  0  0  0  0  0  0  0
    4.9742   -1.4104    0.6959 H   0  0  0  0  0  0  0  0  0  0  0  0
  1  9  1  0  0  0  0
  1 14  1  0  0  0  0
  1 15  1  0  0  0  0
  2 10  1  0  0  0  0
  2 11  2  0  0  0  0
  3 12  1  0  0  0  0
  3 13  2  0  0  0  0
  4 13  1  0  0  0  0
  4 17  2  0  0  0  0
  5 12  1  0  0  0  0
  5 26  1  0  0  0  0
  5 27  1  0  0  0  0
  6 16  2  0  0  0  0
  6 17  1  0  0  0  0
  7 16  1  0  0  0  0
  7 28  1  0  0  0  0
  7 29  1  0  0  0  0
  8 17  1  0  0  0  0
  8 30  1  0  0  0  0
  8 31  1  0  0  0  0
  9 10  1  0  0  0  0
  9 18  1  0  0  0  0
  9 19  1  0  0  0  0
 10 12  2  0  0  0  0
 11 13  1  0  0  0  0
 11 16  1  0  0  0  0
 14 20  1  0  0  0  0
 14 21  1  0  0  0  0
 14 22  1  0  0  0  0
 15 23  1  0  0  0  0
 15 24  1  0  0  0  0
 15 25  1  0  0  0  0
M  END
> <PUBCHEM_COMPOUND_CID>
132426

> <PUBCHEM_CONFORMER_RMSD>
0.6

> <PUBCHEM_CONFORMER_DIVERSEORDER>
2
1
3
4

> <PUBCHEM_MMFF94_PARTIAL_CHARGES>
23
1 -0.81
10 0.17
11 0.31
12 0.41
13 0.62
14 0.27
15 0.27
16 0.41
17 0.72
2 -0.62
26 0.4
27 0.4
28 0.4
29 0.4
3 -0.62
30 0.4
31 0.4
4 -0.62
5 -0.9
6 -0.62
7 -0.9
8 -0.9
9 0.41

> <PUBCHEM_EFFECTIVE_ROTOR_COUNT>
2

> <PUBCHEM_PHARMACOPHORE_FEATURES>
9
1 1 cation
1 2 acceptor
1 5 cation
1 5 donor
1 7 donor
1 8 donor
4 4 6 8 17 cation
6 2 3 10 11 12 13 rings
6 4 6 11 13 16 17 rings

> <PUBCHEM_HEAVY_ATOM_COUNT>
17

> <PUBCHEM_ATOM_DEF_STEREO_COUNT>
0

> <PUBCHEM_ATOM_UDEF_STEREO_COUNT>
0

> <PUBCHEM_BOND_DEF_STEREO_COUNT>
0

> <PUBCHEM_BOND_UDEF_STEREO_COUNT>
0

> <PUBCHEM_ISOTOPIC_ATOM_COUNT>
0

> <PUBCHEM_COMPONENT_COUNT>
1

> <PUBCHEM_CACTVS_TAUTO_COUNT>
66

> <PUBCHEM_CONFORMER_ID>
0002054A00000002

> <PUBCHEM_MMFF94_ENERGY>
70.7956

> <PUBCHEM_FEATURE_SELFOVERLAP>
45.714

> <PUBCHEM_SHAPE_FINGERPRINT>
10465860 228 17985278378212992857
10967382 1 18409727322680677022
11132069 177 18336253605258830466
11471102 20 18408317770227534317
12251169 10 18409166614573414667
12491281 212 18338242655673200338
13140716 1 18336543936057198520
13380535 76 18342740710783011615
14144814 61 18410572881403040761
14178342 30 18267005327780845354
15196674 1 18338233868201761142
15209294 21 18059852809827110664
15295992 7 17846498187990246515
15309172 13 18336264561609717207
15375462 189 17822279159708659866
15442244 35 18410008883735945150
16945 1 18335411348960245998
17844478 74 17385721365912797397
18186145 218 18412824681258878885
18219364 16 18187071833105333789
18511873 20 18411417327918688056
19591789 44 17907021681741274166
200 152 18271514360989848383
20510252 161 17981610682089655539
20671657 1 18263089970916386972
21501502 16 18191868035821998574
21524375 3 18272934903921455455
22094290 62 18410576214245077324
23184049 59 18335985285286925508
2334 1 18048033257423192942
23402539 116 18060128843612916205
23557571 272 17131828828407594679
23558518 356 17972880542422026283
23559900 14 18272651294916016108
2748010 2 18191862546927712358
335352 9 18409727344361203230
350125 39 18265055927902957303
474 4 18411985732902640041
5104073 3 18263916795555226538
6333272 397 18411706478445068475
69090 78 18410852170663494903
6992083 37 18407763650727094405
74978 22 18338518654619408068
7832392 63 18411416249971567598
9981440 41 17474378562169280624

> <PUBCHEM_SHAPE_MULTIPOLES>
310
7.4
2.19
0.79
1.54
0.18
0.06
-1.59
1.5
0.08
-0.1
0.32
-0.18
-0.7

> <PUBCHEM_SHAPE_SELFOVERLAP>
664.84

> <PUBCHEM_SHAPE_VOLUME>
165.4

> <PUBCHEM_COORDINATE_TYPE>
2
5
10

$$$$
