REMARK  Name = 132489978
REMARK  8 active torsions:
REMARK  status: ('A' for Active; 'I' for Inactive)
REMARK    1  A    between atoms: C_6  and  C_20
REMARK    2  A    between atoms: C_12  and  O_30
REMARK    3  A    between atoms: C_14  and  O_32
REMARK    4  A    between atoms: C_16  and  O_34
REMARK    5  A    between atoms: N_19  and  CA_22
REMARK    6  A    between atoms: CA_22  and  CB_23
REMARK    7  A    between atoms: CA_22  and  C_27
REMARK    8  A    between atoms: C_27  and  O_28
REMARK                            x       y       z     vdW  Elec       q    Type
REMARK                         _______ _______ _______ _____ _____    ______ ____
ROOT
ATOM      1 CL   UNL     1       7.285  -0.700  -0.409  0.00  0.00    -0.076 Cl
ATOM      2  O   UNL     1       0.804  -2.219   0.347  0.00  0.00    -0.287 OA
ATOM      3  O   UNL     1       3.100   2.580  -0.157  0.00  0.00    -0.286 OA
ATOM      4  C   UNL     1       0.512   0.110   0.248  0.00  0.00    +0.045 C 
ATOM      5  C   UNL     1       1.113   1.363   0.116  0.00  0.00    +0.076 C 
ATOM      6  C   UNL     1      -1.658   1.169   0.414  0.00  0.00    +0.056 C 
ATOM      7  C   UNL     1       3.396   0.250  -0.059  0.00  0.00    +0.077 C 
ATOM      8  C   UNL     1       2.795  -1.003   0.073  0.00  0.00    +0.048 C 
ATOM      9  C   UNL     1      -0.877   0.014   0.397  0.00  0.00    +0.008 C 
ATOM     10  C   UNL     1       1.331  -1.119   0.231  0.00  0.00    +0.196 C 
ATOM     11  C   UNL     1       2.577   1.479  -0.042  0.00  0.00    +0.202 C 
ATOM     12  C   UNL     1       0.325   2.521   0.133  0.00  0.00    +0.137 C 
ATOM     13  C   UNL     1      -1.058   2.420   0.282  0.00  0.00    +0.041 C 
ATOM     14  C   UNL     1       4.785   0.346  -0.208  0.00  0.00    +0.150 C 
ATOM     15  C   UNL     1       3.583  -2.161   0.055  0.00  0.00    +0.041 C 
ATOM     16  C   UNL     1       4.966  -2.060  -0.093  0.00  0.00    +0.147 C 
ATOM     17  C   UNL     1       5.566  -0.809  -0.225  0.00  0.00    +0.125 C 
ENDROOT
BRANCH   6  20
ATOM     18  O   UNL     1      -3.751   2.011   1.056  0.00  0.00    -0.270 OA
ATOM     19  N   UNL     1      -3.706  -0.113   0.128  0.00  0.00    -0.293 N 
ATOM     20  C   ACE A   0      -3.101   1.069   0.569  0.00  0.00    +0.246 C 
ATOM     21  H   UNL     1      -3.131  -0.819  -0.247  0.00  0.00    +0.150 HD
BRANCH  19  22
ATOM     22  CA  UNL     1      -5.130  -0.354   0.192  0.00  0.00    +0.171 C 
BRANCH  22  23
ATOM     23  CB  UNL     1      -5.818   0.173  -1.086  0.00  0.00    +0.029 C 
ATOM     24  CG1 UNL     1      -7.345   0.146  -0.975  0.00  0.00    +0.002 C 
ATOM     25  CG2 UNL     1      -5.366  -0.553  -2.357  0.00  0.00    +0.002 C 
ENDBRANCH  22  23
BRANCH  22  27
ATOM     26  OXT UNL     1      -6.543  -2.255   0.730  0.00  0.00    -0.248 OA
ATOM     27  C   UNL     1      -5.420  -1.819   0.505  0.00  0.00    +0.332 C 
BRANCH  27  28
ATOM     28  O   UNL     1      -4.320  -2.609   0.570  0.00  0.00    -0.479 OA
ATOM     29  H   UNL     1      -3.473  -2.249   0.394  0.00  0.00    +0.295 HD
ENDBRANCH  27  28
ENDBRANCH  22  27
ENDBRANCH  19  22
ENDBRANCH   6  20
BRANCH  12  30
ATOM     30  O   UNL     1       0.845   3.775   0.010  0.00  0.00    -0.505 OA
ATOM     31  H   UNL     1       1.769   3.892  -0.093  0.00  0.00    +0.292 HD
ENDBRANCH  12  30
BRANCH  14  32
ATOM     32  O   UNL     1       5.410   1.554  -0.340  0.00  0.00    -0.504 OA
ATOM     33  H   UNL     1       4.908   2.345  -0.331  0.00  0.00    +0.292 HD
ENDBRANCH  14  32
BRANCH  16  34
ATOM     34  O   UNL     1       5.704  -3.207  -0.106  0.00  0.00    -0.505 OA
ATOM     35  H   UNL     1       5.281  -4.038  -0.017  0.00  0.00    +0.292 HD
ENDBRANCH  16  34
TORSDOF 8
