REMARK  Name = 132489979
REMARK  9 active torsions:
REMARK  status: ('A' for Active; 'I' for Inactive)
REMARK    1  A    between atoms: C_4  and  C_19
REMARK    2  A    between atoms: C_11  and  O_30
REMARK    3  A    between atoms: C_13  and  O_32
REMARK    4  A    between atoms: C_15  and  O_34
REMARK    5  A    between atoms: N_18  and  C_21
REMARK    6  A    between atoms: C_21  and  C_23
REMARK    7  A    between atoms: C_21  and  C_26
REMARK    8  A    between atoms: C_23  and  O_24
REMARK    9  A    between atoms: C_26  and  C_28
REMARK                            x       y       z     vdW  Elec       q    Type
REMARK                         _______ _______ _______ _____ _____    ______ ____
ROOT
ATOM      1  O   UNL     1      -1.201  -2.123  -0.481  0.00  0.00    -0.287 OA
ATOM      2  O   UNL     1      -3.949   2.380   0.375  0.00  0.00    -0.286 OA
ATOM      3  C   UNL     1      -1.126   0.195  -0.109  0.00  0.00    +0.045 C 
ATOM      4  C   UNL     1       0.947   1.441  -0.002  0.00  0.00    +0.056 C 
ATOM      5  C   UNL     1      -1.844   1.372   0.114  0.00  0.00    +0.076 C 
ATOM      6  C   UNL     1       0.273   0.231  -0.167  0.00  0.00    +0.008 C 
ATOM      7  C   UNL     1      -4.024   0.063   0.001  0.00  0.00    +0.076 C 
ATOM      8  C   UNL     1      -3.307  -1.114  -0.222  0.00  0.00    +0.048 C 
ATOM      9  C   UNL     1      -1.831  -1.091  -0.285  0.00  0.00    +0.196 C 
ATOM     10  C   UNL     1      -3.319   1.349   0.178  0.00  0.00    +0.202 C 
ATOM     11  C   UNL     1      -1.163   2.584   0.280  0.00  0.00    +0.137 C 
ATOM     12  C   UNL     1       0.230   2.615   0.221  0.00  0.00    +0.041 C 
ATOM     13  C   UNL     1      -5.423   0.027   0.058  0.00  0.00    +0.140 C 
ATOM     14  C   UNL     1      -3.987  -2.326  -0.388  0.00  0.00    +0.040 C 
ATOM     15  C   UNL     1      -5.380  -2.357  -0.330  0.00  0.00    +0.137 C 
ATOM     16  C   UNL     1      -6.097  -1.183  -0.108  0.00  0.00    +0.073 C 
ENDROOT
BRANCH   4  19
ATOM     17  O   UNL     1       2.992   2.520  -0.393  0.00  0.00    -0.270 OA
ATOM     18  N   UNL     1       3.083   0.306   0.293  0.00  0.00    -0.293 N 
ATOM     19  C   UNL     1       2.430   1.479  -0.062  0.00  0.00    +0.246 C 
ATOM     20  H   UNL     1       2.543  -0.478   0.544  0.00  0.00    +0.150 HD
BRANCH  18  21
ATOM     21  C   UNL     1       4.520   0.193   0.308  0.00  0.00    +0.172 C 
BRANCH  21  23
ATOM     22  O   UNL     1       4.349  -0.379  -2.036  0.00  0.00    -0.248 OA
ATOM     23  C   UNL     1       5.072  -0.135  -1.076  0.00  0.00    +0.335 C 
BRANCH  23  24
ATOM     24  O   UNL     1       6.434  -0.122  -1.103  0.00  0.00    -0.443 OA
ATOM     25  C   UNL     1       7.035  -0.422  -2.367  0.00  0.00    +0.256 C 
ENDBRANCH  23  24
ENDBRANCH  21  23
BRANCH  21  26
ATOM     26  C   UNL     1       5.021  -0.820   1.367  0.00  0.00    +0.029 C 
ATOM     27  C   UNL     1       4.521  -0.475   2.777  0.00  0.00    +0.002 C 
BRANCH  26  28
ATOM     28  C   UNL     1       4.631  -2.256   0.957  0.00  0.00    +0.002 C 
ATOM     29  C   UNL     1       5.143  -3.324   1.915  0.00  0.00    +0.000 C 
ENDBRANCH  26  28
ENDBRANCH  21  26
ENDBRANCH  18  21
ENDBRANCH   4  19
BRANCH  11  30
ATOM     30  O   UNL     1      -1.800   3.770   0.500  0.00  0.00    -0.505 OA
ATOM     31  H   UNL     1      -2.736   3.797   0.547  0.00  0.00    +0.292 HD
ENDBRANCH  11  30
BRANCH  13  32
ATOM     32  O   UNL     1      -6.186   1.137   0.272  0.00  0.00    -0.505 OA
ATOM     33  H   UNL     1      -5.777   1.971   0.389  0.00  0.00    +0.292 HD
ENDBRANCH  13  32
BRANCH  15  34
ATOM     34  O   UNL     1      -6.041  -3.537  -0.490  0.00  0.00    -0.505 OA
ATOM     35  H   UNL     1      -5.559  -4.327  -0.640  0.00  0.00    +0.292 HD
ENDBRANCH  15  34
TORSDOF 9
