132466
  -OEChem-03292013323D

 55 59  0     0  0  0  0  0  0999 V2000
    2.6205   -0.2282    0.5532 S   0  0  0  0  0  0  0  0  0  0  0  0
   -6.0328   -2.7602   -0.4801 O   0  0  0  0  0  0  0  0  0  0  0  0
   -1.5174    2.8140   -0.0105 N   0  0  0  0  0  0  0  0  0  0  0  0
   -3.6013   -1.4042   -0.0952 N   0  0  0  0  0  0  0  0  0  0  0  0
   -1.7054    5.6591    0.1259 N   0  0  0  0  0  0  0  0  0  0  0  0
   -2.5732    0.7052   -0.0543 N   0  0  0  0  0  0  0  0  0  0  0  0
   -0.1931    0.8711    0.2036 N   0  0  0  0  0  0  0  0  0  0  0  0
   -1.1624   -2.6447    0.2182 N   0  0  0  0  0  0  0  0  0  0  0  0
    1.2177   -2.4788    0.4761 N   0  0  0  0  0  0  0  0  0  0  0  0
   -2.7473    3.4478    0.4840 C   0  0  0  0  0  0  0  0  0  0  0  0
   -0.3001    3.6268    0.0858 C   0  0  0  0  0  0  0  0  0  0  0  0
   -2.9008    4.8495   -0.1051 C   0  0  0  0  0  0  0  0  0  0  0  0
   -0.5411    5.0230   -0.4877 C   0  0  0  0  0  0  0  0  0  0  0  0
   -4.8597   -0.8271    0.3974 C   0  0  0  0  0  0  0  0  0  0  0  0
   -3.7442   -2.3734   -1.1871 C   0  0  0  0  0  0  0  0  0  0  0  0
   -2.4374   -0.6355    0.0073 C   0  0  0  0  0  0  0  0  0  0  0  0
   -1.4266    1.4186    0.0480 C   0  0  0  0  0  0  0  0  0  0  0  0
   -5.8618   -1.9415    0.6768 C   0  0  0  0  0  0  0  0  0  0  0  0
   -4.8071   -3.4048   -0.8247 C   0  0  0  0  0  0  0  0  0  0  0  0
   -1.2366   -1.3009    0.1634 C   0  0  0  0  0  0  0  0  0  0  0  0
   -0.1189   -0.4726    0.2584 C   0  0  0  0  0  0  0  0  0  0  0  0
    1.0819   -1.1381    0.4144 C   0  0  0  0  0  0  0  0  0  0  0  0
    0.0692   -3.1627    0.3726 C   0  0  0  0  0  0  0  0  0  0  0  0
    3.7976   -1.4020   -0.1702 C   0  0  0  0  0  0  0  0  0  0  0  0
    5.2029   -0.8665   -0.1746 C   0  0  0  0  0  0  0  0  0  0  0  0
    6.0308   -1.1065    0.9142 C   0  0  0  0  0  0  0  0  0  0  0  0
    5.6554   -0.1384   -1.2672 C   0  0  0  0  0  0  0  0  0  0  0  0
    7.3343   -0.6098    0.9103 C   0  0  0  0  0  0  0  0  0  0  0  0
    6.9588    0.3583   -1.2709 C   0  0  0  0  0  0  0  0  0  0  0  0
    7.7983    0.1226   -0.1822 C   0  0  0  0  0  0  0  0  0  0  0  0
   -2.7147    3.4960    1.5799 H   0  0  0  0  0  0  0  0  0  0  0  0
   -3.6405    2.8759    0.2061 H   0  0  0  0  0  0  0  0  0  0  0  0
    0.5223    3.1739   -0.4814 H   0  0  0  0  0  0  0  0  0  0  0  0
    0.0140    3.6937    1.1352 H   0  0  0  0  0  0  0  0  0  0  0  0
   -3.1077    4.7876   -1.1809 H   0  0  0  0  0  0  0  0  0  0  0  0
   -3.7618    5.3427    0.3591 H   0  0  0  0  0  0  0  0  0  0  0  0
    0.3432    5.6437   -0.3068 H   0  0  0  0  0  0  0  0  0  0  0  0
   -0.6766    4.9670   -1.5752 H   0  0  0  0  0  0  0  0  0  0  0  0
   -5.2621   -0.1477   -0.3641 H   0  0  0  0  0  0  0  0  0  0  0  0
   -4.6994   -0.2570    1.3202 H   0  0  0  0  0  0  0  0  0  0  0  0
   -2.8196   -2.8932   -1.4495 H   0  0  0  0  0  0  0  0  0  0  0  0
   -4.0641   -1.8259   -2.0831 H   0  0  0  0  0  0  0  0  0  0  0  0
   -1.8400    6.5824   -0.2854 H   0  0  0  0  0  0  0  0  0  0  0  0
   -5.5412   -2.5651    1.5201 H   0  0  0  0  0  0  0  0  0  0  0  0
   -6.8357   -1.5126    0.9329 H   0  0  0  0  0  0  0  0  0  0  0  0
   -5.0015   -4.0568   -1.6823 H   0  0  0  0  0  0  0  0  0  0  0  0
   -4.4804   -4.0392    0.0081 H   0  0  0  0  0  0  0  0  0  0  0  0
    0.1390   -4.2422    0.4174 H   0  0  0  0  0  0  0  0  0  0  0  0
    3.4879   -1.6423   -1.1944 H   0  0  0  0  0  0  0  0  0  0  0  0
    3.7794   -2.3435    0.3912 H   0  0  0  0  0  0  0  0  0  0  0  0
    5.6799   -1.6746    1.7712 H   0  0  0  0  0  0  0  0  0  0  0  0
    5.0100    0.0521   -2.1201 H   0  0  0  0  0  0  0  0  0  0  0  0
    7.9877   -0.7930    1.7582 H   0  0  0  0  0  0  0  0  0  0  0  0
    7.3201    0.9289   -2.1214 H   0  0  0  0  0  0  0  0  0  0  0  0
    8.8130    0.5096   -0.1851 H   0  0  0  0  0  0  0  0  0  0  0  0
  1 22  1  0  0  0  0
  1 24  1  0  0  0  0
  2 18  1  0  0  0  0
  2 19  1  0  0  0  0
  3 10  1  0  0  0  0
  3 11  1  0  0  0  0
  3 17  1  0  0  0  0
  4 14  1  0  0  0  0
  4 15  1  0  0  0  0
  4 16  1  0  0  0  0
  5 12  1  0  0  0  0
  5 13  1  0  0  0  0
  5 43  1  0  0  0  0
  6 16  2  0  0  0  0
  6 17  1  0  0  0  0
  7 17  2  0  0  0  0
  7 21  1  0  0  0  0
  8 20  1  0  0  0  0
  8 23  2  0  0  0  0
  9 22  2  0  0  0  0
  9 23  1  0  0  0  0
 10 12  1  0  0  0  0
 10 31  1  0  0  0  0
 10 32  1  0  0  0  0
 11 13  1  0  0  0  0
 11 33  1  0  0  0  0
 11 34  1  0  0  0  0
 12 35  1  0  0  0  0
 12 36  1  0  0  0  0
 13 37  1  0  0  0  0
 13 38  1  0  0  0  0
 14 18  1  0  0  0  0
 14 39  1  0  0  0  0
 14 40  1  0  0  0  0
 15 19  1  0  0  0  0
 15 41  1  0  0  0  0
 15 42  1  0  0  0  0
 16 20  1  0  0  0  0
 18 44  1  0  0  0  0
 18 45  1  0  0  0  0
 19 46  1  0  0  0  0
 19 47  1  0  0  0  0
 20 21  2  0  0  0  0
 21 22  1  0  0  0  0
 23 48  1  0  0  0  0
 24 25  1  0  0  0  0
 24 49  1  0  0  0  0
 24 50  1  0  0  0  0
 25 26  2  0  0  0  0
 25 27  1  0  0  0  0
 26 28  1  0  0  0  0
 26 51  1  0  0  0  0
 27 29  2  0  0  0  0
 27 52  1  0  0  0  0
 28 30  2  0  0  0  0
 28 53  1  0  0  0  0
 29 30  1  0  0  0  0
 29 54  1  0  0  0  0
 30 55  1  0  0  0  0
M  END
> <PUBCHEM_COMPOUND_CID>
132466

> <PUBCHEM_CONFORMER_RMSD>
1

> <PUBCHEM_CONFORMER_DIVERSEORDER>
1
25
43
33
21
16
42
32
12
41
34
22
37
15
28
3
13
39
36
26
2
29
11
17
35
38
30
31
20
6
18
9
27
24
23
40
19
14
4
7
8
5
10

> <PUBCHEM_MMFF94_PARTIAL_CHARGES>
37
1 -0.33
10 0.37
11 0.37
12 0.27
13 0.27
14 0.37
15 0.37
16 0.41
17 0.72
18 0.28
19 0.28
2 -0.56
20 0.31
21 0.31
22 0.41
23 0.47
24 0.37
25 -0.14
26 -0.15
27 -0.15
28 -0.15
29 -0.15
3 -0.84
30 -0.15
4 -0.84
43 0.36
48 0.15
5 -0.9
51 0.15
52 0.15
53 0.15
54 0.15
55 0.15
6 -0.62
7 -0.62
8 -0.62
9 -0.62

> <PUBCHEM_EFFECTIVE_ROTOR_COUNT>
7.4

> <PUBCHEM_PHARMACOPHORE_FEATURES>
11
1 2 acceptor
1 5 cation
1 5 donor
1 9 acceptor
3 8 9 23 cation
4 3 6 7 17 cation
6 2 4 14 15 18 19 rings
6 25 26 27 28 29 30 rings
6 3 5 10 11 12 13 rings
6 6 7 16 17 20 21 rings
6 8 9 20 21 22 23 rings

> <PUBCHEM_HEAVY_ATOM_COUNT>
30

> <PUBCHEM_ATOM_DEF_STEREO_COUNT>
0

> <PUBCHEM_ATOM_UDEF_STEREO_COUNT>
0

> <PUBCHEM_BOND_DEF_STEREO_COUNT>
0

> <PUBCHEM_BOND_UDEF_STEREO_COUNT>
0

> <PUBCHEM_ISOTOPIC_ATOM_COUNT>
0

> <PUBCHEM_COMPONENT_COUNT>
1

> <PUBCHEM_CACTVS_TAUTO_COUNT>
1

> <PUBCHEM_CONFORMER_ID>
0002057200000001

> <PUBCHEM_MMFF94_ENERGY>
96.2887

> <PUBCHEM_FEATURE_SELFOVERLAP>
55.86

> <PUBCHEM_SHAPE_FINGERPRINT>
10050765 1 18194401079170249610
102385 1 17978508637528904899
10411042 1 18338795736330033875
10595046 47 18335139779038190186
10940486 97 17915736686013497623
11101153 10 18336267942092364372
12166972 35 17822008765589207150
12788726 201 18334288756252321602
13540713 5 18043800992740480186
13590594 115 18410296951920037169
13617811 41 18409162251340731862
13911987 19 18261659437922920047
14068700 675 18335984263390911636
14068700 686 18270966743701227246
14294032 229 18268721527834711536
14347332 77 18410854373997438108
14394314 77 18410296908769910555
14556957 393 18334303088547606796
14790565 3 17474954224893464577
14856354 85 18339646741061139967
14955137 171 18264210399451346603
15198563 99 18411980252229407205
15289351 153 18334860576832941828
15400415 2 17618502078466804240
15419008 47 18131347549118245024
15439362 3 17905323288943810901
15705408 1 17977370965653852965
15876981 60 18334862709806609877
15979999 66 18265887129066629029
15980000 95 18411140277355040885
16087824 20 18339359653516610901
18608769 82 18341612599025819680
18681886 176 18268421507448127747
19427546 20 18336263449171269117
19427546 62 17401205569551195993
20721686 56 18264771146139084816
21033650 10 18192458311233186886
21049683 271 18042126625804960479
21120745 212 18410293592897454441
21267235 1 18268994353391385555
2132832 1 18187936105280288228
21796203 349 18046376225430043667
21927370 108 18337408122591322027
22122407 14 15357987754725420510
22311459 1 18409449215449495554
23559900 14 18050563242237309842
23729398 52 17902801000595414069
23929065 36 18339625777325040744
249057 25 17894915110285574894
255183 451 18055348296052565039
283562 15 18334574607816576275
335352 9 18411695513953231431
34797466 226 17845944026410278782
350125 39 18411139117206975352
3552219 110 17968107433939534869
469060 322 18339094712755099169
5219985 9 18410574028554928195
550186 72 18409730629795315588
563151 74 15214426604150622784
58083652 198 18263929998416640755
5969126 39 18413384349762294967
6058803 2 17972024856536375466
6677587 24 15004954147212129189
6700243 42 17914645854514088180
7808743 9 18193554468017010880

> <PUBCHEM_SHAPE_MULTIPOLES>
580.5
16.53
6.4
0.93
30.64
11.97
-0.14
-10.21
-1.58
-11.48
-0.45
0.68
-0.26
-1.31

> <PUBCHEM_SHAPE_SELFOVERLAP>
1242.723

> <PUBCHEM_SHAPE_VOLUME>
322.1

> <PUBCHEM_COORDINATE_TYPE>
2
5
10

$$$$
