132519
  -OEChem-03292013323D

 56 57  0     1  0  0  0  0  0999 V2000
   -0.8571    0.7721   -2.0222 O   0  0  0  0  0  0  0  0  0  0  0  0
   -3.4732    0.3987    1.7064 O   0  0  0  0  0  0  0  0  0  0  0  0
    3.3700    3.2923   -1.0228 O   0  0  0  0  0  0  0  0  0  0  0  0
    4.6447    2.5257    1.2384 O   0  0  0  0  0  0  0  0  0  0  0  0
   -1.1893    0.1886    0.1970 N   0  0  0  0  0  0  0  0  0  0  0  0
    0.6795   -3.8147   -1.4807 N   0  0  0  0  0  0  0  0  0  0  0  0
   -4.6520   -0.4873   -0.0877 N   0  0  0  0  0  0  0  0  0  0  0  0
    3.5778    1.7828    0.7162 N   0  0  0  0  0  0  0  0  0  0  0  0
    0.5237    1.8418   -0.3673 C   0  0  2  0  0  0  0  0  0  0  0  0
    0.2084    3.3095   -0.7201 C   0  0  0  0  0  0  0  0  0  0  0  0
   -1.1208    3.8479   -0.1491 C   0  0  0  0  0  0  0  0  0  0  0  0
   -2.2516   -0.7612   -0.0367 C   0  0  1  0  0  0  0  0  0  0  0  0
    1.8809    1.4106   -0.9514 C   0  0  0  0  0  0  0  0  0  0  0  0
   -0.5738    0.8842   -0.8297 C   0  0  0  0  0  0  0  0  0  0  0  0
   -1.9023   -2.1560    0.4981 C   0  0  0  0  0  0  0  0  0  0  0  0
   -0.6587   -2.7293   -0.1195 C   0  0  0  0  0  0  0  0  0  0  0  0
   -1.1189    3.9128    1.3788 C   0  0  0  0  0  0  0  0  0  0  0  0
   -2.2796    2.9666   -0.6250 C   0  0  0  0  0  0  0  0  0  0  0  0
    0.6520   -2.5689    0.3699 C   0  0  0  0  0  0  0  0  0  0  0  0
   -3.5045   -0.2255    0.6480 C   0  0  0  0  0  0  0  0  0  0  0  0
    3.0145    2.2738   -0.4339 C   0  0  0  0  0  0  0  0  0  0  0  0
    1.4849   -3.2654   -0.5085 C   0  0  0  0  0  0  0  0  0  0  0  0
   -0.6300   -3.4904   -1.2479 C   0  0  0  0  0  0  0  0  0  0  0  0
    1.2302   -1.9047    1.4697 C   0  0  0  0  0  0  0  0  0  0  0  0
    2.8726   -3.3310   -0.3413 C   0  0  0  0  0  0  0  0  0  0  0  0
    2.6170   -1.9616    1.6497 C   0  0  0  0  0  0  0  0  0  0  0  0
    3.4237   -2.6644    0.7569 C   0  0  0  0  0  0  0  0  0  0  0  0
   -5.9681   -0.0468    0.3147 C   0  0  0  0  0  0  0  0  0  0  0  0
    0.6105    1.7738    0.7245 H   0  0  0  0  0  0  0  0  0  0  0  0
    1.0061    3.9678   -0.3586 H   0  0  0  0  0  0  0  0  0  0  0  0
    0.1854    3.4196   -1.8126 H   0  0  0  0  0  0  0  0  0  0  0  0
   -1.2645    4.8630   -0.5400 H   0  0  0  0  0  0  0  0  0  0  0  0
   -2.4324   -0.8265   -1.1165 H   0  0  0  0  0  0  0  0  0  0  0  0
    2.0808    0.3592   -0.7130 H   0  0  0  0  0  0  0  0  0  0  0  0
    1.8733    1.4795   -2.0462 H   0  0  0  0  0  0  0  0  0  0  0  0
   -2.7441   -2.8381    0.3186 H   0  0  0  0  0  0  0  0  0  0  0  0
   -1.7813   -2.1198    1.5891 H   0  0  0  0  0  0  0  0  0  0  0  0
   -0.9203    0.3735    1.1589 H   0  0  0  0  0  0  0  0  0  0  0  0
   -1.0458    2.9214    1.8364 H   0  0  0  0  0  0  0  0  0  0  0  0
   -0.2789    4.5159    1.7387 H   0  0  0  0  0  0  0  0  0  0  0  0
   -2.0425    4.3766    1.7418 H   0  0  0  0  0  0  0  0  0  0  0  0
   -2.5072    2.1422    0.0370 H   0  0  0  0  0  0  0  0  0  0  0  0
   -2.2103    2.6855   -1.6774 H   0  0  0  0  0  0  0  0  0  0  0  0
   -3.1907    3.5809   -0.5728 H   0  0  0  0  0  0  0  0  0  0  0  0
   -1.4093   -3.8357   -1.9128 H   0  0  0  0  0  0  0  0  0  0  0  0
    1.0084   -4.3759   -2.2542 H   0  0  0  0  0  0  0  0  0  0  0  0
    0.6178   -1.3532    2.1772 H   0  0  0  0  0  0  0  0  0  0  0  0
    3.5015   -3.8774   -1.0360 H   0  0  0  0  0  0  0  0  0  0  0  0
   -4.5788   -0.9964   -0.9634 H   0  0  0  0  0  0  0  0  0  0  0  0
    3.0686   -1.4503    2.4956 H   0  0  0  0  0  0  0  0  0  0  0  0
    3.2456    0.9957    1.2617 H   0  0  0  0  0  0  0  0  0  0  0  0
    4.4987   -2.6947    0.9154 H   0  0  0  0  0  0  0  0  0  0  0  0
   -6.6685   -0.8705    0.1577 H   0  0  0  0  0  0  0  0  0  0  0  0
   -5.9788    0.2571    1.3641 H   0  0  0  0  0  0  0  0  0  0  0  0
   -6.2525    0.7981   -0.3173 H   0  0  0  0  0  0  0  0  0  0  0  0
    4.4760    2.4272    2.1907 H   0  0  0  0  0  0  0  0  0  0  0  0
  1 14  2  0  0  0  0
  2 20  2  0  0  0  0
  3 21  2  0  0  0  0
  4  8  1  0  0  0  0
  4 56  1  0  0  0  0
  5 12  1  0  0  0  0
  5 14  1  0  0  0  0
  5 38  1  0  0  0  0
  6 22  1  0  0  0  0
  6 23  1  0  0  0  0
  6 46  1  0  0  0  0
  7 20  1  0  0  0  0
  7 28  1  0  0  0  0
  7 49  1  0  0  0  0
  8 21  1  0  0  0  0
  8 51  1  0  0  0  0
  9 10  1  0  0  0  0
  9 13  1  0  0  0  0
  9 14  1  0  0  0  0
  9 29  1  0  0  0  0
 10 11  1  0  0  0  0
 10 30  1  0  0  0  0
 10 31  1  0  0  0  0
 11 17  1  0  0  0  0
 11 18  1  0  0  0  0
 11 32  1  0  0  0  0
 12 15  1  0  0  0  0
 12 20  1  0  0  0  0
 12 33  1  0  0  0  0
 13 21  1  0  0  0  0
 13 34  1  0  0  0  0
 13 35  1  0  0  0  0
 15 16  1  0  0  0  0
 15 36  1  0  0  0  0
 15 37  1  0  0  0  0
 16 19  1  0  0  0  0
 16 23  2  0  0  0  0
 17 39  1  0  0  0  0
 17 40  1  0  0  0  0
 17 41  1  0  0  0  0
 18 42  1  0  0  0  0
 18 43  1  0  0  0  0
 18 44  1  0  0  0  0
 19 22  1  0  0  0  0
 19 24  2  0  0  0  0
 22 25  2  0  0  0  0
 23 45  1  0  0  0  0
 24 26  1  0  0  0  0
 24 47  1  0  0  0  0
 25 27  1  0  0  0  0
 25 48  1  0  0  0  0
 26 27  2  0  0  0  0
 26 50  1  0  0  0  0
 27 52  1  0  0  0  0
 28 53  1  0  0  0  0
 28 54  1  0  0  0  0
 28 55  1  0  0  0  0
M  END
> <PUBCHEM_COMPOUND_CID>
132519

> <PUBCHEM_CONFORMER_RMSD>
1

> <PUBCHEM_CONFORMER_DIVERSEORDER>
4
169
278
314
36
326
287
277
296
82
337
232
16
192
341
157
345
72
357
333
114
302
42
111
349
121
352
325
258
98
146
321
222
22
263
346
299
264
44
344
3
7
218
178
198
269
135
259
28
298
186
203
202
350
273
289
360
112
89
66
241
59
53
280
191
227
134
73
216
17
26
181
262
99
54
282
256
45
332
33
317
238
194
104
213
207
212
170
295
9
330
348
305
25
15
167
158
185
253
173
58
274
355
188
279
235
204
316
240
34
338
2
130
293
331
359
43
224
106
225
313
220
244
320
347
187
69
226
88
20
324
164
113
5
94
311
318
340
177
248
245
268
197
68
80
70
81
142
77
309
102
315
122
236
141
100
148
29
19
328
159
108
237
206
95
107
162
329
283
63
110
138
233
143
183
71
267
251
27
39
155
351
160
217
257
286
231
199
180
126
174
165
221
223
50
205
103
140
301
47
93
86
270
57
116
152
312
247
105
294
210
291
255
41
97
190
8
209
56
261
60
144
243
51
161
13
32
11
1
239
290
281
246
219
228
21
120
334
208
145
90
250
249
172
76
79
168
184
118
109
354
48
215
195
171
176
327
132
307
175
38
127
129
288
46
193
196
272
87
292
92
284
74
37
266
85
304
200
133
49
163
52
123
61
136
254
300
201
308
128
62
319
342
24
182
131
242
84
336
30
211
322
153
14
353
260
78
31
35
119
150
310
40
214
179
10
139
6
65
358
154
137
339
275
23
125
55
115
335
12
64
343
166
297
91
18
67
117
151
75
149
156
96
189
229
83
323
124
147
276
234
356
303
306
230
265
271
285
252
101

> <PUBCHEM_MMFF94_PARTIAL_CHARGES>
33
1 -0.57
12 0.36
13 0.06
14 0.57
15 0.18
16 -0.18
2 -0.57
20 0.57
21 0.57
22 -0.15
23 -0.3
24 -0.15
25 -0.15
26 -0.15
27 -0.15
28 0.3
3 -0.57
38 0.37
4 -0.44
45 0.15
46 0.27
47 0.15
48 0.15
49 0.37
5 -0.73
50 0.15
51 0.37
52 0.15
56 0.4
6 0.03
7 -0.73
8 -0.39
9 0.06

> <PUBCHEM_EFFECTIVE_ROTOR_COUNT>
12

> <PUBCHEM_PHARMACOPHORE_FEATURES>
12
1 1 acceptor
1 2 acceptor
1 3 acceptor
1 5 donor
1 6 cation
1 6 donor
1 7 donor
1 8 donor
3 11 17 18 hydrophobe
4 9 10 11 13 hydrophobe
5 6 16 19 22 23 rings
6 19 22 24 25 26 27 rings

> <PUBCHEM_HEAVY_ATOM_COUNT>
28

> <PUBCHEM_ATOM_DEF_STEREO_COUNT>
2

> <PUBCHEM_ATOM_UDEF_STEREO_COUNT>
0

> <PUBCHEM_BOND_DEF_STEREO_COUNT>
0

> <PUBCHEM_BOND_UDEF_STEREO_COUNT>
0

> <PUBCHEM_ISOTOPIC_ATOM_COUNT>
0

> <PUBCHEM_COMPONENT_COUNT>
1

> <PUBCHEM_CACTVS_TAUTO_COUNT>
12

> <PUBCHEM_CONFORMER_ID>
000205A700000004

> <PUBCHEM_MMFF94_ENERGY>
61.324

> <PUBCHEM_FEATURE_SELFOVERLAP>
61.053

> <PUBCHEM_SHAPE_FINGERPRINT>
1100329 8 17546726414196444211
11578080 2 16733256833721978879
12156800 1 15907174932102017394
12422481 6 18188192295736599714
13140716 1 18336262448554905778
133893 2 17316800657253361165
14466204 15 18193557998321690601
15420108 30 18343021138067237839
16120349 306 18048581901405008816
20600515 1 18051700133124335908
21421861 104 18194142749676877577
23419403 2 17822839889011223023
23557571 272 17904487303250122471
3178227 256 17976274748614249435
3298306 158 18189623911236229631
3411729 13 18261397775645357699
445580 8 18190165966231778456
5265222 85 17682417075403236956
6287921 2 18200308814869260650
81228 2 17467085050944734795

> <PUBCHEM_SHAPE_MULTIPOLES>
532.83
7.26
6.47
1.44
3.63
5.11
-0.1
-3.21
-2.12
-1.67
0.73
-0.34
0.03
0.8

> <PUBCHEM_SHAPE_SELFOVERLAP>
1106.535

> <PUBCHEM_SHAPE_VOLUME>
303.9

> <PUBCHEM_COORDINATE_TYPE>
2
5
10

$$$$
