REMARK  Name = 132536471
REMARK  6 active torsions:
REMARK  status: ('A' for Active; 'I' for Inactive)
REMARK    1  A    between atoms: C_3  and  O_15
REMARK    2  A    between atoms: C_9  and  C_23
REMARK    3  A    between atoms: C_12  and  O_17
REMARK    4  A    between atoms: C_13  and  O_19
REMARK    5  A    between atoms: C_14  and  O_21
REMARK    6  A    between atoms: C_23  and  O_24
REMARK                            x       y       z     vdW  Elec       q    Type
REMARK                         _______ _______ _______ _____ _____    ______ ____
ROOT
ATOM      1  O   UNL     1      -3.981  -0.366  -0.397  0.00  0.00    -0.452 OA
ATOM      2  O   UNL     1      -0.755   2.384   0.037  0.00  0.00    -0.286 OA
ATOM      3  C   UNL     1      -0.621  -1.903  -0.216  0.00  0.00    +0.163 C 
ATOM      4  C   UNL     1      -1.841  -1.062  -0.277  0.00  0.00    +0.052 C 
ATOM      5  C   UNL     1       0.606  -1.000  -0.221  0.00  0.00    +0.018 C 
ATOM      6  C   UNL     1      -1.867   0.350  -0.203  0.00  0.00    +0.073 C 
ATOM      7  C   UNL     1       0.588   0.413  -0.140  0.00  0.00    +0.075 C 
ATOM      8  C   UNL     1      -0.694   1.169  -0.087  0.00  0.00    +0.201 C 
ATOM      9  C   UNL     1      -3.185   0.730  -0.274  0.00  0.00    +0.155 C 
ATOM     10  C   UNL     1       1.861  -1.634  -0.300  0.00  0.00    +0.038 C 
ATOM     11  C   UNL     1      -3.158  -1.449  -0.401  0.00  0.00    +0.178 C 
ATOM     12  C   UNL     1       1.784   1.145  -0.128  0.00  0.00    +0.174 C 
ATOM     13  C   UNL     1       3.010   0.486  -0.202  0.00  0.00    +0.206 C 
ATOM     14  C   UNL     1       3.049  -0.901  -0.290  0.00  0.00    +0.171 C 
ENDROOT
BRANCH   3  15
ATOM     15  O   UNL     1      -0.593  -2.696   0.968  0.00  0.00    -0.345 OA
ATOM     16  C   UNL     1      -1.412  -3.849   0.838  0.00  0.00    +0.175 C 
ENDBRANCH   3  15
BRANCH  12  17
ATOM     17  O   UNL     1       1.804   2.508  -0.053  0.00  0.00    -0.503 OA
ATOM     18  H   UNL     1       1.000   2.987  -0.002  0.00  0.00    +0.292 HD
ENDBRANCH  12  17
BRANCH  13  19
ATOM     19  O   UNL     1       4.173   1.197  -0.192  0.00  0.00    -0.465 OA
ATOM     20  C   UNL     1       4.763   1.455   1.080  0.00  0.00    +0.253 C 
ENDBRANCH  13  19
BRANCH  14  21
ATOM     21  O   UNL     1       4.240  -1.559  -0.366  0.00  0.00    -0.503 OA
ATOM     22  H   UNL     1       4.256  -2.494  -0.425  0.00  0.00    +0.292 HD
ENDBRANCH  14  21
BRANCH   9  23
ATOM     23  C   UNL     1      -3.877   2.027  -0.252  0.00  0.00    +0.202 C 
BRANCH  23  24
ATOM     24  O   UNL     1      -3.895   2.555   1.076  0.00  0.00    -0.375 OA
ATOM     25  H   UNL     1      -4.353   3.410   1.079  0.00  0.00    +0.211 HD
ENDBRANCH  23  24
ENDBRANCH   9  23
TORSDOF 6
