REMARK  Name = 132525355
REMARK  8 active torsions:
REMARK  status: ('A' for Active; 'I' for Inactive)
REMARK    1  A    between atoms: C_4  and  N_29
REMARK    2  A    between atoms: C_7  and  C_17
REMARK    3  A    between atoms: C_10  and  O_27
REMARK    4  A    between atoms: C_20  and  O_23
REMARK    5  A    between atoms: C_21  and  O_25
REMARK    6  A    between atoms: N_29  and  C_31
REMARK    7  A    between atoms: C_32  and  C_38
REMARK    8  A    between atoms: C_38  and  O_39
REMARK                            x       y       z     vdW  Elec       q    Type
REMARK                         _______ _______ _______ _____ _____    ______ ____
ROOT
ATOM      1  O   UNL     1      -1.967   0.068   0.373  0.00  0.00    -0.448 OA
ATOM      2  O   UNL     1      -0.274   2.451  -0.969  0.00  0.00    -0.296 OA
ATOM      3  O   UNL     1      -2.380  -0.027  -1.890  0.00  0.00    -0.250 OA
ATOM      4  C   UNL     1       0.771   1.110   1.466  0.00  0.00    +0.080 C 
ATOM      5  C   UNL     1       0.173  -0.333   1.461  0.00  0.00    +0.063 C 
ATOM      6  C   UNL     1      -0.216   2.310   1.461  0.00  0.00    +0.076 C 
ATOM      7  C   UNL     1      -0.732  -0.665   0.244  0.00  0.00    +0.193 C 
ATOM      8  C   UNL     1      -2.175   3.447   0.129  0.00  0.00    +0.085 C 
ATOM      9  C   UNL     1      -0.838   2.688   0.100  0.00  0.00    +0.154 C 
ATOM     10  C   UNL     1      -3.263   2.839  -0.793  0.00  0.00    +0.128 C 
ATOM     11  C   UNL     1      -3.734   1.402  -0.484  0.00  0.00    +0.126 C 
ATOM     12  C   UNL     1      -0.535  -0.605   2.803  0.00  0.00    +0.006 C 
ATOM     13  C   UNL     1       0.478   3.559   2.023  0.00  0.00    +0.009 C 
ATOM     14  C   UNL     1      -1.899   4.909  -0.244  0.00  0.00    +0.010 C 
ATOM     15  C   UNL     1      -2.644   0.381  -0.764  0.00  0.00    +0.319 C 
ATOM     16  C   UNL     1      -4.346   1.259   0.910  0.00  0.00    +0.014 C 
ENDROOT
BRANCH   7  17
ATOM     17  C   UNL     1      -0.981  -2.158   0.098  0.00  0.00    +0.023 C 
ATOM     18  C   UNL     1      -0.110  -2.940  -0.660  0.00  0.00    +0.036 C 
ATOM     19  C   UNL     1      -2.082  -2.746   0.722  0.00  0.00    +0.036 C 
ATOM     20  C   UNL     1      -2.310  -4.115   0.589  0.00  0.00    +0.136 C 
ATOM     21  C   UNL     1      -0.338  -4.310  -0.792  0.00  0.00    +0.136 C 
ATOM     22  C   UNL     1      -1.438  -4.897  -0.168  0.00  0.00    +0.073 C 
BRANCH  20  23
ATOM     23  O   UNL     1      -3.384  -4.688   1.198  0.00  0.00    -0.505 OA
ATOM     24  H   UNL     1      -3.970  -4.162   1.707  0.00  0.00    +0.292 HD
ENDBRANCH  20  23
BRANCH  21  25
ATOM     25  O   UNL     1       0.513  -5.074  -1.532  0.00  0.00    -0.505 OA
ATOM     26  H   UNL     1       1.252  -4.679  -1.951  0.00  0.00    +0.292 HD
ENDBRANCH  21  25
ENDBRANCH   7  17
BRANCH  10  27
ATOM     27  O   UNL     1      -2.873   2.900  -2.166  0.00  0.00    -0.383 OA
ATOM     28  H   UNL     1      -2.573   3.798  -2.378  0.00  0.00    +0.210 HD
ENDBRANCH  10  27
BRANCH   4  29
ATOM     29  N   UNL     1       1.772   1.238   0.422  0.00  0.00    -0.333 N 
ATOM     30  H   UNL     1       1.546   1.760  -0.381  0.00  0.00    +0.147 HD
BRANCH  29  31
ATOM     31  C   UNL     1       3.024   0.664   0.500  0.00  0.00    +0.051 C 
ATOM     32  C   UNL     1       3.701   0.264  -0.652  0.00  0.00    +0.089 C 
ATOM     33  C   UNL     1       3.612   0.487   1.752  0.00  0.00    +0.015 C 
ATOM     34  C   UNL     1       4.966  -0.314  -0.552  0.00  0.00    +0.008 C 
ATOM     35  C   UNL     1       4.878  -0.091   1.852  0.00  0.00    +0.001 C 
ATOM     36  C   UNL     1       5.555  -0.491   0.701  0.00  0.00    +0.000 C 
BRANCH  32  38
ATOM     37  O   UNL     1       1.906   0.420  -2.227  0.00  0.00    -0.245 OA
ATOM     38  C   UNL     1       3.114   0.436  -1.975  0.00  0.00    +0.339 C 
BRANCH  38  39
ATOM     39  O   UNL     1       4.055   0.623  -2.938  0.00  0.00    -0.477 OA
ATOM     40  H   UNL     1       4.964   0.630  -2.710  0.00  0.00    +0.295 HD
ENDBRANCH  38  39
ENDBRANCH  32  38
ENDBRANCH  29  31
ENDBRANCH   4  29
TORSDOF 8
