REMARK  Name = 132566691
REMARK  15 active torsions:
REMARK  status: ('A' for Active; 'I' for Inactive)
REMARK    1  A    between atoms: C_2  and  C_3
REMARK    2  A    between atoms: C_2  and  C_22
REMARK    3  A    between atoms: C_5  and  O_9
REMARK    4  A    between atoms: C_6  and  C_15
REMARK    5  A    between atoms: C_7  and  C_14
REMARK    6  A    between atoms: C_8  and  O_11
REMARK    7  A    between atoms: C_15  and  C_16
REMARK    8  A    between atoms: C_15  and  O_19
REMARK    9  A    between atoms: O_19  and  C_20
REMARK   10  A    between atoms: C_22  and  C_30
REMARK   11  A    between atoms: C_22  and  C_37
REMARK   12  A    between atoms: C_26  and  C_35
REMARK   13  A    between atoms: C_27  and  O_31
REMARK   14  A    between atoms: C_28  and  O_33
REMARK   15  A    between atoms: C_37  and  C_38
REMARK                            x       y       z     vdW  Elec       q    Type
REMARK                         _______ _______ _______ _____ _____    ______ ____
ROOT
ATOM      1  O   UNL     1       0.810   0.256   2.052  0.00  0.00    -0.291 OA
ATOM      2  C   UNL     1       0.182  -0.216   1.105  0.00  0.00    +0.178 C 
ENDROOT
BRANCH   2   3
ATOM      3  C   UNL     1      -1.063   0.468   0.658  0.00  0.00    +0.068 C 
ATOM      4  C   UNL     1      -2.081  -0.290   0.080  0.00  0.00    +0.007 C 
ATOM      5  C   UNL     1      -1.219   1.845   0.810  0.00  0.00    +0.142 C 
ATOM      6  C   UNL     1      -3.256   0.329  -0.347  0.00  0.00    +0.039 C 
ATOM      7  C   UNL     1      -2.394   2.465   0.383  0.00  0.00    +0.109 C 
ATOM      8  C   UNL     1      -3.412   1.707  -0.196  0.00  0.00    +0.138 C 
BRANCH   5   9
ATOM      9  O   UNL     1      -0.222   2.586   1.376  0.00  0.00    -0.505 OA
ATOM     10  H   UNL     1       0.566   2.168   1.662  0.00  0.00    +0.292 HD
ENDBRANCH   5   9
BRANCH   8  11
ATOM     11  O   UNL     1      -4.564   2.309  -0.613  0.00  0.00    -0.506 OA
ATOM     12  H   UNL     1      -5.245   1.797  -1.001  0.00  0.00    +0.292 HD
ENDBRANCH   8  11
BRANCH   7  14
ATOM     13  O   UNL     1      -2.031   4.544   1.452  0.00  0.00    -0.283 OA
ATOM     14  C   UNL     1      -2.559   3.906   0.540  0.00  0.00    +0.240 C 
ENDBRANCH   7  14
BRANCH   6  15
ATOM     15  C   UNL     1      -4.334  -0.499  -0.964  0.00  0.00    +0.140 C 
BRANCH  15  16
ATOM     16  C   UNL     1      -5.373  -1.134   0.008  0.00  0.00    +0.032 C 
ATOM     17  C   UNL     1      -6.206  -0.101   0.773  0.00  0.00    +0.003 C 
ATOM     18  C   UNL     1      -4.726  -2.119   0.983  0.00  0.00    +0.003 C 
ENDBRANCH  15  16
BRANCH  15  19
ATOM     19  O   UNL     1      -3.757  -1.556  -1.749  0.00  0.00    -0.352 OA
BRANCH  19  20
ATOM     20  C   UNL     1      -3.343  -1.077  -3.015  0.00  0.00    +0.143 C 
ATOM     21  C   UNL     1      -2.743  -2.221  -3.804  0.00  0.00    +0.035 C 
ENDBRANCH  19  20
ENDBRANCH  15  19
ENDBRANCH   6  15
ENDBRANCH   2   3
BRANCH   2  22
ATOM     22  C   UNL     1       0.655  -1.477   0.378  0.00  0.00    +0.089 C 
BRANCH  22  30
ATOM     23  O   UNL     1       4.549   1.659   0.051  0.00  0.00    -0.349 OA
ATOM     24  O   UNL     1       2.923  -0.953   0.899  0.00  0.00    -0.331 OA
ATOM     25  C   UNL     1       4.400   0.346  -0.514  0.00  0.00    +0.193 C 
ATOM     26  C   UNL     1       5.683   1.149  -0.664  0.00  0.00    +0.147 C 
ATOM     27  C   UNL     1       3.436   0.257  -1.669  0.00  0.00    +0.145 C 
ATOM     28  C   UNL     1       4.288  -0.754   0.509  0.00  0.00    +0.262 C 
ATOM     29  C   UNL     1       2.027  -0.025  -1.149  0.00  0.00    +0.062 C 
ATOM     30  C   UNL     1       2.042  -1.220  -0.197  0.00  0.00    +0.128 C 
BRANCH  27  31
ATOM     31  O   UNL     1       3.415   1.462  -2.431  0.00  0.00    -0.382 OA
ATOM     32  H   UNL     1       4.306   1.648  -2.765  0.00  0.00    +0.210 HD
ENDBRANCH  27  31
BRANCH  28  33
ATOM     33  O   UNL     1       4.881  -1.940  -0.013  0.00  0.00    -0.358 OA
ATOM     34  H   UNL     1       4.811  -2.652   0.643  0.00  0.00    +0.213 HD
ENDBRANCH  28  33
BRANCH  26  35
ATOM     35  C   UNL     1       6.894   0.926   0.170  0.00  0.00    +0.032 C 
ATOM     36  C   UNL     1       7.762  -0.199  -0.336  0.00  0.00    +0.003 C 
ENDBRANCH  26  35
ENDBRANCH  22  30
BRANCH  22  37
ATOM     37  C   UNL     1       0.685  -2.682   1.339  0.00  0.00    +0.010 C 
BRANCH  37  38
ATOM     38  C   UNL     1      -0.703  -3.289   1.564  0.00  0.00    +0.001 C 
ATOM     39  C   UNL     1      -0.646  -4.462   2.529  0.00  0.00    +0.000 C 
ENDBRANCH  37  38
ENDBRANCH  22  37
ENDBRANCH   2  22
TORSDOF 15
