REMARK  Name = 132535158
REMARK  4 active torsions:
REMARK  status: ('A' for Active; 'I' for Inactive)
REMARK    1  A    between atoms: C_5  and  O_18
REMARK    2  A    between atoms: C_8  and  S_13
REMARK    3  A    between atoms: C_9  and  O_20
REMARK    4  A    between atoms: S_13  and  C_15
REMARK                            x       y       z     vdW  Elec       q    Type
REMARK                         _______ _______ _______ _____ _____    ______ ____
ROOT
ATOM      1  S   UNL     1      -0.056  -1.478  -0.709  0.00  0.00    +0.059 S 
ATOM      2  O   UNL     1       1.514   0.407   2.092  0.00  0.00    -0.444 OA
ATOM      3  O   UNL     1      -0.082  -2.229  -2.008  0.00  0.00    -0.255 OA
ATOM      4  O   UNL     1       1.330   2.464   1.229  0.00  0.00    -0.247 OA
ATOM      5  C   UNL     1       1.568   0.685  -0.370  0.00  0.00    +0.193 C 
ATOM      6  C   UNL     1       1.658  -0.828  -0.497  0.00  0.00    +0.146 C 
ATOM      7  C   UNL     1       0.404   1.143  -1.278  0.00  0.00    +0.062 C 
ATOM      8  C   UNL     1      -0.761   0.180  -1.021  0.00  0.00    +0.165 C 
ATOM      9  C   UNL     1       2.360  -1.438   0.703  0.00  0.00    +0.169 C 
ATOM     10  C   UNL     1       1.450   1.253   1.040  0.00  0.00    +0.342 C 
ATOM     11  C   UNL     1       0.770   1.163  -2.772  0.00  0.00    +0.005 C 
ATOM     12  C   UNL     1       1.674  -1.018   1.985  0.00  0.00    +0.238 C 
ENDROOT
BRANCH   8  13
ATOM     13  S   UNL     1      -1.801   0.725   0.380  0.00  0.00    +0.077 S 
ATOM     14  O   UNL     1      -2.222   2.132   0.107  0.00  0.00    -0.251 OA
BRANCH  13  15
ATOM     15  C   UNL     1      -3.210  -0.295  -0.011  0.00  0.00    +0.061 C 
ATOM     16  C   UNL     1      -4.285  -0.231   0.787  0.00  0.00    -0.017 C 
ATOM     17  C   UNL     1      -5.527  -1.028   0.561  0.00  0.00    +0.031 C 
ENDBRANCH  13  15
ENDBRANCH   8  13
BRANCH   5  18
ATOM     18  O   UNL     1       2.807   1.248  -0.815  0.00  0.00    -0.376 OA
ATOM     19  H   UNL     1       2.991   0.950  -1.719  0.00  0.00    +0.211 HD
ENDBRANCH   5  18
BRANCH   9  20
ATOM     20  O   UNL     1       2.409  -2.853   0.594  0.00  0.00    -0.380 OA
ATOM     21  H   UNL     1       2.851  -3.098  -0.234  0.00  0.00    +0.211 HD
ENDBRANCH   9  20
TORSDOF 4
