REMARK  Name = 132529145
REMARK  9 active torsions:
REMARK  status: ('A' for Active; 'I' for Inactive)
REMARK    1  A    between atoms: C_8  and  O_18
REMARK    2  A    between atoms: C_9  and  O_31
REMARK    3  A    between atoms: O_18  and  C_20
REMARK    4  A    between atoms: C_20  and  C_21
REMARK    5  A    between atoms: C_21  and  O_23
REMARK    6  A    between atoms: C_21  and  C_25
REMARK    7  A    between atoms: C_25  and  O_27
REMARK    8  A    between atoms: O_27  and  C_29
REMARK    9  A    between atoms: O_31  and  C_33
REMARK                            x       y       z     vdW  Elec       q    Type
REMARK                         _______ _______ _______ _____ _____    ______ ____
ROOT
ATOM      1  O   UNL     1      -3.232   2.457   0.720  0.00  0.00    -0.449 OA
ATOM      2  O   UNL     1      -3.010   4.741   0.996  0.00  0.00    -0.245 OA
ATOM      3  C   UNL     1      -1.732  -0.883  -0.515  0.00  0.00    +0.048 C 
ATOM      4  C   UNL     1      -2.728   0.020   0.319  0.00  0.00    +0.062 C 
ATOM      5  C   UNL     1      -2.482   1.498  -0.039  0.00  0.00    +0.180 C 
ATOM      6  C   UNL     1      -0.266  -0.416  -0.288  0.00  0.00    +0.048 C 
ATOM      7  C   UNL     1      -1.045   1.877   0.291  0.00  0.00    +0.109 C 
ATOM      8  C   UNL     1      -0.042   1.088  -0.535  0.00  0.00    +0.177 C 
ATOM      9  C   UNL     1      -1.914  -2.340   0.000  0.00  0.00    +0.173 C 
ATOM     10  C   UNL     1      -4.161  -0.499   0.229  0.00  0.00    -0.045 C 
ATOM     11  C   UNL     1      -2.007  -0.825  -2.045  0.00  0.00    +0.004 C 
ATOM     12  C   UNL     1      -3.348  -2.852  -0.190  0.00  0.00    +0.069 C 
ATOM     13  C   UNL     1      -1.195   3.352   0.180  0.00  0.00    +0.060 C 
ATOM     14  C   UNL     1      -4.405  -1.807   0.012  0.00  0.00    -0.031 C 
ATOM     15  C   UNL     1      -2.565   3.657   0.668  0.00  0.00    +0.337 C 
ATOM     16  C   UNL     1      -5.306   0.444   0.459  0.00  0.00    +0.026 C 
ATOM     17  C   UNL     1      -0.395   4.308  -0.293  0.00  0.00    +0.002 C 
ENDROOT
BRANCH   8  18
ATOM     18  O   UNL     1       1.289   1.369  -0.104  0.00  0.00    -0.450 OA
BRANCH  18  20
ATOM     19  O   UNL     1       2.077   0.873  -2.209  0.00  0.00    -0.247 OA
ATOM     20  C   UNL     1       2.265   1.221  -1.049  0.00  0.00    +0.345 C 
BRANCH  20  21
ATOM     21  C   UNL     1       3.640   1.545  -0.464  0.00  0.00    +0.214 C 
ATOM     22  C   UNL     1       3.672   2.990   0.039  0.00  0.00    +0.045 C 
BRANCH  21  23
ATOM     23  O   UNL     1       4.573   1.436  -1.541  0.00  0.00    -0.374 OA
ATOM     24  H   UNL     1       4.573   0.527  -1.880  0.00  0.00    +0.211 HD
ENDBRANCH  21  23
BRANCH  21  25
ATOM     25  C   UNL     1       4.075   0.540   0.624  0.00  0.00    +0.203 C 
ATOM     26  C   UNL     1       5.442   0.846   1.233  0.00  0.00    +0.050 C 
BRANCH  25  27
ATOM     27  O   UNL     1       4.083  -0.788   0.107  0.00  0.00    -0.449 OA
BRANCH  27  29
ATOM     28  O   UNL     1       3.502  -1.616   2.184  0.00  0.00    -0.250 OA
ATOM     29  C   UNL     1       3.777  -1.773   1.002  0.00  0.00    +0.318 C 
ATOM     30  C   UNL     1       3.825  -3.108   0.322  0.00  0.00    +0.121 C 
ENDBRANCH  27  29
ENDBRANCH  25  27
ENDBRANCH  21  25
ENDBRANCH  20  21
ENDBRANCH  18  20
ENDBRANCH   8  18
BRANCH   9  31
ATOM     31  O   UNL     1      -1.040  -3.251  -0.663  0.00  0.00    -0.452 OA
BRANCH  31  33
ATOM     32  O   UNL     1      -0.967  -4.578   1.226  0.00  0.00    -0.250 OA
ATOM     33  C   UNL     1      -0.644  -4.331   0.072  0.00  0.00    +0.317 C 
ATOM     34  C   UNL     1       0.265  -5.195  -0.748  0.00  0.00    +0.121 C 
ENDBRANCH  31  33
ENDBRANCH   9  31
TORSDOF 9
