REMARK  Name = 132571668
REMARK  9 active torsions:
REMARK  status: ('A' for Active; 'I' for Inactive)
REMARK    1  A    between atoms: C_3  and  O_8
REMARK    2  A    between atoms: C_3  and  C_18
REMARK    3  A    between atoms: C_7  and  C_11
REMARK    4  A    between atoms: C_7  and  C_15
REMARK    5  A    between atoms: C_11  and  O_12
REMARK    6  A    between atoms: C_15  and  O_16
REMARK    7  A    between atoms: C_18  and  C_19
REMARK    8  A    between atoms: C_19  and  C_21
REMARK    9  A    between atoms: C_21  and  O_22
REMARK                            x       y       z     vdW  Elec       q    Type
REMARK                         _______ _______ _______ _____ _____    ______ ____
ROOT
ATOM      1  O   UNL     1      -0.697  -1.944   1.081  0.00  0.00    -0.427 OA
ATOM      2  O   UNL     1       0.143  -4.041   0.738  0.00  0.00    -0.250 OA
ATOM      3  C   UNL     1      -0.422  -0.611   0.627  0.00  0.00    +0.247 C 
ATOM      4  C   UNL     1       0.910  -0.719  -0.037  0.00  0.00    +0.042 C 
ATOM      5  C   UNL     1       1.210  -2.148  -0.314  0.00  0.00    +0.138 C 
ATOM      6  C   UNL     1       0.189  -2.833   0.547  0.00  0.00    +0.323 C 
ATOM      7  C   UNL     1       1.765   0.284  -0.274  0.00  0.00    +0.149 C 
ENDROOT
BRANCH   3   8
ATOM      8  O   UNL     1      -0.355   0.289   1.727  0.00  0.00    -0.351 OA
ATOM      9  H   UNL     1       0.347   0.006   2.334  0.00  0.00    +0.214 HD
ENDBRANCH   3   8
BRANCH   7  11
ATOM     10  O   UNL     1       0.717   2.396  -0.714  0.00  0.00    -0.245 OA
ATOM     11  C   UNL     1       1.306   1.657   0.061  0.00  0.00    +0.347 C 
BRANCH  11  12
ATOM     12  O   UNL     1       1.678   1.957   1.334  0.00  0.00    -0.441 OA
ATOM     13  C   UNL     1       1.335   3.271   1.786  0.00  0.00    +0.256 C 
ENDBRANCH  11  12
ENDBRANCH   7  11
BRANCH   7  15
ATOM     14  O   UNL     1       3.283  -1.036  -1.579  0.00  0.00    -0.245 OA
ATOM     15  C   UNL     1       3.087  -0.076  -0.848  0.00  0.00    +0.347 C 
BRANCH  15  16
ATOM     16  O   UNL     1       4.025   0.802  -0.402  0.00  0.00    -0.441 OA
ATOM     17  C   UNL     1       5.363   0.556  -0.847  0.00  0.00    +0.256 C 
ENDBRANCH  15  16
ENDBRANCH   7  15
BRANCH   3  18
ATOM     18  C   UNL     1      -1.521  -0.187  -0.344  0.00  0.00    +0.086 C 
BRANCH  18  19
ATOM     19  C   UNL     1      -2.863  -0.043   0.365  0.00  0.00    +0.116 C 
BRANCH  19  21
ATOM     20  O   UNL     1      -3.801   0.641  -1.772  0.00  0.00    -0.250 OA
ATOM     21  C   UNL     1      -3.954   0.401  -0.582  0.00  0.00    +0.317 C 
BRANCH  21  22
ATOM     22  O   UNL     1      -5.130   0.487   0.108  0.00  0.00    -0.444 OA
ATOM     23  C   UNL     1      -6.266   0.899  -0.659  0.00  0.00    +0.256 C 
ENDBRANCH  21  22
ENDBRANCH  19  21
ENDBRANCH  18  19
ENDBRANCH   3  18
TORSDOF 9
