132525356
  -OEChem-03292013293D

 64 66  0     1  0  0  0  0  0999 V2000
    1.1555    0.8410   -0.7296 O   0  0  0  0  0  0  0  0  0  0  0  0
   -0.0190    4.4577    0.7104 O   0  0  0  0  0  0  0  0  0  0  0  0
   -0.1613    2.1225    2.1511 O   0  0  0  0  0  0  0  0  0  0  0  0
    2.3223    2.4442    0.4419 O   0  0  0  0  0  0  0  0  0  0  0  0
   -4.1360   -3.3226    1.1950 O   0  0  0  0  0  0  0  0  0  0  0  0
    5.3256   -1.3572   -2.5693 O   0  0  0  0  0  0  0  0  0  0  0  0
    5.5426   -2.1463    2.1335 O   0  0  0  0  0  0  0  0  0  0  0  0
   -2.0803   -1.7440    0.1440 N   0  0  0  0  0  0  0  0  0  0  0  0
   -1.1067   -0.6576    0.1743 C   0  0  2  0  0  0  0  0  0  0  0  0
    0.3349   -1.2718    0.1114 C   0  0  2  0  0  0  0  0  0  0  0  0
   -1.4693    0.2359    1.3904 C   0  0  2  0  0  0  0  0  0  0  0  0
    1.4579   -0.1990    0.2255 C   0  0  1  0  0  0  0  0  0  0  0  0
   -1.5096    2.5900    0.2000 C   0  0  2  0  0  0  0  0  0  0  0  0
   -0.9418    1.6808    1.3043 C   0  0  0  0  0  0  0  0  0  0  0  0
   -0.5103    3.6408   -0.3550 C   0  0  2  0  0  0  0  0  0  0  0  0
    0.6759    3.1154   -1.1986 C   0  0  1  0  0  0  0  0  0  0  0  0
    0.4769   -2.0731   -1.2046 C   0  0  0  0  0  0  0  0  0  0  0  0
   -1.1027   -0.4020    2.7362 C   0  0  0  0  0  0  0  0  0  0  0  0
    2.8649   -0.7480    0.0691 C   0  0  0  0  0  0  0  0  0  0  0  0
   -2.7427    3.2863    0.7894 C   0  0  0  0  0  0  0  0  0  0  0  0
    1.5148    2.1166   -0.4195 C   0  0  0  0  0  0  0  0  0  0  0  0
    0.2253    2.5811   -2.5599 C   0  0  0  0  0  0  0  0  0  0  0  0
   -3.3843   -1.5796   -0.2722 C   0  0  0  0  0  0  0  0  0  0  0  0
    3.5658   -1.2004    1.1870 C   0  0  0  0  0  0  0  0  0  0  0  0
    3.4561   -0.8009   -1.1932 C   0  0  0  0  0  0  0  0  0  0  0  0
   -4.4036   -2.3715    0.2563 C   0  0  0  0  0  0  0  0  0  0  0  0
   -3.6797   -0.6112   -1.2316 C   0  0  0  0  0  0  0  0  0  0  0  0
    4.7483   -1.3060   -1.3376 C   0  0  0  0  0  0  0  0  0  0  0  0
    4.8580   -1.7054    1.0427 C   0  0  0  0  0  0  0  0  0  0  0  0
    5.4492   -1.7582   -0.2197 C   0  0  0  0  0  0  0  0  0  0  0  0
   -5.7184   -2.1953   -0.1748 C   0  0  0  0  0  0  0  0  0  0  0  0
   -4.9946   -0.4348   -1.6627 C   0  0  0  0  0  0  0  0  0  0  0  0
   -6.0138   -1.2270   -1.1343 C   0  0  0  0  0  0  0  0  0  0  0  0
   -1.1854   -0.0626   -0.7370 H   0  0  0  0  0  0  0  0  0  0  0  0
    0.4567   -1.9915    0.9324 H   0  0  0  0  0  0  0  0  0  0  0  0
   -2.5598    0.3665    1.4243 H   0  0  0  0  0  0  0  0  0  0  0  0
    1.4002    0.2406    1.2273 H   0  0  0  0  0  0  0  0  0  0  0  0
   -1.8482    1.9700   -0.6327 H   0  0  0  0  0  0  0  0  0  0  0  0
   -1.0766    4.3254   -0.9996 H   0  0  0  0  0  0  0  0  0  0  0  0
    1.3551    3.9554   -1.4016 H   0  0  0  0  0  0  0  0  0  0  0  0
    0.4450   -1.4161   -2.0801 H   0  0  0  0  0  0  0  0  0  0  0  0
   -0.3229   -2.8124   -1.3155 H   0  0  0  0  0  0  0  0  0  0  0  0
    1.4099   -2.6437   -1.2281 H   0  0  0  0  0  0  0  0  0  0  0  0
   -1.9003   -2.5333    0.7570 H   0  0  0  0  0  0  0  0  0  0  0  0
   -1.5605   -1.3900    2.8465 H   0  0  0  0  0  0  0  0  0  0  0  0
   -1.4610    0.2194    3.5650 H   0  0  0  0  0  0  0  0  0  0  0  0
   -0.0216   -0.5108    2.8619 H   0  0  0  0  0  0  0  0  0  0  0  0
   -2.4830    3.8970    1.6611 H   0  0  0  0  0  0  0  0  0  0  0  0
   -3.4889    2.5538    1.1155 H   0  0  0  0  0  0  0  0  0  0  0  0
   -3.2178    3.9345    0.0457 H   0  0  0  0  0  0  0  0  0  0  0  0
   -0.4790    1.7483   -2.4691 H   0  0  0  0  0  0  0  0  0  0  0  0
    1.0846    2.2224   -3.1374 H   0  0  0  0  0  0  0  0  0  0  0  0
   -0.2629    3.3705   -3.1408 H   0  0  0  0  0  0  0  0  0  0  0  0
    0.5404    3.9057    1.2819 H   0  0  0  0  0  0  0  0  0  0  0  0
    3.1035   -1.1614    2.1704 H   0  0  0  0  0  0  0  0  0  0  0  0
    2.9174   -0.4521   -2.0706 H   0  0  0  0  0  0  0  0  0  0  0  0
   -2.9258    0.0106   -1.7005 H   0  0  0  0  0  0  0  0  0  0  0  0
    6.4563   -2.1517   -0.3322 H   0  0  0  0  0  0  0  0  0  0  0  0
   -6.5226   -2.8052    0.2279 H   0  0  0  0  0  0  0  0  0  0  0  0
   -5.2244    0.3142   -2.4149 H   0  0  0  0  0  0  0  0  0  0  0  0
   -7.0373   -1.0907   -1.4713 H   0  0  0  0  0  0  0  0  0  0  0  0
   -4.9646   -3.7682    1.4414 H   0  0  0  0  0  0  0  0  0  0  0  0
    4.7005   -1.0050   -3.2259 H   0  0  0  0  0  0  0  0  0  0  0  0
    4.9840   -2.0362    2.9221 H   0  0  0  0  0  0  0  0  0  0  0  0
  1 12  1  0  0  0  0
  1 21  1  0  0  0  0
  2 15  1  0  0  0  0
  2 54  1  0  0  0  0
  3 14  2  0  0  0  0
  4 21  2  0  0  0  0
  5 26  1  0  0  0  0
  5 62  1  0  0  0  0
  6 28  1  0  0  0  0
  6 63  1  0  0  0  0
  7 29  1  0  0  0  0
  7 64  1  0  0  0  0
  8  9  1  0  0  0  0
  8 23  1  0  0  0  0
  8 44  1  0  0  0  0
  9 10  1  0  0  0  0
  9 11  1  0  0  0  0
  9 34  1  0  0  0  0
 10 12  1  0  0  0  0
 10 17  1  0  0  0  0
 10 35  1  0  0  0  0
 11 14  1  0  0  0  0
 11 18  1  0  0  0  0
 11 36  1  0  0  0  0
 12 19  1  0  0  0  0
 12 37  1  0  0  0  0
 13 14  1  0  0  0  0
 13 15  1  0  0  0  0
 13 20  1  0  0  0  0
 13 38  1  0  0  0  0
 15 16  1  0  0  0  0
 15 39  1  0  0  0  0
 16 21  1  0  0  0  0
 16 22  1  0  0  0  0
 16 40  1  0  0  0  0
 17 41  1  0  0  0  0
 17 42  1  0  0  0  0
 17 43  1  0  0  0  0
 18 45  1  0  0  0  0
 18 46  1  0  0  0  0
 18 47  1  0  0  0  0
 19 24  2  0  0  0  0
 19 25  1  0  0  0  0
 20 48  1  0  0  0  0
 20 49  1  0  0  0  0
 20 50  1  0  0  0  0
 22 51  1  0  0  0  0
 22 52  1  0  0  0  0
 22 53  1  0  0  0  0
 23 26  1  0  0  0  0
 23 27  2  0  0  0  0
 24 29  1  0  0  0  0
 24 55  1  0  0  0  0
 25 28  2  0  0  0  0
 25 56  1  0  0  0  0
 26 31  2  0  0  0  0
 27 32  1  0  0  0  0
 27 57  1  0  0  0  0
 28 30  1  0  0  0  0
 29 30  2  0  0  0  0
 30 58  1  0  0  0  0
 31 33  1  0  0  0  0
 31 59  1  0  0  0  0
 32 33  2  0  0  0  0
 32 60  1  0  0  0  0
 33 61  1  0  0  0  0
M  END
> <PUBCHEM_COMPOUND_CID>
132525356

> <PUBCHEM_CONFORMER_RMSD>
0.8

> <PUBCHEM_CONFORMER_DIVERSEORDER>
2
26
21
23
25
13
27
3
19
29
11
15
20
8
14
7
30
10
12
17
6
22
24
28
9
18
16
4
1
5

> <PUBCHEM_MMFF94_PARTIAL_CHARGES>
40
1 -0.43
11 0.06
12 0.42
13 0.06
14 0.45
15 0.28
16 0.06
19 -0.14
2 -0.68
21 0.66
23 0.1
24 -0.15
25 -0.15
26 0.08
27 -0.15
28 0.08
29 0.08
3 -0.57
30 -0.15
31 -0.15
32 -0.15
33 -0.15
4 -0.57
44 0.4
5 -0.53
54 0.4
55 0.15
56 0.15
57 0.15
58 0.15
59 0.15
6 -0.53
60 0.15
61 0.15
62 0.45
63 0.45
64 0.45
7 -0.53
8 -0.87
9 0.37

> <PUBCHEM_EFFECTIVE_ROTOR_COUNT>
4.6

> <PUBCHEM_PHARMACOPHORE_FEATURES>
11
1 2 acceptor
1 2 donor
1 3 acceptor
1 4 acceptor
1 5 donor
1 6 donor
1 7 donor
1 8 cation
1 8 donor
6 19 24 25 28 29 30 rings
6 23 26 27 31 32 33 rings

> <PUBCHEM_HEAVY_ATOM_COUNT>
33

> <PUBCHEM_ATOM_DEF_STEREO_COUNT>
7

> <PUBCHEM_ATOM_UDEF_STEREO_COUNT>
0

> <PUBCHEM_BOND_DEF_STEREO_COUNT>
0

> <PUBCHEM_BOND_UDEF_STEREO_COUNT>
0

> <PUBCHEM_ISOTOPIC_ATOM_COUNT>
0

> <PUBCHEM_COMPONENT_COUNT>
1

> <PUBCHEM_CACTVS_TAUTO_COUNT>
120

> <PUBCHEM_CONFORMER_ID>
07E62D2C00000002

> <PUBCHEM_MMFF94_ENERGY>
105.442

> <PUBCHEM_FEATURE_SELFOVERLAP>
55.832

> <PUBCHEM_SHAPE_FINGERPRINT>
10930396 42 17981282890660977170
11720765 8 18263071262334407205
12156800 1 17173727775978201040
12166972 35 18200594817068581287
12422481 6 17845673472939465483
12788726 201 18334858277537542386
13004483 165 18340756113764164658
13140716 1 18412262809379652792
133893 2 18047218476326001104
13757389 114 17909574773479664836
13782708 43 17560529378983708686
140371 6 18340498823759451599
14068700 675 18341890796747167967
16992727 255 17678726848577270797
17349148 13 18059868293374538687
17357779 13 18272079479078892854
17686467 74 18410006642612473114
1813 80 18271810141701275254
18222031 100 18343024397842147958
18365409 1 18056478345315014437
2132832 1 18130515209835817089
21703447 108 18340762728430818136
23419403 2 17914016959063370289
23536364 44 18336253545250653837
23559900 14 18116421726058315615
3027735 51 18270399356809114519
3380486 145 18053967072781375712
3380486 77 18411144670394369683
340366 18 18270676609954442559
3886686 26 17330819233209178426
46194498 28 17533777371730719213
469060 322 18338239254249025362
5080951 261 17910643529141344526
613672 6 18341894108078036126
6438754 60 18333726940196542451

> <PUBCHEM_SHAPE_MULTIPOLES>
633.06
11.33
4.61
2.1
0.91
4.94
0.08
-13.64
-2.72
-1.8
0.31
0.9
0.13
-0.62

> <PUBCHEM_SHAPE_SELFOVERLAP>
1342.006

> <PUBCHEM_SHAPE_VOLUME>
350.2

> <PUBCHEM_COORDINATE_TYPE>
2
5
10

$$$$
