132585245
  -OEChem-03292013293D

 41 44  0     0  0  0  0  0  0999 V2000
   -1.6944   -0.8323    1.7968 O   0  0  0  0  0  0  0  0  0  0  0  0
   -6.4117    0.1747   -1.0587 O   0  0  0  0  0  0  0  0  0  0  0  0
   -5.8799   -1.0427    0.8027 O   0  0  0  0  0  0  0  0  0  0  0  0
    4.1765    2.4743    0.0751 N   0  0  0  0  0  0  0  0  0  0  0  0
    4.5927    1.2018   -0.0427 N   0  0  0  0  0  0  0  0  0  0  0  0
   -3.0269   -0.8435    1.4029 N   0  0  0  0  0  0  0  0  0  0  0  0
   -4.2494    0.1655   -0.3799 N   0  0  0  0  0  0  0  0  0  0  0  0
    2.4220   -1.4759   -0.8481 N   0  0  0  0  0  0  0  0  0  0  0  0
    2.3130    1.3367    0.0078 C   0  0  0  0  0  0  0  0  0  0  0  0
    0.9094    1.0278    0.0060 C   0  0  0  0  0  0  0  0  0  0  0  0
    2.8196    2.6093    0.1101 C   0  0  0  0  0  0  0  0  0  0  0  0
    3.4499    0.5115   -0.0831 C   0  0  0  0  0  0  0  0  0  0  0  0
   -1.8183    0.4531   -0.0330 C   0  0  0  0  0  0  0  0  0  0  0  0
    0.3911    0.1966    1.0045 C   0  0  0  0  0  0  0  0  0  0  0  0
   -0.9756   -0.0581    0.9386 C   0  0  0  0  0  0  0  0  0  0  0  0
    0.0890    1.5630   -0.9927 C   0  0  0  0  0  0  0  0  0  0  0  0
   -1.2848    1.2850   -1.0284 C   0  0  0  0  0  0  0  0  0  0  0  0
   -3.0783   -0.0728    0.3124 C   0  0  0  0  0  0  0  0  0  0  0  0
    3.4768   -0.9239   -0.2077 C   0  0  0  0  0  0  0  0  0  0  0  0
    2.1782    3.9305    0.2379 C   0  0  0  0  0  0  0  0  0  0  0  0
    4.5360   -1.6507    0.3117 C   0  0  0  0  0  0  0  0  0  0  0  0
    4.5110   -3.0331    0.1641 C   0  0  0  0  0  0  0  0  0  0  0  0
    2.4323   -2.8221   -0.9724 C   0  0  0  0  0  0  0  0  0  0  0  0
    3.4427   -3.6377   -0.4890 C   0  0  0  0  0  0  0  0  0  0  0  0
   -5.5421   -0.3080   -0.1174 C   0  0  0  0  0  0  0  0  0  0  0  0
   -7.7789   -0.2289   -0.9174 C   0  0  0  0  0  0  0  0  0  0  0  0
    1.0034   -0.2270    1.7928 H   0  0  0  0  0  0  0  0  0  0  0  0
    0.5031    2.2011   -1.7713 H   0  0  0  0  0  0  0  0  0  0  0  0
   -1.9083    1.7061   -1.8108 H   0  0  0  0  0  0  0  0  0  0  0  0
    4.8773    3.2033    0.1263 H   0  0  0  0  0  0  0  0  0  0  0  0
    1.3142    3.8860    0.9088 H   0  0  0  0  0  0  0  0  0  0  0  0
    1.8374    4.2875   -0.7391 H   0  0  0  0  0  0  0  0  0  0  0  0
    2.8704    4.6752    0.6452 H   0  0  0  0  0  0  0  0  0  0  0  0
    5.3688   -1.1863    0.8298 H   0  0  0  0  0  0  0  0  0  0  0  0
   -4.1552    0.7692   -1.1927 H   0  0  0  0  0  0  0  0  0  0  0  0
    5.3213   -3.6385    0.5590 H   0  0  0  0  0  0  0  0  0  0  0  0
    1.5764   -3.2441   -1.4886 H   0  0  0  0  0  0  0  0  0  0  0  0
    3.4018   -4.7136   -0.6150 H   0  0  0  0  0  0  0  0  0  0  0  0
   -8.3527    0.2263   -1.7290 H   0  0  0  0  0  0  0  0  0  0  0  0
   -8.1805    0.1233    0.0374 H   0  0  0  0  0  0  0  0  0  0  0  0
   -7.8620   -1.3171   -0.9957 H   0  0  0  0  0  0  0  0  0  0  0  0
  1  6  1  0  0  0  0
  1 15  1  0  0  0  0
  2 25  1  0  0  0  0
  2 26  1  0  0  0  0
  3 25  2  0  0  0  0
  4  5  1  0  0  0  0
  4 11  1  0  0  0  0
  4 30  1  0  0  0  0
  5 12  2  0  0  0  0
  6 18  2  0  0  0  0
  7 18  1  0  0  0  0
  7 25  1  0  0  0  0
  7 35  1  0  0  0  0
  8 19  1  0  0  0  0
  8 23  2  0  0  0  0
  9 10  1  0  0  0  0
  9 11  2  0  0  0  0
  9 12  1  0  0  0  0
 10 14  2  0  0  0  0
 10 16  1  0  0  0  0
 11 20  1  0  0  0  0
 12 19  1  0  0  0  0
 13 15  2  0  0  0  0
 13 17  1  0  0  0  0
 13 18  1  0  0  0  0
 14 15  1  0  0  0  0
 14 27  1  0  0  0  0
 16 17  2  0  0  0  0
 16 28  1  0  0  0  0
 17 29  1  0  0  0  0
 19 21  2  0  0  0  0
 20 31  1  0  0  0  0
 20 32  1  0  0  0  0
 20 33  1  0  0  0  0
 21 22  1  0  0  0  0
 21 34  1  0  0  0  0
 22 24  2  0  0  0  0
 22 36  1  0  0  0  0
 23 24  1  0  0  0  0
 23 37  1  0  0  0  0
 24 38  1  0  0  0  0
 26 39  1  0  0  0  0
 26 40  1  0  0  0  0
 26 41  1  0  0  0  0
M  END
> <PUBCHEM_COMPOUND_CID>
132585245

> <PUBCHEM_CONFORMER_RMSD>
0.8

> <PUBCHEM_CONFORMER_DIVERSEORDER>
5
22
26
9
23
39
53
44
1
21
15
31
48
57
28
52
14
54
24
18
4
55
13
37
17
25
38
16
36
29
58
51
56
7
19
12
43
47
35
40
20
3
27
8
46
6
30
50
32
11
34
45
10
49
33
2
42
41

> <PUBCHEM_MMFF94_PARTIAL_CHARGES>
34
1 -0.02
10 0.05
11 -0.33
12 0.23
14 -0.15
15 0.14
16 -0.15
17 -0.15
18 0.35
19 0.36
2 -0.43
20 0.18
21 -0.15
22 -0.15
23 0.16
24 -0.15
25 0.78
26 0.28
27 0.15
28 0.15
29 0.15
3 -0.57
30 0.27
34 0.15
35 0.37
36 0.15
37 0.15
38 0.15
4 0.3
5 -0.71
6 -0.41
7 -0.49
8 -0.62
9 -0.05

> <PUBCHEM_EFFECTIVE_ROTOR_COUNT>
5

> <PUBCHEM_PHARMACOPHORE_FEATURES>
9
1 3 acceptor
1 4 donor
1 5 acceptor
1 7 donor
1 8 acceptor
5 1 6 13 15 18 rings
5 4 5 9 11 12 rings
6 10 13 14 15 16 17 rings
6 8 19 21 22 23 24 rings

> <PUBCHEM_HEAVY_ATOM_COUNT>
26

> <PUBCHEM_ATOM_DEF_STEREO_COUNT>
0

> <PUBCHEM_ATOM_UDEF_STEREO_COUNT>
0

> <PUBCHEM_BOND_DEF_STEREO_COUNT>
0

> <PUBCHEM_BOND_UDEF_STEREO_COUNT>
0

> <PUBCHEM_ISOTOPIC_ATOM_COUNT>
0

> <PUBCHEM_COMPONENT_COUNT>
1

> <PUBCHEM_CACTVS_TAUTO_COUNT>
139

> <PUBCHEM_CONFORMER_ID>
07E7171D00000005

> <PUBCHEM_MMFF94_ENERGY>
56.6533

> <PUBCHEM_FEATURE_SELFOVERLAP>
45.771

> <PUBCHEM_SHAPE_FINGERPRINT>
10411042 1 18195526987824925086
10670039 82 15792290372166983423
114674 6 18260833683215266458
11719270 70 18411133680464044336
11796584 16 17489590116924380255
12107183 9 17911531895744920641
12202916 173 18262795160499310826
12236239 1 17131840884164510009
12363563 72 18193850232465959498
12617007 42 17240489121320710628
12730499 353 18338242685912278592
13533116 47 18343864416029786993
13544592 145 18113058229287876323
13583140 156 17915464011339652393
1361 2 18412823577389577647
13955234 65 18342174518129210720
14866123 147 17402332568895560312
15183329 4 18413109433997132593
15250474 111 17988068002601416143
15664445 248 16805610291214402476
15848702 151 18410014308321851081
17138139 8 17128435821096713359
17818456 19 17271746982688979697
20157964 124 18340768238657437781
20645477 70 18408885131339215290
21033650 10 16154272689426885589
21133410 58 18339351969250971927
21197605 99 18122069968128792883
21279426 13 18115016395537023661
21285901 2 17967811634988527068
21344244 78 17988630870802395536
21521239 73 18409720777968520239
2215653 11 18259705592806095423
22224240 67 18201431550039223536
2303208 19 17749401373294263243
23559900 14 18337111266925091952
23569914 152 17326577360709582151
23569943 247 17970907761634366899
23845131 108 18052249893707139160
239999 70 17967531311252968328
3421961 26 18411699859779132896
397830 11 10591466357422924749
404807 14 17693668013303376895
4073 2 18187930650682046531
4340502 62 17987797539767286280
4403749 210 17762334017844111792
46194498 28 17967253100614790764
495365 180 18198056078847852016
5309563 4 18124598583412156150
5326457 24 18271804679204611839
5718773 13 18119525436688192922
59682541 52 18410285905195508791
59755656 215 18408606984856872124
6025842 7 18412545440034375180
8272917 22 18342745143178581652
8988823 20 18413952788842143709
9709674 26 18334299759757722584

> <PUBCHEM_SHAPE_MULTIPOLES>
492.55
13.9
3.64
1.09
29.16
0.16
-0.17
-5.76
2.38
-7.75
0.39
0.85
-0.23
0.85

> <PUBCHEM_SHAPE_SELFOVERLAP>
1097.381

> <PUBCHEM_SHAPE_VOLUME>
262.5

> <PUBCHEM_COORDINATE_TYPE>
2
5
10

$$$$
