REMARK  Name = 132576376
REMARK  6 active torsions:
REMARK  status: ('A' for Active; 'I' for Inactive)
REMARK    1  A    between atoms: C_3  and  C_9
REMARK    2  A    between atoms: C_3  and  O_21
REMARK    3  A    between atoms: C_4  and  C_25
REMARK    4  A    between atoms: C_5  and  C_23
REMARK    5  A    between atoms: C_25  and  C_27
REMARK    6  A    between atoms: C_27  and  O_28
REMARK                            x       y       z     vdW  Elec       q    Type
REMARK                         _______ _______ _______ _____ _____    ______ ____
ROOT
ATOM      1  O   UNL     1       2.515  -1.846   0.677  0.00  0.00    -0.419 OA
ATOM      2  O   UNL     1       4.734  -1.806   0.091  0.00  0.00    -0.245 OA
ATOM      3  C   UNL     1       1.467  -0.868   0.825  0.00  0.00    +0.284 C 
ATOM      4  C   UNL     1       2.157   0.414   0.480  0.00  0.00    +0.038 C 
ATOM      5  C   UNL     1       3.438   0.205   0.166  0.00  0.00    +0.052 C 
ATOM      6  C   UNL     1       3.674  -1.239   0.295  0.00  0.00    +0.339 C 
ENDROOT
BRANCH   3   9
ATOM      7  N   UNL     1      -1.534  -0.055   1.174  0.00  0.00    -0.352 N 
ATOM      8  N   UNL     1       0.570  -1.936  -1.201  0.00  0.00    -0.240 NA
ATOM      9  C   UNL     1       0.299  -1.203  -0.097  0.00  0.00    +0.141 C 
ATOM     10  C   UNL     1      -1.007  -0.794   0.143  0.00  0.00    +0.077 A 
ATOM     11  C   UNL     1      -2.055  -1.115  -0.718  0.00  0.00    +0.020 A 
ATOM     12  C   UNL     1      -3.246  -0.542  -0.171  0.00  0.00    +0.017 A 
ATOM     13  C   UNL     1      -2.889   0.113   1.009  0.00  0.00    +0.057 A 
ATOM     14  C   UNL     1      -1.770  -1.877  -1.863  0.00  0.00    +0.022 C 
ATOM     15  C   UNL     1      -0.444  -2.249  -2.039  0.00  0.00    +0.099 C 
ATOM     16  C   UNL     1      -4.598  -0.519  -0.573  0.00  0.00    +0.001 C 
ATOM     17  C   UNL     1      -3.817   0.789   1.809  0.00  0.00    +0.017 C 
ATOM     18  C   UNL     1      -5.537   0.153   0.217  0.00  0.00    +0.000 C 
ATOM     19  C   UNL     1      -5.150   0.797   1.390  0.00  0.00    +0.001 C 
ATOM     20  H   UNL     1      -1.014   0.306   1.927  0.00  0.00    +0.166 HD
ENDBRANCH   3   9
BRANCH   3  21
ATOM     21  O   UNL     1       1.081  -0.826   2.201  0.00  0.00    -0.347 OA
ATOM     22  H   UNL     1       1.854  -0.610   2.747  0.00  0.00    +0.215 HD
ENDBRANCH   3  21
BRANCH   5  23
ATOM     23  C   UNL     1       4.520   1.135  -0.239  0.00  0.00    +0.033 C 
ATOM     24  C   UNL     1       5.300   1.669   0.955  0.00  0.00    +0.005 C 
ENDBRANCH   5  23
BRANCH   4  25
ATOM     25  C   UNL     1       1.442   1.724   0.536  0.00  0.00    +0.138 C 
BRANCH  25  27
ATOM     26  O   UNL     1       1.272   1.731  -1.897  0.00  0.00    -0.250 OA
ATOM     27  C   UNL     1       0.833   2.065  -0.805  0.00  0.00    +0.321 C 
BRANCH  27  28
ATOM     28  O   UNL     1      -0.282   2.827  -0.593  0.00  0.00    -0.444 OA
ATOM     29  C   UNL     1      -0.972   3.252  -1.772  0.00  0.00    +0.256 C 
ENDBRANCH  27  28
ENDBRANCH  25  27
ENDBRANCH   4  25
TORSDOF 6
