REMARK  Name = 132535211
REMARK  6 active torsions:
REMARK  status: ('A' for Active; 'I' for Inactive)
REMARK    1  A    between atoms: C_5  and  C_20
REMARK    2  A    between atoms: C_5  and  C_35
REMARK    3  A    between atoms: N_19  and  C_22
REMARK    4  A    between atoms: C_21  and  C_27
REMARK    5  A    between atoms: C_32  and  O_33
REMARK    6  A    between atoms: C_40  and  O_41
REMARK                            x       y       z     vdW  Elec       q    Type
REMARK                         _______ _______ _______ _____ _____    ______ ____
ROOT
ATOM      1  N   UNL     1       2.056   0.411   1.153  0.00  0.00    -0.186 N 
ATOM      2  N   UNL     1      -0.133   0.780   1.486  0.00  0.00    -0.193 NA
ATOM      3  N   UNL     1       2.247  -0.445  -1.050  0.00  0.00    -0.388 NA
ATOM      4  N   UNL     1       1.342   1.257   3.280  0.00  0.00    -0.180 NA
ATOM      5  C   UNL     1       0.038   0.255   0.031  0.00  0.00    +0.205 C 
ATOM      6  C   UNL     1       1.567   0.027  -0.053  0.00  0.00    +0.206 C 
ATOM      7  C   UNL     1       1.077   0.830   2.000  0.00  0.00    +0.100 C 
ATOM      8  C   UNL     1       3.384   0.363   1.504  0.00  0.00    +0.071 C 
ATOM      9  C   UNL     1       4.262  -0.151   0.421  0.00  0.00    +0.044 C 
ATOM     10  C   UNL     1       3.652  -0.537  -0.814  0.00  0.00    +0.134 C 
ATOM     11  C   UNL     1       3.742   0.759   2.739  0.00  0.00    +0.037 C 
ATOM     12  C   UNL     1       2.603   1.216   3.605  0.00  0.00    +0.112 C 
ATOM     13  C   UNL     1       5.650  -0.272   0.564  0.00  0.00    +0.004 C 
ATOM     14  C   UNL     1       4.455  -1.026  -1.852  0.00  0.00    +0.032 C 
ATOM     15  C   UNL     1       6.429  -0.762  -0.485  0.00  0.00    +0.000 C 
ATOM     16  C   UNL     1       5.835  -1.138  -1.688  0.00  0.00    +0.003 C 
ENDROOT
BRANCH   5  19
ATOM     17  N   UNL     1       0.327   2.007  -1.787  0.00  0.00    -0.307 N 
ATOM     18  N   UNL     1      -1.693   2.889  -2.057  0.00  0.00    -0.305 N 
ATOM     19  C   UNL     1      -0.486   1.357  -0.902  0.00  0.00    +0.070 C 
ATOM     20  C   UNL     1      -1.728   1.918  -1.087  0.00  0.00    +0.058 C 
ATOM     21  C   UNL     1      -0.442   2.917  -2.458  0.00  0.00    +0.204 C 
ATOM     22  H   UNL     1       1.290   1.849  -1.917  0.00  0.00    +0.149 HD
ATOM     23  H   UNL     1      -2.441   3.442  -2.380  0.00  0.00    +0.150 HD
BRANCH  20  24
ATOM     24  C   UNL     1      -2.914   1.551  -0.375  0.00  0.00    +0.014 C 
ATOM     25  C   UNL     1      -3.739   0.542  -0.870  0.00  0.00    +0.004 C 
ATOM     26  C   UNL     1      -3.243   2.201   0.814  0.00  0.00    +0.004 C 
ATOM     27  C   UNL     1      -4.894   0.182  -0.175  0.00  0.00    +0.037 C 
ATOM     28  C   UNL     1      -4.398   1.842   1.509  0.00  0.00    +0.037 C 
ATOM     29  C   UNL     1      -5.223   0.832   1.014  0.00  0.00    +0.134 C 
BRANCH  29  30
ATOM     30  O   UNL     1      -6.351   0.481   1.691  0.00  0.00    -0.506 OA
ATOM     31  H   UNL     1      -6.905  -0.197   1.358  0.00  0.00    +0.292 HD
ENDBRANCH  29  30
ENDBRANCH  20  24
BRANCH  21  32
ATOM     32  N   UNL     1       0.149   3.687  -3.397  0.00  0.00    -0.291 NA
ATOM     33  H   UNL     1       1.111   3.586  -3.583  0.00  0.00    +0.122 HD
ATOM     34  H   UNL     1      -0.382   4.349  -3.896  0.00  0.00    +0.122 HD
ENDBRANCH  21  32
ENDBRANCH   5  19
BRANCH   5  35
ATOM     35  C   UNL     1      -0.661  -1.095  -0.188  0.00  0.00    +0.011 C 
ATOM     36  C   UNL     1      -0.596  -1.721  -1.433  0.00  0.00    +0.001 C 
ATOM     37  C   UNL     1      -1.360  -1.696   0.859  0.00  0.00    +0.001 C 
ATOM     38  C   UNL     1      -1.231  -2.947  -1.631  0.00  0.00    +0.037 C 
ATOM     39  C   UNL     1      -1.995  -2.922   0.661  0.00  0.00    +0.037 C 
ATOM     40  C   UNL     1      -1.931  -3.548  -0.584  0.00  0.00    +0.139 C 
BRANCH  40  41
ATOM     41  O   UNL     1      -2.549  -4.745  -0.777  0.00  0.00    -0.471 OA
ATOM     42  C   UNL     1      -3.246  -5.302   0.336  0.00  0.00    +0.252 C 
ENDBRANCH  40  41
ENDBRANCH   5  35
TORSDOF 6
