132566691
  -OEChem-03292013293D

 73 75  0     1  0  0  0  0  0999 V2000
    4.5490    1.6594    0.0514 O   0  0  0  0  0  0  0  0  0  0  0  0
    2.9230   -0.9530    0.8993 O   0  0  0  0  0  0  0  0  0  0  0  0
    3.4151    1.4618   -2.4312 O   0  0  0  0  0  0  0  0  0  0  0  0
    4.8808   -1.9405   -0.0128 O   0  0  0  0  0  0  0  0  0  0  0  0
    0.8096    0.2558    2.0519 O   0  0  0  0  0  0  0  0  0  0  0  0
   -0.2221    2.5858    1.3760 O   0  0  0  0  0  0  0  0  0  0  0  0
   -3.7568   -1.5557   -1.7492 O   0  0  0  0  0  0  0  0  0  0  0  0
   -4.5636    2.3088   -0.6133 O   0  0  0  0  0  0  0  0  0  0  0  0
   -2.0310    4.5444    1.4521 O   0  0  0  0  0  0  0  0  0  0  0  0
    4.4004    0.3461   -0.5136 C   0  0  2  0  0  0  0  0  0  0  0  0
    5.6833    1.1489   -0.6638 C   0  0  2  0  0  0  0  0  0  0  0  0
    3.4355    0.2568   -1.6693 C   0  0  1  0  0  0  0  0  0  0  0  0
    4.2885   -0.7537    0.5093 C   0  0  1  0  0  0  0  0  0  0  0  0
    2.0272   -0.0255   -1.1494 C   0  0  0  0  0  0  0  0  0  0  0  0
    2.0416   -1.2195   -0.1968 C   0  0  2  0  0  0  0  0  0  0  0  0
    6.8939    0.9259    0.1701 C   0  0  0  0  0  0  0  0  0  0  0  0
    0.6552   -1.4766    0.3778 C   0  0  1  0  0  0  0  0  0  0  0  0
    7.7622   -0.1992   -0.3362 C   0  0  0  0  0  0  0  0  0  0  0  0
    0.6852   -2.6822    1.3386 C   0  0  0  0  0  0  0  0  0  0  0  0
    0.1816   -0.2164    1.1055 C   0  0  0  0  0  0  0  0  0  0  0  0
   -0.7034   -3.2888    1.5638 C   0  0  0  0  0  0  0  0  0  0  0  0
   -1.0630    0.4676    0.6583 C   0  0  0  0  0  0  0  0  0  0  0  0
   -0.6461   -4.4624    2.5294 C   0  0  0  0  0  0  0  0  0  0  0  0
   -2.0813   -0.2904    0.0801 C   0  0  0  0  0  0  0  0  0  0  0  0
   -1.2193    1.8455    0.8097 C   0  0  0  0  0  0  0  0  0  0  0  0
   -3.2557    0.3294   -0.3470 C   0  0  0  0  0  0  0  0  0  0  0  0
   -2.3938    2.4653    0.3829 C   0  0  0  0  0  0  0  0  0  0  0  0
   -4.3341   -0.4991   -0.9640 C   0  0  2  0  0  0  0  0  0  0  0  0
   -3.4119    1.7073   -0.1956 C   0  0  0  0  0  0  0  0  0  0  0  0
   -5.3731   -1.1341    0.0081 C   0  0  0  0  0  0  0  0  0  0  0  0
   -2.5586    3.9064    0.5403 C   0  0  0  0  0  0  0  0  0  0  0  0
   -6.2061   -0.1010    0.7731 C   0  0  0  0  0  0  0  0  0  0  0  0
   -4.7261   -2.1193    0.9832 C   0  0  0  0  0  0  0  0  0  0  0  0
   -3.3427   -1.0766   -3.0151 C   0  0  0  0  0  0  0  0  0  0  0  0
   -2.7434   -2.2214   -3.8036 C   0  0  0  0  0  0  0  0  0  0  0  0
    5.9172    1.5871   -1.6257 H   0  0  0  0  0  0  0  0  0  0  0  0
    3.7597   -0.5504   -2.3365 H   0  0  0  0  0  0  0  0  0  0  0  0
    4.8263   -0.4919    1.4255 H   0  0  0  0  0  0  0  0  0  0  0  0
    1.6782    0.8846   -0.6459 H   0  0  0  0  0  0  0  0  0  0  0  0
    1.3434   -0.1976   -1.9892 H   0  0  0  0  0  0  0  0  0  0  0  0
    2.3876   -2.1170   -0.7258 H   0  0  0  0  0  0  0  0  0  0  0  0
    7.4828    1.8512    0.1678 H   0  0  0  0  0  0  0  0  0  0  0  0
    6.6361    0.7420    1.2187 H   0  0  0  0  0  0  0  0  0  0  0  0
    0.0102   -1.7125   -0.4737 H   0  0  0  0  0  0  0  0  0  0  0  0
    2.7826    1.3371   -3.1592 H   0  0  0  0  0  0  0  0  0  0  0  0
    8.6692   -0.2832    0.2710 H   0  0  0  0  0  0  0  0  0  0  0  0
    8.0654   -0.0231   -1.3738 H   0  0  0  0  0  0  0  0  0  0  0  0
    7.2481   -1.1618   -0.3024 H   0  0  0  0  0  0  0  0  0  0  0  0
    5.2195   -2.4492    0.7433 H   0  0  0  0  0  0  0  0  0  0  0  0
    1.3347   -3.4646    0.9254 H   0  0  0  0  0  0  0  0  0  0  0  0
    1.1141   -2.3934    2.3065 H   0  0  0  0  0  0  0  0  0  0  0  0
   -1.1253   -3.6259    0.6102 H   0  0  0  0  0  0  0  0  0  0  0  0
   -1.3800   -2.5348    1.9796 H   0  0  0  0  0  0  0  0  0  0  0  0
   -0.2600   -4.1498    3.5049 H   0  0  0  0  0  0  0  0  0  0  0  0
   -1.6470   -4.8794    2.6781 H   0  0  0  0  0  0  0  0  0  0  0  0
   -0.0007   -5.2574    2.1426 H   0  0  0  0  0  0  0  0  0  0  0  0
   -1.9919   -1.3652   -0.0202 H   0  0  0  0  0  0  0  0  0  0  0  0
   -4.9221    0.1258   -1.6509 H   0  0  0  0  0  0  0  0  0  0  0  0
   -6.0659   -1.7226   -0.6097 H   0  0  0  0  0  0  0  0  0  0  0  0
   -0.4120    3.5346    1.3119 H   0  0  0  0  0  0  0  0  0  0  0  0
   -3.1971    4.4276   -0.1917 H   0  0  0  0  0  0  0  0  0  0  0  0
   -4.1347   -2.8768    0.4591 H   0  0  0  0  0  0  0  0  0  0  0  0
   -5.4970   -2.6480    1.5551 H   0  0  0  0  0  0  0  0  0  0  0  0
   -4.0783   -1.6124    1.7055 H   0  0  0  0  0  0  0  0  0  0  0  0
   -6.6952    0.5930    0.0822 H   0  0  0  0  0  0  0  0  0  0  0  0
   -5.5938    0.4772    1.4721 H   0  0  0  0  0  0  0  0  0  0  0  0
   -6.9913   -0.5970    1.3540 H   0  0  0  0  0  0  0  0  0  0  0  0
   -4.7267    3.1144   -0.0973 H   0  0  0  0  0  0  0  0  0  0  0  0
   -4.2029   -0.6792   -3.5662 H   0  0  0  0  0  0  0  0  0  0  0  0
   -2.5943   -0.2836   -2.9104 H   0  0  0  0  0  0  0  0  0  0  0  0
   -1.8832   -2.6443   -3.2738 H   0  0  0  0  0  0  0  0  0  0  0  0
   -3.4717   -3.0301   -3.9247 H   0  0  0  0  0  0  0  0  0  0  0  0
   -2.4187   -1.8876   -4.7931 H   0  0  0  0  0  0  0  0  0  0  0  0
  1 10  1  0  0  0  0
  1 11  1  0  0  0  0
  2 13  1  0  0  0  0
  2 15  1  0  0  0  0
  3 12  1  0  0  0  0
  3 45  1  0  0  0  0
  4 13  1  0  0  0  0
  4 49  1  0  0  0  0
  5 20  2  0  0  0  0
  6 25  1  0  0  0  0
  6 60  1  0  0  0  0
  7 28  1  0  0  0  0
  7 34  1  0  0  0  0
  8 29  1  0  0  0  0
  8 68  1  0  0  0  0
  9 31  2  0  0  0  0
 10 11  1  0  0  0  0
 10 12  1  0  0  0  0
 10 13  1  0  0  0  0
 11 16  1  0  0  0  0
 11 36  1  0  0  0  0
 12 14  1  0  0  0  0
 12 37  1  0  0  0  0
 13 38  1  0  0  0  0
 14 15  1  0  0  0  0
 14 39  1  0  0  0  0
 14 40  1  0  0  0  0
 15 17  1  0  0  0  0
 15 41  1  0  0  0  0
 16 18  1  0  0  0  0
 16 42  1  0  0  0  0
 16 43  1  0  0  0  0
 17 19  1  0  0  0  0
 17 20  1  0  0  0  0
 17 44  1  0  0  0  0
 18 46  1  0  0  0  0
 18 47  1  0  0  0  0
 18 48  1  0  0  0  0
 19 21  1  0  0  0  0
 19 50  1  0  0  0  0
 19 51  1  0  0  0  0
 20 22  1  0  0  0  0
 21 23  1  0  0  0  0
 21 52  1  0  0  0  0
 21 53  1  0  0  0  0
 22 24  2  0  0  0  0
 22 25  1  0  0  0  0
 23 54  1  0  0  0  0
 23 55  1  0  0  0  0
 23 56  1  0  0  0  0
 24 26  1  0  0  0  0
 24 57  1  0  0  0  0
 25 27  2  0  0  0  0
 26 28  1  0  0  0  0
 26 29  2  0  0  0  0
 27 29  1  0  0  0  0
 27 31  1  0  0  0  0
 28 30  1  0  0  0  0
 28 58  1  0  0  0  0
 30 32  1  0  0  0  0
 30 33  1  0  0  0  0
 30 59  1  0  0  0  0
 31 61  1  0  0  0  0
 32 65  1  0  0  0  0
 32 66  1  0  0  0  0
 32 67  1  0  0  0  0
 33 62  1  0  0  0  0
 33 63  1  0  0  0  0
 33 64  1  0  0  0  0
 34 35  1  0  0  0  0
 34 69  1  0  0  0  0
 34 70  1  0  0  0  0
 35 71  1  0  0  0  0
 35 72  1  0  0  0  0
 35 73  1  0  0  0  0
M  END
> <PUBCHEM_COMPOUND_CID>
132566691

> <PUBCHEM_CONFORMER_RMSD>
1.2

> <PUBCHEM_CONFORMER_DIVERSEORDER>
1
80
42
8
6
85
37
60
39
84
82
76
38
62
79
36
48
77
45
64
66
65
57
51
41
15
9
69
21
78
83
73
55
46
81
33
11
27
24
53
2
68
22
87
49
5
75
35
72
10
56
58
71
12
50
20
54
25
30
43
18
74
29
52
32
23
14
7
44
13
26
34
86
16
70
28
17
3
59
61
67
63
40
19
31
4
47

> <PUBCHEM_MMFF94_PARTIAL_CHARGES>
33
1 -0.3
10 -0.04
11 -0.05
12 0.38
13 0.65
15 0.28
16 0.09
17 0.06
2 -0.56
20 0.42
22 0.09
24 -0.15
25 0.08
26 -0.14
27 0.09
28 0.42
29 0.08
3 -0.68
31 0.42
34 0.28
36 0.1
4 -0.68
45 0.4
49 0.4
5 -0.57
57 0.15
6 -0.53
60 0.45
61 0.06
68 0.45
7 -0.56
8 -0.53
9 -0.57

> <PUBCHEM_EFFECTIVE_ROTOR_COUNT>
12.4

> <PUBCHEM_PHARMACOPHORE_FEATURES>
16
1 1 acceptor
1 18 hydrophobe
1 2 acceptor
1 23 hydrophobe
1 3 acceptor
1 3 donor
1 4 acceptor
1 4 donor
1 5 acceptor
1 6 donor
1 7 acceptor
1 8 donor
1 9 acceptor
3 30 32 33 hydrophobe
6 2 10 12 13 14 15 rings
6 22 24 25 26 27 29 rings

> <PUBCHEM_HEAVY_ATOM_COUNT>
35

> <PUBCHEM_ATOM_DEF_STEREO_COUNT>
6

> <PUBCHEM_ATOM_UDEF_STEREO_COUNT>
1

> <PUBCHEM_BOND_DEF_STEREO_COUNT>
0

> <PUBCHEM_BOND_UDEF_STEREO_COUNT>
0

> <PUBCHEM_ISOTOPIC_ATOM_COUNT>
0

> <PUBCHEM_COMPONENT_COUNT>
1

> <PUBCHEM_CACTVS_TAUTO_COUNT>
30

> <PUBCHEM_CONFORMER_ID>
07E6CEA300000001

> <PUBCHEM_MMFF94_ENERGY>
84.0631

> <PUBCHEM_FEATURE_SELFOVERLAP>
81.25

> <PUBCHEM_SHAPE_FINGERPRINT>
10032420 55 18269537434113406496
11049842 53 16766474007957615539
12166972 35 17968098663838272052
12553582 1 18269816710752508003
12788726 201 18410856563945527874
13726171 33 17844819096359632249
13911987 19 18114453539861970331
14040221 310 17915174857320249150
14114206 34 18268122367402024855
14856354 85 18337116765095407219
14932701 244 17917717893959840704
15274700 242 18335692815357942283
15361156 5 13614518584482926290
17349148 13 18114183008213451480
19319366 153 18191867825885598539
20511986 3 18263352599460597188
20587220 46 14754182465561185167
21033648 144 17313100809247828402
21033650 10 18127717970956460924
23569917 315 18040724662549351162
283562 15 18408608037408397785
4258327 124 16734411471935149374
4409770 3 18115033037849935491
463206 1 18055915639277391125
5171179 24 17690568906557130131
59755656 520 18040713705813101282
77296 10 17846499180797871150
9981440 41 18115036207719727840

> <PUBCHEM_SHAPE_MULTIPOLES>
667.46
14.25
4.19
2.38
18.52
0.56
-2.25
1.67
-3.49
-3.88
3.03
-2.1
-1.68
-1.68

> <PUBCHEM_SHAPE_SELFOVERLAP>
1388.917

> <PUBCHEM_SHAPE_VOLUME>
377.3

> <PUBCHEM_COORDINATE_TYPE>
2
5
10

$$$$
