132552299
  -OEChem-03292013293D

 62 68  0     1  0  0  0  0  0999 V2000
    1.3481    1.2278    0.5744 O   0  0  0  0  0  0  0  0  0  0  0  0
    1.0455    3.5073    0.1131 O   0  0  0  0  0  0  0  0  0  0  0  0
    3.5441   -3.3475    0.9657 O   0  0  0  0  0  0  0  0  0  0  0  0
   -1.1503    0.5306    3.0004 O   0  0  0  0  0  0  0  0  0  0  0  0
   -2.3937    1.0680   -2.6885 O   0  0  0  0  0  0  0  0  0  0  0  0
    2.5844   -1.5349   -0.1725 N   0  0  0  0  0  0  0  0  0  0  0  0
    0.4970   -1.5222    0.7051 N   0  0  0  0  0  0  0  0  0  0  0  0
   -1.6725    1.0199   -0.4612 N   0  0  0  0  0  0  0  0  0  0  0  0
   -3.0266   -0.0752    1.1715 N   0  0  0  0  0  0  0  0  0  0  0  0
    1.4866    0.5076   -0.6587 C   0  0  2  0  0  0  0  0  0  0  0  0
    0.3722    2.2769    0.4092 C   0  0  1  0  0  0  0  0  0  0  0  0
   -0.5002    1.8595   -0.7796 C   0  0  1  0  0  0  0  0  0  0  0  0
    0.5133    1.1216   -1.6556 C   0  0  0  0  0  0  0  0  0  0  0  0
    1.2711   -1.0098   -0.4214 C   0  0  1  0  0  0  0  0  0  0  0  0
   -0.4067    2.4655    1.7236 C   0  0  0  0  0  0  0  0  0  0  0  0
    2.9577    0.5104   -1.0451 C   0  0  0  0  0  0  0  0  0  0  0  0
    3.5648   -0.7009   -0.6748 C   0  0  0  0  0  0  0  0  0  0  0  0
    1.1432   -2.8236    1.0632 C   0  0  0  0  0  0  0  0  0  0  0  0
    2.6026   -2.6506    0.6267 C   0  0  0  0  0  0  0  0  0  0  0  0
   -1.1647    1.1758    1.9606 C   0  0  0  0  0  0  0  0  0  0  0  0
   -2.0163    0.6611    0.8362 C   0  0  0  0  0  0  0  0  0  0  0  0
    0.5482    2.7240    2.9059 C   0  0  0  0  0  0  0  0  0  0  0  0
   -1.4130    3.6277    1.6559 C   0  0  0  0  0  0  0  0  0  0  0  0
    3.7279    1.5388   -1.5612 C   0  0  0  0  0  0  0  0  0  0  0  0
    1.0509   -3.0615    2.5689 C   0  0  0  0  0  0  0  0  0  0  0  0
    0.4922   -3.9682    0.2857 C   0  0  0  0  0  0  0  0  0  0  0  0
    4.9251   -0.9147   -0.7749 C   0  0  0  0  0  0  0  0  0  0  0  0
   -2.5184    0.6764   -1.5309 C   0  0  0  0  0  0  0  0  0  0  0  0
    5.1038    1.3310   -1.7030 C   0  0  0  0  0  0  0  0  0  0  0  0
    5.6967    0.1180   -1.3091 C   0  0  0  0  0  0  0  0  0  0  0  0
   -3.6475   -0.2153   -1.1906 C   0  0  0  0  0  0  0  0  0  0  0  0
   -3.8494   -0.5607    0.1478 C   0  0  0  0  0  0  0  0  0  0  0  0
   -4.4937   -0.7047   -2.1915 C   0  0  0  0  0  0  0  0  0  0  0  0
   -4.9134   -1.4083    0.4752 C   0  0  0  0  0  0  0  0  0  0  0  0
   -5.5497   -1.5490   -1.8510 C   0  0  0  0  0  0  0  0  0  0  0  0
   -5.7594   -1.9011   -0.5194 C   0  0  0  0  0  0  0  0  0  0  0  0
   -0.8855    2.7316   -1.3236 H   0  0  0  0  0  0  0  0  0  0  0  0
    0.0799    0.3819   -2.3353 H   0  0  0  0  0  0  0  0  0  0  0  0
    1.0206    1.8561   -2.2928 H   0  0  0  0  0  0  0  0  0  0  0  0
    0.9220   -1.4884   -1.3476 H   0  0  0  0  0  0  0  0  0  0  0  0
    0.6200   -0.8773    1.4862 H   0  0  0  0  0  0  0  0  0  0  0  0
   -2.0139    3.6766    2.5719 H   0  0  0  0  0  0  0  0  0  0  0  0
   -0.0085    2.8475    3.8426 H   0  0  0  0  0  0  0  0  0  0  0  0
   -2.1163    3.5223    0.8234 H   0  0  0  0  0  0  0  0  0  0  0  0
    1.2431    1.8903    3.0574 H   0  0  0  0  0  0  0  0  0  0  0  0
   -0.9045    4.5910    1.5403 H   0  0  0  0  0  0  0  0  0  0  0  0
    1.1403    3.6326    2.7521 H   0  0  0  0  0  0  0  0  0  0  0  0
    1.1872    3.5673   -0.8456 H   0  0  0  0  0  0  0  0  0  0  0  0
    3.2916    2.4946   -1.8291 H   0  0  0  0  0  0  0  0  0  0  0  0
   -0.5761   -4.0483    0.5165 H   0  0  0  0  0  0  0  0  0  0  0  0
    0.9634   -4.9257    0.5364 H   0  0  0  0  0  0  0  0  0  0  0  0
    0.0083   -3.0952    2.9044 H   0  0  0  0  0  0  0  0  0  0  0  0
    1.5624   -2.2713    3.1313 H   0  0  0  0  0  0  0  0  0  0  0  0
    1.5249   -4.0098    2.8473 H   0  0  0  0  0  0  0  0  0  0  0  0
    0.5946   -3.8404   -0.7979 H   0  0  0  0  0  0  0  0  0  0  0  0
    5.3864   -1.8459   -0.4681 H   0  0  0  0  0  0  0  0  0  0  0  0
    5.7280    2.1245   -2.1058 H   0  0  0  0  0  0  0  0  0  0  0  0
    6.7703   -0.0122   -1.4173 H   0  0  0  0  0  0  0  0  0  0  0  0
   -4.3453   -0.4438   -3.2355 H   0  0  0  0  0  0  0  0  0  0  0  0
   -5.0908   -1.6895    1.5106 H   0  0  0  0  0  0  0  0  0  0  0  0
   -6.2088   -1.9328   -2.6242 H   0  0  0  0  0  0  0  0  0  0  0  0
   -6.5823   -2.5586   -0.2546 H   0  0  0  0  0  0  0  0  0  0  0  0
  1 10  1  0  0  0  0
  1 11  1  0  0  0  0
  2 11  1  0  0  0  0
  2 48  1  0  0  0  0
  3 19  2  0  0  0  0
  4 20  2  0  0  0  0
  5 28  2  0  0  0  0
  6 14  1  0  0  0  0
  6 17  1  0  0  0  0
  6 19  1  0  0  0  0
  7 14  1  0  0  0  0
  7 18  1  0  0  0  0
  7 41  1  0  0  0  0
  8 12  1  0  0  0  0
  8 21  1  0  0  0  0
  8 28  1  0  0  0  0
  9 21  2  0  0  0  0
  9 32  1  0  0  0  0
 10 13  1  0  0  0  0
 10 14  1  0  0  0  0
 10 16  1  0  0  0  0
 11 12  1  0  0  0  0
 11 15  1  0  0  0  0
 12 13  1  0  0  0  0
 12 37  1  0  0  0  0
 13 38  1  0  0  0  0
 13 39  1  0  0  0  0
 14 40  1  0  0  0  0
 15 20  1  0  0  0  0
 15 22  1  0  0  0  0
 15 23  1  0  0  0  0
 16 17  1  0  0  0  0
 16 24  2  0  0  0  0
 17 27  2  0  0  0  0
 18 19  1  0  0  0  0
 18 25  1  0  0  0  0
 18 26  1  0  0  0  0
 20 21  1  0  0  0  0
 22 43  1  0  0  0  0
 22 45  1  0  0  0  0
 22 47  1  0  0  0  0
 23 42  1  0  0  0  0
 23 44  1  0  0  0  0
 23 46  1  0  0  0  0
 24 29  1  0  0  0  0
 24 49  1  0  0  0  0
 25 52  1  0  0  0  0
 25 53  1  0  0  0  0
 25 54  1  0  0  0  0
 26 50  1  0  0  0  0
 26 51  1  0  0  0  0
 26 55  1  0  0  0  0
 27 30  1  0  0  0  0
 27 56  1  0  0  0  0
 28 31  1  0  0  0  0
 29 30  2  0  0  0  0
 29 57  1  0  0  0  0
 30 58  1  0  0  0  0
 31 32  1  0  0  0  0
 31 33  2  0  0  0  0
 32 34  2  0  0  0  0
 33 35  1  0  0  0  0
 33 59  1  0  0  0  0
 34 36  1  0  0  0  0
 34 60  1  0  0  0  0
 35 36  2  0  0  0  0
 35 61  1  0  0  0  0
 36 62  1  0  0  0  0
M  END
> <PUBCHEM_COMPOUND_CID>
132552299

> <PUBCHEM_CONFORMER_RMSD>
0.8

> <PUBCHEM_CONFORMER_DIVERSEORDER>
1
3
2

> <PUBCHEM_MMFF94_PARTIAL_CHARGES>
41
1 -0.56
10 0.42
11 0.56
12 0.3
14 0.57
15 0.06
16 -0.14
17 0.12
18 0.33
19 0.57
2 -0.68
20 0.51
21 0.51
24 -0.15
27 -0.15
28 0.54
29 -0.15
3 -0.57
30 -0.15
31 0.09
32 0.18
33 -0.15
34 -0.15
35 -0.15
36 -0.15
4 -0.57
41 0.36
48 0.4
49 0.15
5 -0.57
56 0.15
57 0.15
58 0.15
59 0.15
6 -0.48
60 0.15
61 0.15
62 0.15
7 -0.9
8 -0.42
9 -0.63

> <PUBCHEM_EFFECTIVE_ROTOR_COUNT>
1

> <PUBCHEM_PHARMACOPHORE_FEATURES>
17
1 1 acceptor
1 2 acceptor
1 2 donor
1 3 acceptor
1 4 acceptor
1 5 acceptor
1 7 cation
1 7 donor
3 15 22 23 hydrophobe
3 18 25 26 hydrophobe
5 1 10 11 12 13 rings
5 6 10 14 16 17 rings
5 6 7 14 18 19 rings
6 16 17 24 27 29 30 rings
6 31 32 33 34 35 36 rings
6 8 11 12 15 20 21 rings
6 8 9 21 28 31 32 rings

> <PUBCHEM_HEAVY_ATOM_COUNT>
36

> <PUBCHEM_ATOM_DEF_STEREO_COUNT>
4

> <PUBCHEM_ATOM_UDEF_STEREO_COUNT>
0

> <PUBCHEM_BOND_DEF_STEREO_COUNT>
0

> <PUBCHEM_BOND_UDEF_STEREO_COUNT>
0

> <PUBCHEM_ISOTOPIC_ATOM_COUNT>
0

> <PUBCHEM_COMPONENT_COUNT>
1

> <PUBCHEM_CACTVS_TAUTO_COUNT>
1

> <PUBCHEM_CONFORMER_ID>
07E6966B00000001

> <PUBCHEM_MMFF94_ENERGY>
120.2707

> <PUBCHEM_FEATURE_SELFOVERLAP>
87.06

> <PUBCHEM_SHAPE_FINGERPRINT>
10032420 55 18413388739440722913
11007060 377 18188508904294682788
11135609 187 18263934387399164972
11227688 84 17248660464269540882
11421498 54 18272093768504015367
11445158 3 17029709542768456601
11578080 2 18126257819040644361
11607047 403 14041477787506911855
12156800 1 17755563190690047058
12160290 23 16913966973005998953
12553582 1 17774996891001365735
12633257 1 12103844579384205407
12788726 201 17986112907734128129
13009979 54 18055346934199934586
13383661 66 18267324138692807383
13911987 19 17970087706095068316
14040221 97 17397281893773039676
14705955 166 14189034241088886531
14787075 74 18341904029852825300
15324884 4 17244999472858599201
15439362 3 17976825612082320213
15815584 197 17694452205300693041
17138139 8 18268985552227618278
17349148 13 18338245890558943364
17492 54 18187649145171241534
1813 80 17417809569356293389
20028762 73 18411984616423049486
20511986 3 18269280066825240281
21857420 4 12845736416372818423
22393880 68 18041840580613950982
23419403 2 17553215697458324904
23559900 14 17968368065930530141
23598288 3 17842842127054872989
238 59 18113335327482143031
238918 7 16831200590715964890
3493558 16 12327658009180261886
392239 28 18272932709314513200
4098825 35 17822289042623469901
44802255 64 16590022505712228398
46194498 28 17023752354804599727
463206 1 18339079401719388743
484989 97 18044106876042635694
57527295 17 18336813239951193277
57527452 28 18263093239523630271
6086070 43 17988630914559150621
6669772 16 18123458643225229992
7970288 3 17703791439892441583

> <PUBCHEM_SHAPE_MULTIPOLES>
691.59
9.91
4.11
2.58
3.16
0.84
0.88
5.08
-7.21
-1.45
2.87
0.79
-0.81
-1.95

> <PUBCHEM_SHAPE_SELFOVERLAP>
1575.35

> <PUBCHEM_SHAPE_VOLUME>
359.5

> <PUBCHEM_COORDINATE_TYPE>
2
5
10

$$$$
