REMARK  Name = 132547205
REMARK  11 active torsions:
REMARK  status: ('A' for Active; 'I' for Inactive)
REMARK    1  A    between atoms: C_3  and  C_12
REMARK    2  A    between atoms: C_8  and  O_26
REMARK    3  A    between atoms: C_10  and  O_28
REMARK    4  A    between atoms: C_15  and  O_20
REMARK    5  A    between atoms: C_17  and  O_18
REMARK    6  A    between atoms: O_20  and  C_22
REMARK    7  A    between atoms: C_22  and  C_23
REMARK    8  A    between atoms: C_23  and  C_24
REMARK    9  A    between atoms: O_28  and  C_30
REMARK   10  A    between atoms: C_30  and  C_31
REMARK   11  A    between atoms: C_31  and  C_32
REMARK                            x       y       z     vdW  Elec       q    Type
REMARK                         _______ _______ _______ _____ _____    ______ ____
ROOT
ATOM      1  O   UNL     1       0.587  -0.112   0.029  0.00  0.00    -0.474 OA
ATOM      2  O   UNL     1       0.956   3.569   1.803  0.00  0.00    -0.291 OA
ATOM      3  C   UNL     1      -0.232   0.246   1.153  0.00  0.00    +0.196 C 
ATOM      4  C   UNL     1      -0.485   1.752   1.189  0.00  0.00    +0.117 C 
ATOM      5  C   UNL     1       1.975   1.809   0.604  0.00  0.00    +0.103 C 
ATOM      6  C   UNL     1       0.836   2.472   1.271  0.00  0.00    +0.183 C 
ATOM      7  C   UNL     1       1.780   0.563   0.001  0.00  0.00    +0.148 C 
ATOM      8  C   UNL     1       3.221   2.437   0.538  0.00  0.00    +0.142 C 
ATOM      9  C   UNL     1       2.825  -0.041  -0.699  0.00  0.00    +0.075 C 
ATOM     10  C   UNL     1       4.070   0.586  -0.767  0.00  0.00    +0.154 C 
ATOM     11  C   UNL     1       4.269   1.819  -0.146  0.00  0.00    +0.074 C 
ENDROOT
BRANCH   3  12
ATOM     12  C   UNL     1      -1.532  -0.524   1.064  0.00  0.00    +0.021 C 
ATOM     13  C   UNL     1      -2.397  -0.312  -0.010  0.00  0.00    +0.040 C 
ATOM     14  C   UNL     1      -1.865  -1.448   2.055  0.00  0.00    +0.003 C 
ATOM     15  C   UNL     1      -3.594  -1.022  -0.092  0.00  0.00    +0.182 C 
ATOM     16  C   UNL     1      -3.063  -2.158   1.973  0.00  0.00    +0.040 C 
ATOM     17  C   UNL     1      -3.927  -1.946   0.899  0.00  0.00    +0.173 C 
BRANCH  17  18
ATOM     18  O   UNL     1      -5.093  -2.646   0.829  0.00  0.00    -0.468 OA
ATOM     19  C   UNL     1      -5.359  -3.570   1.882  0.00  0.00    +0.253 C 
ENDBRANCH  17  18
BRANCH  15  20
ATOM     20  O   UNL     1      -4.429  -0.807  -1.147  0.00  0.00    -0.421 OA
BRANCH  20  22
ATOM     21  O   UNL     1      -5.486   0.872   0.089  0.00  0.00    -0.250 OA
ATOM     22  C   UNL     1      -5.377   0.210  -0.934  0.00  0.00    +0.322 C 
BRANCH  22  23
ATOM     23  C   UNL     1      -6.241   0.355  -2.168  0.00  0.00    +0.110 C 
BRANCH  23  24
ATOM     24  C   UNL     1      -7.311   1.429  -1.991  0.00  0.00    +0.012 C 
ATOM     25  C   UNL     1      -8.195   1.543  -3.223  0.00  0.00    +0.001 C 
ENDBRANCH  23  24
ENDBRANCH  22  23
ENDBRANCH  20  22
ENDBRANCH  15  20
ENDBRANCH   3  12
BRANCH   8  26
ATOM     26  O   UNL     1       3.466   3.648   1.112  0.00  0.00    -0.505 OA
ATOM     27  H   UNL     1       2.785   4.091   1.579  0.00  0.00    +0.292 HD
ENDBRANCH   8  26
BRANCH  10  28
ATOM     28  O   UNL     1       5.093  -0.008  -1.441  0.00  0.00    -0.424 OA
BRANCH  28  30
ATOM     29  O   UNL     1       5.717  -1.081   0.540  0.00  0.00    -0.250 OA
ATOM     30  C   UNL     1       5.888  -0.860  -0.651  0.00  0.00    +0.321 C 
BRANCH  30  31
ATOM     31  C   UNL     1       6.984  -1.457  -1.505  0.00  0.00    +0.110 C 
BRANCH  31  32
ATOM     32  C   UNL     1       7.900  -2.374  -0.698  0.00  0.00    +0.012 C 
ATOM     33  C   UNL     1       9.018  -2.942  -1.557  0.00  0.00    +0.001 C 
ENDBRANCH  31  32
ENDBRANCH  30  31
ENDBRANCH  28  30
ENDBRANCH  10  28
TORSDOF 11
