REMARK  Name = 132585245
REMARK  3 active torsions:
REMARK  status: ('A' for Active; 'I' for Inactive)
REMARK    1  A    between atoms: C_5  and  C_16
REMARK    2  A    between atoms: C_12  and  O_27
REMARK    3  A    between atoms: C_18  and  C_22
REMARK                            x       y       z     vdW  Elec       q    Type
REMARK                         _______ _______ _______ _____ _____    ______ ____
ROOT
ATOM      1  O   UNL     1      -1.694  -0.832   1.797  0.00  0.00    -0.352 OA
ATOM      2  O   UNL     1      -5.880  -1.043   0.803  0.00  0.00    -0.226 OA
ATOM      3  N   UNL     1      -3.027  -0.844   1.403  0.00  0.00    -0.062 NA
ATOM      4  N   UNL     1      -4.249   0.166  -0.380  0.00  0.00    -0.232 N 
ATOM      5  C   UNL     1       0.909   1.028   0.006  0.00  0.00    +0.006 C 
ATOM      6  C   UNL     1      -1.818   0.453  -0.033  0.00  0.00    +0.072 A 
ATOM      7  C   UNL     1       0.391   0.197   1.004  0.00  0.00    +0.040 C 
ATOM      8  C   UNL     1      -0.976  -0.058   0.939  0.00  0.00    +0.178 A 
ATOM      9  C   UNL     1       0.089   1.563  -0.993  0.00  0.00    +0.000 C 
ATOM     10  C   UNL     1      -1.285   1.285  -1.028  0.00  0.00    +0.006 C 
ATOM     11  C   UNL     1      -3.078  -0.073   0.312  0.00  0.00    +0.179 A 
ATOM     12  C   UNL     1      -5.542  -0.308  -0.117  0.00  0.00    +0.407 C 
ATOM     13  H   UNL     1      -4.164   0.750  -1.168  0.00  0.00    +0.160 HD
ENDROOT
BRANCH   5  16
ATOM     14  N   UNL     1       4.176   2.474   0.075  0.00  0.00    -0.280 N 
ATOM     15  N   UNL     1       4.593   1.202  -0.043  0.00  0.00    -0.171 NA
ATOM     16  C   UNL     1       2.313   1.337   0.008  0.00  0.00    +0.034 A 
ATOM     17  C   UNL     1       2.820   2.609   0.110  0.00  0.00    +0.053 A 
ATOM     18  C   UNL     1       3.450   0.511  -0.083  0.00  0.00    +0.119 A 
ATOM     19  C   UNL     1       2.178   3.930   0.238  0.00  0.00    +0.051 C 
ATOM     20  H   UNL     1       4.794   3.239   0.131  0.00  0.00    +0.189 HD
BRANCH  18  22
ATOM     21  N   UNL     1       2.422  -1.476  -0.848  0.00  0.00    -0.242 NA
ATOM     22  C   UNL     1       3.477  -0.924  -0.208  0.00  0.00    +0.101 C 
ATOM     23  C   UNL     1       4.536  -1.651   0.312  0.00  0.00    +0.021 C 
ATOM     24  C   UNL     1       4.511  -3.033   0.164  0.00  0.00    +0.003 C 
ATOM     25  C   UNL     1       2.432  -2.822  -0.972  0.00  0.00    +0.099 C 
ATOM     26  C   UNL     1       3.443  -3.638  -0.489  0.00  0.00    +0.021 C 
ENDBRANCH  18  22
ENDBRANCH   5  16
BRANCH  12  27
ATOM     27  O   UNL     1      -6.412   0.175  -1.059  0.00  0.00    -0.430 OA
ATOM     28  C   UNL     1      -7.779  -0.229  -0.917  0.00  0.00    +0.257 C 
ENDBRANCH  12  27
TORSDOF 3
