REMARK  Name = 132574801
REMARK  6 active torsions:
REMARK  status: ('A' for Active; 'I' for Inactive)
REMARK    1  A    between atoms: C_6  and  C_17
REMARK    2  A    between atoms: C_7  and  C_23
REMARK    3  A    between atoms: C_18  and  C_20
REMARK    4  A    between atoms: C_20  and  O_21
REMARK    5  A    between atoms: C_24  and  C_26
REMARK    6  A    between atoms: C_26  and  O_27
REMARK                            x       y       z     vdW  Elec       q    Type
REMARK                         _______ _______ _______ _____ _____    ______ ____
ROOT
ATOM      1  O   UNL     1       0.341   0.277  -0.226  0.00  0.00    -0.348 OA
ATOM      2  O   UNL     1      -2.230  -1.073   0.309  0.00  0.00    -0.352 OA
ATOM      3  O   UNL     1       1.029  -1.944  -1.708  0.00  0.00    -0.449 OA
ATOM      4  O   UNL     1       2.090  -3.456  -0.305  0.00  0.00    -0.250 OA
ATOM      5  C   UNL     1      -0.329   0.275   1.049  0.00  0.00    +0.147 C 
ATOM      6  C   UNL     1      -1.862   0.218   0.819  0.00  0.00    +0.164 C 
ATOM      7  C   UNL     1       1.712  -0.158  -0.208  0.00  0.00    +0.177 C 
ATOM      8  C   UNL     1       2.012  -0.898  -1.537  0.00  0.00    +0.200 C 
ATOM      9  C   UNL     1      -2.557  -2.040   1.323  0.00  0.00    +0.116 C 
ATOM     10  C   UNL     1       0.062   1.505   1.868  0.00  0.00    +0.035 C 
ATOM     11  C   UNL     1      -2.213  -3.442   0.786  0.00  0.00    +0.030 C 
ATOM     12  C   UNL     1       1.889  -0.012  -2.777  0.00  0.00    +0.050 C 
ATOM     13  C   UNL     1      -4.047  -1.944   1.639  0.00  0.00    +0.032 C 
ATOM     14  C   UNL     1      -0.742  -3.500   0.485  0.00  0.00    +0.014 C 
ATOM     15  C   UNL     1       1.120  -3.042  -0.914  0.00  0.00    +0.317 C 
ATOM     16  C   UNL     1      -0.268  -3.510  -0.767  0.00  0.00    +0.110 C 
ENDROOT
BRANCH   6  17
ATOM     17  C   UNL     1      -2.363   1.239  -0.155  0.00  0.00    +0.012 C 
ATOM     18  C   UNL     1      -3.282   2.164   0.156  0.00  0.00    +0.080 C 
BRANCH  18  20
ATOM     19  O   UNL     1      -3.400   3.254  -1.948  0.00  0.00    -0.245 OA
ATOM     20  C   UNL     1      -3.786   3.178  -0.791  0.00  0.00    +0.338 C 
BRANCH  20  21
ATOM     21  O   UNL     1      -4.708   3.999  -0.243  0.00  0.00    -0.477 OA
ATOM     22  H   UNL     1      -4.961   3.888   0.653  0.00  0.00    +0.295 HD
ENDBRANCH  20  21
ENDBRANCH  18  20
ENDBRANCH   6  17
BRANCH   7  23
ATOM     23  C   UNL     1       2.629   1.009  -0.026  0.00  0.00    +0.013 C 
ATOM     24  C   UNL     1       3.817   0.922   0.588  0.00  0.00    +0.080 C 
BRANCH  24  26
ATOM     25  O   UNL     1       4.479   3.191   0.382  0.00  0.00    -0.245 OA
ATOM     26  C   UNL     1       4.735   2.063   0.777  0.00  0.00    +0.338 C 
BRANCH  26  27
ATOM     27  O   UNL     1       5.871   1.724   1.425  0.00  0.00    -0.477 OA
ATOM     28  H   UNL     1       6.006   0.839   1.702  0.00  0.00    +0.295 HD
ENDBRANCH  26  27
ENDBRANCH  24  26
ENDBRANCH   7  23
TORSDOF 6
