132524250
  -OEChem-03292013293D

 35 36  0     0  0  0  0  0  0999 V2000
    0.1761    2.9878    0.5441 O   0  0  0  0  0  0  0  0  0  0  0  0
    1.3789   -2.3542   -0.1549 O   0  0  0  0  0  0  0  0  0  0  0  0
   -4.2937    0.6114    0.2790 O   0  0  0  0  0  0  0  0  0  0  0  0
   -1.1423   -2.9091   -0.2006 O   0  0  0  0  0  0  0  0  0  0  0  0
   -3.7092   -2.0656   -0.0684 O   0  0  0  0  0  0  0  0  0  0  0  0
    4.2337    0.4806   -0.4566 O   0  0  0  0  0  0  0  0  0  0  0  0
    3.8773   -1.6121    0.4336 O   0  0  0  0  0  0  0  0  0  0  0  0
   -0.3209   -0.6432    0.0819 C   0  0  0  0  0  0  0  0  0  0  0  0
   -0.6262    0.7269    0.2610 C   0  0  0  0  0  0  0  0  0  0  0  0
    0.4218    1.6554    0.3711 C   0  0  0  0  0  0  0  0  0  0  0  0
    1.0234   -1.0448    0.0182 C   0  0  0  0  0  0  0  0  0  0  0  0
   -1.3688   -1.5717   -0.0278 C   0  0  0  0  0  0  0  0  0  0  0  0
    2.0519   -0.1086    0.1293 C   0  0  0  0  0  0  0  0  0  0  0  0
   -1.9704    1.1284    0.3250 C   0  0  0  0  0  0  0  0  0  0  0  0
    1.7517    1.2389    0.3056 C   0  0  0  0  0  0  0  0  0  0  0  0
   -2.9989    0.1923    0.2142 C   0  0  0  0  0  0  0  0  0  0  0  0
   -2.6987   -1.1553    0.0381 C   0  0  0  0  0  0  0  0  0  0  0  0
    3.4508   -0.5117    0.0645 C   0  0  0  0  0  0  0  0  0  0  0  0
    0.0495    3.7780   -0.6347 C   0  0  0  0  0  0  0  0  0  0  0  0
   -4.9197    0.9730   -0.9505 C   0  0  0  0  0  0  0  0  0  0  0  0
    5.6335    0.2033   -0.5719 C   0  0  0  0  0  0  0  0  0  0  0  0
   -2.2355    2.1739    0.4687 H   0  0  0  0  0  0  0  0  0  0  0  0
    2.5354    1.9857    0.4108 H   0  0  0  0  0  0  0  0  0  0  0  0
    2.3232   -2.4454   -0.3552 H   0  0  0  0  0  0  0  0  0  0  0  0
   -1.8665   -3.4144    0.2045 H   0  0  0  0  0  0  0  0  0  0  0  0
   -3.3947   -2.8400   -0.5631 H   0  0  0  0  0  0  0  0  0  0  0  0
   -0.2179    4.7958   -0.3376 H   0  0  0  0  0  0  0  0  0  0  0  0
   -0.7363    3.3880   -1.2893 H   0  0  0  0  0  0  0  0  0  0  0  0
    1.0015    3.8110   -1.1740 H   0  0  0  0  0  0  0  0  0  0  0  0
   -5.9481    1.2759   -0.7352 H   0  0  0  0  0  0  0  0  0  0  0  0
   -4.9422    0.1211   -1.6374 H   0  0  0  0  0  0  0  0  0  0  0  0
   -4.3963    1.8155   -1.4136 H   0  0  0  0  0  0  0  0  0  0  0  0
    6.0620    0.0100    0.4159 H   0  0  0  0  0  0  0  0  0  0  0  0
    5.7953   -0.6499   -1.2373 H   0  0  0  0  0  0  0  0  0  0  0  0
    6.1205    1.0827   -1.0014 H   0  0  0  0  0  0  0  0  0  0  0  0
  1 10  1  0  0  0  0
  1 19  1  0  0  0  0
  2 11  1  0  0  0  0
  2 24  1  0  0  0  0
  3 16  1  0  0  0  0
  3 20  1  0  0  0  0
  4 12  1  0  0  0  0
  4 25  1  0  0  0  0
  5 17  1  0  0  0  0
  5 26  1  0  0  0  0
  6 18  1  0  0  0  0
  6 21  1  0  0  0  0
  7 18  2  0  0  0  0
  8  9  1  0  0  0  0
  8 11  1  0  0  0  0
  8 12  2  0  0  0  0
  9 10  1  0  0  0  0
  9 14  2  0  0  0  0
 10 15  2  0  0  0  0
 11 13  2  0  0  0  0
 12 17  1  0  0  0  0
 13 15  1  0  0  0  0
 13 18  1  0  0  0  0
 14 16  1  0  0  0  0
 14 22  1  0  0  0  0
 15 23  1  0  0  0  0
 16 17  2  0  0  0  0
 19 27  1  0  0  0  0
 19 28  1  0  0  0  0
 19 29  1  0  0  0  0
 20 30  1  0  0  0  0
 20 31  1  0  0  0  0
 20 32  1  0  0  0  0
 21 33  1  0  0  0  0
 21 34  1  0  0  0  0
 21 35  1  0  0  0  0
M  END
> <PUBCHEM_COMPOUND_CID>
132524250

> <PUBCHEM_CONFORMER_RMSD>
0.6

> <PUBCHEM_CONFORMER_DIVERSEORDER>
1
8
3
6
4
5
7
2

> <PUBCHEM_MMFF94_PARTIAL_CHARGES>
24
1 -0.36
10 0.08
11 0.08
12 0.08
13 0.09
14 -0.15
15 -0.15
16 0.08
17 0.08
18 0.63
19 0.28
2 -0.53
20 0.28
21 0.28
22 0.15
23 0.15
24 0.45
25 0.45
26 0.45
3 -0.36
4 -0.53
5 -0.53
6 -0.43
7 -0.57

> <PUBCHEM_EFFECTIVE_ROTOR_COUNT>
4

> <PUBCHEM_PHARMACOPHORE_FEATURES>
8
1 1 acceptor
1 2 donor
1 3 acceptor
1 4 donor
1 5 donor
1 7 acceptor
6 8 9 10 11 13 15 rings
6 8 9 12 14 16 17 rings

> <PUBCHEM_HEAVY_ATOM_COUNT>
21

> <PUBCHEM_ATOM_DEF_STEREO_COUNT>
0

> <PUBCHEM_ATOM_UDEF_STEREO_COUNT>
0

> <PUBCHEM_BOND_DEF_STEREO_COUNT>
0

> <PUBCHEM_BOND_UDEF_STEREO_COUNT>
0

> <PUBCHEM_ISOTOPIC_ATOM_COUNT>
0

> <PUBCHEM_COMPONENT_COUNT>
1

> <PUBCHEM_CACTVS_TAUTO_COUNT>
52

> <PUBCHEM_CONFORMER_ID>
07E628DA00000001

> <PUBCHEM_MMFF94_ENERGY>
93.0214

> <PUBCHEM_FEATURE_SELFOVERLAP>
40.642

> <PUBCHEM_SHAPE_FINGERPRINT>
10498660 4 18410580582801473222
10693767 8 17915440737086495135
10906281 52 18269854054685979641
10967382 1 18339923714673935251
11132069 177 18413102857853667474
11680986 33 18125437763669871912
12011746 2 18341892974337908621
12236239 1 17967813869167877970
12403814 3 17676487228731420429
12553582 1 18410851070919505314
12788726 201 18262236599917394432
13132413 78 18411984692987895468
13140716 1 18340479062698636936
13862211 1 18340762659036016819
14790565 3 18196098733396998321
14911166 2 18413105056871719549
15099037 51 18410853252926480389
15196674 1 18411701006287689010
15536298 74 18129380569754981240
1601671 61 18411700963311564305
16945 1 18342461426022973833
17804303 29 18271810163196872968
19591789 44 18411419522652601890
200 152 17775278370505229663
20510252 161 18199468758142304552
20871999 31 18335135423065489935
21029758 11 18272086097687260577
21029758 27 18335430100650401097
21267235 1 18340216296241245267
21285901 2 18128821845643009364
21421861 104 17827358782642555762
221490 88 18192435396907364451
2334 1 18196370536043281744
23366157 5 17826788441298622896
23402539 116 18343297072272217358
23463225 33 18410293614324330954
23557571 272 18201446814084065548
23558518 356 17687467858137108595
23559900 14 18271807956480624424
266924 87 18122903123127536981
2748010 2 18268984457174052488
3004659 81 18187927240699773610
3071541 158 18336828701000411509
335352 9 18412263934945511741
34934 24 18410006611461122179
350125 39 18337960112114750691
4340502 62 16660935382958126123
5104073 3 18411418431614813162
7364860 26 17981607379270789576
81228 2 18195824976286075456
9709674 26 18050001396512470267

> <PUBCHEM_SHAPE_MULTIPOLES>
391.08
8.36
3.14
0.73
3.46
1.58
-0.05
-0.91
-1.76
-0.67
-0.26
-0.09
0.19
0

> <PUBCHEM_SHAPE_SELFOVERLAP>
851.959

> <PUBCHEM_SHAPE_VOLUME>
214.6

> <PUBCHEM_COORDINATE_TYPE>
2
5
10

$$$$
