132512004
  -OEChem-03292013293D

 51 53  0     1  0  0  0  0  0999 V2000
    3.0366    2.5601   -0.4875 O   0  0  0  0  0  0  0  0  0  0  0  0
    0.7976    0.0956   -2.1060 O   0  0  0  0  0  0  0  0  0  0  0  0
    2.5215    0.0478    2.3311 O   0  0  0  0  0  0  0  0  0  0  0  0
   -1.7324    0.0100   -2.3725 O   0  0  0  0  0  0  0  0  0  0  0  0
   -2.4694   -0.1455    2.9182 O   0  0  0  0  0  0  0  0  0  0  0  0
    5.3930   -3.4669    0.3387 O   0  0  0  0  0  0  0  0  0  0  0  0
   -4.2525   -0.0657   -2.8141 O   0  0  0  0  0  0  0  0  0  0  0  0
   -7.1134   -0.2586    0.9565 O   0  0  0  0  0  0  0  0  0  0  0  0
    4.6113    3.9813    0.4275 O   0  0  0  0  0  0  0  0  0  0  0  0
    3.0414    0.1356   -0.4545 C   0  0  2  0  0  0  0  0  0  0  0  0
    1.6523    0.0719    0.0975 C   0  0  0  0  0  0  0  0  0  0  0  0
    3.9284   -1.0811   -0.0571 C   0  0  0  0  0  0  0  0  0  0  0  0
    3.7771    1.4318   -0.0349 C   0  0  0  0  0  0  0  0  0  0  0  0
    0.5546    0.0538   -0.7633 C   0  0  0  0  0  0  0  0  0  0  0  0
   -0.7431   -0.0054   -0.2412 C   0  0  0  0  0  0  0  0  0  0  0  0
    3.4137   -2.4258   -0.5794 C   0  0  0  0  0  0  0  0  0  0  0  0
    1.4595    0.0310    1.4770 C   0  0  0  0  0  0  0  0  0  0  0  0
   -0.9363   -0.0462    1.1413 C   0  0  0  0  0  0  0  0  0  0  0  0
    0.1681   -0.0279    2.0016 C   0  0  0  0  0  0  0  0  0  0  0  0
   -1.8994   -0.0245   -1.1602 C   0  0  0  0  0  0  0  0  0  0  0  0
   -3.2631   -0.0857   -0.5957 C   0  0  0  0  0  0  0  0  0  0  0  0
   -2.2999   -0.1083    1.7057 C   0  0  0  0  0  0  0  0  0  0  0  0
   -3.4563   -0.1264    0.7867 C   0  0  0  0  0  0  0  0  0  0  0  0
    4.3206   -3.5987   -0.2493 C   0  0  0  0  0  0  0  0  0  0  0  0
   -4.3676   -0.1034   -1.4560 C   0  0  0  0  0  0  0  0  0  0  0  0
   -4.7539   -0.1846    1.3089 C   0  0  0  0  0  0  0  0  0  0  0  0
   -5.8517   -0.2020    0.4482 C   0  0  0  0  0  0  0  0  0  0  0  0
   -5.6591   -0.1615   -0.9312 C   0  0  0  0  0  0  0  0  0  0  0  0
    3.8608   -4.9505   -0.7295 C   0  0  0  0  0  0  0  0  0  0  0  0
    3.5716    3.7810   -0.1857 C   0  0  0  0  0  0  0  0  0  0  0  0
    2.6902    4.8686   -0.7209 C   0  0  0  0  0  0  0  0  0  0  0  0
    3.0131    0.1520   -1.5510 H   0  0  0  0  0  0  0  0  0  0  0  0
    4.0811   -1.1471    1.0248 H   0  0  0  0  0  0  0  0  0  0  0  0
    4.9318   -0.9220   -0.4764 H   0  0  0  0  0  0  0  0  0  0  0  0
    3.9265    1.5006    1.0471 H   0  0  0  0  0  0  0  0  0  0  0  0
    4.7658    1.4529   -0.5110 H   0  0  0  0  0  0  0  0  0  0  0  0
    3.3106   -2.3813   -1.6694 H   0  0  0  0  0  0  0  0  0  0  0  0
    2.4312   -2.6441   -0.1471 H   0  0  0  0  0  0  0  0  0  0  0  0
    0.0291   -0.0593    3.0795 H   0  0  0  0  0  0  0  0  0  0  0  0
   -4.9173   -0.2166    2.3834 H   0  0  0  0  0  0  0  0  0  0  0  0
   -0.0279    0.0769   -2.6116 H   0  0  0  0  0  0  0  0  0  0  0  0
    2.1954    0.0130    3.2466 H   0  0  0  0  0  0  0  0  0  0  0  0
   -6.5180   -0.1752   -1.5980 H   0  0  0  0  0  0  0  0  0  0  0  0
    3.8195   -4.9564   -1.8214 H   0  0  0  0  0  0  0  0  0  0  0  0
    4.5627   -5.7195   -0.3951 H   0  0  0  0  0  0  0  0  0  0  0  0
    2.8748   -5.1715   -0.3132 H   0  0  0  0  0  0  0  0  0  0  0  0
   -3.3220   -0.0241   -3.0800 H   0  0  0  0  0  0  0  0  0  0  0  0
    2.6203    4.7870   -1.8085 H   0  0  0  0  0  0  0  0  0  0  0  0
    3.1221    5.8418   -0.4710 H   0  0  0  0  0  0  0  0  0  0  0  0
    1.6993    4.7999   -0.2649 H   0  0  0  0  0  0  0  0  0  0  0  0
   -7.0623   -0.2806    1.9275 H   0  0  0  0  0  0  0  0  0  0  0  0
  1 13  1  0  0  0  0
  1 30  1  0  0  0  0
  2 14  1  0  0  0  0
  2 41  1  0  0  0  0
  3 17  1  0  0  0  0
  3 42  1  0  0  0  0
  4 20  2  0  0  0  0
  5 22  2  0  0  0  0
  6 24  2  0  0  0  0
  7 25  1  0  0  0  0
  7 47  1  0  0  0  0
  8 27  1  0  0  0  0
  8 51  1  0  0  0  0
  9 30  2  0  0  0  0
 10 11  1  0  0  0  0
 10 12  1  0  0  0  0
 10 13  1  0  0  0  0
 10 32  1  0  0  0  0
 11 14  1  0  0  0  0
 11 17  2  0  0  0  0
 12 16  1  0  0  0  0
 12 33  1  0  0  0  0
 12 34  1  0  0  0  0
 13 35  1  0  0  0  0
 13 36  1  0  0  0  0
 14 15  2  0  0  0  0
 15 18  1  0  0  0  0
 15 20  1  0  0  0  0
 16 24  1  0  0  0  0
 16 37  1  0  0  0  0
 16 38  1  0  0  0  0
 17 19  1  0  0  0  0
 18 19  2  0  0  0  0
 18 22  1  0  0  0  0
 19 39  1  0  0  0  0
 20 21  1  0  0  0  0
 21 23  1  0  0  0  0
 21 25  2  0  0  0  0
 22 23  1  0  0  0  0
 23 26  2  0  0  0  0
 24 29  1  0  0  0  0
 25 28  1  0  0  0  0
 26 27  1  0  0  0  0
 26 40  1  0  0  0  0
 27 28  2  0  0  0  0
 28 43  1  0  0  0  0
 29 44  1  0  0  0  0
 29 45  1  0  0  0  0
 29 46  1  0  0  0  0
 30 31  1  0  0  0  0
 31 48  1  0  0  0  0
 31 49  1  0  0  0  0
 31 50  1  0  0  0  0
M  END
> <PUBCHEM_COMPOUND_CID>
132512004

> <PUBCHEM_CONFORMER_RMSD>
0.8

> <PUBCHEM_CONFORMER_DIVERSEORDER>
1
48
21
19
51
2
126
136
130
138
106
137
121
57
124
71
109
13
62
82
110
46
98
78
134
84
116
18
73
152
33
70
105
35
75
129
150
83
147
44
117
114
132
41
86
127
122
87
64
149
145
103
101
79
69
92
25
66
151
10
34
140
6
123
32
139
128
118
96
90
133
16
80
89
100
31
60
47
59
23
28
50
135
61
141
91
113
77
53
81
12
111
40
58
115
56
29
26
30
148
65
63
54
52
102
20
9
146
72
95
24
37
119
93
14
85
15
55
104
43
143
22
42
49
120
107
68
5
99
97
88
125
36
94
67
144
142
131
45
74
38
3
11
39
27
7
76
8
112
4
108
17

> <PUBCHEM_MMFF94_PARTIAL_CHARGES>
37
1 -0.43
10 0.14
11 -0.14
13 0.28
14 0.08
15 0.09
16 0.06
17 0.08
18 0.09
19 -0.15
2 -0.53
20 0.4
21 0.09
22 0.4
23 0.09
24 0.45
25 0.08
26 -0.15
27 0.08
28 -0.15
29 0.06
3 -0.53
30 0.66
31 0.06
39 0.15
4 -0.57
40 0.15
41 0.45
42 0.45
43 0.15
47 0.45
5 -0.57
51 0.45
6 -0.57
7 -0.53
8 -0.53
9 -0.57

> <PUBCHEM_EFFECTIVE_ROTOR_COUNT>
7

> <PUBCHEM_PHARMACOPHORE_FEATURES>
11
1 2 donor
1 3 donor
1 4 acceptor
1 5 acceptor
1 6 acceptor
1 7 donor
1 8 donor
1 9 acceptor
6 11 14 15 17 18 19 rings
6 15 18 20 21 22 23 rings
6 21 23 25 26 27 28 rings

> <PUBCHEM_HEAVY_ATOM_COUNT>
31

> <PUBCHEM_ATOM_DEF_STEREO_COUNT>
0

> <PUBCHEM_ATOM_UDEF_STEREO_COUNT>
1

> <PUBCHEM_BOND_DEF_STEREO_COUNT>
0

> <PUBCHEM_BOND_UDEF_STEREO_COUNT>
0

> <PUBCHEM_ISOTOPIC_ATOM_COUNT>
0

> <PUBCHEM_COMPONENT_COUNT>
1

> <PUBCHEM_CACTVS_TAUTO_COUNT>
998

> <PUBCHEM_CONFORMER_ID>
07E5F90400000001

> <PUBCHEM_MMFF94_ENERGY>
85.2065

> <PUBCHEM_FEATURE_SELFOVERLAP>
55.865

> <PUBCHEM_SHAPE_FINGERPRINT>
10319926 262 14763499310947048318
10554248 39 17703790272299497197
10670039 82 14996570529663860951
11112241 14 17901943368430233557
11135609 149 18194950864969189678
11505856 67 16530339042866150980
11578080 2 17898299548224825809
12236239 1 17632581560454676020
12788726 201 17253426804705129050
13140716 1 15721886452217687937
13533116 47 18336274478552151051
13955234 65 18410854378339871594
15131766 46 18128535071379190769
15196674 1 15625933296822423667
15219462 58 18047787941813505920
15320294 125 17059202636476489439
15328829 1 17704076200961581652
15840311 113 18261399928152557741
1813 80 18057616352343735406
19319366 153 18058729233924693246
21033648 29 17458901647459939765
23522609 53 17702408276462098745
23559900 14 18409171030243179882
3004659 81 17561091280194098886
34797466 226 17313116254076754175
4093350 32 18335701667559591933
504843 32 17760933240372761340
5104073 3 16128079149148019667
6695519 79 17694526014329253026
6823239 73 16515696536911536390
70251023 43 18337954489306325696

> <PUBCHEM_SHAPE_MULTIPOLES>
585.14
13.02
4.43
2.13
13.21
1.35
-0.22
-3.94
0.52
-14.34
1.28
2.26
-0.06
0.29

> <PUBCHEM_SHAPE_SELFOVERLAP>
1277.395

> <PUBCHEM_SHAPE_VOLUME>
315.1

> <PUBCHEM_COORDINATE_TYPE>
2
5
10

$$$$
