REMARK  Name = 132529146
REMARK  9 active torsions:
REMARK  status: ('A' for Active; 'I' for Inactive)
REMARK    1  A    between atoms: C_8  and  O_20
REMARK    2  A    between atoms: C_9  and  O_18
REMARK    3  A    between atoms: O_20  and  C_22
REMARK    4  A    between atoms: C_22  and  C_23
REMARK    5  A    between atoms: C_23  and  C_25
REMARK    6  A    between atoms: C_23  and  O_31
REMARK    7  A    between atoms: C_25  and  O_27
REMARK    8  A    between atoms: O_27  and  C_29
REMARK    9  A    between atoms: O_31  and  C_33
REMARK                            x       y       z     vdW  Elec       q    Type
REMARK                         _______ _______ _______ _____ _____    ______ ____
ROOT
ATOM      1  O   UNL     1       3.543  -2.169   0.507  0.00  0.00    -0.449 OA
ATOM      2  O   UNL     1       3.029  -4.418   0.655  0.00  0.00    -0.245 OA
ATOM      3  C   UNL     1       2.485   1.401  -0.525  0.00  0.00    +0.035 C 
ATOM      4  C   UNL     1       3.356   0.332   0.248  0.00  0.00    +0.061 C 
ATOM      5  C   UNL     1       2.922  -1.079  -0.191  0.00  0.00    +0.180 C 
ATOM      6  C   UNL     1       0.970   1.115  -0.312  0.00  0.00    +0.047 C 
ATOM      7  C   UNL     1       1.448  -1.289   0.130  0.00  0.00    +0.109 C 
ATOM      8  C   UNL     1       0.554  -0.332  -0.642  0.00  0.00    +0.177 C 
ATOM      9  C   UNL     1       2.853   2.791   0.070  0.00  0.00    +0.115 C 
ATOM     10  C   UNL     1       4.844   0.667   0.175  0.00  0.00    -0.045 C 
ATOM     11  C   UNL     1       2.748   1.396  -2.058  0.00  0.00    +0.003 C 
ATOM     12  C   UNL     1       4.341   3.124  -0.103  0.00  0.00    +0.055 C 
ATOM     13  C   UNL     1       1.406  -2.761  -0.066  0.00  0.00    +0.060 C 
ATOM     14  C   UNL     1       5.255   1.942   0.030  0.00  0.00    -0.032 C 
ATOM     15  C   UNL     1       2.727  -3.268   0.393  0.00  0.00    +0.337 C 
ATOM     16  C   UNL     1       5.859  -0.428   0.342  0.00  0.00    +0.026 C 
ATOM     17  C   UNL     1       0.490  -3.579  -0.585  0.00  0.00    +0.002 C 
ENDROOT
BRANCH   9  18
ATOM     18  O   UNL     1       2.103   3.843  -0.533  0.00  0.00    -0.384 OA
ATOM     19  H   UNL     1       1.155   3.660  -0.439  0.00  0.00    +0.210 HD
ENDBRANCH   9  18
BRANCH   8  20
ATOM     20  O   UNL     1      -0.801  -0.463  -0.215  0.00  0.00    -0.449 OA
BRANCH  20  22
ATOM     21  O   UNL     1      -1.522   0.249  -2.282  0.00  0.00    -0.246 OA
ATOM     22  C   UNL     1      -1.752  -0.137  -1.142  0.00  0.00    +0.357 C 
BRANCH  22  23
ATOM     23  C   UNL     1      -3.156  -0.314  -0.564  0.00  0.00    +0.260 C 
ATOM     24  C   UNL     1      -3.374  -1.770  -0.143  0.00  0.00    +0.059 C 
BRANCH  23  25
ATOM     25  C   UNL     1      -3.457   0.675   0.582  0.00  0.00    +0.216 C 
ATOM     26  C   UNL     1      -3.379   2.143   0.166  0.00  0.00    +0.052 C 
BRANCH  25  27
ATOM     27  O   UNL     1      -2.575   0.455   1.679  0.00  0.00    -0.448 OA
BRANCH  27  29
ATOM     28  O   UNL     1      -4.226   1.111   3.156  0.00  0.00    -0.250 OA
ATOM     29  C   UNL     1      -3.094   0.714   2.917  0.00  0.00    +0.318 C 
ATOM     30  C   UNL     1      -2.060   0.441   3.967  0.00  0.00    +0.121 C 
ENDBRANCH  27  29
ENDBRANCH  25  27
ENDBRANCH  23  25
BRANCH  23  31
ATOM     31  O   UNL     1      -4.069  -0.025  -1.626  0.00  0.00    -0.441 OA
BRANCH  31  33
ATOM     32  O   UNL     1      -5.853  -0.440  -0.218  0.00  0.00    -0.250 OA
ATOM     33  C   UNL     1      -5.391  -0.129  -1.307  0.00  0.00    +0.318 C 
ATOM     34  C   UNL     1      -6.225   0.200  -2.509  0.00  0.00    +0.121 C 
ENDBRANCH  31  33
ENDBRANCH  23  31
ENDBRANCH  22  23
ENDBRANCH  20  22
ENDBRANCH   8  20
TORSDOF 9
