REMARK  Name = 132524250
REMARK  7 active torsions:
REMARK  status: ('A' for Active; 'I' for Inactive)
REMARK    1  A    between atoms: C_3  and  O_11
REMARK    2  A    between atoms: C_4  and  O_13
REMARK    3  A    between atoms: C_5  and  O_17
REMARK    4  A    between atoms: C_6  and  C_22
REMARK    5  A    between atoms: C_9  and  O_15
REMARK    6  A    between atoms: C_10  and  O_19
REMARK    7  A    between atoms: C_22  and  O_23
REMARK                            x       y       z     vdW  Elec       q    Type
REMARK                         _______ _______ _______ _____ _____    ______ ____
ROOT
ATOM      1  C   UNL     1      -0.321  -0.643   0.082  0.00  0.00    +0.074 C 
ATOM      2  C   UNL     1      -0.626   0.727   0.261  0.00  0.00    +0.043 C 
ATOM      3  C   UNL     1       0.422   1.655   0.371  0.00  0.00    +0.139 C 
ATOM      4  C   UNL     1       1.023  -1.045   0.018  0.00  0.00    +0.143 C 
ATOM      5  C   UNL     1      -1.369  -1.572  -0.028  0.00  0.00    +0.174 C 
ATOM      6  C   UNL     1       2.052  -0.109   0.129  0.00  0.00    +0.112 C 
ATOM      7  C   UNL     1      -1.970   1.128   0.325  0.00  0.00    +0.043 C 
ATOM      8  C   UNL     1       1.752   1.239   0.306  0.00  0.00    +0.046 C 
ATOM      9  C   UNL     1      -2.999   0.192   0.214  0.00  0.00    +0.175 C 
ATOM     10  C   UNL     1      -2.699  -1.155   0.038  0.00  0.00    +0.202 C 
ENDROOT
BRANCH   3  11
ATOM     11  O   UNL     1       0.176   2.988   0.544  0.00  0.00    -0.471 OA
ATOM     12  C   UNL     1       0.050   3.778  -0.635  0.00  0.00    +0.252 C 
ENDBRANCH   3  11
BRANCH   4  13
ATOM     13  O   UNL     1       1.379  -2.354  -0.155  0.00  0.00    -0.505 OA
ATOM     14  H   UNL     1       0.717  -3.013  -0.234  0.00  0.00    +0.292 HD
ENDBRANCH   4  13
BRANCH   9  15
ATOM     15  O   UNL     1      -4.294   0.611   0.279  0.00  0.00    -0.468 OA
ATOM     16  C   UNL     1      -4.920   0.973  -0.951  0.00  0.00    +0.253 C 
ENDBRANCH   9  15
BRANCH   5  17
ATOM     17  O   UNL     1      -1.142  -2.909  -0.201  0.00  0.00    -0.503 OA
ATOM     18  H   UNL     1      -0.264  -3.233  -0.250  0.00  0.00    +0.292 HD
ENDBRANCH   5  17
BRANCH  10  19
ATOM     19  O   UNL     1      -3.709  -2.066  -0.068  0.00  0.00    -0.501 OA
ATOM     20  H   UNL     1      -3.511  -2.974  -0.187  0.00  0.00    +0.292 HD
ENDBRANCH  10  19
BRANCH   6  22
ATOM     21  O   UNL     1       3.877  -1.612   0.434  0.00  0.00    -0.245 OA
ATOM     22  C   UNL     1       3.451  -0.512   0.065  0.00  0.00    +0.344 C 
BRANCH  22  23
ATOM     23  O   UNL     1       4.234   0.481  -0.457  0.00  0.00    -0.441 OA
ATOM     24  C   UNL     1       5.633   0.203  -0.572  0.00  0.00    +0.256 C 
ENDBRANCH  22  23
ENDBRANCH   6  22
TORSDOF 7
