REMARK  Name = 132552299
REMARK  1 active torsions:
REMARK  status: ('A' for Active; 'I' for Inactive)
REMARK    1  A    between atoms: C_10  and  O_38
REMARK                            x       y       z     vdW  Elec       q    Type
REMARK                         _______ _______ _______ _____ _____    ______ ____
ROOT
ATOM      1  O   UNL     1       1.348   1.228   0.574  0.00  0.00    -0.334 OA
ATOM      2  O   UNL     1       3.544  -3.348   0.966  0.00  0.00    -0.277 OA
ATOM      3  O   UNL     1      -1.150   0.531   3.000  0.00  0.00    -0.287 OA
ATOM      4  O   UNL     1      -2.394   1.068  -2.688  0.00  0.00    -0.269 OA
ATOM      5  N   UNL     1       2.584  -1.535  -0.172  0.00  0.00    -0.279 N 
ATOM      6  N   UNL     1       0.497  -1.522   0.705  0.00  0.00    +0.406 N 
ATOM      7  N   UNL     1      -1.673   1.020  -0.461  0.00  0.00    -0.225 N 
ATOM      8  N   UNL     1      -3.027  -0.075   1.171  0.00  0.00    -0.387 NA
ATOM      9  C   UNL     1       1.487   0.508  -0.659  0.00  0.00    +0.116 C 
ATOM     10  C   UNL     1       0.372   2.277   0.409  0.00  0.00    +0.207 C 
ATOM     11  C   UNL     1      -0.500   1.859  -0.780  0.00  0.00    +0.137 C 
ATOM     12  C   UNL     1       0.513   1.122  -1.656  0.00  0.00    +0.056 C 
ATOM     13  C   UNL     1       1.271  -1.010  -0.421  0.00  0.00    +0.053 C 
ATOM     14  C   UNL     1      -0.407   2.466   1.724  0.00  0.00    +0.108 C 
ATOM     15  C   UNL     1       2.958   0.510  -1.045  0.00  0.00    +0.015 C 
ATOM     16  C   UNL     1       3.565  -0.701  -0.675  0.00  0.00    +0.050 C 
ATOM     17  C   UNL     1       1.143  -2.824   1.063  0.00  0.00    +0.028 C 
ATOM     18  C   UNL     1       2.603  -2.651   0.627  0.00  0.00    +0.209 C 
ATOM     19  C   UNL     1      -1.165   1.176   1.961  0.00  0.00    +0.221 C 
ATOM     20  C   UNL     1      -2.016   0.661   0.836  0.00  0.00    +0.224 C 
ATOM     21  C   UNL     1       0.548   2.724   2.906  0.00  0.00    +0.013 C 
ATOM     22  C   UNL     1      -1.413   3.628   1.656  0.00  0.00    +0.013 C 
ATOM     23  C   UNL     1       3.728   1.539  -1.561  0.00  0.00    -0.001 C 
ATOM     24  C   UNL     1       1.051  -3.062   2.569  0.00  0.00    -0.012 C 
ATOM     25  C   UNL     1       0.492  -3.968   0.286  0.00  0.00    -0.012 C 
ATOM     26  C   UNL     1       4.925  -0.915  -0.775  0.00  0.00    +0.015 C 
ATOM     27  C   UNL     1      -2.518   0.676  -1.531  0.00  0.00    +0.257 C 
ATOM     28  C   UNL     1       5.104   1.331  -1.703  0.00  0.00    -0.000 C 
ATOM     29  C   UNL     1       5.697   0.118  -1.309  0.00  0.00    +0.001 C 
ATOM     30  C   UNL     1      -3.647  -0.215  -1.191  0.00  0.00    +0.080 C 
ATOM     31  C   UNL     1      -3.849  -0.561   0.148  0.00  0.00    +0.119 C 
ATOM     32  C   UNL     1      -4.494  -0.705  -2.192  0.00  0.00    +0.006 C 
ATOM     33  C   UNL     1      -4.913  -1.408   0.475  0.00  0.00    +0.085 C 
ATOM     34  C   UNL     1      -5.550  -1.549  -1.851  0.00  0.00    -0.004 C 
ATOM     35  C   UNL     1      -5.759  -1.901  -0.519  0.00  0.00    -0.019 C 
ATOM     36  H   UNL     1      -0.476  -1.668   0.434  0.00  0.00    -0.081 HD
ATOM     37  H   UNL     1       0.488  -0.871   1.490  0.00  0.00    -0.081 HD
ENDROOT
BRANCH  10  38
ATOM     38  O   UNL     1       1.046   3.507   0.113  0.00  0.00    -0.362 OA
ATOM     39  H   UNL     1       1.544   3.412  -0.713  0.00  0.00    +0.213 HD
ENDBRANCH  10  38
TORSDOF 1
