REMARK  Name = 132575228
REMARK  6 active torsions:
REMARK  status: ('A' for Active; 'I' for Inactive)
REMARK    1  A    between atoms: C_4  and  O_26
REMARK    2  A    between atoms: C_5  and  C_16
REMARK    3  A    between atoms: C_10  and  O_28
REMARK    4  A    between atoms: C_14  and  O_30
REMARK    5  A    between atoms: C_19  and  O_22
REMARK    6  A    between atoms: C_21  and  O_24
REMARK                            x       y       z     vdW  Elec       q    Type
REMARK                         _______ _______ _______ _____ _____    ______ ____
ROOT
ATOM      1  O   UNL     1       0.221   0.012  -0.003  0.00  0.00    -0.472 OA
ATOM      2  O   UNL     1      -4.564   0.479   0.123  0.00  0.00    -0.419 OA
ATOM      3  O   UNL     1      -5.515   2.558   0.115  0.00  0.00    -0.241 OA
ATOM      4  C   UNL     1       1.288  -2.171  -0.364  0.00  0.00    +0.159 C 
ATOM      5  C   UNL     1       1.327  -0.824   0.368  0.00  0.00    +0.215 C 
ATOM      6  C   UNL     1       0.011  -2.911   0.021  0.00  0.00    +0.066 C 
ATOM      7  C   UNL     1      -1.175  -1.983   0.054  0.00  0.00    +0.048 C 
ATOM      8  C   UNL     1      -1.014  -0.586   0.050  0.00  0.00    +0.141 C 
ATOM      9  C   UNL     1      -2.137   0.257   0.059  0.00  0.00    +0.072 C 
ATOM     10  C   UNL     1      -2.466  -2.529   0.111  0.00  0.00    +0.136 C 
ATOM     11  C   UNL     1      -3.404  -0.321   0.104  0.00  0.00    +0.155 C 
ATOM     12  C   UNL     1      -3.584  -1.701   0.135  0.00  0.00    +0.074 C 
ATOM     13  C   UNL     1      -2.051   1.713   0.031  0.00  0.00    +0.049 C 
ATOM     14  C   UNL     1      -3.153   2.470   0.049  0.00  0.00    +0.211 C 
ATOM     15  C   UNL     1      -4.502   1.868   0.098  0.00  0.00    +0.380 C 
ENDROOT
BRANCH   5  16
ATOM     16  C   UNL     1       2.632  -0.083   0.138  0.00  0.00    +0.023 C 
ATOM     17  C   UNL     1       3.715  -0.298   0.990  0.00  0.00    +0.039 C 
ATOM     18  C   UNL     1       2.747   0.811  -0.926  0.00  0.00    +0.003 C 
ATOM     19  C   UNL     1       4.915   0.382   0.778  0.00  0.00    +0.167 C 
ATOM     20  C   UNL     1       3.946   1.492  -1.138  0.00  0.00    +0.040 C 
ATOM     21  C   UNL     1       5.030   1.277  -0.286  0.00  0.00    +0.167 C 
BRANCH  19  22
ATOM     22  O   UNL     1       5.966   0.162   1.615  0.00  0.00    -0.503 OA
ATOM     23  H   UNL     1       5.880  -0.441   2.327  0.00  0.00    +0.292 HD
ENDBRANCH  19  22
BRANCH  21  24
ATOM     24  O   UNL     1       6.196   1.947  -0.504  0.00  0.00    -0.503 OA
ATOM     25  H   UNL     1       6.929   1.808   0.064  0.00  0.00    +0.292 HD
ENDBRANCH  21  24
ENDBRANCH   5  16
BRANCH   4  26
ATOM     26  O   UNL     1       1.283  -1.987  -1.780  0.00  0.00    -0.380 OA
ATOM     27  H   UNL     1       2.088  -1.517  -2.048  0.00  0.00    +0.211 HD
ENDBRANCH   4  26
BRANCH  10  28
ATOM     28  O   UNL     1      -2.655  -3.880   0.142  0.00  0.00    -0.506 OA
ATOM     29  H   UNL     1      -1.917  -4.457   0.126  0.00  0.00    +0.292 HD
ENDBRANCH  10  28
BRANCH  14  30
ATOM     30  O   UNL     1      -3.055   3.846   0.021  0.00  0.00    -0.501 OA
ATOM     31  H   UNL     1      -2.213   4.256  -0.010  0.00  0.00    +0.292 HD
ENDBRANCH  14  30
TORSDOF 6
