REMARK  Name = 132512005
REMARK  12 active torsions:
REMARK  status: ('A' for Active; 'I' for Inactive)
REMARK    1  A    between atoms: C_3  and  C_25
REMARK    2  A    between atoms: C_4  and  O_17
REMARK    3  A    between atoms: C_6  and  O_19
REMARK    4  A    between atoms: C_13  and  O_21
REMARK    5  A    between atoms: C_15  and  O_23
REMARK    6  A    between atoms: C_25  and  C_26
REMARK    7  A    between atoms: C_25  and  C_32
REMARK    8  A    between atoms: C_26  and  C_27
REMARK    9  A    between atoms: C_27  and  C_28
REMARK   10  A    between atoms: C_28  and  O_30
REMARK   11  A    between atoms: C_32  and  O_33
REMARK   12  A    between atoms: O_33  and  C_35
REMARK                            x       y       z     vdW  Elec       q    Type
REMARK                         _______ _______ _______ _____ _____    ______ ____
ROOT
ATOM      1  O   UNL     1      -1.526   0.839  -2.128  0.00  0.00    -0.286 OA
ATOM      2  O   UNL     1      -2.662  -1.157   2.697  0.00  0.00    -0.287 OA
ATOM      3  C   UNL     1       1.655   0.050   0.483  0.00  0.00    +0.049 C 
ATOM      4  C   UNL     1       0.627   0.329  -0.419  0.00  0.00    +0.136 C 
ATOM      5  C   UNL     1      -0.704   0.085  -0.061  0.00  0.00    +0.076 C 
ATOM      6  C   UNL     1       1.358  -0.471   1.741  0.00  0.00    +0.133 C 
ATOM      7  C   UNL     1      -1.001  -0.437   1.200  0.00  0.00    +0.048 C 
ATOM      8  C   UNL     1       0.033  -0.715   2.102  0.00  0.00    +0.040 C 
ATOM      9  C   UNL     1      -1.785   0.383  -1.022  0.00  0.00    +0.202 C 
ATOM     10  C   UNL     1      -3.185   0.122  -0.630  0.00  0.00    +0.076 C 
ATOM     11  C   UNL     1      -2.401  -0.698   1.591  0.00  0.00    +0.196 C 
ATOM     12  C   UNL     1      -3.482  -0.400   0.630  0.00  0.00    +0.048 C 
ATOM     13  C   UNL     1      -4.219   0.401  -1.532  0.00  0.00    +0.140 C 
ATOM     14  C   UNL     1      -4.814  -0.642   0.989  0.00  0.00    +0.040 C 
ATOM     15  C   UNL     1      -5.841  -0.363   0.087  0.00  0.00    +0.137 C 
ATOM     16  C   UNL     1      -5.544   0.157  -1.171  0.00  0.00    +0.073 C 
ENDROOT
BRANCH   4  17
ATOM     17  O   UNL     1       0.971   0.838  -1.638  0.00  0.00    -0.506 OA
ATOM     18  H   UNL     1       1.872   0.989  -1.846  0.00  0.00    +0.292 HD
ENDBRANCH   4  17
BRANCH   6  19
ATOM     19  O   UNL     1       2.350  -0.748   2.633  0.00  0.00    -0.506 OA
ATOM     20  H   UNL     1       3.244  -0.589   2.404  0.00  0.00    +0.292 HD
ENDBRANCH   6  19
BRANCH  13  21
ATOM     21  O   UNL     1      -4.001   0.911  -2.778  0.00  0.00    -0.505 OA
ATOM     22  H   UNL     1      -3.127   1.091  -3.064  0.00  0.00    +0.292 HD
ENDBRANCH  13  21
BRANCH  15  23
ATOM     23  O   UNL     1      -7.135  -0.599   0.437  0.00  0.00    -0.505 OA
ATOM     24  H   UNL     1      -7.336  -0.949   1.283  0.00  0.00    +0.292 HD
ENDBRANCH  15  23
BRANCH   3  25
ATOM     25  C   UNL     1       3.079   0.309   0.106  0.00  0.00    +0.072 C 
BRANCH  25  26
ATOM     26  C   UNL     1       3.965  -0.970   0.113  0.00  0.00    +0.011 C 
BRANCH  26  27
ATOM     27  C   UNL     1       3.431  -2.064  -0.824  0.00  0.00    +0.030 C 
BRANCH  27  28
ATOM     28  C   UNL     1       4.327  -3.307  -0.826  0.00  0.00    +0.111 C 
ATOM     29  C   UNL     1       3.786  -4.375  -1.769  0.00  0.00    +0.032 C 
BRANCH  28  30
ATOM     30  O   UNL     1       5.636  -2.941  -1.252  0.00  0.00    -0.384 OA
ATOM     31  H   UNL     1       5.991  -2.261  -0.657  0.00  0.00    +0.210 HD
ENDBRANCH  28  30
ENDBRANCH  27  28
ENDBRANCH  26  27
ENDBRANCH  25  26
BRANCH  25  32
ATOM     32  C   UNL     1       3.745   1.370   1.018  0.00  0.00    +0.213 C 
BRANCH  32  33
ATOM     33  O   UNL     1       3.022   2.595   0.965  0.00  0.00    -0.448 OA
BRANCH  33  35
ATOM     34  O   UNL     1       4.325   3.306  -0.805  0.00  0.00    -0.250 OA
ATOM     35  C   UNL     1       3.419   3.477   0.000  0.00  0.00    +0.318 C 
ATOM     36  C   UNL     1       2.574   4.713   0.063  0.00  0.00    +0.121 C 
ENDBRANCH  33  35
ENDBRANCH  32  33
ENDBRANCH  25  32
ENDBRANCH   3  25
TORSDOF 12
