REMARK  Name = 132516385
REMARK  13 active torsions:
REMARK  status: ('A' for Active; 'I' for Inactive)
REMARK    1  A    between atoms: CA_1  and  N_3
REMARK    2  A    between atoms: CA_1  and  C_18
REMARK    3  A    between atoms: CA_1  and  C_32
REMARK    4  A    between atoms: C_4  and  CA_7
REMARK    5  A    between atoms: C_8  and  O_16
REMARK    6  A    between atoms: C_18  and  C_19
REMARK    7  A    between atoms: C_19  and  C_20
REMARK    8  A    between atoms: C_20  and  O_21
REMARK    9  A    between atoms: C_20  and  C_23
REMARK   10  A    between atoms: C_23  and  N_25
REMARK   11  A    between atoms: C_26  and  C_28
REMARK   12  A    between atoms: C_28  and  C_29
REMARK   13  A    between atoms: C_32  and  O_33
REMARK                            x       y       z     vdW  Elec       q    Type
REMARK                         _______ _______ _______ _____ _____    ______ ____
ROOT
ATOM      1  CA  UNL     1      -1.574  -3.035  -0.392  0.00  0.00    +0.101 C 
ENDROOT
BRANCH   1   3
ATOM      2  O   UNL     1       0.153  -2.716   1.880  0.00  0.00    -0.267 OA
ATOM      3  N   UNL     1      -0.349  -2.267  -0.339  0.00  0.00    -0.298 N 
ATOM      4  C   UNL     1       0.419  -2.174   0.810  0.00  0.00    +0.279 C 
ATOM      5  H   UNL     1      -0.051  -1.794  -1.149  0.00  0.00    +0.150 HD
BRANCH   4   7
ATOM      6  N   UNL     1       1.829  -0.753  -0.501  0.00  0.00    -0.398 NA
ATOM      7  CA  UNL     1       1.634  -1.325   0.709  0.00  0.00    +0.217 C 
ATOM      8  C   UNL     1       2.476  -1.157   1.789  0.00  0.00    +0.168 C 
ATOM      9  C   UNL     1       2.911   0.031  -0.668  0.00  0.00    +0.114 C 
ATOM     10  C   UNL     1       3.829   0.264   0.377  0.00  0.00    +0.029 C 
ATOM     11  C   UNL     1       3.590  -0.348   1.615  0.00  0.00    +0.042 C 
ATOM     12  C   UNL     1       3.149   0.639  -1.897  0.00  0.00    +0.085 C 
ATOM     13  C   UNL     1       4.949   1.087   0.168  0.00  0.00    +0.002 C 
ATOM     14  C   UNL     1       4.262   1.458  -2.105  0.00  0.00    -0.019 C 
ATOM     15  C   UNL     1       5.163   1.683  -1.072  0.00  0.00    -0.004 C 
BRANCH   8  16
ATOM     16  O   UNL     1       2.241  -1.751   2.986  0.00  0.00    -0.503 OA
ATOM     17  H   UNL     1       1.487  -2.296   3.099  0.00  0.00    +0.292 HD
ENDBRANCH   8  16
ENDBRANCH   4   7
ENDBRANCH   1   3
BRANCH   1  18
ATOM     18  C   UNL     1      -2.778  -2.139  -0.724  0.00  0.00    +0.025 C 
BRANCH  18  19
ATOM     19  C   UNL     1      -2.941  -0.984   0.277  0.00  0.00    +0.033 C 
BRANCH  19  20
ATOM     20  C   UNL     1      -4.166  -0.118  -0.043  0.00  0.00    +0.130 C 
BRANCH  20  21
ATOM     21  O   UNL     1      -5.333  -0.938  -0.059  0.00  0.00    -0.383 OA
ATOM     22  H   UNL     1      -5.209  -1.664  -0.689  0.00  0.00    +0.210 HD
ENDBRANCH  20  21
BRANCH  20  23
ATOM     23  C   UNL     1      -4.360   1.029   0.951  0.00  0.00    +0.119 C 
BRANCH  23  25
ATOM     24  O   UNL     1      -3.938   3.404  -0.649  0.00  0.00    -0.275 OA
ATOM     25  N   UNL     1      -3.237   1.926   1.002  0.00  0.00    -0.302 N 
ATOM     26  C   UNL     1      -3.116   3.050   0.192  0.00  0.00    +0.223 C 
ATOM     27  H   UNL     1      -2.516   1.735   1.645  0.00  0.00    +0.150 HD
BRANCH  26  28
ATOM     28  C   UNL     1      -1.811   3.791   0.445  0.00  0.00    +0.085 C 
BRANCH  28  29
ATOM     29  C   UNL     1      -0.557   2.950   0.161  0.00  0.00    +0.009 C 
ATOM     30  C   UNL     1      -0.512   2.491  -1.299  0.00  0.00    +0.001 C 
ATOM     31  C   UNL     1       0.701   3.757   0.487  0.00  0.00    +0.001 C 
ENDBRANCH  28  29
ENDBRANCH  26  28
ENDBRANCH  23  25
ENDBRANCH  20  23
ENDBRANCH  19  20
ENDBRANCH  18  19
ENDBRANCH   1  18
BRANCH   1  32
ATOM     32  C   UNL     1      -1.417  -4.182  -1.393  0.00  0.00    +0.157 C 
BRANCH  32  33
ATOM     33  O   UNL     1      -1.215  -3.677  -2.707  0.00  0.00    -0.380 OA
ATOM     34  H   UNL     1      -1.118  -4.417  -3.327  0.00  0.00    +0.211 HD
ENDBRANCH  32  33
ENDBRANCH   1  32
TORSDOF 13
