REMARK  Name = 132519885
REMARK  8 active torsions:
REMARK  status: ('A' for Active; 'I' for Inactive)
REMARK    1  A    between atoms: N_3  and  C_9
REMARK    2  A    between atoms: C_10  and  C_36
REMARK    3  A    between atoms: C_22  and  C_25
REMARK    4  A    between atoms: C_25  and  C_26
REMARK    5  A    between atoms: C_26  and  N_27
REMARK    6  A    between atoms: C_26  and  C_32
REMARK    7  A    between atoms: C_32  and  O_33
REMARK    8  A    between atoms: C_36  and  O_37
REMARK                            x       y       z     vdW  Elec       q    Type
REMARK                         _______ _______ _______ _____ _____    ______ ____
ROOT
ATOM      1  O   UNL     1      -0.173   1.030  -2.830  0.00  0.00    -0.283 OA
ATOM      2  O   UNL     1      -1.350   3.369  -2.195  0.00  0.00    -0.282 OA
ATOM      3  N   UNL     1      -2.646  -1.217   0.655  0.00  0.00    -0.300 N 
ATOM      4  N   UNL     1      -3.235   3.267   0.218  0.00  0.00    -0.309 N 
ATOM      5  C   UNL     1      -0.725  -1.529  -1.523  0.00  0.00    +0.036 C 
ATOM      6  C   UNL     1      -2.221  -0.120  -0.107  0.00  0.00    +0.048 C 
ATOM      7  C   UNL     1      -1.330  -0.201  -1.119  0.00  0.00    +0.034 C 
ATOM      8  C   UNL     1      -3.797  -1.141   1.590  0.00  0.00    +0.177 C 
ATOM      9  C   UNL     1      -2.774   1.132   0.240  0.00  0.00    +0.027 C 
ATOM     10  C   UNL     1      -3.997   0.255   2.248  0.00  0.00    +0.059 C 
ATOM     11  C   UNL     1      -3.625   1.360   1.325  0.00  0.00    -0.003 C 
ATOM     12  C   UNL     1      -2.509   2.294  -0.422  0.00  0.00    +0.092 C 
ATOM     13  C   UNL     1      -0.970   1.040  -1.902  0.00  0.00    +0.233 C 
ATOM     14  C   UNL     1      -3.913   2.709   1.291  0.00  0.00    +0.058 C 
ATOM     15  C   UNL     1      -1.622   2.375  -1.541  0.00  0.00    +0.247 C 
ATOM     16  H   UNL     1      -3.270   4.215  -0.044  0.00  0.00    +0.152 HD
ENDROOT
BRANCH   3  18
ATOM     17  C   UNL     1      -1.545  -2.716  -0.958  0.00  0.00    +0.023 C 
ATOM     18  C   UNL     1      -1.991  -2.520   0.496  0.00  0.00    +0.091 C 
ENDBRANCH   3  18
BRANCH   8  20
ATOM     19  O   UNL     1      -5.203  -1.304  -0.373  0.00  0.00    -0.248 OA
ATOM     20  C   UNL     1      -5.026  -1.522   0.816  0.00  0.00    +0.332 C 
BRANCH  20  21
ATOM     21  O   UNL     1      -5.924  -2.145   1.619  0.00  0.00    -0.479 OA
ATOM     22  H   UNL     1      -5.726  -2.281   2.525  0.00  0.00    +0.295 HD
ENDBRANCH  20  21
ENDBRANCH   8  20
TORSDOF 3
REMARK  Name = 132519885
REMARK  8 active torsions:
REMARK  status: ('A' for Active; 'I' for Inactive)
REMARK    1  A    between atoms: N_3  and  C_9
REMARK    2  A    between atoms: C_10  and  C_36
REMARK    3  A    between atoms: C_22  and  C_25
REMARK    4  A    between atoms: C_25  and  C_26
REMARK    5  A    between atoms: C_26  and  N_27
REMARK    6  A    between atoms: C_26  and  C_32
REMARK    7  A    between atoms: C_32  and  O_33
REMARK    8  A    between atoms: C_36  and  O_37
REMARK                            x       y       z     vdW  Elec       q    Type
REMARK                         _______ _______ _______ _____ _____    ______ ____
ROOT
ATOM      1  C   UNL     1       4.600   0.126   0.254  0.00  0.00    +0.053 C 
ENDROOT
BRANCH   1   2
ATOM      2  N   UNL     1       5.985   0.063   0.803  0.00  0.00    +0.394 N 
ATOM      3  C   UNL     1       6.636   1.450   0.781  0.00  0.00    -0.095 C 
ATOM      4  C   UNL     1       6.850  -0.889  -0.029  0.00  0.00    -0.095 C 
ATOM      5  C   UNL     1       5.968  -0.439   2.250  0.00  0.00    -0.095 C 
ENDBRANCH   1   2
BRANCH   1   7
ATOM      6  O   UNL     1       3.698   1.645   1.929  0.00  0.00    -0.253 OA
ATOM      7  C   UNL     1       3.942   1.396   0.756  0.00  0.00    +0.295 C 
BRANCH   7   8
ATOM      8  O   UNL     1       3.676   2.267  -0.252  0.00  0.00    -0.482 OA
ATOM      9  H   UNL     1       3.880   2.035  -1.137  0.00  0.00    +0.295 HD
ENDBRANCH   7   8
ENDBRANCH   1   7
BRANCH   1  10
ATOM     10  C   UNL     1       3.825  -1.152   0.663  0.00  0.00    +0.033 C 
BRANCH  10  14
ATOM     11  N   UNL     1       0.752  -1.658  -1.174  0.00  0.00    -0.272 NA
ATOM     12  N   UNL     1       2.876  -2.290  -1.314  0.00  0.00    -0.260 NA
ATOM     13  C   UNL     1       1.385  -1.077  -0.111  0.00  0.00    +0.112 C 
ATOM     14  C   UNL     1       2.695  -1.482  -0.219  0.00  0.00    +0.048 C 
ATOM     15  C   UNL     1       1.687  -2.376  -1.866  0.00  0.00    +0.197 C 
ATOM     16  H   UNL     1       0.209  -2.392  -0.804  0.00  0.00    +0.125 HD
ENDBRANCH  10  14
ENDBRANCH   1  10
TORSDOF 5
