REMARK  Name = 132516386
REMARK  8 active torsions:
REMARK  status: ('A' for Active; 'I' for Inactive)
REMARK    1  A    between atoms: C_2  and  N_8
REMARK    2  A    between atoms: C_3  and  C_25
REMARK    3  A    between atoms: C_6  and  O_23
REMARK    4  A    between atoms: C_9  and  C_12
REMARK    5  A    between atoms: C_13  and  O_21
REMARK    6  A    between atoms: C_25  and  N_27
REMARK    7  A    between atoms: C_28  and  C_30
REMARK    8  A    between atoms: C_30  and  C_31
REMARK                            x       y       z     vdW  Elec       q    Type
REMARK                         _______ _______ _______ _____ _____    ______ ____
ROOT
ATOM      1  O   UNL     1       2.753   0.849  -0.523  0.00  0.00    -0.330 OA
ATOM      2  C   UNL     1       0.422   1.278   0.009  0.00  0.00    +0.128 C 
ATOM      3  C   UNL     1       3.193   1.212   0.791  0.00  0.00    +0.137 C 
ATOM      4  C   UNL     1       0.811   1.730   1.416  0.00  0.00    +0.027 C 
ATOM      5  C   UNL     1       2.248   2.240   1.418  0.00  0.00    +0.033 C 
ATOM      6  C   UNL     1       1.441   0.277  -0.547  0.00  0.00    +0.250 C 
ENDROOT
BRANCH   2   8
ATOM      7  O   UNL     1      -2.005   2.768  -0.355  0.00  0.00    -0.267 OA
ATOM      8  N   UNL     1      -0.918   0.748  -0.015  0.00  0.00    -0.296 N 
ATOM      9  C   UNL     1      -2.035   1.550  -0.198  0.00  0.00    +0.279 C 
ATOM     10  H   UNL     1      -1.046  -0.221   0.103  0.00  0.00    +0.150 HD
BRANCH   9  12
ATOM     11  N   UNL     1      -3.278  -0.481   0.031  0.00  0.00    -0.398 NA
ATOM     12  C   UNL     1      -3.347   0.855  -0.170  0.00  0.00    +0.217 C 
ATOM     13  C   UNL     1      -4.526   1.552  -0.341  0.00  0.00    +0.168 C 
ATOM     14  C   UNL     1      -4.429  -1.179   0.067  0.00  0.00    +0.114 C 
ATOM     15  C   UNL     1      -5.710   0.830  -0.303  0.00  0.00    +0.042 C 
ATOM     16  C   UNL     1      -5.684  -0.556  -0.097  0.00  0.00    +0.029 C 
ATOM     17  C   UNL     1      -4.404  -2.556   0.272  0.00  0.00    +0.085 C 
ATOM     18  C   UNL     1      -6.865  -1.315  -0.053  0.00  0.00    +0.002 C 
ATOM     19  C   UNL     1      -5.578  -3.312   0.316  0.00  0.00    -0.019 C 
ATOM     20  C   UNL     1      -6.811  -2.691   0.153  0.00  0.00    -0.004 C 
BRANCH  13  21
ATOM     21  O   UNL     1      -4.547   2.894  -0.541  0.00  0.00    -0.503 OA
ATOM     22  H   UNL     1      -3.745   3.377  -0.566  0.00  0.00    +0.292 HD
ENDBRANCH  13  21
ENDBRANCH   9  12
ENDBRANCH   2   8
BRANCH   6  23
ATOM     23  O   UNL     1       1.382  -0.949   0.180  0.00  0.00    -0.359 OA
ATOM     24  H   UNL     1       2.032  -1.572  -0.182  0.00  0.00    +0.213 HD
ENDBRANCH   6  23
BRANCH   3  25
ATOM     25  C   UNL     1       4.603   1.773   0.666  0.00  0.00    +0.119 C 
BRANCH  25  27
ATOM     26  O   UNL     1       5.551   0.564  -1.786  0.00  0.00    -0.275 OA
ATOM     27  N   UNL     1       5.568   0.722   0.533  0.00  0.00    -0.302 N 
ATOM     28  C   UNL     1       5.971   0.194  -0.693  0.00  0.00    +0.223 C 
ATOM     29  H   UNL     1       5.969   0.352   1.352  0.00  0.00    +0.150 HD
BRANCH  28  30
ATOM     30  C   UNL     1       6.981  -0.930  -0.524  0.00  0.00    +0.085 C 
BRANCH  30  31
ATOM     31  C   UNL     1       6.446  -2.130   0.272  0.00  0.00    +0.009 C 
ATOM     32  C   UNL     1       5.224  -2.751  -0.409  0.00  0.00    +0.001 C 
ATOM     33  C   UNL     1       7.541  -3.186   0.430  0.00  0.00    +0.001 C 
ENDBRANCH  30  31
ENDBRANCH  28  30
ENDBRANCH  25  27
ENDBRANCH   3  25
TORSDOF 8
