REMARK  Name = 132535159
REMARK  3 active torsions:
REMARK  status: ('A' for Active; 'I' for Inactive)
REMARK    1  A    between atoms: C_5  and  O_16
REMARK    2  A    between atoms: C_8  and  C_19
REMARK    3  A    between atoms: C_19  and  S_20
REMARK                            x       y       z     vdW  Elec       q    Type
REMARK                         _______ _______ _______ _____ _____    ______ ____
ROOT
ATOM      1  S   UNL     1      -0.501   1.550  -0.032  0.00  0.00    +0.046 S 
ATOM      2  O   UNL     1       2.110  -0.667  -1.505  0.00  0.00    -0.447 OA
ATOM      3  O   UNL     1      -1.213   2.278   1.070  0.00  0.00    -0.256 OA
ATOM      4  O   UNL     1       1.224  -2.637  -0.921  0.00  0.00    -0.247 OA
ATOM      5  C   UNL     1       0.753  -0.806   0.565  0.00  0.00    +0.190 C 
ATOM      6  C   UNL     1       0.951   0.696   0.741  0.00  0.00    +0.118 C 
ATOM      7  C   UNL     1      -0.770  -1.069   0.627  0.00  0.00    +0.052 C 
ATOM      8  C   UNL     1      -1.377  -0.036  -0.333  0.00  0.00    +0.123 C 
ATOM      9  C   UNL     1       2.279   1.146   0.151  0.00  0.00    +0.064 C 
ATOM     10  C   UNL     1       1.369  -1.439  -0.679  0.00  0.00    +0.342 C 
ATOM     11  C   UNL     1      -1.340  -1.026   2.053  0.00  0.00    +0.004 C 
ATOM     12  C   UNL     1       2.370   0.735  -1.305  0.00  0.00    +0.210 C 
ENDROOT
BRANCH   5  13
ATOM     13  O   UNL     1       1.431  -1.481   1.626  0.00  0.00    -0.376 OA
ATOM     14  H   UNL     1       1.109  -1.149   2.478  0.00  0.00    +0.211 HD
ENDBRANCH   5  13
BRANCH   8  16
ATOM     15  O   UNL     1      -3.457  -1.054  -0.357  0.00  0.00    -0.210 OA
ATOM     16  C   UNL     1      -2.886   0.136  -0.270  0.00  0.00    +0.208 C 
BRANCH  16  17
ATOM     17  S   UNL     1      -3.412   1.142  -1.718  0.00  0.00    -0.136 S 
ATOM     18  H   UNL     1      -4.761   1.311  -1.685  0.00  0.00    +0.105 HD
ENDBRANCH  16  17
ENDBRANCH   8  16
TORSDOF 3
REMARK  Name = 132535159
REMARK  3 active torsions:
REMARK  status: ('A' for Active; 'I' for Inactive)
REMARK    1  A    between atoms: C_5  and  O_16
REMARK    2  A    between atoms: C_8  and  C_19
REMARK    3  A    between atoms: C_19  and  S_20
REMARK                            x       y       z     vdW  Elec       q    Type
REMARK                         _______ _______ _______ _____ _____    ______ ____
ROOT
ATOM      1  O   UNL     1       2.469   2.532   0.286  0.00  0.00    -0.410 OA
ATOM      2  H   UNL     1       2.408   2.777   1.222  0.00  0.00    +0.205 HD
ATOM      3  H   UNL     1       1.786   3.003  -0.217  0.00  0.00    +0.205 HD
ENDROOT
TORSDOF 0
