REMARK  Name = 132579590
REMARK  8 active torsions:
REMARK  status: ('A' for Active; 'I' for Inactive)
REMARK    1  A    between atoms: C_4  and  C_9
REMARK    2  A    between atoms: C_4  and  O_12
REMARK    3  A    between atoms: C_5  and  O_14
REMARK    4  A    between atoms: C_5  and  C_18
REMARK    5  A    between atoms: C_7  and  O_16
REMARK    6  A    between atoms: C_18  and  C_19
REMARK    7  A    between atoms: C_18  and  O_27
REMARK    8  A    between atoms: C_24  and  O_25
REMARK                            x       y       z     vdW  Elec       q    Type
REMARK                         _______ _______ _______ _____ _____    ______ ____
ROOT
ATOM      1  O   UNL     1       1.500  -2.506  -1.075  0.00  0.00    -0.270 OA
ATOM      2  N   UNL     1       0.233  -0.657  -0.645  0.00  0.00    -0.273 N 
ATOM      3  N   UNL     1       2.482   0.832  -0.166  0.00  0.00    -0.206 NA
ATOM      4  C   UNL     1       2.625  -0.626  -0.054  0.00  0.00    +0.249 C 
ATOM      5  C   UNL     1       0.023   0.589   0.064  0.00  0.00    +0.247 C 
ATOM      6  C   UNL     1       1.417  -1.359  -0.633  0.00  0.00    +0.271 C 
ATOM      7  C   UNL     1       1.310   1.350  -0.106  0.00  0.00    +0.245 C 
ATOM      8  H   UNL     1      -0.517  -1.025  -1.166  0.00  0.00    +0.152 HD
ENDROOT
BRANCH   4   9
ATOM      9  C   UNL     1       2.836  -0.993   1.415  0.00  0.00    +0.056 C 
ATOM     10  C   UNL     1       3.039  -2.498   1.563  0.00  0.00    +0.005 C 
ATOM     11  C   UNL     1       4.024  -0.228   1.990  0.00  0.00    +0.005 C 
ENDBRANCH   4   9
BRANCH   4  12
ATOM     12  O   UNL     1       3.744  -1.149  -0.782  0.00  0.00    -0.328 OA
ATOM     13  C   UNL     1       3.868  -0.537  -2.058  0.00  0.00    +0.177 C 
ENDBRANCH   4  12
BRANCH   5  14
ATOM     14  O   UNL     1      -0.191   0.319   1.436  0.00  0.00    -0.362 OA
ATOM     15  H   UNL     1      -1.021  -0.171   1.543  0.00  0.00    +0.213 HD
ENDBRANCH   5  14
BRANCH   7  16
ATOM     16  O   UNL     1       1.165   2.690  -0.147  0.00  0.00    -0.457 OA
ATOM     17  C   UNL     1       2.387   3.393  -0.308  0.00  0.00    +0.254 C 
ENDBRANCH   7  16
BRANCH   5  18
ATOM     18  C   UNL     1      -1.193   1.313  -0.508  0.00  0.00    +0.184 C 
BRANCH  18  19
ATOM     19  C   UNL     1      -2.476   0.545  -0.281  0.00  0.00    +0.009 C 
ATOM     20  C   UNL     1      -3.201   0.733   0.896  0.00  0.00    +0.001 C 
ATOM     21  C   UNL     1      -2.934  -0.350  -1.247  0.00  0.00    +0.001 C 
ATOM     22  C   UNL     1      -4.385   0.025   1.106  0.00  0.00    +0.036 C 
ATOM     23  C   UNL     1      -4.118  -1.058  -1.037  0.00  0.00    +0.036 C 
ATOM     24  C   UNL     1      -4.843  -0.870   0.140  0.00  0.00    +0.134 C 
BRANCH  24  25
ATOM     25  O   UNL     1      -5.998  -1.561   0.345  0.00  0.00    -0.506 OA
ATOM     26  H   UNL     1      -6.485  -1.435   1.135  0.00  0.00    +0.292 HD
ENDBRANCH  24  25
ENDBRANCH  18  19
BRANCH  18  27
ATOM     27  O   UNL     1      -1.312   2.604   0.090  0.00  0.00    -0.376 OA
ATOM     28  H   UNL     1      -0.492   3.103  -0.052  0.00  0.00    +0.211 HD
ENDBRANCH  18  27
ENDBRANCH   5  18
TORSDOF 8
