132525
  -OEChem-03292013323D

 40 44  0     0  0  0  0  0  0999 V2000
   -0.8353   -5.2081    0.8537 Cl  0  0  0  0  0  0  0  0  0  0  0  0
   -0.8410    5.2076    0.8515 Cl  0  0  0  0  0  0  0  0  0  0  0  0
   -0.0344    0.0005    1.9430 O   0  0  0  0  0  0  0  0  0  0  0  0
   -2.8498   -0.0017   -1.0036 O   0  0  0  0  0  0  0  0  0  0  0  0
    1.8529    0.0046    3.2834 O   0  0  0  0  0  0  0  0  0  0  0  0
   -3.3077   -4.6922   -0.7752 O   0  0  0  0  0  0  0  0  0  0  0  0
   -3.3141    4.6883   -0.7749 O   0  0  0  0  0  0  0  0  0  0  0  0
    5.9293    0.0034    0.0432 O   0  0  0  0  0  0  0  0  0  0  0  0
    5.5859    0.0010   -2.2036 O   0  0  0  0  0  0  0  0  0  0  0  0
   -0.3545   -0.0001    0.5153 C   0  0  0  0  0  0  0  0  0  0  0  0
    1.0087    0.0004   -0.0980 C   0  0  0  0  0  0  0  0  0  0  0  0
   -1.1404   -1.2593    0.2078 C   0  0  0  0  0  0  0  0  0  0  0  0
   -1.1417    1.2582    0.2071 C   0  0  0  0  0  0  0  0  0  0  0  0
    1.9701    0.0014    0.8966 C   0  0  0  0  0  0  0  0  0  0  0  0
   -2.3199   -1.1820   -0.5414 C   0  0  0  0  0  0  0  0  0  0  0  0
   -2.3213    1.1794   -0.5419 C   0  0  0  0  0  0  0  0  0  0  0  0
    1.3138    0.0015    2.1949 C   0  0  0  0  0  0  0  0  0  0  0  0
    1.3860    0.0001   -1.4317 C   0  0  0  0  0  0  0  0  0  0  0  0
   -0.7011   -2.5262    0.6309 C   0  0  0  0  0  0  0  0  0  0  0  0
   -0.7036    2.5258    0.6296 C   0  0  0  0  0  0  0  0  0  0  0  0
    3.3260    0.0017    0.6262 C   0  0  0  0  0  0  0  0  0  0  0  0
   -3.0369   -2.3377   -0.8692 C   0  0  0  0  0  0  0  0  0  0  0  0
   -3.0397    2.3342   -0.8698 C   0  0  0  0  0  0  0  0  0  0  0  0
    2.7503    0.0006   -1.7366 C   0  0  0  0  0  0  0  0  0  0  0  0
    3.7138    0.0012   -0.7139 C   0  0  0  0  0  0  0  0  0  0  0  0
   -1.4202   -3.6788    0.3098 C   0  0  0  0  0  0  0  0  0  0  0  0
   -1.4242    3.6776    0.3084 C   0  0  0  0  0  0  0  0  0  0  0  0
   -2.5872   -3.5845   -0.4420 C   0  0  0  0  0  0  0  0  0  0  0  0
   -2.5913    3.5817   -0.4431 C   0  0  0  0  0  0  0  0  0  0  0  0
    5.1274    0.0015   -1.0566 C   0  0  0  0  0  0  0  0  0  0  0  0
    0.6466   -0.0006   -2.2255 H   0  0  0  0  0  0  0  0  0  0  0  0
    0.2147   -2.6138    1.2117 H   0  0  0  0  0  0  0  0  0  0  0  0
    0.2122    2.6147    1.2104 H   0  0  0  0  0  0  0  0  0  0  0  0
    4.0333    0.0022    1.4481 H   0  0  0  0  0  0  0  0  0  0  0  0
   -3.9489   -2.2546   -1.4561 H   0  0  0  0  0  0  0  0  0  0  0  0
   -3.9528    2.2582   -1.4557 H   0  0  0  0  0  0  0  0  0  0  0  0
    3.0493    0.0003   -2.7821 H   0  0  0  0  0  0  0  0  0  0  0  0
   -4.0826   -4.4243   -1.2981 H   0  0  0  0  0  0  0  0  0  0  0  0
   -2.8667    5.4677   -0.4022 H   0  0  0  0  0  0  0  0  0  0  0  0
    6.8801    0.0041   -0.1984 H   0  0  0  0  0  0  0  0  0  0  0  0
  1 26  1  0  0  0  0
  2 27  1  0  0  0  0
  3 10  1  0  0  0  0
  3 17  1  0  0  0  0
  4 15  1  0  0  0  0
  4 16  1  0  0  0  0
  5 17  2  0  0  0  0
  6 28  1  0  0  0  0
  6 38  1  0  0  0  0
  7 29  1  0  0  0  0
  7 39  1  0  0  0  0
  8 30  1  0  0  0  0
  8 40  1  0  0  0  0
  9 30  2  0  0  0  0
 10 11  1  0  0  0  0
 10 12  1  0  0  0  0
 10 13  1  0  0  0  0
 11 14  2  0  0  0  0
 11 18  1  0  0  0  0
 12 15  1  0  0  0  0
 12 19  2  0  0  0  0
 13 16  1  0  0  0  0
 13 20  2  0  0  0  0
 14 17  1  0  0  0  0
 14 21  1  0  0  0  0
 15 22  2  0  0  0  0
 16 23  2  0  0  0  0
 18 24  2  0  0  0  0
 18 31  1  0  0  0  0
 19 26  1  0  0  0  0
 19 32  1  0  0  0  0
 20 27  1  0  0  0  0
 20 33  1  0  0  0  0
 21 25  2  0  0  0  0
 21 34  1  0  0  0  0
 22 28  1  0  0  0  0
 22 35  1  0  0  0  0
 23 29  1  0  0  0  0
 23 36  1  0  0  0  0
 24 25  1  0  0  0  0
 24 37  1  0  0  0  0
 25 30  1  0  0  0  0
 26 28  2  0  0  0  0
 27 29  2  0  0  0  0
M  END
> <PUBCHEM_COMPOUND_CID>
132525

> <PUBCHEM_CONFORMER_RMSD>
0.6

> <PUBCHEM_CONFORMER_DIVERSEORDER>
1

> <PUBCHEM_MMFF94_PARTIAL_CHARGES>
40
1 -0.18
10 0.71
11 -0.14
12 -0.14
13 -0.14
14 0.09
15 0.08
16 0.08
17 0.63
18 -0.15
19 -0.15
2 -0.18
20 -0.15
21 -0.15
22 -0.15
23 -0.15
24 -0.15
25 0.09
26 0.18
27 0.18
28 0.08
29 0.08
3 -0.43
30 0.63
31 0.15
32 0.15
33 0.15
34 0.15
35 0.15
36 0.15
37 0.15
38 0.45
39 0.45
4 -0.17
40 0.5
5 -0.57
6 -0.53
7 -0.53
8 -0.65
9 -0.57

> <PUBCHEM_EFFECTIVE_ROTOR_COUNT>
1.4

> <PUBCHEM_PHARMACOPHORE_FEATURES>
12
1 4 acceptor
1 5 acceptor
1 6 donor
1 7 donor
1 8 acceptor
1 9 acceptor
3 8 9 30 anion
5 3 10 11 14 17 rings
6 11 14 18 21 24 25 rings
6 12 15 19 22 26 28 rings
6 13 16 20 23 27 29 rings
6 4 10 12 13 15 16 rings

> <PUBCHEM_HEAVY_ATOM_COUNT>
30

> <PUBCHEM_ATOM_DEF_STEREO_COUNT>
0

> <PUBCHEM_ATOM_UDEF_STEREO_COUNT>
0

> <PUBCHEM_BOND_DEF_STEREO_COUNT>
0

> <PUBCHEM_BOND_UDEF_STEREO_COUNT>
0

> <PUBCHEM_ISOTOPIC_ATOM_COUNT>
0

> <PUBCHEM_COMPONENT_COUNT>
1

> <PUBCHEM_CACTVS_TAUTO_COUNT>
5

> <PUBCHEM_CONFORMER_ID>
000205AD00000001

> <PUBCHEM_MMFF94_ENERGY>
89.7553

> <PUBCHEM_FEATURE_SELFOVERLAP>
61.101

> <PUBCHEM_SHAPE_FINGERPRINT>
10165383 225 18128272090293721553
107951 10 18269561533206280815
11049842 53 17906718225259132082
11488393 25 17184474759236443898
11640471 11 17750516182889061548
12553582 1 18191857040985971267
12741549 16 17487907915061574155
12788726 201 18334292084757056059
13009979 54 17824791573379156602
133893 2 17115820136496258883
13681431 1 17692817407629657507
13911987 19 18263915541467922381
14022347 108 18192980750369705331
15082195 135 16966877551436460541
15324884 4 17701517709721871624
15439362 3 17542509327690037956
15463212 79 18265335014825279372
15475509 8 18270120257566601199
15684970 41 17756984871751240250
16991981 162 18121816943505938332
1813 80 17982744265582642926
18785283 64 17185323037074331249
20505436 4 17823424790405272232
20775438 99 17478007986012629855
20905425 154 17615384288506719921
21033650 10 18189921789289155838
21304303 282 18265317443918652837
21756936 100 17459494194497026516
2260408 40 17336484389339888787
23419403 2 17417245588531450530
23557571 272 18270953669841480864
23559900 14 17690836087819680895
24893989 43 16545443893206323941
350125 39 16757455753821882841
57527358 35 15793118291838236349
59755656 520 17842300093581555760
6376802 90 18269568156884660118
81228 2 18272362127172551307
9981440 41 18120657924610046657

> <PUBCHEM_SHAPE_MULTIPOLES>
580.04
7.36
6.73
1.79
12.99
0.03
-0.86
-0.04
4.27
-10.78
-0.69
1.68
0
0

> <PUBCHEM_SHAPE_SELFOVERLAP>
1312.441

> <PUBCHEM_SHAPE_VOLUME>
305.3

> <PUBCHEM_COORDINATE_TYPE>
2
5
10

$$$$
