132529145
  -OEChem-03292013293D

 65 67  0     1  0  0  0  0  0999 V2000
   -3.2325    2.4571    0.7204 O   0  0  0  0  0  0  0  0  0  0  0  0
    1.2889    1.3685   -0.1036 O   0  0  0  0  0  0  0  0  0  0  0  0
   -1.0403   -3.2509   -0.6635 O   0  0  0  0  0  0  0  0  0  0  0  0
   -3.0101    4.7412    0.9964 O   0  0  0  0  0  0  0  0  0  0  0  0
    2.0768    0.8733   -2.2088 O   0  0  0  0  0  0  0  0  0  0  0  0
    4.5733    1.4364   -1.5414 O   0  0  0  0  0  0  0  0  0  0  0  0
   -0.9672   -4.5776    1.2263 O   0  0  0  0  0  0  0  0  0  0  0  0
    4.0834   -0.7877    0.1069 O   0  0  0  0  0  0  0  0  0  0  0  0
    3.5023   -1.6158    2.1837 O   0  0  0  0  0  0  0  0  0  0  0  0
   -1.7324   -0.8828   -0.5152 C   0  0  1  0  0  0  0  0  0  0  0  0
   -2.7279    0.0196    0.3190 C   0  0  1  0  0  0  0  0  0  0  0  0
   -2.4821    1.4977   -0.0393 C   0  0  2  0  0  0  0  0  0  0  0  0
   -0.2658   -0.4159   -0.2882 C   0  0  0  0  0  0  0  0  0  0  0  0
   -1.0447    1.8770    0.2911 C   0  0  1  0  0  0  0  0  0  0  0  0
   -0.0418    1.0883   -0.5353 C   0  0  1  0  0  0  0  0  0  0  0  0
   -1.9139   -2.3396   -0.0003 C   0  0  1  0  0  0  0  0  0  0  0  0
   -4.1611   -0.4995    0.2290 C   0  0  0  0  0  0  0  0  0  0  0  0
   -2.0074   -0.8253   -2.0448 C   0  0  0  0  0  0  0  0  0  0  0  0
   -3.3481   -2.8519   -0.1899 C   0  0  0  0  0  0  0  0  0  0  0  0
   -1.1949    3.3515    0.1796 C   0  0  0  0  0  0  0  0  0  0  0  0
   -4.4055   -1.8067    0.0118 C   0  0  0  0  0  0  0  0  0  0  0  0
   -2.5652    3.6571    0.6684 C   0  0  0  0  0  0  0  0  0  0  0  0
   -5.3063    0.4439    0.4586 C   0  0  0  0  0  0  0  0  0  0  0  0
   -0.3954    4.3084   -0.2932 C   0  0  0  0  0  0  0  0  0  0  0  0
    2.2652    1.2206   -1.0488 C   0  0  0  0  0  0  0  0  0  0  0  0
   -0.6438   -4.3310    0.0723 C   0  0  0  0  0  0  0  0  0  0  0  0
    3.6399    1.5447   -0.4639 C   0  0  1  0  0  0  0  0  0  0  0  0
    4.0752    0.5399    0.6235 C   0  0  2  0  0  0  0  0  0  0  0  0
    0.2653   -5.1953   -0.7476 C   0  0  0  0  0  0  0  0  0  0  0  0
    3.6723    2.9904    0.0393 C   0  0  0  0  0  0  0  0  0  0  0  0
    5.4422    0.8460    1.2334 C   0  0  0  0  0  0  0  0  0  0  0  0
    3.7771   -1.7734    1.0018 C   0  0  0  0  0  0  0  0  0  0  0  0
    3.8249   -3.1084    0.3222 C   0  0  0  0  0  0  0  0  0  0  0  0
   -2.4753   -0.0799    1.3871 H   0  0  0  0  0  0  0  0  0  0  0  0
   -2.7336    1.6683   -1.0954 H   0  0  0  0  0  0  0  0  0  0  0  0
    0.4218   -0.9967   -0.9170 H   0  0  0  0  0  0  0  0  0  0  0  0
    0.0332   -0.6497    0.7439 H   0  0  0  0  0  0  0  0  0  0  0  0
   -0.8352    1.6857    1.3559 H   0  0  0  0  0  0  0  0  0  0  0  0
   -0.1668    1.3421   -1.5946 H   0  0  0  0  0  0  0  0  0  0  0  0
   -1.6876   -2.3256    1.0762 H   0  0  0  0  0  0  0  0  0  0  0  0
   -3.0273   -1.1235   -2.3034 H   0  0  0  0  0  0  0  0  0  0  0  0
   -1.3285   -1.4930   -2.5877 H   0  0  0  0  0  0  0  0  0  0  0  0
   -1.8616    0.1755   -2.4600 H   0  0  0  0  0  0  0  0  0  0  0  0
   -3.5298   -3.6805    0.5054 H   0  0  0  0  0  0  0  0  0  0  0  0
   -3.4687   -3.2800   -1.1934 H   0  0  0  0  0  0  0  0  0  0  0  0
   -5.4324   -2.1621   -0.0309 H   0  0  0  0  0  0  0  0  0  0  0  0
   -5.2194    0.9193    1.4406 H   0  0  0  0  0  0  0  0  0  0  0  0
   -6.2750   -0.0677    0.4345 H   0  0  0  0  0  0  0  0  0  0  0  0
   -5.3322    1.2155   -0.3169 H   0  0  0  0  0  0  0  0  0  0  0  0
    0.5911    4.0707   -0.6747 H   0  0  0  0  0  0  0  0  0  0  0  0
   -0.7005    5.3491   -0.3151 H   0  0  0  0  0  0  0  0  0  0  0  0
    3.3323    0.6110    1.4301 H   0  0  0  0  0  0  0  0  0  0  0  0
    1.1125   -4.6068   -1.1084 H   0  0  0  0  0  0  0  0  0  0  0  0
   -0.2897   -5.6239   -1.5856 H   0  0  0  0  0  0  0  0  0  0  0  0
    0.6505   -6.0088   -0.1262 H   0  0  0  0  0  0  0  0  0  0  0  0
    4.6964    3.3390    0.2090 H   0  0  0  0  0  0  0  0  0  0  0  0
    3.0950    3.1137    0.9615 H   0  0  0  0  0  0  0  0  0  0  0  0
    3.2457    3.6662   -0.7119 H   0  0  0  0  0  0  0  0  0  0  0  0
    4.6189    0.5009   -1.8042 H   0  0  0  0  0  0  0  0  0  0  0  0
    6.2253    0.8383    0.4678 H   0  0  0  0  0  0  0  0  0  0  0  0
    5.4576    1.8128    1.7438 H   0  0  0  0  0  0  0  0  0  0  0  0
    5.7213    0.0807    1.9657 H   0  0  0  0  0  0  0  0  0  0  0  0
    3.1663   -3.1033   -0.5501 H   0  0  0  0  0  0  0  0  0  0  0  0
    3.4743   -3.8805    1.0130 H   0  0  0  0  0  0  0  0  0  0  0  0
    4.8520   -3.3362    0.0275 H   0  0  0  0  0  0  0  0  0  0  0  0
  1 12  1  0  0  0  0
  1 22  1  0  0  0  0
  2 15  1  0  0  0  0
  2 25  1  0  0  0  0
  3 16  1  0  0  0  0
  3 26  1  0  0  0  0
  4 22  2  0  0  0  0
  5 25  2  0  0  0  0
  6 27  1  0  0  0  0
  6 59  1  0  0  0  0
  7 26  2  0  0  0  0
  8 28  1  0  0  0  0
  8 32  1  0  0  0  0
  9 32  2  0  0  0  0
 10 11  1  0  0  0  0
 10 13  1  0  0  0  0
 10 16  1  0  0  0  0
 10 18  1  0  0  0  0
 11 12  1  0  0  0  0
 11 17  1  0  0  0  0
 11 34  1  0  0  0  0
 12 14  1  0  0  0  0
 12 35  1  0  0  0  0
 13 15  1  0  0  0  0
 13 36  1  0  0  0  0
 13 37  1  0  0  0  0
 14 15  1  0  0  0  0
 14 20  1  0  0  0  0
 14 38  1  0  0  0  0
 15 39  1  0  0  0  0
 16 19  1  0  0  0  0
 16 40  1  0  0  0  0
 17 21  2  0  0  0  0
 17 23  1  0  0  0  0
 18 41  1  0  0  0  0
 18 42  1  0  0  0  0
 18 43  1  0  0  0  0
 19 21  1  0  0  0  0
 19 44  1  0  0  0  0
 19 45  1  0  0  0  0
 20 22  1  0  0  0  0
 20 24  2  0  0  0  0
 21 46  1  0  0  0  0
 23 47  1  0  0  0  0
 23 48  1  0  0  0  0
 23 49  1  0  0  0  0
 24 50  1  0  0  0  0
 24 51  1  0  0  0  0
 25 27  1  0  0  0  0
 26 29  1  0  0  0  0
 27 28  1  0  0  0  0
 27 30  1  0  0  0  0
 28 31  1  0  0  0  0
 28 52  1  0  0  0  0
 29 53  1  0  0  0  0
 29 54  1  0  0  0  0
 29 55  1  0  0  0  0
 30 56  1  0  0  0  0
 30 57  1  0  0  0  0
 30 58  1  0  0  0  0
 31 60  1  0  0  0  0
 31 61  1  0  0  0  0
 31 62  1  0  0  0  0
 32 33  1  0  0  0  0
 33 63  1  0  0  0  0
 33 64  1  0  0  0  0
 33 65  1  0  0  0  0
M  END
> <PUBCHEM_COMPOUND_CID>
132529145

> <PUBCHEM_CONFORMER_RMSD>
1

> <PUBCHEM_CONFORMER_DIVERSEORDER>
1
23
26
42
25
31
32
29
33
22
14
36
24
34
41
30
44
10
27
28
5
35
21
12
38
40
15
18
16
39
9
19
13
17
43
8
11
37
6
4
20
3
7
2

> <PUBCHEM_MMFF94_PARTIAL_CHARGES>
32
1 -0.43
11 0.14
12 0.28
14 0.14
15 0.28
16 0.28
17 -0.28
19 0.14
2 -0.43
20 -0.12
21 -0.29
22 0.71
23 0.14
24 -0.3
25 0.66
26 0.66
27 0.34
28 0.28
29 0.06
3 -0.43
32 0.66
33 0.06
4 -0.57
46 0.15
5 -0.57
50 0.15
51 0.15
59 0.4
6 -0.68
7 -0.57
8 -0.43
9 -0.57

> <PUBCHEM_EFFECTIVE_ROTOR_COUNT>
9

> <PUBCHEM_PHARMACOPHORE_FEATURES>
9
1 4 acceptor
1 5 acceptor
1 6 acceptor
1 6 donor
1 7 acceptor
1 9 acceptor
5 1 12 14 20 22 rings
6 10 11 12 13 14 15 rings
6 10 11 16 17 19 21 rings

> <PUBCHEM_HEAVY_ATOM_COUNT>
33

> <PUBCHEM_ATOM_DEF_STEREO_COUNT>
8

> <PUBCHEM_ATOM_UDEF_STEREO_COUNT>
0

> <PUBCHEM_BOND_DEF_STEREO_COUNT>
0

> <PUBCHEM_BOND_UDEF_STEREO_COUNT>
0

> <PUBCHEM_ISOTOPIC_ATOM_COUNT>
0

> <PUBCHEM_COMPONENT_COUNT>
1

> <PUBCHEM_CACTVS_TAUTO_COUNT>
1

> <PUBCHEM_CONFORMER_ID>
07E63BF900000001

> <PUBCHEM_MMFF94_ENERGY>
79.0531

> <PUBCHEM_FEATURE_SELFOVERLAP>
45.772

> <PUBCHEM_SHAPE_FINGERPRINT>
1100329 8 18051702337090449971
11513181 2 18201716224361050950
12107183 9 17905044755618641928
12422481 6 18125458427327284537
12553582 1 18196086861879778806
12788726 201 18340778120955108309
12925494 130 17835796396567205091
13140716 1 18409454682974420803
14394314 77 18339642364546909465
14400156 260 18197236784625566865
14705955 166 17703501147416281688
14790565 3 18411422800144977129
15001296 14 18333446568846987827
15320467 1 18411135857548674898
15927050 60 18053952757992942485
16728300 4 17968928692048213827
17492 89 18410009897406600210
17818456 19 18337954480574102385
19319366 153 17823412888982628818
20775438 99 16686773099190157839
21796203 349 17179427962658808682
23559900 14 18058468559395730028
3493558 16 17336459740537777499
3882209 13 16760531646011036486
392239 28 17834109028787715096
463206 1 18046341109350351322
5171179 24 17840038342619264039
5265222 85 18194700176660623764
532947 4 17112965271592325565
5776283 40 18268729225223584926
6823239 73 18129391410743021014

> <PUBCHEM_SHAPE_MULTIPOLES>
626.3
9.55
6.83
1.31
6.51
2.6
0.27
-0.72
-2.14
-2.92
-0.96
0.91
0.17
-1.75

> <PUBCHEM_SHAPE_SELFOVERLAP>
1316.629

> <PUBCHEM_SHAPE_VOLUME>
348.7

> <PUBCHEM_COORDINATE_TYPE>
2
5
10

$$$$
