REMARK  Name = 132577715
REMARK  7 active torsions:
REMARK  status: ('A' for Active; 'I' for Inactive)
REMARK    1  A    between atoms: C_3  and  C_21
REMARK    2  A    between atoms: C_4  and  C_7
REMARK    3  A    between atoms: C_5  and  O_15
REMARK    4  A    between atoms: C_5  and  C_18
REMARK    5  A    between atoms: C_12  and  O_13
REMARK    6  A    between atoms: C_18  and  O_19
REMARK    7  A    between atoms: C_21  and  C_31
REMARK                            x       y       z     vdW  Elec       q    Type
REMARK                         _______ _______ _______ _____ _____    ______ ____
ROOT
ATOM      1  O   UNL     1       2.993  -2.593   0.127  0.00  0.00    -0.414 OA
ATOM      2  O   UNL     1       1.484  -3.837  -1.076  0.00  0.00    -0.245 OA
ATOM      3  C   UNL     1       1.413  -1.443  -1.107  0.00  0.00    +0.060 C 
ATOM      4  C   UNL     1       2.187  -0.539  -0.498  0.00  0.00    +0.054 C 
ATOM      5  C   UNL     1       3.249  -1.201   0.307  0.00  0.00    +0.340 C 
ATOM      6  C   UNL     1       1.932  -2.762  -0.714  0.00  0.00    +0.340 C 
ENDROOT
BRANCH   4   7
ATOM      7  C   UNL     1       2.031   0.918  -0.579  0.00  0.00    +0.002 C 
ATOM      8  C   UNL     1       2.683   1.635  -1.581  0.00  0.00    +0.003 C 
ATOM      9  C   UNL     1       1.228   1.585   0.346  0.00  0.00    +0.003 C 
ATOM     10  C   UNL     1       2.533   3.019  -1.659  0.00  0.00    +0.037 C 
ATOM     11  C   UNL     1       1.077   2.970   0.268  0.00  0.00    +0.037 C 
ATOM     12  C   UNL     1       1.730   3.687  -0.735  0.00  0.00    +0.134 C 
BRANCH  12  13
ATOM     13  O   UNL     1       1.582   5.038  -0.811  0.00  0.00    -0.506 OA
ATOM     14  H   UNL     1       2.021   5.519  -1.484  0.00  0.00    +0.292 HD
ENDBRANCH  12  13
ENDBRANCH   4   7
BRANCH   5  15
ATOM     15  O   UNL     1       4.542  -0.851  -0.132  0.00  0.00    -0.343 OA
ATOM     16  H   UNL     1       4.635  -1.072  -1.072  0.00  0.00    +0.215 HD
ENDBRANCH   5  15
BRANCH   5  18
ATOM     17  O   UNL     1       2.389  -1.540   2.534  0.00  0.00    -0.243 OA
ATOM     18  C   UNL     1       3.064  -0.873   1.762  0.00  0.00    +0.386 C 
BRANCH  18  19
ATOM     19  O   UNL     1       3.758   0.261   2.066  0.00  0.00    -0.440 OA
ATOM     20  C   UNL     1       3.670   0.689   3.428  0.00  0.00    +0.256 C 
ENDBRANCH  18  19
ENDBRANCH   5  18
BRANCH   3  21
ATOM     21  C   UNL     1       0.259  -1.303  -2.028  0.00  0.00    +0.059 C 
BRANCH  21  31
ATOM     22  O   UNL     1      -4.715  -0.907   0.624  0.00  0.00    -0.483 OA
ATOM     23  C   UNL     1      -5.356   0.373   0.781  0.00  0.00    +0.134 C 
ATOM     24  C   UNL     1      -4.343   1.479   1.123  0.00  0.00    +0.045 C 
ATOM     25  C   UNL     1      -3.259   1.587   0.060  0.00  0.00    +0.033 C 
ATOM     26  C   UNL     1      -2.754   0.222  -0.304  0.00  0.00    +0.012 C 
ATOM     27  C   UNL     1      -3.502  -0.925  -0.013  0.00  0.00    +0.134 C 
ATOM     28  C   UNL     1      -6.168   0.682  -0.485  0.00  0.00    +0.044 C 
ATOM     29  C   UNL     1      -6.329   0.213   1.958  0.00  0.00    +0.044 C 
ATOM     30  C   UNL     1      -1.530   0.088  -0.973  0.00  0.00    -0.005 C 
ATOM     31  C   UNL     1      -1.048  -1.173  -1.323  0.00  0.00    -0.018 C 
ATOM     32  C   UNL     1      -3.012  -2.188  -0.356  0.00  0.00    +0.036 C 
ATOM     33  C   UNL     1      -1.788  -2.312  -1.011  0.00  0.00    -0.001 C 
ENDBRANCH  21  31
ENDBRANCH   3  21
TORSDOF 7
