REMARK  Name = 132552407
REMARK  7 active torsions:
REMARK  status: ('A' for Active; 'I' for Inactive)
REMARK    1  A    between atoms: C_4  and  O_20
REMARK    2  A    between atoms: C_7  and  O_22
REMARK    3  A    between atoms: C_7  and  C_29
REMARK    4  A    between atoms: C_19  and  C_25
REMARK    5  A    between atoms: C_25  and  O_26
REMARK    6  A    between atoms: O_26  and  C_27
REMARK    7  A    between atoms: C_29  and  O_30
REMARK                            x       y       z     vdW  Elec       q    Type
REMARK                         _______ _______ _______ _____ _____    ______ ____
ROOT
ATOM      1  O   UNL     1       4.223   0.601  -1.651  0.00  0.00    -0.287 OA
ATOM      2  C   UNL     1      -2.029  -0.863  -0.262  0.00  0.00    +0.005 C 
ATOM      3  C   UNL     1      -1.347   0.421  -0.855  0.00  0.00    +0.004 C 
ATOM      4  C   UNL     1      -3.631   0.290   1.042  0.00  0.00    +0.113 C 
ATOM      5  C   UNL     1      -2.451  -0.662   1.202  0.00  0.00    +0.029 C 
ATOM      6  C   UNL     1      -3.417  -1.072  -0.967  0.00  0.00    +0.032 C 
ATOM      7  C   UNL     1      -4.469  -0.450  -0.023  0.00  0.00    +0.137 C 
ATOM      8  C   UNL     1       0.180   0.618  -0.497  0.00  0.00    +0.023 C 
ATOM      9  C   UNL     1      -1.151  -2.107  -0.439  0.00  0.00    +0.001 C 
ATOM     10  C   UNL     1      -2.239   1.674  -0.640  0.00  0.00    +0.003 C 
ATOM     11  C   UNL     1      -3.091   1.668   0.631  0.00  0.00    +0.029 C 
ATOM     12  C   UNL     1       0.929  -0.734  -0.743  0.00  0.00    +0.029 C 
ATOM     13  C   UNL     1       0.288  -1.901   0.022  0.00  0.00    +0.005 C 
ATOM     14  C   UNL     1       0.414   1.159   0.932  0.00  0.00    +0.005 C 
ATOM     15  C   UNL     1       0.820   1.642  -1.442  0.00  0.00    -0.023 C 
ATOM     16  C   UNL     1       2.422  -0.559  -0.568  0.00  0.00    +0.023 C 
ATOM     17  C   UNL     1       2.096   1.597  -1.853  0.00  0.00    +0.037 C 
ATOM     18  C   UNL     1       3.030   0.544  -1.377  0.00  0.00    +0.192 C 
ATOM     19  C   UNL     1       3.242  -1.280   0.209  0.00  0.00    +0.081 C 
ENDROOT
BRANCH   4  20
ATOM     20  O   UNL     1      -4.342   0.450   2.260  0.00  0.00    -0.384 OA
ATOM     21  H   UNL     1      -4.695  -0.408   2.543  0.00  0.00    +0.210 HD
ENDBRANCH   4  20
BRANCH   7  22
ATOM     22  O   UNL     1      -5.152  -1.551   0.602  0.00  0.00    -0.382 OA
ATOM     23  H   UNL     1      -4.509  -2.106   1.071  0.00  0.00    +0.210 HD
ENDBRANCH   7  22
BRANCH  19  25
ATOM     24  O   UNL     1       5.531  -1.456  -0.492  0.00  0.00    -0.245 OA
ATOM     25  C   UNL     1       4.685  -0.971   0.242  0.00  0.00    +0.341 C 
BRANCH  25  26
ATOM     26  O   UNL     1       4.885  -0.058   1.230  0.00  0.00    -0.445 OA
BRANCH  26  27
ATOM     27  C   UNL     1       6.240   0.365   1.412  0.00  0.00    +0.209 C 
ATOM     28  C   UNL     1       6.296   1.373   2.539  0.00  0.00    +0.051 C 
ENDBRANCH  26  27
ENDBRANCH  25  26
ENDBRANCH  19  25
BRANCH   7  29
ATOM     29  C   UNL     1      -5.529   0.378  -0.739  0.00  0.00    +0.166 C 
BRANCH  29  30
ATOM     30  O   UNL     1      -6.436   0.882   0.225  0.00  0.00    -0.379 OA
ATOM     31  H   UNL     1      -7.117   1.412  -0.218  0.00  0.00    +0.211 HD
ENDBRANCH  29  30
ENDBRANCH   7  29
TORSDOF 7
