REMARK  Name = 132576240
REMARK  9 active torsions:
REMARK  status: ('A' for Active; 'I' for Inactive)
REMARK    1  A    between atoms: C_1  and  C_4
REMARK    2  A    between atoms: C_2  and  C_18
REMARK    3  A    between atoms: C_4  and  C_7
REMARK    4  A    between atoms: C_8  and  C_11
REMARK    5  A    between atoms: C_11  and  C_12
REMARK    6  A    between atoms: C_12  and  C_15
REMARK    7  A    between atoms: C_18  and  O_19
REMARK    8  A    between atoms: O_19  and  C_22
REMARK    9  A    between atoms: C_23  and  O_31
REMARK                            x       y       z     vdW  Elec       q    Type
REMARK                         _______ _______ _______ _____ _____    ______ ____
ROOT
ATOM      1  C   UNL     1      -1.018   2.431  -0.757  0.00  0.00    -0.041 C 
ATOM      2  C   UNL     1      -0.303   2.494   0.383  0.00  0.00    +0.012 C 
ATOM      3  C   UNL     1      -0.325   2.495  -2.093  0.00  0.00    +0.026 C 
ENDROOT
BRANCH   1   4
ATOM      4  C   UNL     1      -2.519   2.270  -0.817  0.00  0.00    +0.070 C 
BRANCH   4   7
ATOM      5  O   UNL     1      -2.417  -0.139  -0.755  0.00  0.00    -0.445 OA
ATOM      6  O   UNL     1      -3.342  -1.951   0.317  0.00  0.00    -0.245 OA
ATOM      7  C   UNL     1      -2.931   0.974  -1.500  0.00  0.00    +0.195 C 
ATOM      8  C   UNL     1      -4.713  -0.354  -0.822  0.00  0.00    +0.053 C 
ATOM      9  C   UNL     1      -4.393   0.751  -1.490  0.00  0.00    +0.019 C 
ATOM     10  C   UNL     1      -3.450  -0.931  -0.342  0.00  0.00    +0.337 C 
BRANCH   8  11
ATOM     11  C   UNL     1      -6.039  -0.955  -0.565  0.00  0.00    +0.042 C 
BRANCH  11  12
ATOM     12  C   UNL     1      -6.649  -0.476   0.754  0.00  0.00    +0.090 C 
BRANCH  12  15
ATOM     13  O   UNL     1      -8.556  -1.903   0.290  0.00  0.00    -0.275 OA
ATOM     14  N   UNL     1      -8.543  -0.663   2.226  0.00  0.00    -0.329 N 
ATOM     15  C   UNL     1      -8.002  -1.100   1.036  0.00  0.00    +0.220 C 
ATOM     16  H   UNL     1      -9.422  -0.997   2.520  0.00  0.00    +0.145 HD
ATOM     17  H   UNL     1      -8.052  -0.016   2.782  0.00  0.00    +0.145 HD
ENDBRANCH  12  15
ENDBRANCH  11  12
ENDBRANCH   8  11
ENDBRANCH   4   7
ENDBRANCH   1   4
BRANCH   2  18
ATOM     18  C   UNL     1       1.181   2.627   0.519  0.00  0.00    +0.231 C 
BRANCH  18  19
ATOM     19  O   UNL     1       1.666   1.518   1.267  0.00  0.00    -0.468 OA
BRANCH  19  22
ATOM     20  O   UNL     1       4.740  -1.877  -0.168  0.00  0.00    -0.418 OA
ATOM     21  O   UNL     1       6.223  -3.483  -0.848  0.00  0.00    -0.244 OA
ATOM     22  C   UNL     1       2.947   1.110   1.002  0.00  0.00    +0.176 C 
ATOM     23  C   UNL     1       3.200  -0.182   0.548  0.00  0.00    +0.207 C 
ATOM     24  C   UNL     1       4.516  -0.562   0.291  0.00  0.00    +0.185 C 
ATOM     25  C   UNL     1       5.581   0.315   0.476  0.00  0.00    +0.038 C 
ATOM     26  C   UNL     1       4.004   2.004   1.194  0.00  0.00    +0.040 C 
ATOM     27  C   UNL     1       5.319   1.609   0.931  0.00  0.00    +0.006 C 
ATOM     28  C   UNL     1       6.928  -0.148   0.188  0.00  0.00    +0.010 C 
ATOM     29  C   UNL     1       7.132  -1.394  -0.245  0.00  0.00    +0.082 C 
ATOM     30  C   UNL     1       6.020  -2.341  -0.449  0.00  0.00    +0.346 C 
BRANCH  23  31
ATOM     31  O   UNL     1       2.176  -1.059   0.360  0.00  0.00    -0.465 OA
ATOM     32  C   UNL     1       1.567  -1.079  -0.930  0.00  0.00    +0.253 C 
ENDBRANCH  23  31
ENDBRANCH  19  22
ENDBRANCH  18  19
ENDBRANCH   2  18
TORSDOF 9
