132569620
  -OEChem-03292013293D

 57 59  0     1  0  0  0  0  0999 V2000
    0.2221    4.0106   -0.9815 O   0  0  0  0  0  0  0  0  0  0  0  0
   -5.1644   -0.1741    2.2529 O   0  0  0  0  0  0  0  0  0  0  0  0
    1.7604   -3.3863    2.0364 O   0  0  0  0  0  0  0  0  0  0  0  0
   -6.3355    0.4692   -0.1844 O   0  0  0  0  0  0  0  0  0  0  0  0
    1.4951   -4.6609   -0.4192 O   0  0  0  0  0  0  0  0  0  0  0  0
    4.0501    1.7778    2.3330 O   0  0  0  0  0  0  0  0  0  0  0  0
    5.6637    1.2854    0.1241 O   0  0  0  0  0  0  0  0  0  0  0  0
   -0.7191    0.5265    0.3627 C   0  0  0  0  0  0  0  0  0  0  0  0
    0.0248    1.6426   -0.4851 C   0  0  2  0  0  0  0  0  0  0  0  0
   -2.2036    0.5095    0.2211 C   0  0  0  0  0  0  0  0  0  0  0  0
   -0.1175   -0.8780    0.1538 C   0  0  0  0  0  0  0  0  0  0  0  0
    1.5437    1.5479   -0.3178 C   0  0  0  0  0  0  0  0  0  0  0  0
   -0.4419    3.0734   -0.1385 C   0  0  0  0  0  0  0  0  0  0  0  0
    0.5600   -1.5088    1.1973 C   0  0  0  0  0  0  0  0  0  0  0  0
   -3.0045    0.1709    1.3117 C   0  0  0  0  0  0  0  0  0  0  0  0
   -2.7912    0.8335   -1.0019 C   0  0  0  0  0  0  0  0  0  0  0  0
   -0.2515   -1.5180   -1.0783 C   0  0  0  0  0  0  0  0  0  0  0  0
    2.1178    1.7088    0.9431 C   0  0  0  0  0  0  0  0  0  0  0  0
    2.3533    1.2998   -1.4263 C   0  0  0  0  0  0  0  0  0  0  0  0
   -4.3930    0.1560    1.1796 C   0  0  0  0  0  0  0  0  0  0  0  0
    1.1031   -2.7797    1.0088 C   0  0  0  0  0  0  0  0  0  0  0  0
    3.5016    1.6213    1.0958 C   0  0  0  0  0  0  0  0  0  0  0  0
   -4.1797    0.8184   -1.1341 C   0  0  0  0  0  0  0  0  0  0  0  0
    0.2920   -2.7887   -1.2669 C   0  0  0  0  0  0  0  0  0  0  0  0
    3.7370    1.2127   -1.2737 C   0  0  0  0  0  0  0  0  0  0  0  0
   -4.9807    0.4798   -0.0433 C   0  0  0  0  0  0  0  0  0  0  0  0
    0.9693   -3.4196   -0.2234 C   0  0  0  0  0  0  0  0  0  0  0  0
    4.3112    1.3733   -0.0126 C   0  0  0  0  0  0  0  0  0  0  0  0
   -6.8561    0.8124   -1.4672 C   0  0  0  0  0  0  0  0  0  0  0  0
    1.3143   -5.2452   -1.7078 C   0  0  0  0  0  0  0  0  0  0  0  0
    6.4192    1.0297   -1.0584 C   0  0  0  0  0  0  0  0  0  0  0  0
   -0.5263    0.7954    1.4127 H   0  0  0  0  0  0  0  0  0  0  0  0
   -0.1705    1.4826   -1.5531 H   0  0  0  0  0  0  0  0  0  0  0  0
   -0.2247    3.3325    0.9031 H   0  0  0  0  0  0  0  0  0  0  0  0
   -1.5163    3.1949   -0.2991 H   0  0  0  0  0  0  0  0  0  0  0  0
    0.6639   -1.0133    2.1594 H   0  0  0  0  0  0  0  0  0  0  0  0
   -2.5479   -0.0830    2.2655 H   0  0  0  0  0  0  0  0  0  0  0  0
   -2.2064    1.0847   -1.8801 H   0  0  0  0  0  0  0  0  0  0  0  0
   -0.7640   -1.0412   -1.9084 H   0  0  0  0  0  0  0  0  0  0  0  0
    1.4952    1.9042    1.8122 H   0  0  0  0  0  0  0  0  0  0  0  0
    1.9209    1.1715   -2.4150 H   0  0  0  0  0  0  0  0  0  0  0  0
    0.1519   -3.2236   -2.2504 H   0  0  0  0  0  0  0  0  0  0  0  0
   -4.5665    1.0768   -2.1138 H   0  0  0  0  0  0  0  0  0  0  0  0
    4.3028    1.0175   -2.1781 H   0  0  0  0  0  0  0  0  0  0  0  0
   -0.0968    4.8944   -0.7311 H   0  0  0  0  0  0  0  0  0  0  0  0
    1.7551   -2.7956    2.8091 H   0  0  0  0  0  0  0  0  0  0  0  0
   -4.5869   -0.3669    3.0114 H   0  0  0  0  0  0  0  0  0  0  0  0
    3.3396    1.9393    2.9773 H   0  0  0  0  0  0  0  0  0  0  0  0
    1.7943   -6.2292   -1.6856 H   0  0  0  0  0  0  0  0  0  0  0  0
   -6.6105    1.8445   -1.7396 H   0  0  0  0  0  0  0  0  0  0  0  0
   -6.5466    0.0938   -2.2338 H   0  0  0  0  0  0  0  0  0  0  0  0
    0.2549   -5.4133   -1.9297 H   0  0  0  0  0  0  0  0  0  0  0  0
    1.8169   -4.6641   -2.4885 H   0  0  0  0  0  0  0  0  0  0  0  0
   -7.9474    0.7531   -1.3985 H   0  0  0  0  0  0  0  0  0  0  0  0
    7.4736    0.9921   -0.7652 H   0  0  0  0  0  0  0  0  0  0  0  0
    6.3202    1.8437   -1.7845 H   0  0  0  0  0  0  0  0  0  0  0  0
    6.1745    0.0533   -1.4904 H   0  0  0  0  0  0  0  0  0  0  0  0
  1 13  1  0  0  0  0
  1 45  1  0  0  0  0
  2 20  1  0  0  0  0
  2 47  1  0  0  0  0
  3 21  1  0  0  0  0
  3 46  1  0  0  0  0
  4 26  1  0  0  0  0
  4 29  1  0  0  0  0
  5 27  1  0  0  0  0
  5 30  1  0  0  0  0
  6 22  1  0  0  0  0
  6 48  1  0  0  0  0
  7 28  1  0  0  0  0
  7 31  1  0  0  0  0
  8  9  1  0  0  0  0
  8 10  1  0  0  0  0
  8 11  1  0  0  0  0
  8 32  1  0  0  0  0
  9 12  1  0  0  0  0
  9 13  1  0  0  0  0
  9 33  1  0  0  0  0
 10 15  2  0  0  0  0
 10 16  1  0  0  0  0
 11 14  2  0  0  0  0
 11 17  1  0  0  0  0
 12 18  2  0  0  0  0
 12 19  1  0  0  0  0
 13 34  1  0  0  0  0
 13 35  1  0  0  0  0
 14 21  1  0  0  0  0
 14 36  1  0  0  0  0
 15 20  1  0  0  0  0
 15 37  1  0  0  0  0
 16 23  2  0  0  0  0
 16 38  1  0  0  0  0
 17 24  2  0  0  0  0
 17 39  1  0  0  0  0
 18 22  1  0  0  0  0
 18 40  1  0  0  0  0
 19 25  2  0  0  0  0
 19 41  1  0  0  0  0
 20 26  2  0  0  0  0
 21 27  2  0  0  0  0
 22 28  2  0  0  0  0
 23 26  1  0  0  0  0
 23 43  1  0  0  0  0
 24 27  1  0  0  0  0
 24 42  1  0  0  0  0
 25 28  1  0  0  0  0
 25 44  1  0  0  0  0
 29 50  1  0  0  0  0
 29 51  1  0  0  0  0
 29 54  1  0  0  0  0
 30 49  1  0  0  0  0
 30 52  1  0  0  0  0
 30 53  1  0  0  0  0
 31 55  1  0  0  0  0
 31 56  1  0  0  0  0
 31 57  1  0  0  0  0
M  END
> <PUBCHEM_COMPOUND_CID>
132569620

> <PUBCHEM_CONFORMER_RMSD>
1

> <PUBCHEM_CONFORMER_DIVERSEORDER>
2
72
29
100
101
97
40
30
20
43
88
69
92
47
81
93
33
75
99
51
36
79
65
60
95
42
89
45
32
77
71
38
85
17
73
90
53
78
52
34
96
48
22
87
24
74
37
66
98
68
76
80
27
5
94
57
64
86
63
70
61
91
59
31
8
41
84
54
50
49
67
23
3
28
39
55
62
6
26
35
56
16
1
25
82
83
58
21
10
4
15
44
7
12
46
19
14
18
11
13
9

> <PUBCHEM_MMFF94_PARTIAL_CHARGES>
44
1 -0.68
10 -0.14
11 -0.14
12 -0.14
13 0.28
14 -0.15
15 -0.15
16 -0.15
17 -0.15
18 -0.15
19 -0.15
2 -0.53
20 0.08
21 0.08
22 0.08
23 -0.15
24 -0.15
25 -0.15
26 0.08
27 0.08
28 0.08
29 0.28
3 -0.53
30 0.28
31 0.28
36 0.15
37 0.15
38 0.15
39 0.15
4 -0.36
40 0.15
41 0.15
42 0.15
43 0.15
44 0.15
45 0.4
46 0.45
47 0.45
48 0.45
5 -0.36
6 -0.53
7 -0.36
8 0.29
9 0.14

> <PUBCHEM_EFFECTIVE_ROTOR_COUNT>
8

> <PUBCHEM_PHARMACOPHORE_FEATURES>
11
1 1 acceptor
1 1 donor
1 2 donor
1 3 donor
1 4 acceptor
1 5 acceptor
1 6 donor
1 7 acceptor
6 10 15 16 20 23 26 rings
6 11 14 17 21 24 27 rings
6 12 18 19 22 25 28 rings

> <PUBCHEM_HEAVY_ATOM_COUNT>
31

> <PUBCHEM_ATOM_DEF_STEREO_COUNT>
0

> <PUBCHEM_ATOM_UDEF_STEREO_COUNT>
1

> <PUBCHEM_BOND_DEF_STEREO_COUNT>
0

> <PUBCHEM_BOND_UDEF_STEREO_COUNT>
0

> <PUBCHEM_ISOTOPIC_ATOM_COUNT>
0

> <PUBCHEM_COMPONENT_COUNT>
1

> <PUBCHEM_CACTVS_TAUTO_COUNT>
530

> <PUBCHEM_CONFORMER_ID>
07E6DA1400000002

> <PUBCHEM_MMFF94_ENERGY>
119.6185

> <PUBCHEM_FEATURE_SELFOVERLAP>
55.824

> <PUBCHEM_SHAPE_FINGERPRINT>
102385 1 17905891375087553884
107951 10 17895485825287257466
10906281 52 18040724636700119849
11421498 54 17916882252553788241
11488393 25 18265903453757824978
11578080 2 16734663049016771751
11963148 33 17968933219134349579
12156800 1 15577573485467320930
12422481 6 18046034152442911130
12788726 201 17473260358600718834
133893 2 18045803207434755624
13692114 37 18125166180689224515
13911987 19 18263659496538721821
14028597 1 17632021840780931290
14118638 360 18342175528485936705
15775530 1 17682946704989618333
15849732 13 17894633695053804516
1813 80 17911239412756733695
20028762 73 18125732424702947047
20197701 30 18341611585176160795
20642791 13 17622139683795019064
20771845 171 17822013098952836638
20905425 154 18122068598270842284
21033648 29 18272076249275107976
21344244 246 18341897346884232758
22956985 138 17968658190381304330
23559900 14 17313957294773233451
255183 313 18193530459044324808
3178227 256 18263374718985224849
3298306 158 18260830418881326333
3383291 50 18270968947652550102
3411729 13 18261109626057249857
38695281 34 18413108372370519199
4017518 198 18342748438183740246
404807 14 14614943152372199524
5265222 85 18188783876259014476
5385378 56 18341060627145749001
58260988 521 17970087688419190203
59755656 215 18187364298560456661
6669772 16 18342747308222264838
6679774 75 18114446904501924842
70251023 43 18051413964270051043
81228 2 17546159070417353379

> <PUBCHEM_SHAPE_MULTIPOLES>
596.88
11.63
5.01
1.78
9.45
7.98
0.54
-7.87
-1.14
-5
-1.48
0.07
0.43
0.66

> <PUBCHEM_SHAPE_SELFOVERLAP>
1285.277

> <PUBCHEM_SHAPE_VOLUME>
328.5

> <PUBCHEM_COORDINATE_TYPE>
2
5
10

$$$$
