REMARK  Name = 132525357
REMARK  8 active torsions:
REMARK  status: ('A' for Active; 'I' for Inactive)
REMARK    1  A    between atoms: C_4  and  N_28
REMARK    2  A    between atoms: C_7  and  C_16
REMARK    3  A    between atoms: C_11  and  O_26
REMARK    4  A    between atoms: C_19  and  O_22
REMARK    5  A    between atoms: C_20  and  O_24
REMARK    6  A    between atoms: N_28  and  C_30
REMARK    7  A    between atoms: C_31  and  C_37
REMARK    8  A    between atoms: C_37  and  O_38
REMARK                            x       y       z     vdW  Elec       q    Type
REMARK                         _______ _______ _______ _____ _____    ______ ____
ROOT
ATOM      1  O   UNL     1       1.488  -1.416  -0.209  0.00  0.00    -0.448 OA
ATOM      2  O   UNL     1       2.384   1.479   0.905  0.00  0.00    -0.296 OA
ATOM      3  O   UNL     1       1.498  -1.464   2.103  0.00  0.00    -0.250 OA
ATOM      4  C   UNL     1       0.498   1.364  -1.478  0.00  0.00    +0.080 C 
ATOM      5  C   UNL     1      -0.057  -0.092  -1.560  0.00  0.00    +0.063 C 
ATOM      6  C   UNL     1       2.035   1.585  -1.480  0.00  0.00    +0.076 C 
ATOM      7  C   UNL     1       0.131  -0.941  -0.270  0.00  0.00    +0.193 C 
ATOM      8  C   UNL     1       4.070   0.317  -0.401  0.00  0.00    +0.085 C 
ATOM      9  C   UNL     1       2.775   1.135  -0.212  0.00  0.00    +0.154 C 
ATOM     10  C   UNL     1       0.474  -0.799  -2.817  0.00  0.00    +0.006 C 
ATOM     11  C   UNL     1       4.398  -0.654   0.760  0.00  0.00    +0.128 C 
ATOM     12  C   UNL     1       2.350   3.072  -1.708  0.00  0.00    +0.009 C 
ATOM     13  C   UNL     1       3.513  -1.901   0.848  0.00  0.00    +0.139 C 
ATOM     14  C   UNL     1       5.229   1.297  -0.602  0.00  0.00    +0.010 C 
ATOM     15  C   UNL     1       2.052  -1.586   1.020  0.00  0.00    +0.320 C 
ENDROOT
BRANCH   7  16
ATOM     16  C   UNL     1      -0.850  -2.102  -0.201  0.00  0.00    +0.023 C 
ATOM     17  C   UNL     1      -2.096  -1.928   0.401  0.00  0.00    +0.036 C 
ATOM     18  C   UNL     1      -0.504  -3.340  -0.741  0.00  0.00    +0.036 C 
ATOM     19  C   UNL     1      -1.403  -4.405  -0.679  0.00  0.00    +0.136 C 
ATOM     20  C   UNL     1      -2.996  -2.992   0.463  0.00  0.00    +0.136 C 
ATOM     21  C   UNL     1      -2.649  -4.230  -0.077  0.00  0.00    +0.073 C 
BRANCH  19  22
ATOM     22  O   UNL     1      -1.065  -5.613  -1.205  0.00  0.00    -0.505 OA
ATOM     23  H   UNL     1      -0.228  -5.730  -1.610  0.00  0.00    +0.292 HD
ENDBRANCH  19  22
BRANCH  20  24
ATOM     24  O   UNL     1      -4.212  -2.822   1.051  0.00  0.00    -0.505 OA
ATOM     25  H   UNL     1      -4.445  -1.990   1.414  0.00  0.00    +0.292 HD
ENDBRANCH  20  24
ENDBRANCH   7  16
BRANCH  11  26
ATOM     26  O   UNL     1       4.421   0.032   2.009  0.00  0.00    -0.383 OA
ATOM     27  H   UNL     1       4.985   0.818   1.935  0.00  0.00    +0.210 HD
ENDBRANCH  11  26
BRANCH   4  28
ATOM     28  N   UNL     1      -0.142   2.069  -0.380  0.00  0.00    -0.333 N 
ATOM     29  H   UNL     1       0.387   2.250   0.430  0.00  0.00    +0.147 HD
BRANCH  28  30
ATOM     30  C   UNL     1      -1.452   2.497  -0.417  0.00  0.00    +0.051 C 
ATOM     31  C   UNL     1      -2.209   2.588   0.750  0.00  0.00    +0.089 C 
ATOM     32  C   UNL     1      -2.018   2.843  -1.645  0.00  0.00    +0.015 C 
ATOM     33  C   UNL     1      -3.532   3.024   0.691  0.00  0.00    +0.008 C 
ATOM     34  C   UNL     1      -3.341   3.279  -1.704  0.00  0.00    +0.001 C 
ATOM     35  C   UNL     1      -4.099   3.370  -0.536  0.00  0.00    +0.000 C 
BRANCH  31  37
ATOM     36  O   UNL     1      -0.458   2.342   2.363  0.00  0.00    -0.245 OA
ATOM     37  C   UNL     1      -1.646   2.235   2.048  0.00  0.00    +0.339 C 
BRANCH  37  38
ATOM     38  O   UNL     1      -2.587   1.761   2.908  0.00  0.00    -0.477 OA
ATOM     39  H   UNL     1      -3.481   1.693   2.634  0.00  0.00    +0.295 HD
ENDBRANCH  37  38
ENDBRANCH  31  37
ENDBRANCH  28  30
ENDBRANCH   4  28
TORSDOF 8
