REMARK  Name = 132571669
REMARK  15 active torsions:
REMARK  status: ('A' for Active; 'I' for Inactive)
REMARK    1  A    between atoms: C_3  and  O_8
REMARK    2  A    between atoms: C_3  and  C_24
REMARK    3  A    between atoms: C_6  and  C_11
REMARK    4  A    between atoms: C_6  and  C_18
REMARK    5  A    between atoms: C_11  and  O_12
REMARK    6  A    between atoms: O_12  and  C_13
REMARK    7  A    between atoms: C_13  and  C_14
REMARK    8  A    between atoms: C_14  and  C_15
REMARK    9  A    between atoms: C_18  and  O_19
REMARK   10  A    between atoms: O_19  and  C_20
REMARK   11  A    between atoms: C_20  and  C_21
REMARK   12  A    between atoms: C_21  and  C_22
REMARK   13  A    between atoms: C_24  and  C_25
REMARK   14  A    between atoms: C_25  and  C_27
REMARK   15  A    between atoms: C_27  and  O_28
REMARK                            x       y       z     vdW  Elec       q    Type
REMARK                         _______ _______ _______ _____ _____    ______ ____
ROOT
ATOM      1  O   UNL     1       1.618   2.696  -0.581  0.00  0.00    -0.427 OA
ATOM      2  O   UNL     1       1.105   4.550   0.651  0.00  0.00    -0.250 OA
ATOM      3  C   UNL     1       1.156   1.343  -0.691  0.00  0.00    +0.247 C 
ATOM      4  C   UNL     1      -0.132   1.334   0.061  0.00  0.00    +0.042 C 
ATOM      5  C   UNL     1      -0.210   2.545   0.920  0.00  0.00    +0.138 C 
ATOM      6  C   UNL     1      -1.123   0.442  -0.066  0.00  0.00    +0.149 C 
ATOM      7  C   UNL     1       0.884   3.389   0.337  0.00  0.00    +0.323 C 
ENDROOT
BRANCH   3   8
ATOM      8  O   UNL     1       0.935   0.998  -2.054  0.00  0.00    -0.351 OA
ATOM      9  H   UNL     1       0.273   1.595  -2.435  0.00  0.00    +0.214 HD
ENDBRANCH   3   8
BRANCH   6  11
ATOM     10  O   UNL     1      -2.404   1.284   1.779  0.00  0.00    -0.245 OA
ATOM     11  C   UNL     1      -2.366   0.698   0.706  0.00  0.00    +0.347 C 
BRANCH  11  12
ATOM     12  O   UNL     1      -3.423   0.149   0.051  0.00  0.00    -0.445 OA
BRANCH  12  13
ATOM     13  C   UNL     1      -4.692   0.285   0.700  0.00  0.00    +0.209 C 
BRANCH  13  14
ATOM     14  C   UNL     1      -5.758  -0.379  -0.161  0.00  0.00    +0.047 C 
BRANCH  14  15
ATOM     15  C   UNL     1      -7.144  -0.258   0.466  0.00  0.00    +0.004 C 
ATOM     16  C   UNL     1      -8.211  -0.884  -0.417  0.00  0.00    +0.000 C 
ENDBRANCH  14  15
ENDBRANCH  13  14
ENDBRANCH  12  13
ENDBRANCH  11  12
ENDBRANCH   6  11
BRANCH   6  18
ATOM     17  O   UNL     1      -1.141  -0.724  -2.162  0.00  0.00    -0.245 OA
ATOM     18  C   UNL     1      -0.880  -0.713  -0.968  0.00  0.00    +0.347 C 
BRANCH  18  19
ATOM     19  O   UNL     1      -0.365  -1.745  -0.247  0.00  0.00    -0.445 OA
BRANCH  19  20
ATOM     20  C   UNL     1      -0.113  -2.948  -0.981  0.00  0.00    +0.209 C 
BRANCH  20  21
ATOM     21  C   UNL     1       0.457  -3.993  -0.032  0.00  0.00    +0.047 C 
BRANCH  21  22
ATOM     22  C   UNL     1       1.756  -3.518   0.614  0.00  0.00    +0.004 C 
ATOM     23  C   UNL     1       2.299  -4.546   1.593  0.00  0.00    +0.000 C 
ENDBRANCH  21  22
ENDBRANCH  20  21
ENDBRANCH  19  20
ENDBRANCH  18  19
ENDBRANCH   6  18
BRANCH   3  24
ATOM     24  C   UNL     1       2.197   0.416  -0.068  0.00  0.00    +0.086 C 
BRANCH  24  25
ATOM     25  C   UNL     1       3.611   0.812  -0.481  0.00  0.00    +0.116 C 
BRANCH  25  27
ATOM     26  O   UNL     1       4.417  -1.007   0.918  0.00  0.00    -0.250 OA
ATOM     27  C   UNL     1       4.652  -0.084   0.151  0.00  0.00    +0.317 C 
BRANCH  27  28
ATOM     28  O   UNL     1       5.889   0.308  -0.277  0.00  0.00    -0.444 OA
ATOM     29  C   UNL     1       6.987  -0.451   0.239  0.00  0.00    +0.256 C 
ENDBRANCH  27  28
ENDBRANCH  25  27
ENDBRANCH  24  25
ENDBRANCH   3  24
TORSDOF 15
