REMARK  Name = 132560
REMARK  9 active torsions:
REMARK  status: ('A' for Active; 'I' for Inactive)
REMARK    1  A    between atoms: P_1  and  O_3
REMARK    2  A    between atoms: P_1  and  O_5
REMARK    3  A    between atoms: P_1  and  O_12
REMARK    4  A    between atoms: O_5  and  C_6
REMARK    5  A    between atoms: C_6  and  C_7
REMARK    6  A    between atoms: C_7  and  C_9
REMARK    7  A    between atoms: O_12  and  P_13
REMARK    8  A    between atoms: P_13  and  O_15
REMARK    9  A    between atoms: P_13  and  O_17
REMARK                            x       y       z     vdW  Elec       q    Type
REMARK                         _______ _______ _______ _____ _____    ______ ____
ROOT
ATOM      1  P   UNL     1      -0.885  -1.183  -0.192  0.00  0.00    +0.484 P 
ATOM      2  O   UNL     1      -1.241  -1.860  -1.484  0.00  0.00    -0.227 OA
ENDROOT
BRANCH   1   3
ATOM      3  O   UNL     1      -1.380  -1.971   1.132  0.00  0.00    -0.302 OA
ATOM      4  H   UNL     1      -1.114  -1.474   1.922  0.00  0.00    +0.222 HD
ENDBRANCH   1   3
BRANCH   1   5
ATOM      5  O   UNL     1       0.700  -0.959   0.041  0.00  0.00    -0.273 OA
BRANCH   5   6
ATOM      6  C   UNL     1       1.160  -0.330   1.225  0.00  0.00    +0.156 C 
BRANCH   6   7
ATOM      7  C   UNL     1       2.680  -0.241   1.198  0.00  0.00    +0.062 C 
BRANCH   7   9
ATOM      8  O   UNL     1       4.465   0.103  -0.425  0.00  0.00    -0.353 OA
ATOM      9  C   UNL     1       3.182   0.539   0.020  0.00  0.00    +0.123 C 
ATOM     10  C   UNL     1       3.352  -0.152  -1.291  0.00  0.00    +0.169 C 
ATOM     11  C   UNL     1       3.029   2.004   0.088  0.00  0.00    +0.032 C 
ENDBRANCH   7   9
ENDBRANCH   6   7
ENDBRANCH   5   6
ENDBRANCH   1   5
BRANCH   1  12
ATOM     12  O   UNL     1      -1.534   0.286  -0.013  0.00  0.00    -0.186 OA
BRANCH  12  13
ATOM     13  P   UNL     1      -3.077   0.768   0.018  0.00  0.00    +0.481 P 
ATOM     14  O   UNL     1      -3.901   0.156   1.112  0.00  0.00    -0.227 OA
BRANCH  13  15
ATOM     15  O   UNL     1      -3.587   0.459  -1.484  0.00  0.00    -0.302 OA
ATOM     16  H   UNL     1      -2.998   0.892  -2.121  0.00  0.00    +0.222 HD
ENDBRANCH  13  15
BRANCH  13  17
ATOM     17  O   UNL     1      -2.964   2.380   0.056  0.00  0.00    -0.302 OA
ATOM     18  H   UNL     1      -2.416   2.683  -0.685  0.00  0.00    +0.222 HD
ENDBRANCH  13  17
ENDBRANCH  12  13
ENDBRANCH   1  12
TORSDOF 9
