REMARK  Name = 132558561
REMARK  3 active torsions:
REMARK  status: ('A' for Active; 'I' for Inactive)
REMARK    1  A    between atoms: C_18  and  C_23
REMARK    2  A    between atoms: C_19  and  O_31
REMARK    3  A    between atoms: C_25  and  O_29
REMARK                            x       y       z     vdW  Elec       q    Type
REMARK                         _______ _______ _______ _____ _____    ______ ____
ROOT
ATOM      1  O   UNL     1       4.317  -0.503   0.031  0.00  0.00    -0.350 OA
ATOM      2  O   UNL     1       2.104  -2.412   0.347  0.00  0.00    -0.445 OA
ATOM      3  O   UNL     1      -0.535  -1.150  -0.741  0.00  0.00    -0.287 OA
ATOM      4  O   UNL     1       2.306   3.297  -0.083  0.00  0.00    -0.287 OA
ATOM      5  O   UNL     1       3.317  -4.176   1.171  0.00  0.00    -0.250 OA
ATOM      6  C   UNL     1       2.264  -1.493  -0.744  0.00  0.00    +0.221 C 
ATOM      7  C   UNL     1       3.762  -1.390  -0.937  0.00  0.00    +0.171 C 
ATOM      8  C   UNL     1       1.607  -0.180  -0.428  0.00  0.00    +0.060 C 
ATOM      9  C   UNL     1       2.339   0.922  -0.190  0.00  0.00    +0.046 C 
ATOM     10  C   UNL     1       3.855   0.853  -0.103  0.00  0.00    +0.141 C 
ATOM     11  C   UNL     1       4.222  -2.794  -0.606  0.00  0.00    +0.143 C 
ATOM     12  C   UNL     1       0.121  -0.149  -0.475  0.00  0.00    +0.195 C 
ATOM     13  C   UNL     1      -0.549   1.127  -0.174  0.00  0.00    +0.048 C 
ATOM     14  C   UNL     1       1.671   2.250  -0.076  0.00  0.00    +0.197 C 
ATOM     15  C   UNL     1       3.202  -3.227   0.412  0.00  0.00    +0.320 C 
ATOM     16  C   UNL     1       0.200   2.285   0.019  0.00  0.00    +0.075 C 
ATOM     17  C   UNL     1       4.437   1.566   1.119  0.00  0.00    +0.037 C 
ATOM     18  C   UNL     1      -1.946   1.175  -0.094  0.00  0.00    +0.037 C 
ATOM     19  C   UNL     1      -0.447   3.497   0.291  0.00  0.00    +0.137 C 
ATOM     20  C   UNL     1      -2.587   2.383   0.181  0.00  0.00    +0.006 C 
ATOM     21  C   UNL     1      -1.839   3.542   0.373  0.00  0.00    +0.037 C 
ENDROOT
BRANCH  18  23
ATOM     22  O   UNL     1      -3.106  -0.674   0.899  0.00  0.00    -0.477 OA
ATOM     23  C   UNL     1      -2.844   0.017  -0.268  0.00  0.00    +0.134 C 
ATOM     24  C   UNL     1      -3.661  -1.989   0.726  0.00  0.00    +0.193 C 
ATOM     25  C   UNL     1      -4.798  -1.998  -0.301  0.00  0.00    +0.155 C 
ATOM     26  C   UNL     1      -4.298  -1.470  -1.646  0.00  0.00    +0.062 C 
ATOM     27  C   UNL     1      -3.346  -0.327  -1.468  0.00  0.00    +0.013 C 
ATOM     28  C   UNL     1      -4.122  -2.464   2.100  0.00  0.00    +0.050 C 
BRANCH  25  29
ATOM     29  O   UNL     1      -5.871  -1.178   0.163  0.00  0.00    -0.380 OA
ATOM     30  H   UNL     1      -6.188  -1.513   1.016  0.00  0.00    +0.211 HD
ENDBRANCH  25  29
ENDBRANCH  18  23
BRANCH  19  31
ATOM     31  O   UNL     1       0.227   4.663   0.501  0.00  0.00    -0.505 OA
ATOM     32  H   UNL     1       1.163   4.679   0.456  0.00  0.00    +0.292 HD
ENDBRANCH  19  31
TORSDOF 3
