REMARK  Name = 132560576
REMARK  13 active torsions:
REMARK  status: ('A' for Active; 'I' for Inactive)
REMARK    1  A    between atoms: CA_1  and  N_3
REMARK    2  A    between atoms: CA_1  and  C_17
REMARK    3  A    between atoms: CA_1  and  CB_24
REMARK    4  A    between atoms: C_4  and  CA_6
REMARK    5  A    between atoms: CA_6  and  N_7
REMARK    6  A    between atoms: CA_6  and  CB_11
REMARK    7  A    between atoms: CB_11  and  CG_12
REMARK    8  A    between atoms: CG_12  and  SD_13
REMARK    9  A    between atoms: N_16  and  CA_19
REMARK   10  A    between atoms: CA_19  and  C_21
REMARK   11  A    between atoms: C_21  and  O_22
REMARK   12  A    between atoms: CB_24  and  CG_26
REMARK   13  A    between atoms: CG_26  and  OD1_27
REMARK                            x       y       z     vdW  Elec       q    Type
REMARK                         _______ _______ _______ _____ _____    ______ ____
ROOT
ATOM      1  CA  ASP A   2      -1.611   0.027  -0.221  0.00  0.00    +0.160 C 
ENDROOT
BRANCH   1   3
ATOM      2  O   MET A   1       0.308   0.980   1.716  0.00  0.00    -0.277 OA
ATOM      3  N   ASP A   2      -0.743   1.177  -0.343  0.00  0.00    -0.300 N 
ATOM      4  C   MET A   1       0.153   1.562   0.644  0.00  0.00    +0.202 C 
ATOM      5  H   ASP A   2      -0.790   1.713  -1.167  0.00  0.00    +0.150 HD
BRANCH   4   6
ATOM      6  CA  MET A   1       0.935   2.813   0.253  0.00  0.00    +0.014 C 
BRANCH   6   7
ATOM      7  N   MET A   1       1.196   3.592   1.462  0.00  0.00    +0.387 N 
ATOM      8  H1  MET A   1       1.719   4.433   1.218  0.00  0.00    -0.089 HD
ATOM      9  H2  MET A   1       1.740   3.032   2.117  0.00  0.00    -0.089 HD
ATOM     10  H3  MET A   1       0.310   3.856   1.894  0.00  0.00    -0.089 HD
ENDBRANCH   6   7
BRANCH   6  11
ATOM     11  CB  MET A   1       2.234   2.467  -0.495  0.00  0.00    -0.001 C 
BRANCH  11  12
ATOM     12  CG  MET A   1       3.231   1.648   0.330  0.00  0.00    +0.056 C 
BRANCH  12  13
ATOM     13  SD  MET A   1       4.730   1.305  -0.640  0.00  0.00    -0.139 S 
ATOM     14  CE  MET A   1       4.084  -0.048  -1.649  0.00  0.00    +0.069 C 
ENDBRANCH  12  13
ENDBRANCH  11  12
ENDBRANCH   6  11
ENDBRANCH   4   6
ENDBRANCH   1   3
BRANCH   1  17
ATOM     15  O   ASP A   2      -0.028  -1.149  -1.629  0.00  0.00    -0.273 OA
ATOM     16  N   GLY A   3      -1.122  -2.324   0.047  0.00  0.00    -0.294 N 
ATOM     17  C   ASP A   2      -0.837  -1.193  -0.705  0.00  0.00    +0.241 C 
ATOM     18  H   GLY A   3      -1.789  -2.256   0.769  0.00  0.00    +0.150 HD
BRANCH  16  19
ATOM     19  CA  GLY A   3      -0.480  -3.597  -0.185  0.00  0.00    +0.200 C 
BRANCH  19  21
ATOM     20  OXT GLY A   3       1.484  -4.775   0.556  0.00  0.00    -0.248 OA
ATOM     21  C   GLY A   3       0.785  -3.771   0.615  0.00  0.00    +0.334 C 
BRANCH  21  22
ATOM     22  O   GLY A   3       1.075  -2.712   1.407  0.00  0.00    -0.479 OA
ATOM     23  H   GLY A   3       0.508  -1.966   1.417  0.00  0.00    +0.295 HD
ENDBRANCH  21  22
ENDBRANCH  19  21
ENDBRANCH  16  19
ENDBRANCH   1  17
BRANCH   1  24
ATOM     24  CB  ASP A   2      -2.903   0.201  -1.015  0.00  0.00    +0.138 C 
BRANCH  24  26
ATOM     25  OD2 ASP A   2      -3.943   2.304  -0.435  0.00  0.00    -0.250 OA
ATOM     26  CG  ASP A   2      -3.879   1.091  -0.285  0.00  0.00    +0.316 C 
BRANCH  26  27
ATOM     27  OD1 ASP A   2      -4.670   0.402   0.574  0.00  0.00    -0.480 OA
ATOM     28  HD1 ASP A   2      -4.580  -0.528   0.651  0.00  0.00    +0.295 HD
ENDBRANCH  26  27
ENDBRANCH  24  26
ENDBRANCH   1  24
TORSDOF 13
