REMARK  Name = 132525
REMARK  4 active torsions:
REMARK  status: ('A' for Active; 'I' for Inactive)
REMARK    1  A    between atoms: C_21  and  C_31
REMARK    2  A    between atoms: C_24  and  O_26
REMARK    3  A    between atoms: C_25  and  O_28
REMARK    4  A    between atoms: C_31  and  O_32
REMARK                            x       y       z     vdW  Elec       q    Type
REMARK                         _______ _______ _______ _____ _____    ______ ____
ROOT
ATOM      1 CL   UNL     1      -0.835  -5.208   0.854  0.00  0.00    -0.079 Cl
ATOM      2 CL   UNL     1      -0.841   5.208   0.852  0.00  0.00    -0.079 Cl
ATOM      3  O   UNL     1      -0.034   0.001   1.943  0.00  0.00    -0.440 OA
ATOM      4  O   UNL     1      -2.850  -0.002  -1.004  0.00  0.00    -0.454 OA
ATOM      5  O   UNL     1       1.853   0.005   3.283  0.00  0.00    -0.245 OA
ATOM      6  C   UNL     1      -0.354   0.000   0.515  0.00  0.00    +0.198 C 
ATOM      7  C   UNL     1       1.009   0.000  -0.098  0.00  0.00    +0.028 C 
ATOM      8  C   UNL     1      -1.140  -1.259   0.208  0.00  0.00    +0.057 C 
ATOM      9  C   UNL     1      -1.142   1.258   0.207  0.00  0.00    +0.057 C 
ATOM     10  C   UNL     1       1.970   0.001   0.897  0.00  0.00    +0.076 C 
ATOM     11  C   UNL     1      -2.320  -1.182  -0.541  0.00  0.00    +0.148 C 
ATOM     12  C   UNL     1      -2.321   1.179  -0.542  0.00  0.00    +0.148 C 
ATOM     13  C   UNL     1       1.314   0.002   2.195  0.00  0.00    +0.342 C 
ATOM     14  C   UNL     1       1.386   0.000  -1.432  0.00  0.00    +0.000 C 
ATOM     15  C   UNL     1      -0.701  -2.526   0.631  0.00  0.00    +0.017 C 
ATOM     16  C   UNL     1      -0.704   2.526   0.630  0.00  0.00    +0.017 C 
ATOM     17  C   UNL     1       3.326   0.002   0.626  0.00  0.00    +0.013 C 
ATOM     18  C   UNL     1      -3.037  -2.338  -0.869  0.00  0.00    +0.075 C 
ATOM     19  C   UNL     1      -3.040   2.334  -0.870  0.00  0.00    +0.075 C 
ATOM     20  C   UNL     1       2.750   0.001  -1.737  0.00  0.00    +0.006 C 
ATOM     21  C   UNL     1       3.714   0.001  -0.714  0.00  0.00    +0.076 C 
ATOM     22  C   UNL     1      -1.420  -3.679   0.310  0.00  0.00    +0.091 C 
ATOM     23  C   UNL     1      -1.424   3.678   0.308  0.00  0.00    +0.091 C 
ATOM     24  C   UNL     1      -2.587  -3.584  -0.442  0.00  0.00    +0.147 C 
ATOM     25  C   UNL     1      -2.591   3.582  -0.443  0.00  0.00    +0.147 C 
ENDROOT
BRANCH  24  26
ATOM     26  O   UNL     1      -3.308  -4.692  -0.775  0.00  0.00    -0.505 OA
ATOM     27  H   UNL     1      -4.091  -4.607  -1.282  0.00  0.00    +0.292 HD
ENDBRANCH  24  26
BRANCH  25  28
ATOM     28  O   UNL     1      -3.314   4.688  -0.775  0.00  0.00    -0.505 OA
ATOM     29  H   UNL     1      -4.097   4.602  -1.282  0.00  0.00    +0.292 HD
ENDBRANCH  25  28
BRANCH  21  31
ATOM     30  O   UNL     1       5.586   0.001  -2.204  0.00  0.00    -0.245 OA
ATOM     31  C   UNL     1       5.127   0.002  -1.057  0.00  0.00    +0.338 C 
BRANCH  31  32
ATOM     32  O   UNL     1       5.929   0.003   0.043  0.00  0.00    -0.477 OA
ATOM     33  H   UNL     1       5.550   0.004   0.900  0.00  0.00    +0.295 HD
ENDBRANCH  31  32
ENDBRANCH  21  31
TORSDOF 4
