REMARK  Name = 132576259
REMARK  3 active torsions:
REMARK  status: ('A' for Active; 'I' for Inactive)
REMARK    1  A    between atoms: C_16  and  O_32
REMARK    2  A    between atoms: C_20  and  O_30
REMARK    3  A    between atoms: C_25  and  N_27
REMARK                            x       y       z     vdW  Elec       q    Type
REMARK                         _______ _______ _______ _____ _____    ______ ____
ROOT
ATOM      1  O   UNL     1       5.211   2.320   0.035  0.00  0.00    -0.440 OA
ATOM      2  O   UNL     1       0.944   2.479  -0.002  0.00  0.00    -0.286 OA
ATOM      3  O   UNL     1       0.558  -2.850  -0.023  0.00  0.00    -0.287 OA
ATOM      4  O   UNL     1       6.804   0.650   0.041  0.00  0.00    -0.245 OA
ATOM      5  O   UNL     1      -4.399  -2.522  -0.067  0.00  0.00    -0.285 OA
ATOM      6  O   UNL     1      -4.101   2.811  -0.042  0.00  0.00    -0.286 OA
ATOM      7  C   UNL     1       2.064   0.429   0.002  0.00  0.00    +0.042 C 
ATOM      8  C   UNL     1       3.332   1.001   0.015  0.00  0.00    +0.034 C 
ATOM      9  C   UNL     1       1.967  -0.969  -0.004  0.00  0.00    +0.045 C 
ATOM     10  C   UNL     1      -0.481   0.596  -0.020  0.00  0.00    +0.076 C 
ATOM     11  C   UNL     1      -0.575  -0.795  -0.025  0.00  0.00    +0.045 C 
ATOM     12  C   UNL     1       4.455   0.194   0.021  0.00  0.00    +0.109 C 
ATOM     13  C   UNL     1       0.840   1.260  -0.006  0.00  0.00    +0.198 C 
ATOM     14  C   UNL     1       0.644  -1.628  -0.018  0.00  0.00    +0.196 C 
ATOM     15  C   UNL     1       3.766   2.415   0.023  0.00  0.00    +0.236 C 
ATOM     16  C   UNL     1      -1.645   1.375  -0.027  0.00  0.00    +0.140 C 
ATOM     17  C   UNL     1      -2.901   0.757  -0.040  0.00  0.00    +0.076 C 
ATOM     18  C   UNL     1      -2.998  -0.633  -0.046  0.00  0.00    +0.046 C 
ATOM     19  C   UNL     1       3.127  -1.772   0.003  0.00  0.00    +0.040 C 
ATOM     20  C   UNL     1       4.391  -1.187   0.016  0.00  0.00    +0.145 C 
ATOM     21  C   UNL     1      -1.833  -1.412  -0.039  0.00  0.00    +0.007 C 
ATOM     22  C   UNL     1       5.649   1.024   0.034  0.00  0.00    +0.344 C 
ATOM     23  C   UNL     1      -4.318  -1.298  -0.061  0.00  0.00    +0.209 C 
ATOM     24  C   UNL     1      -4.119   1.586  -0.048  0.00  0.00    +0.200 C 
ATOM     25  C   UNL     1      -5.540  -0.444  -0.070  0.00  0.00    +0.087 C 
ATOM     26  C   UNL     1      -5.421   0.889  -0.063  0.00  0.00    +0.060 C 
ENDROOT
BRANCH  25  27
ATOM     27  N   UNL     1      -6.734  -1.107  -0.084  0.00  0.00    -0.329 N 
ATOM     28  C   UNL     1      -7.945  -0.569   0.477  0.00  0.00    +0.109 C 
ATOM     29  H   UNL     1      -6.768  -1.999  -0.499  0.00  0.00    +0.147 HD
ENDBRANCH  25  27
BRANCH  20  30
ATOM     30  O   UNL     1       5.504  -1.962   0.023  0.00  0.00    -0.471 OA
ATOM     31  C   UNL     1       5.314  -3.378   0.016  0.00  0.00    +0.252 C 
ENDBRANCH  20  30
BRANCH  16  32
ATOM     32  O   UNL     1      -1.559   2.739  -0.021  0.00  0.00    -0.505 OA
ATOM     33  H   UNL     1      -0.720   3.155  -0.012  0.00  0.00    +0.292 HD
ENDBRANCH  16  32
TORSDOF 3
