REMARK  Name = 132577714
REMARK  8 active torsions:
REMARK  status: ('A' for Active; 'I' for Inactive)
REMARK    1  A    between atoms: C_3  and  C_22
REMARK    2  A    between atoms: C_4  and  C_7
REMARK    3  A    between atoms: C_5  and  O_15
REMARK    4  A    between atoms: C_5  and  C_18
REMARK    5  A    between atoms: C_12  and  O_13
REMARK    6  A    between atoms: C_18  and  O_19
REMARK    7  A    between atoms: O_19  and  C_20
REMARK    8  A    between atoms: C_22  and  C_32
REMARK                            x       y       z     vdW  Elec       q    Type
REMARK                         _______ _______ _______ _____ _____    ______ ____
ROOT
ATOM      1  O   UNL     1       2.736   2.772  -0.127  0.00  0.00    -0.414 OA
ATOM      2  O   UNL     1       1.108   4.054   0.863  0.00  0.00    -0.245 OA
ATOM      3  C   UNL     1       1.136   1.674   1.129  0.00  0.00    +0.060 C 
ATOM      4  C   UNL     1       1.981   0.753   0.657  0.00  0.00    +0.054 C 
ATOM      5  C   UNL     1       3.059   1.383  -0.152  0.00  0.00    +0.340 C 
ATOM      6  C   UNL     1       1.622   2.972   0.634  0.00  0.00    +0.340 C 
ENDROOT
BRANCH   4   7
ATOM      7  C   UNL     1       1.881  -0.695   0.875  0.00  0.00    +0.002 C 
ATOM      8  C   UNL     1       2.504  -1.279   1.977  0.00  0.00    +0.003 C 
ATOM      9  C   UNL     1       1.162  -1.486  -0.021  0.00  0.00    +0.003 C 
ATOM     10  C   UNL     1       2.407  -2.655   2.185  0.00  0.00    +0.037 C 
ATOM     11  C   UNL     1       1.065  -2.862   0.187  0.00  0.00    +0.037 C 
ATOM     12  C   UNL     1       1.688  -3.446   1.290  0.00  0.00    +0.134 C 
BRANCH  12  13
ATOM     13  O   UNL     1       1.592  -4.789   1.493  0.00  0.00    -0.506 OA
ATOM     14  H   UNL     1       2.011  -5.182   2.234  0.00  0.00    +0.292 HD
ENDBRANCH  12  13
ENDBRANCH   4   7
BRANCH   5  15
ATOM     15  O   UNL     1       4.338   1.138   0.389  0.00  0.00    -0.343 OA
ATOM     16  H   UNL     1       4.367   1.454   1.305  0.00  0.00    +0.215 HD
ENDBRANCH   5  15
BRANCH   5  18
ATOM     17  O   UNL     1       2.317   1.461  -2.446  0.00  0.00    -0.243 OA
ATOM     18  C   UNL     1       2.974   0.906  -1.575  0.00  0.00    +0.386 C 
BRANCH  18  19
ATOM     19  O   UNL     1       3.731  -0.218  -1.726  0.00  0.00    -0.444 OA
BRANCH  19  20
ATOM     20  C   UNL     1       3.740  -0.781  -3.042  0.00  0.00    +0.209 C 
ATOM     21  C   UNL     1       4.619  -2.014  -3.044  0.00  0.00    +0.051 C 
ENDBRANCH  19  20
ENDBRANCH  18  19
ENDBRANCH   5  18
BRANCH   3  22
ATOM     22  C   UNL     1      -0.063   1.571   1.996  0.00  0.00    +0.059 C 
BRANCH  22  32
ATOM     23  O   UNL     1      -4.853   0.682  -0.866  0.00  0.00    -0.483 OA
ATOM     24  C   UNL     1      -5.430  -0.636  -0.928  0.00  0.00    +0.134 C 
ATOM     25  C   UNL     1      -4.354  -1.720  -1.102  0.00  0.00    +0.045 C 
ATOM     26  C   UNL     1      -3.330  -1.673   0.023  0.00  0.00    +0.033 C 
ATOM     27  C   UNL     1      -2.904  -0.257   0.274  0.00  0.00    +0.012 C 
ATOM     28  C   UNL     1      -3.681   0.820  -0.170  0.00  0.00    +0.134 C 
ATOM     29  C   UNL     1      -6.339  -0.638  -2.166  0.00  0.00    +0.044 C 
ATOM     30  C   UNL     1      -6.301  -0.858   0.318  0.00  0.00    +0.044 C 
ATOM     31  C   UNL     1      -1.728   0.000   0.992  0.00  0.00    -0.005 C 
ATOM     32  C   UNL     1      -1.321   1.311   1.238  0.00  0.00    -0.018 C 
ATOM     33  C   UNL     1      -3.266   2.133   0.071  0.00  0.00    +0.036 C 
ATOM     34  C   UNL     1      -2.088   2.377   0.775  0.00  0.00    -0.001 C 
ENDBRANCH  22  32
ENDBRANCH   3  22
TORSDOF 8
