132571669
  -OEChem-03292013293D

 56 56  0     1  0  0  0  0  0999 V2000
    1.6181    2.6963   -0.5813 O   0  0  0  0  0  0  0  0  0  0  0  0
    0.9353    0.9978   -2.0541 O   0  0  0  0  0  0  0  0  0  0  0  0
   -3.4234    0.1492    0.0505 O   0  0  0  0  0  0  0  0  0  0  0  0
   -0.3648   -1.7451   -0.2469 O   0  0  0  0  0  0  0  0  0  0  0  0
    1.1053    4.5501    0.6515 O   0  0  0  0  0  0  0  0  0  0  0  0
    5.8889    0.3078   -0.2767 O   0  0  0  0  0  0  0  0  0  0  0  0
   -2.4040    1.2839    1.7786 O   0  0  0  0  0  0  0  0  0  0  0  0
   -1.1414   -0.7244   -2.1619 O   0  0  0  0  0  0  0  0  0  0  0  0
    4.4169   -1.0068    0.9180 O   0  0  0  0  0  0  0  0  0  0  0  0
    1.1562    1.3429   -0.6912 C   0  0  2  0  0  0  0  0  0  0  0  0
   -0.1323    1.3343    0.0610 C   0  0  0  0  0  0  0  0  0  0  0  0
    2.1972    0.4162   -0.0677 C   0  0  0  0  0  0  0  0  0  0  0  0
   -0.2104    2.5451    0.9202 C   0  0  0  0  0  0  0  0  0  0  0  0
    3.6105    0.8120   -0.4810 C   0  0  0  0  0  0  0  0  0  0  0  0
   -1.1228    0.4424   -0.0664 C   0  0  0  0  0  0  0  0  0  0  0  0
    0.8841    3.3891    0.3367 C   0  0  0  0  0  0  0  0  0  0  0  0
   -2.3657    0.6979    0.7061 C   0  0  0  0  0  0  0  0  0  0  0  0
   -0.8803   -0.7132   -0.9676 C   0  0  0  0  0  0  0  0  0  0  0  0
    4.6517   -0.0836    0.1506 C   0  0  0  0  0  0  0  0  0  0  0  0
   -0.1132   -2.9480   -0.9808 C   0  0  0  0  0  0  0  0  0  0  0  0
   -4.6920    0.2846    0.6997 C   0  0  0  0  0  0  0  0  0  0  0  0
    0.4573   -3.9927   -0.0320 C   0  0  0  0  0  0  0  0  0  0  0  0
   -5.7580   -0.3788   -0.1607 C   0  0  0  0  0  0  0  0  0  0  0  0
    1.7556   -3.5179    0.6142 C   0  0  0  0  0  0  0  0  0  0  0  0
   -7.1439   -0.2578    0.4663 C   0  0  0  0  0  0  0  0  0  0  0  0
    2.2991   -4.5461    1.5934 C   0  0  0  0  0  0  0  0  0  0  0  0
   -8.2115   -0.8836   -0.4169 C   0  0  0  0  0  0  0  0  0  0  0  0
    6.9874   -0.4514    0.2386 C   0  0  0  0  0  0  0  0  0  0  0  0
    2.1403    0.4600    1.0284 H   0  0  0  0  0  0  0  0  0  0  0  0
    2.0176   -0.6240   -0.3591 H   0  0  0  0  0  0  0  0  0  0  0  0
   -1.1432    3.1031    0.8050 H   0  0  0  0  0  0  0  0  0  0  0  0
    0.0325    2.3271    1.9633 H   0  0  0  0  0  0  0  0  0  0  0  0
    3.8382    1.8339   -0.1580 H   0  0  0  0  0  0  0  0  0  0  0  0
    3.7250    0.7457   -1.5680 H   0  0  0  0  0  0  0  0  0  0  0  0
    1.7458    0.6077   -2.4191 H   0  0  0  0  0  0  0  0  0  0  0  0
    0.5975   -2.7415   -1.7896 H   0  0  0  0  0  0  0  0  0  0  0  0
   -1.0522   -3.3151   -1.4104 H   0  0  0  0  0  0  0  0  0  0  0  0
   -4.6480   -0.1971    1.6835 H   0  0  0  0  0  0  0  0  0  0  0  0
   -4.9192    1.3494    0.8281 H   0  0  0  0  0  0  0  0  0  0  0  0
    0.6272   -4.9278   -0.5776 H   0  0  0  0  0  0  0  0  0  0  0  0
   -0.2764   -4.1976    0.7574 H   0  0  0  0  0  0  0  0  0  0  0  0
   -5.4994   -1.4342   -0.3123 H   0  0  0  0  0  0  0  0  0  0  0  0
   -5.7514    0.0770   -1.1589 H   0  0  0  0  0  0  0  0  0  0  0  0
    1.5941   -2.5795    1.1563 H   0  0  0  0  0  0  0  0  0  0  0  0
    2.5072   -3.3217   -0.1592 H   0  0  0  0  0  0  0  0  0  0  0  0
   -7.3886    0.7983    0.6293 H   0  0  0  0  0  0  0  0  0  0  0  0
   -7.1531   -0.7481    1.4467 H   0  0  0  0  0  0  0  0  0  0  0  0
   -8.0139   -1.9485   -0.5761 H   0  0  0  0  0  0  0  0  0  0  0  0
   -9.1958   -0.7870    0.0519 H   0  0  0  0  0  0  0  0  0  0  0  0
    2.5086   -5.4950    1.0894 H   0  0  0  0  0  0  0  0  0  0  0  0
    3.2308   -4.1867    2.0415 H   0  0  0  0  0  0  0  0  0  0  0  0
    1.5848   -4.7356    2.4009 H   0  0  0  0  0  0  0  0  0  0  0  0
   -8.2508   -0.3913   -1.3938 H   0  0  0  0  0  0  0  0  0  0  0  0
    7.9104   -0.0400   -0.1785 H   0  0  0  0  0  0  0  0  0  0  0  0
    6.9002   -1.4986   -0.0666 H   0  0  0  0  0  0  0  0  0  0  0  0
    7.0268   -0.3680    1.3288 H   0  0  0  0  0  0  0  0  0  0  0  0
  1 10  1  0  0  0  0
  1 16  1  0  0  0  0
  2 10  1  0  0  0  0
  2 35  1  0  0  0  0
  3 17  1  0  0  0  0
  3 21  1  0  0  0  0
  4 18  1  0  0  0  0
  4 20  1  0  0  0  0
  5 16  2  0  0  0  0
  6 19  1  0  0  0  0
  6 28  1  0  0  0  0
  7 17  2  0  0  0  0
  8 18  2  0  0  0  0
  9 19  2  0  0  0  0
 10 11  1  0  0  0  0
 10 12  1  0  0  0  0
 11 13  1  0  0  0  0
 11 15  2  0  0  0  0
 12 14  1  0  0  0  0
 12 29  1  0  0  0  0
 12 30  1  0  0  0  0
 13 16  1  0  0  0  0
 13 31  1  0  0  0  0
 13 32  1  0  0  0  0
 14 19  1  0  0  0  0
 14 33  1  0  0  0  0
 14 34  1  0  0  0  0
 15 17  1  0  0  0  0
 15 18  1  0  0  0  0
 20 22  1  0  0  0  0
 20 36  1  0  0  0  0
 20 37  1  0  0  0  0
 21 23  1  0  0  0  0
 21 38  1  0  0  0  0
 21 39  1  0  0  0  0
 22 24  1  0  0  0  0
 22 40  1  0  0  0  0
 22 41  1  0  0  0  0
 23 25  1  0  0  0  0
 23 42  1  0  0  0  0
 23 43  1  0  0  0  0
 24 26  1  0  0  0  0
 24 44  1  0  0  0  0
 24 45  1  0  0  0  0
 25 27  1  0  0  0  0
 25 46  1  0  0  0  0
 25 47  1  0  0  0  0
 26 50  1  0  0  0  0
 26 51  1  0  0  0  0
 26 52  1  0  0  0  0
 27 48  1  0  0  0  0
 27 49  1  0  0  0  0
 27 53  1  0  0  0  0
 28 54  1  0  0  0  0
 28 55  1  0  0  0  0
 28 56  1  0  0  0  0
M  END
> <PUBCHEM_COMPOUND_CID>
132571669

> <PUBCHEM_CONFORMER_RMSD>
1.2

> <PUBCHEM_CONFORMER_DIVERSEORDER>
1
25
118
129
57
84
95
100
86
121
36
115
61
54
33
126
127
44
79
108
91
131
38
88
66
81
80
29
41
23
73
122
63
102
34
78
97
15
83
87
69
93
9
16
140
26
82
117
92
112
98
60
10
138
42
19
11
123
132
94
59
116
6
101
58
64
53
21
124
89
55
75
125
137
114
12
20
134
37
111
35
13
104
96
49
99
120
119
77
18
43
4
56
31
113
139
67
50
107
106
90
85
47
2
70
135
28
7
105
24
62
30
71
48
3
128
14
27
76
136
40
45
8
109
110
52
32
133
103
74
5
72
22
17
130
65
51
46
39
68

> <PUBCHEM_MMFF94_PARTIAL_CHARGES>
22
1 -0.43
10 0.7
11 -0.28
13 0.2
14 0.06
15 0.03
16 0.66
17 0.71
18 0.71
19 0.66
2 -0.68
20 0.28
21 0.28
28 0.28
3 -0.43
35 0.4
4 -0.43
5 -0.57
6 -0.43
7 -0.57
8 -0.57
9 -0.57

> <PUBCHEM_EFFECTIVE_ROTOR_COUNT>
14.6

> <PUBCHEM_PHARMACOPHORE_FEATURES>
10
1 15 anion
1 2 acceptor
1 2 donor
1 26 hydrophobe
1 27 hydrophobe
1 5 acceptor
1 7 acceptor
1 8 acceptor
1 9 acceptor
5 1 10 11 13 16 rings

> <PUBCHEM_HEAVY_ATOM_COUNT>
28

> <PUBCHEM_ATOM_DEF_STEREO_COUNT>
0

> <PUBCHEM_ATOM_UDEF_STEREO_COUNT>
1

> <PUBCHEM_BOND_DEF_STEREO_COUNT>
0

> <PUBCHEM_BOND_UDEF_STEREO_COUNT>
0

> <PUBCHEM_ISOTOPIC_ATOM_COUNT>
0

> <PUBCHEM_COMPONENT_COUNT>
1

> <PUBCHEM_CACTVS_TAUTO_COUNT>
4

> <PUBCHEM_CONFORMER_ID>
07E6E21500000001

> <PUBCHEM_MMFF94_ENERGY>
42.8781

> <PUBCHEM_FEATURE_SELFOVERLAP>
50.754

> <PUBCHEM_SHAPE_FINGERPRINT>
1100329 8 18269274723690329106
11578080 2 17389100049470856951
12553582 1 18339627993939517648
13083527 12 18194401087532986451
13140716 1 18267588099050236529
13617811 41 18336281067670261564
14466204 15 18341336591590599057
14955137 171 18411421717301496138
15420108 30 17700991937443617505
15849732 13 18342174483547867476
15927050 60 17836084846555148580
17980427 23 16629951248003525652
20028762 73 18060422447551202671
23419403 2 17536591803058498182
23558518 356 17910385422548960991
23559900 14 17750238178646865761
3178227 256 18339093682622116369
3380486 145 18120392959973412137
3380486 77 18266762301061685588
59755656 215 18333169458158371495
9896288 288 17983580702791450648
9999458 23 18339644550764260989

> <PUBCHEM_SHAPE_MULTIPOLES>
523.4
13.79
4.82
1.29
18.12
2.54
-0.24
3.56
1.19
-4.42
1.68
0.08
0.25
-1.47

> <PUBCHEM_SHAPE_SELFOVERLAP>
1054.886

> <PUBCHEM_SHAPE_VOLUME>
305.8

> <PUBCHEM_COORDINATE_TYPE>
2
5
10

$$$$
