REMARK  Name = 132577716
REMARK  7 active torsions:
REMARK  status: ('A' for Active; 'I' for Inactive)
REMARK    1  A    between atoms: C_3  and  C_21
REMARK    2  A    between atoms: C_4  and  C_7
REMARK    3  A    between atoms: C_5  and  O_15
REMARK    4  A    between atoms: C_5  and  C_18
REMARK    5  A    between atoms: C_12  and  O_13
REMARK    6  A    between atoms: C_18  and  O_19
REMARK    7  A    between atoms: C_21  and  C_30
REMARK                            x       y       z     vdW  Elec       q    Type
REMARK                         _______ _______ _______ _____ _____    ______ ____
ROOT
ATOM      1  O   UNL     1       2.620   2.634   0.768  0.00  0.00    -0.414 OA
ATOM      2  O   UNL     1       1.188   3.748  -0.639  0.00  0.00    -0.245 OA
ATOM      3  C   UNL     1       1.366   1.360  -0.697  0.00  0.00    +0.060 C 
ATOM      4  C   UNL     1       2.116   0.523   0.027  0.00  0.00    +0.054 C 
ATOM      5  C   UNL     1       2.945   1.267   1.014  0.00  0.00    +0.340 C 
ATOM      6  C   UNL     1       1.682   2.716  -0.218  0.00  0.00    +0.340 C 
ENDROOT
BRANCH   4   7
ATOM      7  C   UNL     1       2.154  -0.936  -0.117  0.00  0.00    +0.002 C 
ATOM      8  C   UNL     1       2.538  -1.509  -1.329  0.00  0.00    +0.003 C 
ATOM      9  C   UNL     1       1.804  -1.752   0.960  0.00  0.00    +0.003 C 
ATOM     10  C   UNL     1       2.572  -2.896  -1.466  0.00  0.00    +0.037 C 
ATOM     11  C   UNL     1       1.838  -3.140   0.823  0.00  0.00    +0.037 C 
ATOM     12  C   UNL     1       2.222  -3.712  -0.390  0.00  0.00    +0.134 C 
BRANCH  12  13
ATOM     13  O   UNL     1       2.254  -5.066  -0.524  0.00  0.00    -0.506 OA
ATOM     14  H   UNL     1       2.512  -5.450  -1.339  0.00  0.00    +0.292 HD
ENDBRANCH  12  13
ENDBRANCH   4   7
BRANCH   5  15
ATOM     15  O   UNL     1       2.649   0.894   2.340  0.00  0.00    -0.343 OA
ATOM     16  H   UNL     1       1.704   1.031   2.512  0.00  0.00    +0.215 HD
ENDBRANCH   5  15
BRANCH   5  18
ATOM     17  O   UNL     1       5.069   1.780  -0.028  0.00  0.00    -0.243 OA
ATOM     18  C   UNL     1       4.403   1.068   0.708  0.00  0.00    +0.383 C 
BRANCH  18  19
ATOM     19  O   UNL     1       4.886  -0.017   1.362  0.00  0.00    -0.476 OA
ATOM     20  H   UNL     1       4.320  -0.522   1.913  0.00  0.00    +0.295 HD
ENDBRANCH  18  19
ENDBRANCH   5  18
BRANCH   3  21
ATOM     21  C   UNL     1       0.368   1.125  -1.768  0.00  0.00    +0.059 C 
BRANCH  21  30
ATOM     22  O   UNL     1      -4.934   0.823   0.161  0.00  0.00    -0.483 OA
ATOM     23  C   UNL     1      -5.417  -0.386   0.777  0.00  0.00    +0.134 C 
ATOM     24  C   UNL     1      -4.918  -1.639   0.039  0.00  0.00    +0.045 C 
ATOM     25  C   UNL     1      -3.397  -1.679  -0.023  0.00  0.00    +0.033 C 
ATOM     26  C   UNL     1      -2.861  -0.336  -0.421  0.00  0.00    +0.012 C 
ATOM     27  C   UNL     1      -3.644   0.818  -0.300  0.00  0.00    +0.134 C 
ATOM     28  C   UNL     1      -5.028  -0.378   2.263  0.00  0.00    +0.044 C 
ATOM     29  C   UNL     1      -6.948  -0.328   0.673  0.00  0.00    +0.044 C 
ATOM     30  C   UNL     1      -1.030   1.020  -1.262  0.00  0.00    -0.018 C 
ATOM     31  C   UNL     1      -1.546  -0.223  -0.892  0.00  0.00    -0.005 C 
ATOM     32  C   UNL     1      -3.128   2.061  -0.680  0.00  0.00    +0.036 C 
ATOM     33  C   UNL     1      -1.823   2.160  -1.159  0.00  0.00    -0.001 C 
ENDBRANCH  21  30
ENDBRANCH   3  21
TORSDOF 7
