REMARK  Name = 132594
REMARK  8 active torsions:
REMARK  status: ('A' for Active; 'I' for Inactive)
REMARK    1  A    between atoms: O_1  and  C_6
REMARK    2  A    between atoms: O_1  and  C_15
REMARK    3  A    between atoms: C_3  and  O_8
REMARK    4  A    between atoms: C_4  and  O_10
REMARK    5  A    between atoms: C_5  and  O_12
REMARK    6  A    between atoms: C_15  and  C_16
REMARK    7  A    between atoms: C_19  and  O_22
REMARK    8  A    between atoms: C_21  and  O_24
REMARK                            x       y       z     vdW  Elec       q    Type
REMARK                         _______ _______ _______ _____ _____    ______ ____
ROOT
ATOM      1  O   UNL     1       0.367  -0.270   0.181  0.00  0.00    -0.419 OA
ENDROOT
BRANCH   1   6
ATOM      2  O   UNL     1       2.049   1.200  -0.500  0.00  0.00    -0.316 OA
ATOM      3  C   UNL     1       4.098  -0.692   0.200  0.00  0.00    +0.173 C 
ATOM      4  C   UNL     1       2.619  -1.071   0.141  0.00  0.00    +0.211 C 
ATOM      5  C   UNL     1       4.379   0.549  -0.647  0.00  0.00    +0.169 C 
ATOM      6  C   UNL     1       1.718   0.139   0.393  0.00  0.00    +0.321 C 
ATOM      7  C   UNL     1       3.386   1.655  -0.322  0.00  0.00    +0.178 C 
BRANCH   3   8
ATOM      8  O   UNL     1       4.859  -1.792  -0.300  0.00  0.00    -0.379 OA
ATOM      9  H   UNL     1       4.680  -2.580   0.237  0.00  0.00    +0.211 HD
ENDBRANCH   3   8
BRANCH   4  10
ATOM     10  O   UNL     1       2.370  -2.063   1.137  0.00  0.00    -0.377 OA
ATOM     11  H   UNL     1       2.940  -2.831   0.979  0.00  0.00    +0.211 HD
ENDBRANCH   4  10
BRANCH   5  12
ATOM     12  O   UNL     1       5.691   1.035  -0.388  0.00  0.00    -0.379 OA
ATOM     13  H   UNL     1       6.339   0.342  -0.589  0.00  0.00    +0.211 HD
ENDBRANCH   5  12
ENDBRANCH   1   6
BRANCH   1  15
ATOM     14  O   UNL     1      -0.341   1.853   0.680  0.00  0.00    -0.245 OA
ATOM     15  C   UNL     1      -0.590   0.696   0.358  0.00  0.00    +0.343 C 
BRANCH  15  16
ATOM     16  C   UNL     1      -1.952   0.208   0.124  0.00  0.00    +0.079 C 
ATOM     17  C   UNL     1      -3.026   1.077   0.267  0.00  0.00    +0.046 C 
ATOM     18  C   UNL     1      -2.153  -1.118  -0.237  0.00  0.00    +0.010 C 
ATOM     19  C   UNL     1      -4.322   0.612   0.044  0.00  0.00    +0.168 C 
ATOM     20  C   UNL     1      -3.449  -1.583  -0.460  0.00  0.00    +0.040 C 
ATOM     21  C   UNL     1      -4.534  -0.718  -0.319  0.00  0.00    +0.167 C 
BRANCH  19  22
ATOM     22  O   UNL     1      -5.374   1.467   0.185  0.00  0.00    -0.503 OA
ATOM     23  H   UNL     1      -5.223   2.359   0.430  0.00  0.00    +0.292 HD
ENDBRANCH  19  22
BRANCH  21  24
ATOM     24  O   UNL     1      -5.795  -1.184  -0.539  0.00  0.00    -0.503 OA
ATOM     25  H   UNL     1      -6.529  -0.609  -0.447  0.00  0.00    +0.292 HD
ENDBRANCH  21  24
ENDBRANCH  15  16
ENDBRANCH   1  15
TORSDOF 8
