REMARK  Name = 132519288
REMARK  9 active torsions:
REMARK  status: ('A' for Active; 'I' for Inactive)
REMARK    1  A    between atoms: C_4  and  C_27
REMARK    2  A    between atoms: C_5  and  C_32
REMARK    3  A    between atoms: C_7  and  O_16
REMARK    4  A    between atoms: O_16  and  C_18
REMARK    5  A    between atoms: C_18  and  C_19
REMARK    6  A    between atoms: C_24  and  O_25
REMARK    7  A    between atoms: C_27  and  O_28
REMARK    8  A    between atoms: O_28  and  C_30
REMARK    9  A    between atoms: C_32  and  O_33
REMARK                            x       y       z     vdW  Elec       q    Type
REMARK                         _______ _______ _______ _____ _____    ______ ____
ROOT
ATOM      1  O   UNL     1      -3.404   2.845  -1.228  0.00  0.00    -0.441 OA
ATOM      2  O   UNL     1      -2.382   2.902  -3.288  0.00  0.00    -0.245 OA
ATOM      3  C   UNL     1      -1.456  -1.401  -0.655  0.00  0.00    +0.050 C 
ATOM      4  C   UNL     1      -2.005  -0.288   0.331  0.00  0.00    +0.062 C 
ATOM      5  C   UNL     1      -1.133  -2.798  -0.007  0.00  0.00    +0.031 C 
ATOM      6  C   UNL     1      -3.209  -0.885   1.098  0.00  0.00    +0.008 C 
ATOM      7  C   UNL     1      -0.400  -0.846  -1.656  0.00  0.00    +0.174 C 
ATOM      8  C   UNL     1      -2.346  -3.248   0.851  0.00  0.00    +0.003 C 
ATOM      9  C   UNL     1      -2.428   0.897  -0.516  0.00  0.00    +0.004 C 
ATOM     10  C   UNL     1      -2.864  -2.188   1.817  0.00  0.00    +0.001 C 
ATOM     11  C   UNL     1      -0.974   0.318  -2.495  0.00  0.00    +0.076 C 
ATOM     12  C   UNL     1      -1.954   1.136  -1.738  0.00  0.00    +0.053 C 
ATOM     13  C   UNL     1      -0.963  -3.864  -1.124  0.00  0.00    +0.003 C 
ATOM     14  C   UNL     1      -3.373   1.956  -0.102  0.00  0.00    +0.231 C 
ATOM     15  C   UNL     1      -2.575   2.376  -2.207  0.00  0.00    +0.337 C 
ENDROOT
BRANCH   7  16
ATOM     16  O   UNL     1       0.774  -0.413  -0.982  0.00  0.00    -0.449 OA
BRANCH  16  18
ATOM     17  O   UNL     1       2.051  -0.917  -2.830  0.00  0.00    -0.245 OA
ATOM     18  C   UNL     1       1.935  -0.502  -1.687  0.00  0.00    +0.341 C 
BRANCH  18  19
ATOM     19  C   UNL     1       3.082  -0.022  -0.876  0.00  0.00    +0.076 C 
ATOM     20  C   UNL     1       4.184   0.561  -1.502  0.00  0.00    +0.010 C 
ATOM     21  C   UNL     1       3.058  -0.154   0.512  0.00  0.00    +0.010 C 
ATOM     22  C   UNL     1       5.262   1.011  -0.740  0.00  0.00    +0.037 C 
ATOM     23  C   UNL     1       4.136   0.296   1.275  0.00  0.00    +0.037 C 
ATOM     24  C   UNL     1       5.238   0.878   0.648  0.00  0.00    +0.134 C 
BRANCH  24  25
ATOM     25  O   UNL     1       6.290   1.318   1.392  0.00  0.00    -0.506 OA
ATOM     26  H   UNL     1       7.031   1.709   0.971  0.00  0.00    +0.292 HD
ENDBRANCH  24  25
ENDBRANCH  18  19
ENDBRANCH  16  18
ENDBRANCH   7  16
BRANCH   4  27
ATOM     27  C   UNL     1      -0.996   0.284   1.350  0.00  0.00    +0.212 C 
BRANCH  27  28
ATOM     28  O   UNL     1      -1.656   1.280   2.099  0.00  0.00    -0.448 OA
BRANCH  28  30
ATOM     29  O   UNL     1       0.265   1.675   3.321  0.00  0.00    -0.250 OA
ATOM     30  C   UNL     1      -0.909   1.908   3.064  0.00  0.00    +0.318 C 
ATOM     31  C   UNL     1      -1.735   2.935   3.776  0.00  0.00    +0.121 C 
ENDBRANCH  28  30
ENDBRANCH  27  28
ENDBRANCH   4  27
BRANCH   5  32
ATOM     32  C   UNL     1       0.155  -2.860   0.833  0.00  0.00    +0.137 C 
BRANCH  32  33
ATOM     33  O   UNL     1       0.329  -4.191   1.270  0.00  0.00    -0.382 OA
ATOM     34  H   UNL     1       1.137  -4.253   1.803  0.00  0.00    +0.210 HD
ENDBRANCH  32  33
ENDBRANCH   5  32
TORSDOF 9
