REMARK  Name = 132519
REMARK  10 active torsions:
REMARK  status: ('A' for Active; 'I' for Inactive)
REMARK    1  A    between atoms: C_1  and  C_4
REMARK    2  A    between atoms: C_1  and  N_8
REMARK    3  A    between atoms: C_1  and  C_23
REMARK    4  A    between atoms: C_9  and  C_11
REMARK    5  A    between atoms: C_11  and  C_12
REMARK    6  A    between atoms: C_11  and  C_16
REMARK    7  A    between atoms: C_12  and  C_13
REMARK    8  A    between atoms: C_16  and  C_19
REMARK    9  A    between atoms: N_18  and  O_21
REMARK   10  A    between atoms: C_23  and  C_25
REMARK                            x       y       z     vdW  Elec       q    Type
REMARK                         _______ _______ _______ _____ _____    ______ ____
ROOT
ATOM      1  C   UNL     1      -2.252  -0.761  -0.037  0.00  0.00    +0.153 C 
ENDROOT
BRANCH   1   4
ATOM      2  O   UNL     1      -3.473   0.399   1.706  0.00  0.00    -0.273 OA
ATOM      3  N   UNL     1      -4.652  -0.487  -0.088  0.00  0.00    -0.301 N 
ATOM      4  C   UNL     1      -3.505  -0.226   0.648  0.00  0.00    +0.241 C 
ATOM      5  C   UNL     1      -5.968  -0.047   0.315  0.00  0.00    +0.111 C 
ATOM      6  H   UNL     1      -4.565  -0.998  -0.925  0.00  0.00    +0.150 HD
ENDBRANCH   1   4
BRANCH   1   8
ATOM      7  O   UNL     1      -0.857   0.772  -2.022  0.00  0.00    -0.275 OA
ATOM      8  N   UNL     1      -1.189   0.189   0.197  0.00  0.00    -0.298 N 
ATOM      9  C   UNL     1      -0.574   0.884  -0.830  0.00  0.00    +0.223 C 
ATOM     10  H   UNL     1      -0.891   0.348   1.122  0.00  0.00    +0.150 HD
BRANCH   9  11
ATOM     11  C   UNL     1       0.524   1.842  -0.367  0.00  0.00    +0.086 C 
BRANCH  11  12
ATOM     12  C   UNL     1       0.208   3.309  -0.720  0.00  0.00    +0.010 C 
BRANCH  12  13
ATOM     13  C   UNL     1      -1.121   3.848  -0.149  0.00  0.00    +0.000 C 
ATOM     14  C   UNL     1      -1.119   3.913   1.379  0.00  0.00    +0.000 C 
ATOM     15  C   UNL     1      -2.280   2.967  -0.625  0.00  0.00    +0.000 C 
ENDBRANCH  12  13
ENDBRANCH  11  12
BRANCH  11  16
ATOM     16  C   UNL     1       1.881   1.411  -0.951  0.00  0.00    +0.096 C 
BRANCH  16  19
ATOM     17  O   UNL     1       3.370   3.292  -1.023  0.00  0.00    -0.273 OA
ATOM     18  N   UNL     1       3.578   1.783   0.716  0.00  0.00    -0.197 N 
ATOM     19  C   UNL     1       3.014   2.274  -0.434  0.00  0.00    +0.245 C 
ATOM     20  H   UNL     1       3.253   0.960   1.148  0.00  0.00    +0.182 HD
BRANCH  18  21
ATOM     21  O   UNL     1       4.645   2.526   1.238  0.00  0.00    -0.295 OA
ATOM     22  H   UNL     1       4.971   2.099   2.046  0.00  0.00    +0.241 HD
ENDBRANCH  18  21
ENDBRANCH  16  19
ENDBRANCH  11  16
ENDBRANCH   9  11
ENDBRANCH   1   8
BRANCH   1  23
ATOM     23  C   UNL     1      -1.902  -2.156   0.498  0.00  0.00    +0.057 C 
BRANCH  23  25
ATOM     24  N   UNL     1       0.679  -3.815  -1.481  0.00  0.00    -0.312 N 
ATOM     25  C   UNL     1      -0.659  -2.729  -0.119  0.00  0.00    -0.004 C 
ATOM     26  C   UNL     1       0.652  -2.569   0.370  0.00  0.00    +0.011 C 
ATOM     27  C   UNL     1       1.485  -3.265  -0.508  0.00  0.00    +0.048 C 
ATOM     28  C   UNL     1      -0.630  -3.490  -1.248  0.00  0.00    +0.058 C 
ATOM     29  C   UNL     1       1.230  -1.905   1.470  0.00  0.00    +0.001 C 
ATOM     30  C   UNL     1       2.873  -3.331  -0.341  0.00  0.00    +0.015 C 
ATOM     31  C   UNL     1       2.617  -1.962   1.650  0.00  0.00    +0.000 C 
ATOM     32  C   UNL     1       3.424  -2.664   0.757  0.00  0.00    +0.001 C 
ATOM     33  H   UNL     1       0.999  -4.362  -2.234  0.00  0.00    +0.152 HD
ENDBRANCH  23  25
ENDBRANCH   1  23
TORSDOF 10
