132547205
  -OEChem-03292013293D

 58 60  0     1  0  0  0  0  0999 V2000
    0.5866   -0.1118    0.0290 O   0  0  0  0  0  0  0  0  0  0  0  0
    0.9564    3.5686    1.8029 O   0  0  0  0  0  0  0  0  0  0  0  0
   -4.4287   -0.8075   -1.1475 O   0  0  0  0  0  0  0  0  0  0  0  0
    5.0932   -0.0081   -1.4414 O   0  0  0  0  0  0  0  0  0  0  0  0
    3.4657    3.6479    1.1119 O   0  0  0  0  0  0  0  0  0  0  0  0
   -5.0934   -2.6457    0.8285 O   0  0  0  0  0  0  0  0  0  0  0  0
   -5.4858    0.8717    0.0889 O   0  0  0  0  0  0  0  0  0  0  0  0
    5.7173   -1.0805    0.5403 O   0  0  0  0  0  0  0  0  0  0  0  0
   -0.2317    0.2463    1.1535 C   0  0  1  0  0  0  0  0  0  0  0  0
   -0.4853    1.7521    1.1892 C   0  0  0  0  0  0  0  0  0  0  0  0
   -1.5320   -0.5243    1.0643 C   0  0  0  0  0  0  0  0  0  0  0  0
    1.9752    1.8086    0.6039 C   0  0  0  0  0  0  0  0  0  0  0  0
    0.8359    2.4716    1.2706 C   0  0  0  0  0  0  0  0  0  0  0  0
    1.7798    0.5628    0.0006 C   0  0  0  0  0  0  0  0  0  0  0  0
   -2.3966   -0.3118   -0.0097 C   0  0  0  0  0  0  0  0  0  0  0  0
    3.2214    2.4368    0.5383 C   0  0  0  0  0  0  0  0  0  0  0  0
   -1.8651   -1.4475    2.0554 C   0  0  0  0  0  0  0  0  0  0  0  0
    2.8254   -0.0406   -0.6994 C   0  0  0  0  0  0  0  0  0  0  0  0
   -3.5940   -1.0225   -0.0925 C   0  0  0  0  0  0  0  0  0  0  0  0
    4.0701    0.5857   -0.7675 C   0  0  0  0  0  0  0  0  0  0  0  0
    4.2688    1.8190   -0.1459 C   0  0  0  0  0  0  0  0  0  0  0  0
   -3.0627   -2.1580    1.9728 C   0  0  0  0  0  0  0  0  0  0  0  0
   -3.9271   -1.9455    0.8989 C   0  0  0  0  0  0  0  0  0  0  0  0
   -6.2412    0.3546   -2.1678 C   0  0  0  0  0  0  0  0  0  0  0  0
    6.9845   -1.4573   -1.5050 C   0  0  0  0  0  0  0  0  0  0  0  0
   -5.3773    0.2097   -0.9343 C   0  0  0  0  0  0  0  0  0  0  0  0
    5.8879   -0.8599   -0.6511 C   0  0  0  0  0  0  0  0  0  0  0  0
   -7.3113    1.4289   -1.9914 C   0  0  0  0  0  0  0  0  0  0  0  0
    7.8999   -2.3743   -0.6979 C   0  0  0  0  0  0  0  0  0  0  0  0
   -5.3589   -3.5699    1.8821 C   0  0  0  0  0  0  0  0  0  0  0  0
   -8.1947    1.5430   -3.2228 C   0  0  0  0  0  0  0  0  0  0  0  0
    9.0176   -2.9423   -1.5569 C   0  0  0  0  0  0  0  0  0  0  0  0
    0.3022   -0.0604    2.0652 H   0  0  0  0  0  0  0  0  0  0  0  0
   -1.0878    2.0165    2.0655 H   0  0  0  0  0  0  0  0  0  0  0  0
   -0.9901    2.1180    0.2881 H   0  0  0  0  0  0  0  0  0  0  0  0
   -2.1430    0.3955   -0.7953 H   0  0  0  0  0  0  0  0  0  0  0  0
   -1.2013   -1.6236    2.8977 H   0  0  0  0  0  0  0  0  0  0  0  0
    2.6746   -1.0024   -1.1835 H   0  0  0  0  0  0  0  0  0  0  0  0
    5.2410    2.3030   -0.2026 H   0  0  0  0  0  0  0  0  0  0  0  0
   -3.2557   -2.8581    2.7782 H   0  0  0  0  0  0  0  0  0  0  0  0
    2.6929    3.9486    1.6138 H   0  0  0  0  0  0  0  0  0  0  0  0
   -5.5912    0.6117   -3.0113 H   0  0  0  0  0  0  0  0  0  0  0  0
   -6.7164   -0.6130   -2.3640 H   0  0  0  0  0  0  0  0  0  0  0  0
    6.5146   -2.0222   -2.3176 H   0  0  0  0  0  0  0  0  0  0  0  0
    7.5678   -0.6340   -1.9321 H   0  0  0  0  0  0  0  0  0  0  0  0
   -6.8384    2.3981   -1.7924 H   0  0  0  0  0  0  0  0  0  0  0  0
   -7.9351    1.1967   -1.1199 H   0  0  0  0  0  0  0  0  0  0  0  0
    7.3181   -3.1981   -0.2673 H   0  0  0  0  0  0  0  0  0  0  0  0
    8.3362   -1.8220    0.1431 H   0  0  0  0  0  0  0  0  0  0  0  0
   -6.3255   -4.0365    1.6653 H   0  0  0  0  0  0  0  0  0  0  0  0
   -5.4603   -3.0627    2.8476 H   0  0  0  0  0  0  0  0  0  0  0  0
   -4.6165   -4.3748    1.9095 H   0  0  0  0  0  0  0  0  0  0  0  0
   -8.7101    0.5986   -3.4248 H   0  0  0  0  0  0  0  0  0  0  0  0
   -8.9525    2.3187   -3.0752 H   0  0  0  0  0  0  0  0  0  0  0  0
   -7.6044    1.8083   -4.1057 H   0  0  0  0  0  0  0  0  0  0  0  0
    9.6396   -2.1423   -1.9710 H   0  0  0  0  0  0  0  0  0  0  0  0
    8.6138   -3.5292   -2.3880 H   0  0  0  0  0  0  0  0  0  0  0  0
    9.6598   -3.5968   -0.9593 H   0  0  0  0  0  0  0  0  0  0  0  0
  1  9  1  0  0  0  0
  1 14  1  0  0  0  0
  2 13  2  0  0  0  0
  3 19  1  0  0  0  0
  3 26  1  0  0  0  0
  4 20  1  0  0  0  0
  4 27  1  0  0  0  0
  5 16  1  0  0  0  0
  5 41  1  0  0  0  0
  6 23  1  0  0  0  0
  6 30  1  0  0  0  0
  7 26  2  0  0  0  0
  8 27  2  0  0  0  0
  9 10  1  0  0  0  0
  9 11  1  0  0  0  0
  9 33  1  0  0  0  0
 10 13  1  0  0  0  0
 10 34  1  0  0  0  0
 10 35  1  0  0  0  0
 11 15  2  0  0  0  0
 11 17  1  0  0  0  0
 12 13  1  0  0  0  0
 12 14  1  0  0  0  0
 12 16  2  0  0  0  0
 14 18  2  0  0  0  0
 15 19  1  0  0  0  0
 15 36  1  0  0  0  0
 16 21  1  0  0  0  0
 17 22  2  0  0  0  0
 17 37  1  0  0  0  0
 18 20  1  0  0  0  0
 18 38  1  0  0  0  0
 19 23  2  0  0  0  0
 20 21  2  0  0  0  0
 21 39  1  0  0  0  0
 22 23  1  0  0  0  0
 22 40  1  0  0  0  0
 24 26  1  0  0  0  0
 24 28  1  0  0  0  0
 24 42  1  0  0  0  0
 24 43  1  0  0  0  0
 25 27  1  0  0  0  0
 25 29  1  0  0  0  0
 25 44  1  0  0  0  0
 25 45  1  0  0  0  0
 28 31  1  0  0  0  0
 28 46  1  0  0  0  0
 28 47  1  0  0  0  0
 29 32  1  0  0  0  0
 29 48  1  0  0  0  0
 29 49  1  0  0  0  0
 30 50  1  0  0  0  0
 30 51  1  0  0  0  0
 30 52  1  0  0  0  0
 31 53  1  0  0  0  0
 31 54  1  0  0  0  0
 31 55  1  0  0  0  0
 32 56  1  0  0  0  0
 32 57  1  0  0  0  0
 32 58  1  0  0  0  0
M  END
> <PUBCHEM_COMPOUND_CID>
132547205

> <PUBCHEM_CONFORMER_RMSD>
1

> <PUBCHEM_CONFORMER_DIVERSEORDER>
1
21
45
14
37
41
30
20
43
40
15
42
36
25
13
33
44
7
24
31
34
23
29
18
39
28
26
2
16
46
27
22
8
6
38
19
11
3
32
12
5
9
10
4
17
35

> <PUBCHEM_MMFF94_PARTIAL_CHARGES>
34
1 -0.36
10 0.06
11 -0.14
12 0.09
13 0.42
14 0.08
15 -0.15
16 0.08
17 -0.15
18 -0.15
19 0.08
2 -0.57
20 0.08
21 -0.15
22 -0.15
23 0.08
24 0.06
25 0.06
26 0.66
27 0.66
3 -0.23
30 0.28
36 0.15
37 0.15
38 0.15
39 0.15
4 -0.23
40 0.15
41 0.45
5 -0.53
6 -0.36
7 -0.57
8 -0.57
9 0.42

> <PUBCHEM_EFFECTIVE_ROTOR_COUNT>
10.6

> <PUBCHEM_PHARMACOPHORE_FEATURES>
11
1 1 acceptor
1 2 acceptor
1 31 hydrophobe
1 32 hydrophobe
1 5 donor
1 6 acceptor
1 7 acceptor
1 8 acceptor
6 1 9 10 12 13 14 rings
6 11 15 17 19 22 23 rings
6 12 14 16 18 20 21 rings

> <PUBCHEM_HEAVY_ATOM_COUNT>
32

> <PUBCHEM_ATOM_DEF_STEREO_COUNT>
1

> <PUBCHEM_ATOM_UDEF_STEREO_COUNT>
0

> <PUBCHEM_BOND_DEF_STEREO_COUNT>
0

> <PUBCHEM_BOND_UDEF_STEREO_COUNT>
0

> <PUBCHEM_ISOTOPIC_ATOM_COUNT>
0

> <PUBCHEM_COMPONENT_COUNT>
1

> <PUBCHEM_CACTVS_TAUTO_COUNT>
9

> <PUBCHEM_CONFORMER_ID>
07E6828500000001

> <PUBCHEM_MMFF94_ENERGY>
93.3433

> <PUBCHEM_FEATURE_SELFOVERLAP>
55.853

> <PUBCHEM_SHAPE_FINGERPRINT>
10622 236 17201905149647565502
10985338 15 12035735245570835640
11135609 201 8430303612004479044
11273773 46 18409174285522811603
11410812 94 17168146699081124950
11411753 3 18262235659208520313
11796584 16 18040711515642888538
1200032 147 15357978915239502232
12120059 9 18270384067179247314
12124843 1 18113913658621365166
12236239 1 16269983279200240139
12342043 65 17974024030726576459
12390115 104 17894904149618732187
12616971 3 16844465966977430667
12760667 363 18341905060924479738
13540713 4 18193550289214123225
13782708 43 18263368164601542931
14068700 675 16917062239903089425
14664723 55 17603867763573928941
15183329 4 17968095292008901758
15188451 53 16271923796827023526
15230672 131 17967530151401471426
15350500 16 16988553581109993486
15519825 34 14692562213519764574
16096371 109 17415831638776161248
16126227 98 11026098875581668814
16992610 120 17458627779423958551
1768 4 10881696710544510982
21033648 29 18193545899541346785
21033650 10 17095524015162398457
21279426 13 18335701667132142553
21307412 95 18335424555947848863
21315764 119 17748829592276326822
21756936 100 14707213231755796705
21792965 20 18127949950941088738
22393880 68 18188206606119659139
23559900 14 18334580195837956224
23569914 152 18054495912378806519
25025965 108 17844239615594735622
25269216 80 16154004533270587803
3004659 81 18187370939450522802
32027 91 18201161039792162122
34797466 226 17243021416942815376
38570 142 15357697461589993381
3882209 13 17833538008296027054
44880568 143 17458632271706438804
46194498 28 17902516222540855169
474113 269 17988075579118599774
5104073 3 17774740722309768576
5758199 1 12179852684119519396
6086070 43 18410569609096715803
6697151 62 18130779066798851936
6712543 237 14763800619844959254
9689198 14 14923948899303651197

> <PUBCHEM_SHAPE_MULTIPOLES>
611.59
22.81
3.77
2.32
11.67
0.11
0.85
12.01
21.36
0.92
-2.05
-3.68
-0.3
7.6

> <PUBCHEM_SHAPE_SELFOVERLAP>
1302.87

> <PUBCHEM_SHAPE_VOLUME>
338.7

> <PUBCHEM_COORDINATE_TYPE>
2
5
10

$$$$
