REMARK  Name = 132561202
REMARK  8 active torsions:
REMARK  status: ('A' for Active; 'I' for Inactive)
REMARK    1  A    between atoms: C_1  and  C_11
REMARK    2  A    between atoms: C_1  and  C_17
REMARK    3  A    between atoms: C_7  and  C_14
REMARK    4  A    between atoms: C_17  and  O_18
REMARK    5  A    between atoms: C_17  and  C_20
REMARK    6  A    between atoms: C_20  and  N_23
REMARK    7  A    between atoms: C_24  and  C_26
REMARK    8  A    between atoms: C_26  and  N_28
REMARK                            x       y       z     vdW  Elec       q    Type
REMARK                         _______ _______ _______ _____ _____    ______ ____
ROOT
ATOM      1  C   UNL     1       0.041  -1.056  -0.831  0.00  0.00    +0.106 C 
ATOM      2  C   UNL     1       0.126  -0.862  -2.340  0.00  0.00    +0.012 C 
ENDROOT
BRANCH   1  11
ATOM      3  O   UNL     1      -5.441   1.161  -0.189  0.00  0.00    -0.294 OA
ATOM      4  O   UNL     1      -0.759   1.621  -0.437  0.00  0.00    -0.274 OA
ATOM      5  O   UNL     1      -1.780  -2.530  -0.447  0.00  0.00    -0.274 OA
ATOM      6  N   UNL     1      -2.240  -0.245  -0.312  0.00  0.00    -0.224 N 
ATOM      7  C   UNL     1      -3.676  -0.485  -0.134  0.00  0.00    +0.140 C 
ATOM      8  C   UNL     1      -3.153   1.947  -0.316  0.00  0.00    +0.122 C 
ATOM      9  C   UNL     1      -4.242   0.908  -0.224  0.00  0.00    +0.176 C 
ATOM     10  C   UNL     1      -1.877   1.129  -0.364  0.00  0.00    +0.237 C 
ATOM     11  C   UNL     1      -1.399  -1.359  -0.506  0.00  0.00    +0.234 C 
ATOM     12  C   UNL     1      -3.304   2.758  -1.598  0.00  0.00    +0.017 C 
ATOM     13  C   UNL     1      -3.163   2.830   0.927  0.00  0.00    +0.017 C 
BRANCH   7  14
ATOM     14  C   UNL     1      -4.008  -1.094   1.221  0.00  0.00    +0.026 C 
ATOM     15  C   UNL     1      -3.834  -0.062   2.336  0.00  0.00    +0.002 C 
ATOM     16  C   UNL     1      -5.430  -1.654   1.230  0.00  0.00    +0.002 C 
ENDBRANCH   7  14
ENDBRANCH   1  11
BRANCH   1  17
ATOM     17  C   UNL     1       0.933  -2.192  -0.292  0.00  0.00    +0.137 C 
BRANCH  17  18
ATOM     18  O   UNL     1       0.701  -2.337   1.114  0.00  0.00    -0.382 OA
ATOM     19  H   UNL     1      -0.246  -2.471   1.274  0.00  0.00    +0.210 HD
ENDBRANCH  17  18
BRANCH  17  20
ATOM     20  C   UNL     1       2.447  -1.982  -0.503  0.00  0.00    +0.099 C 
ATOM     21  C   UNL     1       3.273  -3.104   0.124  0.00  0.00    +0.024 C 
BRANCH  20  23
ATOM     22  O   UNL     1       4.605  -0.353  -1.490  0.00  0.00    -0.277 OA
ATOM     23  N   UNL     1       2.884  -0.709   0.024  0.00  0.00    -0.305 N 
ATOM     24  C   UNL     1       3.940   0.008  -0.521  0.00  0.00    +0.203 C 
ATOM     25  H   UNL     1       2.412  -0.335   0.803  0.00  0.00    +0.149 HD
BRANCH  24  26
ATOM     26  C   UNL     1       4.199   1.305   0.234  0.00  0.00    +0.020 C 
ATOM     27  C   UNL     1       4.072   2.498  -0.706  0.00  0.00    -0.014 C 
BRANCH  26  28
ATOM     28  N   UNL     1       5.545   1.247   0.798  0.00  0.00    +0.391 N 
ATOM     29  C   UNL     1       5.868   2.498   1.486  0.00  0.00    -0.100 C 
ATOM     30  C   UNL     1       5.669   0.114   1.715  0.00  0.00    -0.100 C 
ATOM     31  H   UNL     1       6.208   1.119   0.033  0.00  0.00    -0.079 HD
ENDBRANCH  26  28
ENDBRANCH  24  26
ENDBRANCH  20  23
ENDBRANCH  17  20
ENDBRANCH   1  17
TORSDOF 8
