REMARK  Name = 132535270
REMARK  10 active torsions:
REMARK  status: ('A' for Active; 'I' for Inactive)
REMARK    1  A    between atoms: C_3  and  O_13
REMARK    2  A    between atoms: C_3  and  C_16
REMARK    3  A    between atoms: C_5  and  C_19
REMARK    4  A    between atoms: C_6  and  S_8
REMARK    5  A    between atoms: S_8  and  C_10
REMARK    6  A    between atoms: C_10  and  C_11
REMARK    7  A    between atoms: C_16  and  O_17
REMARK    8  A    between atoms: C_19  and  O_20
REMARK    9  A    between atoms: C_19  and  C_22
REMARK   10  A    between atoms: C_22  and  O_23
REMARK                            x       y       z     vdW  Elec       q    Type
REMARK                         _______ _______ _______ _____ _____    ______ ____
ROOT
ATOM      1  S   UNL     1      -0.448  -0.968   1.055  0.00  0.00    +0.058 S 
ATOM      2  O   UNL     1      -0.337  -1.233   2.528  0.00  0.00    -0.255 OA
ATOM      3  C   UNL     1       1.106   0.933  -0.154  0.00  0.00    +0.193 C 
ATOM      4  C   UNL     1       0.057   1.673   0.693  0.00  0.00    +0.061 C 
ATOM      5  C   UNL     1       1.233  -0.465   0.474  0.00  0.00    +0.144 C 
ATOM      6  C   UNL     1      -1.139   0.722   0.855  0.00  0.00    +0.161 C 
ATOM      7  C   UNL     1      -0.308   3.067   0.177  0.00  0.00    +0.005 C 
ENDROOT
BRANCH   6   8
ATOM      8  S   UNL     1      -2.369   0.774  -0.493  0.00  0.00    +0.058 S 
ATOM      9  O   UNL     1      -1.938  -0.228  -1.515  0.00  0.00    -0.255 OA
BRANCH   8  10
ATOM     10  C   UNL     1      -3.707   0.037   0.474  0.00  0.00    +0.119 C 
BRANCH  10  11
ATOM     11  C   UNL     1      -4.943  -0.082  -0.355  0.00  0.00    -0.012 C 
ATOM     12  C   UNL     1      -5.559  -1.241  -0.612  0.00  0.00    -0.004 C 
ENDBRANCH  10  11
ENDBRANCH   8  10
ENDBRANCH   6   8
BRANCH   3  13
ATOM     13  O   UNL     1       0.730   0.896  -1.519  0.00  0.00    -0.376 OA
ATOM     14  H   UNL     1      -0.119   0.435  -1.608  0.00  0.00    +0.211 HD
ENDBRANCH   3  13
BRANCH   3  16
ATOM     15  O   UNL     1       3.014   2.122  -1.058  0.00  0.00    -0.248 OA
ATOM     16  C   UNL     1       2.423   1.658  -0.094  0.00  0.00    +0.339 C 
BRANCH  16  17
ATOM     17  O   UNL     1       2.873   1.727   1.182  0.00  0.00    -0.479 OA
ATOM     18  H   UNL     1       2.371   1.350   1.878  0.00  0.00    +0.295 HD
ENDBRANCH  16  17
ENDBRANCH   3  16
BRANCH   5  19
ATOM     19  C   UNL     1       1.793  -1.547  -0.440  0.00  0.00    +0.155 C 
BRANCH  19  20
ATOM     20  O   UNL     1       3.080  -1.139  -0.900  0.00  0.00    -0.381 OA
ATOM     21  H   UNL     1       3.002  -0.296  -1.372  0.00  0.00    +0.210 HD
ENDBRANCH  19  20
BRANCH  19  22
ATOM     22  C   UNL     1       1.944  -2.871   0.296  0.00  0.00    +0.167 C 
BRANCH  22  23
ATOM     23  O   UNL     1       2.496  -3.834  -0.595  0.00  0.00    -0.379 OA
ATOM     24  H   UNL     1       2.596  -4.682  -0.135  0.00  0.00    +0.211 HD
ENDBRANCH  22  23
ENDBRANCH  19  22
ENDBRANCH   5  19
TORSDOF 10
