REMARK  Name = 132555
REMARK  9 active torsions:
REMARK  status: ('A' for Active; 'I' for Inactive)
REMARK    1  A    between atoms: N_1  and  C_18
REMARK    2  A    between atoms: N_2  and  C_13
REMARK    3  A    between atoms: N_6  and  C_16
REMARK    4  A    between atoms: C_18  and  C_19
REMARK    5  A    between atoms: C_19  and  C_20
REMARK    6  A    between atoms: C_20  and  C_21
REMARK    7  A    between atoms: C_21  and  C_22
REMARK    8  A    between atoms: C_22  and  C_23
REMARK    9  A    between atoms: C_23  and  N_24
REMARK                            x       y       z     vdW  Elec       q    Type
REMARK                         _______ _______ _______ _____ _____    ______ ____
ROOT
ATOM      1  N   UNL     1       0.356  -1.172   0.003  0.00  0.00    -0.258 N 
ATOM      2  N   UNL     1      -2.775   2.286  -0.126  0.00  0.00    -0.259 N 
ATOM      3  N   UNL     1      -1.174   0.575  -0.063  0.00  0.00    -0.247 NA
ATOM      4  N   UNL     1      -1.903  -1.710   0.017  0.00  0.00    -0.247 NA
ATOM      5  N   UNL     1      -3.518   0.064  -0.049  0.00  0.00    -0.247 NA
ATOM      6  N   UNL     1      -4.201  -2.178   0.029  0.00  0.00    -0.258 N 
ATOM      7  C   UNL     1      -0.964  -0.751  -0.015  0.00  0.00    +0.222 C 
ATOM      8  C   UNL     1      -2.474   0.908  -0.077  0.00  0.00    +0.222 C 
ATOM      9  C   UNL     1      -3.157  -1.228  -0.003  0.00  0.00    +0.222 C 
ATOM     10  H   UNL     1       0.535  -2.139   0.038  0.00  0.00    +0.160 HD
ATOM     11  H   UNL     1      -3.720   2.562  -0.138  0.00  0.00    +0.160 HD
ATOM     12  H   UNL     1      -3.968  -3.134   0.064  0.00  0.00    +0.160 HD
ENDROOT
BRANCH   2  13
ATOM     13  C   UNL     1      -1.767   3.300  -0.158  0.00  0.00    +0.080 C 
ATOM     14  C   UNL     1      -2.357   4.586  -0.721  0.00  0.00    +0.022 C 
ATOM     15  C   UNL     1      -1.221   3.509   1.249  0.00  0.00    +0.022 C 
ENDBRANCH   2  13
BRANCH   6  16
ATOM     16  C   UNL     1      -5.583  -1.812   0.014  0.00  0.00    +0.099 C 
ATOM     17  C   UNL     1      -6.452  -3.054   0.035  0.00  0.00    +0.024 C 
ENDBRANCH   6  16
BRANCH   1  18
ATOM     18  C   UNL     1       1.485  -0.273  -0.026  0.00  0.00    +0.099 C 
BRANCH  18  19
ATOM     19  C   UNL     1       2.798  -1.051  -0.001  0.00  0.00    +0.022 C 
BRANCH  19  20
ATOM     20  C   UNL     1       4.028  -0.137  -0.026  0.00  0.00    +0.002 C 
BRANCH  20  21
ATOM     21  C   UNL     1       5.322  -0.954  -0.011  0.00  0.00    -0.002 C 
BRANCH  21  22
ATOM     22  C   UNL     1       6.588  -0.088   0.003  0.00  0.00    -0.024 C 
BRANCH  22  23
ATOM     23  C   UNL     1       7.910  -0.857  -0.039  0.00  0.00    -0.086 C 
BRANCH  23  24
ATOM     24  N   UNL     1       9.061   0.037  -0.034  0.00  0.00    +0.380 N 
ATOM     25  H   UNL     1       9.919  -0.514  -0.062  0.00  0.00    -0.089 HD
ATOM     26  H   UNL     1       9.048   0.603   0.815  0.00  0.00    -0.089 HD
ATOM     27  H   UNL     1       9.021   0.647  -0.850  0.00  0.00    -0.089 HD
ENDBRANCH  23  24
ENDBRANCH  22  23
ENDBRANCH  21  22
ENDBRANCH  20  21
ENDBRANCH  19  20
ENDBRANCH  18  19
ENDBRANCH   1  18
TORSDOF 9
