REMARK  Name = 132525356
REMARK  7 active torsions:
REMARK  status: ('A' for Active; 'I' for Inactive)
REMARK    1  A    between atoms: C_4  and  N_29
REMARK    2  A    between atoms: C_7  and  C_17
REMARK    3  A    between atoms: C_10  and  O_27
REMARK    4  A    between atoms: C_20  and  O_23
REMARK    5  A    between atoms: C_21  and  O_25
REMARK    6  A    between atoms: N_29  and  C_31
REMARK    7  A    between atoms: C_32  and  O_37
REMARK                            x       y       z     vdW  Elec       q    Type
REMARK                         _______ _______ _______ _____ _____    ______ ____
ROOT
ATOM      1  O   UNL     1       1.155   0.841  -0.730  0.00  0.00    -0.448 OA
ATOM      2  O   UNL     1      -0.161   2.123   2.151  0.00  0.00    -0.296 OA
ATOM      3  O   UNL     1       2.322   2.444   0.442  0.00  0.00    -0.250 OA
ATOM      4  C   UNL     1      -1.107  -0.658   0.174  0.00  0.00    +0.080 C 
ATOM      5  C   UNL     1       0.335  -1.272   0.111  0.00  0.00    +0.063 C 
ATOM      6  C   UNL     1      -1.469   0.236   1.390  0.00  0.00    +0.076 C 
ATOM      7  C   UNL     1       1.458  -0.199   0.226  0.00  0.00    +0.193 C 
ATOM      8  C   UNL     1      -1.510   2.590   0.200  0.00  0.00    +0.085 C 
ATOM      9  C   UNL     1      -0.942   1.681   1.304  0.00  0.00    +0.154 C 
ATOM     10  C   UNL     1      -0.510   3.641  -0.355  0.00  0.00    +0.128 C 
ATOM     11  C   UNL     1       0.676   3.115  -1.199  0.00  0.00    +0.126 C 
ATOM     12  C   UNL     1       0.477  -2.073  -1.205  0.00  0.00    +0.006 C 
ATOM     13  C   UNL     1      -1.103  -0.402   2.736  0.00  0.00    +0.009 C 
ATOM     14  C   UNL     1      -2.743   3.286   0.789  0.00  0.00    +0.010 C 
ATOM     15  C   UNL     1       1.515   2.117  -0.419  0.00  0.00    +0.319 C 
ATOM     16  C   UNL     1       0.225   2.581  -2.560  0.00  0.00    +0.014 C 
ENDROOT
BRANCH   7  17
ATOM     17  C   UNL     1       2.865  -0.748   0.069  0.00  0.00    +0.023 C 
ATOM     18  C   UNL     1       3.566  -1.200   1.187  0.00  0.00    +0.036 C 
ATOM     19  C   UNL     1       3.456  -0.801  -1.193  0.00  0.00    +0.036 C 
ATOM     20  C   UNL     1       4.748  -1.306  -1.338  0.00  0.00    +0.136 C 
ATOM     21  C   UNL     1       4.858  -1.705   1.043  0.00  0.00    +0.136 C 
ATOM     22  C   UNL     1       5.449  -1.758  -0.220  0.00  0.00    +0.073 C 
BRANCH  20  23
ATOM     23  O   UNL     1       5.326  -1.357  -2.569  0.00  0.00    -0.505 OA
ATOM     24  H   UNL     1       4.855  -1.053  -3.320  0.00  0.00    +0.292 HD
ENDBRANCH  20  23
BRANCH  21  25
ATOM     25  O   UNL     1       5.543  -2.146   2.134  0.00  0.00    -0.505 OA
ATOM     26  H   UNL     1       5.146  -2.111   2.982  0.00  0.00    +0.292 HD
ENDBRANCH  21  25
ENDBRANCH   7  17
BRANCH  10  27
ATOM     27  O   UNL     1      -0.019   4.458   0.710  0.00  0.00    -0.383 OA
ATOM     28  H   UNL     1      -0.765   4.785   1.237  0.00  0.00    +0.210 HD
ENDBRANCH  10  27
BRANCH   4  29
ATOM     29  N   UNL     1      -2.080  -1.744   0.144  0.00  0.00    -0.331 N 
ATOM     30  H   UNL     1      -1.792  -2.639   0.435  0.00  0.00    +0.147 HD
BRANCH  29  31
ATOM     31  C   UNL     1      -3.384  -1.580  -0.272  0.00  0.00    +0.079 C 
ATOM     32  C   UNL     1      -4.404  -2.372   0.256  0.00  0.00    +0.147 C 
ATOM     33  C   UNL     1      -3.680  -0.611  -1.232  0.00  0.00    +0.017 C 
ATOM     34  C   UNL     1      -5.718  -2.195  -0.175  0.00  0.00    +0.038 C 
ATOM     35  C   UNL     1      -4.995  -0.435  -1.663  0.00  0.00    +0.001 C 
ATOM     36  C   UNL     1      -6.014  -1.227  -1.134  0.00  0.00    +0.003 C 
BRANCH  32  37
ATOM     37  O   UNL     1      -4.136  -3.323   1.195  0.00  0.00    -0.504 OA
ATOM     38  H   UNL     1      -3.257  -3.452   1.494  0.00  0.00    +0.292 HD
ENDBRANCH  32  37
ENDBRANCH  29  31
ENDBRANCH   4  29
TORSDOF 7
