132577715
  -OEChem-03292013293D

 55 58  0     1  0  0  0  0  0999 V2000
   -4.7145   -0.9066    0.6243 O   0  0  0  0  0  0  0  0  0  0  0  0
    2.9932   -2.5928    0.1272 O   0  0  0  0  0  0  0  0  0  0  0  0
    4.5415   -0.8505   -0.1324 O   0  0  0  0  0  0  0  0  0  0  0  0
    1.4835   -3.8368   -1.0757 O   0  0  0  0  0  0  0  0  0  0  0  0
    3.7584    0.2606    2.0658 O   0  0  0  0  0  0  0  0  0  0  0  0
    2.3888   -1.5398    2.5345 O   0  0  0  0  0  0  0  0  0  0  0  0
    1.5823    5.0376   -0.8108 O   0  0  0  0  0  0  0  0  0  0  0  0
   -5.3555    0.3734    0.7813 C   0  0  0  0  0  0  0  0  0  0  0  0
   -4.3434    1.4792    1.1225 C   0  0  0  0  0  0  0  0  0  0  0  0
   -3.2590    1.5869    0.0597 C   0  0  0  0  0  0  0  0  0  0  0  0
   -2.7540    0.2222   -0.3039 C   0  0  0  0  0  0  0  0  0  0  0  0
   -3.5017   -0.9248   -0.0128 C   0  0  0  0  0  0  0  0  0  0  0  0
   -6.1678    0.6825   -0.4854 C   0  0  0  0  0  0  0  0  0  0  0  0
   -6.3293    0.2135    1.9580 C   0  0  0  0  0  0  0  0  0  0  0  0
   -1.5300    0.0884   -0.9731 C   0  0  0  0  0  0  0  0  0  0  0  0
   -1.0485   -1.1734   -1.3227 C   0  0  0  0  0  0  0  0  0  0  0  0
    0.2589   -1.3031   -2.0281 C   0  0  0  0  0  0  0  0  0  0  0  0
    1.4131   -1.4430   -1.1070 C   0  0  0  0  0  0  0  0  0  0  0  0
   -3.0124   -2.1884   -0.3558 C   0  0  0  0  0  0  0  0  0  0  0  0
    2.1873   -0.5390   -0.4981 C   0  0  0  0  0  0  0  0  0  0  0  0
   -1.7879   -2.3117   -1.0107 C   0  0  0  0  0  0  0  0  0  0  0  0
    3.2487   -1.2009    0.3067 C   0  0  1  0  0  0  0  0  0  0  0  0
    1.9324   -2.7624   -0.7136 C   0  0  0  0  0  0  0  0  0  0  0  0
    2.0306    0.9176   -0.5790 C   0  0  0  0  0  0  0  0  0  0  0  0
    3.0644   -0.8731    1.7623 C   0  0  0  0  0  0  0  0  0  0  0  0
    2.6834    1.6348   -1.5815 C   0  0  0  0  0  0  0  0  0  0  0  0
    1.2275    1.5850    0.3459 C   0  0  0  0  0  0  0  0  0  0  0  0
    2.5331    3.0193   -1.6594 C   0  0  0  0  0  0  0  0  0  0  0  0
    1.0771    2.9695    0.2681 C   0  0  0  0  0  0  0  0  0  0  0  0
    1.7298    3.6867   -0.7346 C   0  0  0  0  0  0  0  0  0  0  0  0
    3.6701    0.6893    3.4282 C   0  0  0  0  0  0  0  0  0  0  0  0
   -3.8590    1.2389    2.0794 H   0  0  0  0  0  0  0  0  0  0  0  0
   -4.8402    2.4484    1.2488 H   0  0  0  0  0  0  0  0  0  0  0  0
   -2.4403    2.2061    0.4450 H   0  0  0  0  0  0  0  0  0  0  0  0
   -3.6501    2.0761   -0.8397 H   0  0  0  0  0  0  0  0  0  0  0  0
   -6.6948    1.6384   -0.3991 H   0  0  0  0  0  0  0  0  0  0  0  0
   -5.7931   -0.0661    2.8723 H   0  0  0  0  0  0  0  0  0  0  0  0
   -6.8863    1.1363    2.1507 H   0  0  0  0  0  0  0  0  0  0  0  0
   -5.5372    0.7165   -1.3796 H   0  0  0  0  0  0  0  0  0  0  0  0
   -6.9080   -0.1047   -0.6709 H   0  0  0  0  0  0  0  0  0  0  0  0
   -7.0474   -0.5921    1.7654 H   0  0  0  0  0  0  0  0  0  0  0  0
   -0.9748    0.9810   -1.2461 H   0  0  0  0  0  0  0  0  0  0  0  0
    0.2245   -2.1502   -2.7258 H   0  0  0  0  0  0  0  0  0  0  0  0
    0.4082   -0.4317   -2.6799 H   0  0  0  0  0  0  0  0  0  0  0  0
   -3.5847   -3.0821   -0.1207 H   0  0  0  0  0  0  0  0  0  0  0  0
   -1.4249   -3.3013   -1.2748 H   0  0  0  0  0  0  0  0  0  0  0  0
    3.3084    1.1302   -2.3142 H   0  0  0  0  0  0  0  0  0  0  0  0
    0.7120    1.0420    1.1344 H   0  0  0  0  0  0  0  0  0  0  0  0
    4.4904   -0.3749   -0.9769 H   0  0  0  0  0  0  0  0  0  0  0  0
    3.0457    3.5663   -2.4460 H   0  0  0  0  0  0  0  0  0  0  0  0
    0.4493    3.4833    0.9910 H   0  0  0  0  0  0  0  0  0  0  0  0
    4.2629    1.6015    3.5364 H   0  0  0  0  0  0  0  0  0  0  0  0
    4.0790   -0.0769    4.0936 H   0  0  0  0  0  0  0  0  0  0  0  0
    2.6310    0.9132    3.6877 H   0  0  0  0  0  0  0  0  0  0  0  0
    2.1026    5.3693   -1.5626 H   0  0  0  0  0  0  0  0  0  0  0  0
  1  8  1  0  0  0  0
  1 12  1  0  0  0  0
  2 22  1  0  0  0  0
  2 23  1  0  0  0  0
  3 22  1  0  0  0  0
  3 49  1  0  0  0  0
  4 23  2  0  0  0  0
  5 25  1  0  0  0  0
  5 31  1  0  0  0  0
  6 25  2  0  0  0  0
  7 30  1  0  0  0  0
  7 55  1  0  0  0  0
  8  9  1  0  0  0  0
  8 13  1  0  0  0  0
  8 14  1  0  0  0  0
  9 10  1  0  0  0  0
  9 32  1  0  0  0  0
  9 33  1  0  0  0  0
 10 11  1  0  0  0  0
 10 34  1  0  0  0  0
 10 35  1  0  0  0  0
 11 12  2  0  0  0  0
 11 15  1  0  0  0  0
 12 19  1  0  0  0  0
 13 36  1  0  0  0  0
 13 39  1  0  0  0  0
 13 40  1  0  0  0  0
 14 37  1  0  0  0  0
 14 38  1  0  0  0  0
 14 41  1  0  0  0  0
 15 16  2  0  0  0  0
 15 42  1  0  0  0  0
 16 17  1  0  0  0  0
 16 21  1  0  0  0  0
 17 18  1  0  0  0  0
 17 43  1  0  0  0  0
 17 44  1  0  0  0  0
 18 20  2  0  0  0  0
 18 23  1  0  0  0  0
 19 21  2  0  0  0  0
 19 45  1  0  0  0  0
 20 22  1  0  0  0  0
 20 24  1  0  0  0  0
 21 46  1  0  0  0  0
 22 25  1  0  0  0  0
 24 26  2  0  0  0  0
 24 27  1  0  0  0  0
 26 28  1  0  0  0  0
 26 47  1  0  0  0  0
 27 29  2  0  0  0  0
 27 48  1  0  0  0  0
 28 30  2  0  0  0  0
 28 50  1  0  0  0  0
 29 30  1  0  0  0  0
 29 51  1  0  0  0  0
 31 52  1  0  0  0  0
 31 53  1  0  0  0  0
 31 54  1  0  0  0  0
M  END
> <PUBCHEM_COMPOUND_CID>
132577715

> <PUBCHEM_CONFORMER_RMSD>
0.8

> <PUBCHEM_CONFORMER_DIVERSEORDER>
3
74
38
66
54
63
26
14
13
33
25
76
36
1
56
37
59
69
35
55
23
82
51
57
16
42
19
43
78
28
40
20
44
72
62
41
24
29
61
9
10
48
15
70
67
68
30
7
46
58
53
47
49
45
18
31
34
22
39
17
71
83
32
77
6
12
27
64
52
21
81
4
75
50
8
5
73
65
60
80
79
11
2

> <PUBCHEM_MMFF94_PARTIAL_CHARGES>
37
1 -0.36
10 0.14
11 -0.14
12 0.08
15 -0.15
16 -0.14
17 0.28
18 -0.12
19 -0.15
2 -0.43
20 -0.17
21 -0.15
22 0.76
23 0.71
24 0.03
25 0.66
26 -0.15
27 -0.15
28 -0.15
29 -0.15
3 -0.68
30 0.08
31 0.28
4 -0.57
42 0.15
45 0.15
46 0.15
47 0.15
48 0.15
49 0.4
5 -0.43
50 0.15
51 0.15
55 0.45
6 -0.57
7 -0.53
8 0.28

> <PUBCHEM_EFFECTIVE_ROTOR_COUNT>
6.2

> <PUBCHEM_PHARMACOPHORE_FEATURES>
11
1 1 acceptor
1 3 acceptor
1 3 donor
1 4 acceptor
1 6 acceptor
1 7 donor
3 8 13 14 hydrophobe
5 2 18 20 22 23 rings
6 1 8 9 10 11 12 rings
6 11 12 15 16 19 21 rings
6 24 26 27 28 29 30 rings

> <PUBCHEM_HEAVY_ATOM_COUNT>
31

> <PUBCHEM_ATOM_DEF_STEREO_COUNT>
1

> <PUBCHEM_ATOM_UDEF_STEREO_COUNT>
0

> <PUBCHEM_BOND_DEF_STEREO_COUNT>
0

> <PUBCHEM_BOND_UDEF_STEREO_COUNT>
0

> <PUBCHEM_ISOTOPIC_ATOM_COUNT>
0

> <PUBCHEM_COMPONENT_COUNT>
1

> <PUBCHEM_CACTVS_TAUTO_COUNT>
130

> <PUBCHEM_CONFORMER_ID>
07E6F9B300000003

> <PUBCHEM_MMFF94_ENERGY>
79.8551

> <PUBCHEM_FEATURE_SELFOVERLAP>
55.851

> <PUBCHEM_SHAPE_FINGERPRINT>
10369192 42 13322627053791137746
10483366 6 18196683781557642302
11421498 54 17823144424020584710
11763715 3 15971832194705530830
12422481 6 18194934458352524640
12549972 3 16445277210793121629
12553582 1 18337102385001042356
12633257 1 18187637033490106403
13140716 1 18271524320338714101
13583140 156 17967248677173001991
13965767 371 18057013897117556186
14955137 171 18409733967601550686
151778 21 18338808926100825061
15475509 35 16950288412306209003
1601671 61 18413672400914197638
17980427 23 18194378182461354016
18681886 176 18341336690526989668
20465049 17 18124063301147075588
20739085 24 18411414004099258634
21033648 29 17773299154785233499
21421861 104 18333450962635844504
23559900 14 18271537416053157199
3380486 145 17976782512063340526
394222 165 18119249716755902288
44802255 64 13898229058150513784
484985 159 15439010499935125866
513532 50 16487262057831038517
57527573 199 17345744330334686032
5895379 119 18200889395462881097
6086070 43 17970322890151567823
7097593 13 18336259076652098583
7288768 16 17323520064885086612
8509985 295 18337952294857605693

> <PUBCHEM_SHAPE_MULTIPOLES>
596.88
10.71
4.25
2.2
17.71
2.8
-1.85
1.17
-5.6
-4.09
2.01
-2.21
0.12
-1.33

> <PUBCHEM_SHAPE_SELFOVERLAP>
1311.898

> <PUBCHEM_SHAPE_VOLUME>
321

> <PUBCHEM_COORDINATE_TYPE>
2
5
10

$$$$
