REMARK  Name = 132566764
REMARK  5 active torsions:
REMARK  status: ('A' for Active; 'I' for Inactive)
REMARK    1  A    between atoms: C_13  and  C_28
REMARK    2  A    between atoms: C_16  and  C_17
REMARK    3  A    between atoms: C_20  and  O_23
REMARK    4  A    between atoms: C_22  and  O_25
REMARK    5  A    between atoms: C_28  and  O_29
REMARK                            x       y       z     vdW  Elec       q    Type
REMARK                         _______ _______ _______ _____ _____    ______ ____
ROOT
ATOM      1  O   UNL     1      -0.108  -0.219  -0.329  0.00  0.00    -0.314 OA
ATOM      2  O   UNL     1       0.909   3.025   0.290  0.00  0.00    -0.446 OA
ATOM      3  O   UNL     1       1.429  -1.215  -1.830  0.00  0.00    -0.449 OA
ATOM      4  O   UNL     1      -0.831   4.349  -0.422  0.00  0.00    -0.245 OA
ATOM      5  C   UNL     1       1.914   1.007  -0.706  0.00  0.00    +0.122 C 
ATOM      6  C   UNL     1       1.138   1.627   0.464  0.00  0.00    +0.190 C 
ATOM      7  C   UNL     1      -0.203   0.934   0.504  0.00  0.00    +0.188 C 
ATOM      8  C   UNL     1       3.204   0.405  -0.108  0.00  0.00    +0.063 C 
ATOM      9  C   UNL     1       0.919   0.009  -1.311  0.00  0.00    +0.292 C 
ATOM     10  C   UNL     1       1.983   1.368   1.663  0.00  0.00    +0.012 C 
ATOM     11  C   UNL     1       3.086   0.682   1.359  0.00  0.00    -0.022 C 
ATOM     12  C   UNL     1      -1.098   1.978  -0.060  0.00  0.00    +0.084 C 
ATOM     13  C   UNL     1       3.386  -1.034  -0.444  0.00  0.00    +0.094 C 
ATOM     14  C   UNL     1      -0.375   3.264  -0.106  0.00  0.00    +0.340 C 
ATOM     15  C   UNL     1       2.558  -1.707  -1.246  0.00  0.00    +0.177 C 
ATOM     16  C   UNL     1      -2.352   1.847  -0.499  0.00  0.00    +0.005 C 
ENDROOT
BRANCH  16  17
ATOM     17  C   UNL     1      -3.144   0.603  -0.489  0.00  0.00    +0.003 C 
ATOM     18  C   UNL     1      -3.430  -0.032   0.719  0.00  0.00    +0.040 C 
ATOM     19  C   UNL     1      -3.607   0.062  -1.689  0.00  0.00    +0.003 C 
ATOM     20  C   UNL     1      -4.179  -1.208   0.728  0.00  0.00    +0.172 C 
ATOM     21  C   UNL     1      -4.357  -1.114  -1.679  0.00  0.00    +0.040 C 
ATOM     22  C   UNL     1      -4.643  -1.750  -0.471  0.00  0.00    +0.168 C 
BRANCH  20  23
ATOM     23  O   UNL     1      -4.452  -1.819   1.915  0.00  0.00    -0.468 OA
ATOM     24  C   UNL     1      -3.942  -1.201   3.095  0.00  0.00    +0.253 C 
ENDBRANCH  20  23
BRANCH  22  25
ATOM     25  O   UNL     1      -5.376  -2.898  -0.475  0.00  0.00    -0.503 OA
ATOM     26  H   UNL     1      -5.573  -3.331   0.332  0.00  0.00    +0.292 HD
ENDBRANCH  22  25
ENDBRANCH  16  17
BRANCH  13  28
ATOM     27  O   UNL     1       4.613  -2.959   0.195  0.00  0.00    -0.245 OA
ATOM     28  C   UNL     1       4.575  -1.750   0.025  0.00  0.00    +0.341 C 
BRANCH  28  29
ATOM     29  O   UNL     1       5.573  -0.852   0.222  0.00  0.00    -0.441 OA
ATOM     30  C   UNL     1       6.811  -1.403   0.684  0.00  0.00    +0.256 C 
ENDBRANCH  28  29
ENDBRANCH  13  28
TORSDOF 5
