REMARK  Name = 132560575
REMARK  11 active torsions:
REMARK  status: ('A' for Active; 'I' for Inactive)
REMARK    1  A    between atoms: N_2  and  CA_5
REMARK    2  A    between atoms: C_3  and  CA_18
REMARK    3  A    between atoms: CA_5  and  C_8
REMARK    4  A    between atoms: CA_5  and  CB_15
REMARK    5  A    between atoms: N_7  and  CA_10
REMARK    6  A    between atoms: CA_10  and  C_12
REMARK    7  A    between atoms: C_12  and  O_13
REMARK    8  A    between atoms: CA_18  and  N_19
REMARK    9  A    between atoms: CA_18  and  CB_23
REMARK   10  A    between atoms: CB_23  and  CG_24
REMARK   11  A    between atoms: CG_24  and  SD_25
REMARK                            x       y       z     vdW  Elec       q    Type
REMARK                         _______ _______ _______ _____ _____    ______ ____
ROOT
ATOM      1  O   MET A   1      -1.192  -0.289   1.884  0.00  0.00    -0.277 OA
ATOM      2  N   VAL A   2      -0.716  -1.464  -0.061  0.00  0.00    -0.300 N 
ATOM      3  C   MET A   1      -1.560  -0.825   0.840  0.00  0.00    +0.202 C 
ATOM      4  H   VAL A   2      -1.111  -1.862  -0.869  0.00  0.00    +0.150 HD
ENDROOT
BRANCH   2   5
ATOM      5  CA  VAL A   2       0.709  -1.573   0.128  0.00  0.00    +0.148 C 
BRANCH   5   8
ATOM      6  O   VAL A   2       0.724   0.574  -1.003  0.00  0.00    -0.273 OA
ATOM      7  N   GLY A   3       2.711  -0.234  -0.116  0.00  0.00    -0.294 N 
ATOM      8  C   VAL A   2       1.356  -0.298  -0.410  0.00  0.00    +0.241 C 
ATOM      9  H   GLY A   3       3.124  -0.988   0.364  0.00  0.00    +0.150 HD
BRANCH   7  10
ATOM     10  CA  GLY A   3       3.543   0.889  -0.482  0.00  0.00    +0.200 C 
BRANCH  10  12
ATOM     11  OXT GLY A   3       4.231   2.993   0.464  0.00  0.00    -0.248 OA
ATOM     12  C   GLY A   3       3.589   1.956   0.582  0.00  0.00    +0.334 C 
BRANCH  12  13
ATOM     13  O   GLY A   3       2.854   1.659   1.678  0.00  0.00    -0.479 OA
ATOM     14  H   GLY A   3       2.381   0.851   1.720  0.00  0.00    +0.295 HD
ENDBRANCH  12  13
ENDBRANCH  10  12
ENDBRANCH   7  10
ENDBRANCH   5   8
BRANCH   5  15
ATOM     15  CB  VAL A   2       1.308  -2.845  -0.508  0.00  0.00    +0.027 C 
ATOM     16  CG1 VAL A   2       1.172  -2.814  -2.034  0.00  0.00    +0.002 C 
ATOM     17  CG2 VAL A   2       0.696  -4.138   0.042  0.00  0.00    +0.002 C 
ENDBRANCH   5  15
ENDBRANCH   2   5
BRANCH   3  18
ATOM     18  CA  MET A   1      -3.019  -0.866   0.393  0.00  0.00    +0.014 C 
BRANCH  18  19
ATOM     19  N   MET A   1      -3.865  -0.952   1.582  0.00  0.00    +0.387 N 
ATOM     20  H1  MET A   1      -3.592  -1.765   2.135  0.00  0.00    -0.089 HD
ATOM     21  H2  MET A   1      -4.840  -1.045   1.299  0.00  0.00    -0.089 HD
ATOM     22  H3  MET A   1      -3.751  -0.107   2.142  0.00  0.00    -0.089 HD
ENDBRANCH  18  19
BRANCH  18  23
ATOM     23  CB  MET A   1      -3.384   0.346  -0.482  0.00  0.00    -0.001 C 
BRANCH  23  24
ATOM     24  CG  MET A   1      -3.252   1.694   0.231  0.00  0.00    +0.056 C 
BRANCH  24  25
ATOM     25  SD  MET A   1      -3.717   3.053  -0.884  0.00  0.00    -0.139 S 
ATOM     26  CE  MET A   1      -2.189   3.136  -1.844  0.00  0.00    +0.069 C 
ENDBRANCH  24  25
ENDBRANCH  23  24
ENDBRANCH  18  23
ENDBRANCH   3  18
TORSDOF 11
