REMARK  Name = 13255596
REMARK  13 active torsions:
REMARK  status: ('A' for Active; 'I' for Inactive)
REMARK    1  A    between atoms: C_2  and  O_16
REMARK    2  A    between atoms: C_3  and  O_18
REMARK    3  A    between atoms: C_4  and  C_20
REMARK    4  A    between atoms: C_5  and  N_7
REMARK    5  A    between atoms: C_20  and  O_21
REMARK    6  A    between atoms: O_21  and  P_22
REMARK    7  A    between atoms: P_22  and  O_24
REMARK    8  A    between atoms: P_22  and  O_26
REMARK    9  A    between atoms: O_26  and  C_27
REMARK   10  A    between atoms: C_27  and  C_28
REMARK   11  A    between atoms: C_28  and  C_29
REMARK   12  A    between atoms: C_29  and  C_31
REMARK   13  A    between atoms: C_31  and  O_32
REMARK                            x       y       z     vdW  Elec       q    Type
REMARK                         _______ _______ _______ _____ _____    ______ ____
ROOT
ATOM      1  O   UNL     1      -0.776   2.029  -0.617  0.00  0.00    -0.332 OA
ATOM      2  C   UNL     1      -0.717   2.925   1.598  0.00  0.00    +0.171 C 
ATOM      3  C   UNL     1      -1.645   1.728   1.562  0.00  0.00    +0.188 C 
ATOM      4  C   UNL     1       0.029   2.838   0.266  0.00  0.00    +0.176 C 
ATOM      5  C   UNL     1      -1.966   1.634   0.079  0.00  0.00    +0.236 C 
ENDROOT
BRANCH   5   7
ATOM      6  O   UNL     1      -4.629   0.737  -0.123  0.00  0.00    -0.193 OA
ATOM      7  N   UNL     1      -2.369   0.330  -0.355  0.00  0.00    -0.178 N 
ATOM      8  N   UNL     1      -4.051  -1.331  -0.860  0.00  0.00    -0.306 NA
ATOM      9  N   UNL     1      -3.451  -3.448  -1.613  0.00  0.00    -0.332 N 
ATOM     10  C   UNL     1      -1.391  -0.590  -0.710  0.00  0.00    +0.083 C 
ATOM     11  C   UNL     1      -3.734  -0.053  -0.432  0.00  0.00    +0.276 C 
ATOM     12  C   UNL     1      -1.675  -1.824  -1.122  0.00  0.00    +0.065 C 
ATOM     13  C   UNL     1      -3.115  -2.183  -1.190  0.00  0.00    +0.193 C 
ATOM     14  H   UNL     1      -4.397  -3.714  -1.667  0.00  0.00    +0.145 HD
ATOM     15  H   UNL     1      -2.745  -4.088  -1.860  0.00  0.00    +0.145 HD
ENDBRANCH   5   7
BRANCH   2  16
ATOM     16  O   UNL     1      -1.493   4.121   1.602  0.00  0.00    -0.379 OA
ATOM     17  H   UNL     1      -1.974   4.192   2.442  0.00  0.00    +0.211 HD
ENDBRANCH   2  16
BRANCH   3  18
ATOM     18  O   UNL     1      -0.925   0.585   2.009  0.00  0.00    -0.378 OA
ATOM     19  H   UNL     1      -0.735   0.672   2.956  0.00  0.00    +0.211 HD
ENDBRANCH   3  18
BRANCH   4  20
ATOM     20  C   UNL     1       1.398   2.183   0.380  0.00  0.00    +0.186 C 
BRANCH  20  21
ATOM     21  O   UNL     1       1.993   2.145  -0.905  0.00  0.00    -0.271 OA
BRANCH  21  22
ATOM     22  P   UNL     1       3.464   1.499  -1.099  0.00  0.00    +0.476 P 
ATOM     23  O   UNL     1       3.979   1.521  -2.510  0.00  0.00    -0.227 OA
BRANCH  22  24
ATOM     24  O   UNL     1       4.393   2.302  -0.044  0.00  0.00    -0.302 OA
ATOM     25  H   UNL     1       4.000   2.245   0.841  0.00  0.00    +0.222 HD
ENDBRANCH  22  24
BRANCH  22  26
ATOM     26  O   UNL     1       3.360   0.021  -0.443  0.00  0.00    -0.273 OA
BRANCH  26  27
ATOM     27  C   UNL     1       2.899  -1.046  -1.254  0.00  0.00    +0.154 C 
BRANCH  27  28
ATOM     28  C   UNL     1       2.877  -2.339  -0.449  0.00  0.00    +0.044 C 
BRANCH  28  29
ATOM     29  C   UNL     1       1.972  -2.241   0.780  0.00  0.00    +0.112 C 
BRANCH  29  31
ATOM     30  O   UNL     1       2.510  -4.570   1.243  0.00  0.00    -0.250 OA
ATOM     31  C   UNL     1       1.926  -3.540   1.551  0.00  0.00    +0.314 C 
BRANCH  31  32
ATOM     32  O   UNL     1       1.139  -3.435   2.654  0.00  0.00    -0.480 OA
ATOM     33  H   UNL     1       0.712  -2.624   2.850  0.00  0.00    +0.295 HD
ENDBRANCH  31  32
ENDBRANCH  29  31
ENDBRANCH  28  29
ENDBRANCH  27  28
ENDBRANCH  26  27
ENDBRANCH  22  26
ENDBRANCH  21  22
ENDBRANCH  20  21
ENDBRANCH   4  20
TORSDOF 13
