132560575
  -OEChem-03292013293D

 43 42  0     1  0  0  0  0  0999 V2000
   -3.7175    3.0530   -0.8836 S   0  0  0  0  0  0  0  0  0  0  0  0
    0.7238    0.5735   -1.0027 O   0  0  0  0  0  0  0  0  0  0  0  0
   -1.1917   -0.2893    1.8839 O   0  0  0  0  0  0  0  0  0  0  0  0
    2.8545    1.6587    1.6784 O   0  0  0  0  0  0  0  0  0  0  0  0
    4.2307    2.9927    0.4643 O   0  0  0  0  0  0  0  0  0  0  0  0
   -0.7155   -1.4638   -0.0608 N   0  0  0  0  0  0  0  0  0  0  0  0
    2.7109   -0.2342   -0.1161 N   0  0  0  0  0  0  0  0  0  0  0  0
   -3.8645   -0.9521    1.5819 N   0  0  0  0  0  0  0  0  0  0  0  0
    0.7090   -1.5730    0.1276 C   0  0  1  0  0  0  0  0  0  0  0  0
    1.3078   -2.8453   -0.5084 C   0  0  0  0  0  0  0  0  0  0  0  0
   -3.0187   -0.8656    0.3932 C   0  0  2  0  0  0  0  0  0  0  0  0
    1.1722   -2.8140   -2.0338 C   0  0  0  0  0  0  0  0  0  0  0  0
    0.6958   -4.1381    0.0417 C   0  0  0  0  0  0  0  0  0  0  0  0
    1.3563   -0.2985   -0.4103 C   0  0  0  0  0  0  0  0  0  0  0  0
   -1.5600   -0.8249    0.8404 C   0  0  0  0  0  0  0  0  0  0  0  0
   -3.3844    0.3459   -0.4821 C   0  0  0  0  0  0  0  0  0  0  0  0
   -3.2519    1.6942    0.2309 C   0  0  0  0  0  0  0  0  0  0  0  0
    3.5433    0.8886   -0.4816 C   0  0  0  0  0  0  0  0  0  0  0  0
    3.5893    1.9558    0.5815 C   0  0  0  0  0  0  0  0  0  0  0  0
   -2.1894    3.1365   -1.8443 C   0  0  0  0  0  0  0  0  0  0  0  0
    0.9013   -1.5970    1.2086 H   0  0  0  0  0  0  0  0  0  0  0  0
    2.3807   -2.8833   -0.2818 H   0  0  0  0  0  0  0  0  0  0  0  0
   -1.1111   -1.8026   -0.9323 H   0  0  0  0  0  0  0  0  0  0  0  0
   -3.1825   -1.7767   -0.1957 H   0  0  0  0  0  0  0  0  0  0  0  0
   -0.3677   -4.2193   -0.2059 H   0  0  0  0  0  0  0  0  0  0  0  0
    0.1267   -2.8243   -2.3572 H   0  0  0  0  0  0  0  0  0  0  0  0
    1.2045   -5.0146   -0.3738 H   0  0  0  0  0  0  0  0  0  0  0  0
    0.7960   -4.1779    1.1313 H   0  0  0  0  0  0  0  0  0  0  0  0
    1.6576   -1.9355   -2.4699 H   0  0  0  0  0  0  0  0  0  0  0  0
    1.6547   -3.6947   -2.4730 H   0  0  0  0  0  0  0  0  0  0  0  0
   -2.7373    0.3268   -1.3674 H   0  0  0  0  0  0  0  0  0  0  0  0
   -4.4146    0.2192   -0.8416 H   0  0  0  0  0  0  0  0  0  0  0  0
   -3.9290    1.7370    1.0898 H   0  0  0  0  0  0  0  0  0  0  0  0
   -2.2377    1.8652    0.6035 H   0  0  0  0  0  0  0  0  0  0  0  0
    3.1392   -0.9735    0.4324 H   0  0  0  0  0  0  0  0  0  0  0  0
   -3.6788   -1.8267    2.0715 H   0  0  0  0  0  0  0  0  0  0  0  0
   -4.8443   -0.9844    1.3030 H   0  0  0  0  0  0  0  0  0  0  0  0
    3.1624    1.3335   -1.4056 H   0  0  0  0  0  0  0  0  0  0  0  0
    4.5555    0.5045   -0.6356 H   0  0  0  0  0  0  0  0  0  0  0  0
   -2.2482    3.9861   -2.5303 H   0  0  0  0  0  0  0  0  0  0  0  0
   -2.0482    2.2311   -2.4389 H   0  0  0  0  0  0  0  0  0  0  0  0
   -1.3279    3.2863   -1.1882 H   0  0  0  0  0  0  0  0  0  0  0  0
    2.9006    2.3680    2.3545 H   0  0  0  0  0  0  0  0  0  0  0  0
  1 17  1  0  0  0  0
  1 20  1  0  0  0  0
  2 14  2  0  0  0  0
  3 15  2  0  0  0  0
  4 19  1  0  0  0  0
  4 43  1  0  0  0  0
  5 19  2  0  0  0  0
  6  9  1  0  0  0  0
  6 15  1  0  0  0  0
  6 23  1  0  0  0  0
  7 14  1  0  0  0  0
  7 18  1  0  0  0  0
  7 35  1  0  0  0  0
  8 11  1  0  0  0  0
  8 36  1  0  0  0  0
  8 37  1  0  0  0  0
  9 10  1  0  0  0  0
  9 14  1  0  0  0  0
  9 21  1  0  0  0  0
 10 12  1  0  0  0  0
 10 13  1  0  0  0  0
 10 22  1  0  0  0  0
 11 15  1  0  0  0  0
 11 16  1  0  0  0  0
 11 24  1  0  0  0  0
 12 26  1  0  0  0  0
 12 29  1  0  0  0  0
 12 30  1  0  0  0  0
 13 25  1  0  0  0  0
 13 27  1  0  0  0  0
 13 28  1  0  0  0  0
 16 17  1  0  0  0  0
 16 31  1  0  0  0  0
 16 32  1  0  0  0  0
 17 33  1  0  0  0  0
 17 34  1  0  0  0  0
 18 19  1  0  0  0  0
 18 38  1  0  0  0  0
 18 39  1  0  0  0  0
 20 40  1  0  0  0  0
 20 41  1  0  0  0  0
 20 42  1  0  0  0  0
M  END
> <PUBCHEM_COMPOUND_CID>
132560575

> <PUBCHEM_CONFORMER_RMSD>
1

> <PUBCHEM_CONFORMER_DIVERSEORDER>
1
31
40
39
33
22
37
35
24
12
48
9
10
17
29
47
23
46
36
41
14
26
8
50
5
13
19
43
7
21
11
18
44
25
45
3
16
32
38
30
4
51
49
42
20
28
15
27
52
6
2
34

> <PUBCHEM_MMFF94_PARTIAL_CHARGES>
21
1 -0.46
11 0.33
14 0.57
15 0.57
17 0.23
18 0.36
19 0.66
2 -0.57
20 0.23
23 0.37
3 -0.57
35 0.37
36 0.36
37 0.36
4 -0.65
43 0.5
5 -0.57
6 -0.73
7 -0.73
8 -0.99
9 0.36

> <PUBCHEM_EFFECTIVE_ROTOR_COUNT>
11

> <PUBCHEM_PHARMACOPHORE_FEATURES>
11
1 2 acceptor
1 20 hydrophobe
1 3 acceptor
1 4 acceptor
1 5 acceptor
1 6 donor
1 7 donor
1 8 cation
1 8 donor
3 10 12 13 hydrophobe
3 4 5 19 anion

> <PUBCHEM_HEAVY_ATOM_COUNT>
20

> <PUBCHEM_ATOM_DEF_STEREO_COUNT>
2

> <PUBCHEM_ATOM_UDEF_STEREO_COUNT>
0

> <PUBCHEM_BOND_DEF_STEREO_COUNT>
0

> <PUBCHEM_BOND_UDEF_STEREO_COUNT>
0

> <PUBCHEM_ISOTOPIC_ATOM_COUNT>
0

> <PUBCHEM_COMPONENT_COUNT>
1

> <PUBCHEM_CACTVS_TAUTO_COUNT>
4

> <PUBCHEM_CONFORMER_ID>
07E6B6BF00000001

> <PUBCHEM_MMFF94_ENERGY>
29.6501

> <PUBCHEM_FEATURE_SELFOVERLAP>
55.88

> <PUBCHEM_SHAPE_FINGERPRINT>
10764073 3 17319266750592795010
10871710 139 16824472692267295796
11221954 11 18261951839058476325
11833330 49 17547280567983217618
12549972 3 17679605362457005387
12596602 18 16371568249043477104
12892183 10 17749666393570650952
13134695 92 17691118241031478823
13294875 104 17245541175492165259
14178000 22 18268704081804038450
15295992 7 17829906334605765609
17980427 23 17834352823325072595
18186145 218 17988656232552369234
20600515 1 16806458079436352867
21033648 29 18342171228332396768
21524375 3 18200881785097544758
23557571 272 17895773854246651819
23559900 14 18195521493954721842
3187 122 17895198861184099705
6049 1 18045808722616147835
621550 34 18337687368601227515
633830 44 17488485064282175264
6913067 236 18340479093075072947
7399639 24 18337401512678708051
7808743 9 17978512267446020776
81228 2 17406828961404628378
84936 182 18271807865384036602
9862522 239 18339626949692713572
9925002 15 17474954701919067375
9981440 41 18337660984173731081

> <PUBCHEM_SHAPE_MULTIPOLES>
377.02
7.39
4.7
1.56
3.47
0.14
-0.1
-6.52
0.19
-3.09
-0.74
0.37
-0.01
3.07

> <PUBCHEM_SHAPE_SELFOVERLAP>
712.159

> <PUBCHEM_SHAPE_VOLUME>
234.8

> <PUBCHEM_COORDINATE_TYPE>
2
5
10

$$$$
