132566764
  -OEChem-03292013293D

 47 51  0     1  0  0  0  0  0999 V2000
   -0.1081   -0.2190   -0.3286 O   0  0  0  0  0  0  0  0  0  0  0  0
    0.9088    3.0251    0.2902 O   0  0  0  0  0  0  0  0  0  0  0  0
    1.4292   -1.2152   -1.8299 O   0  0  0  0  0  0  0  0  0  0  0  0
   -0.8306    4.3488   -0.4221 O   0  0  0  0  0  0  0  0  0  0  0  0
    5.5731   -0.8521    0.2219 O   0  0  0  0  0  0  0  0  0  0  0  0
    4.6129   -2.9586    0.1948 O   0  0  0  0  0  0  0  0  0  0  0  0
   -4.4525   -1.8193    1.9150 O   0  0  0  0  0  0  0  0  0  0  0  0
   -5.3757   -2.8979   -0.4751 O   0  0  0  0  0  0  0  0  0  0  0  0
    1.9140    1.0069   -0.7062 C   0  0  1  0  0  0  0  0  0  0  0  0
    1.1382    1.6270    0.4641 C   0  0  2  0  0  0  0  0  0  0  0  0
   -0.2031    0.9344    0.5041 C   0  0  1  0  0  0  0  0  0  0  0  0
    3.2038    0.4050   -0.1082 C   0  0  1  0  0  0  0  0  0  0  0  0
    0.9187    0.0089   -1.3111 C   0  0  2  0  0  0  0  0  0  0  0  0
    1.9832    1.3680    1.6634 C   0  0  0  0  0  0  0  0  0  0  0  0
    3.0858    0.6822    1.3589 C   0  0  0  0  0  0  0  0  0  0  0  0
   -1.0980    1.9785   -0.0597 C   0  0  0  0  0  0  0  0  0  0  0  0
    3.3856   -1.0341   -0.4437 C   0  0  0  0  0  0  0  0  0  0  0  0
   -0.3754    3.2644   -0.1058 C   0  0  0  0  0  0  0  0  0  0  0  0
    2.5576   -1.7068   -1.2465 C   0  0  0  0  0  0  0  0  0  0  0  0
   -2.3516    1.8466   -0.4988 C   0  0  0  0  0  0  0  0  0  0  0  0
    4.5755   -1.7505    0.0250 C   0  0  0  0  0  0  0  0  0  0  0  0
   -3.1440    0.6033   -0.4895 C   0  0  0  0  0  0  0  0  0  0  0  0
   -3.4300   -0.0319    0.7190 C   0  0  0  0  0  0  0  0  0  0  0  0
   -3.6075    0.0622   -1.6886 C   0  0  0  0  0  0  0  0  0  0  0  0
    6.8109   -1.4027    0.6844 C   0  0  0  0  0  0  0  0  0  0  0  0
   -4.1794   -1.2082    0.7284 C   0  0  0  0  0  0  0  0  0  0  0  0
   -4.3568   -1.1144   -1.6792 C   0  0  0  0  0  0  0  0  0  0  0  0
   -4.6429   -1.7495   -0.4707 C   0  0  0  0  0  0  0  0  0  0  0  0
   -3.9419   -1.2011    3.0946 C   0  0  0  0  0  0  0  0  0  0  0  0
    2.1906    1.7480   -1.4678 H   0  0  0  0  0  0  0  0  0  0  0  0
   -0.5206    0.6422    1.5108 H   0  0  0  0  0  0  0  0  0  0  0  0
    4.0541    0.9811   -0.4971 H   0  0  0  0  0  0  0  0  0  0  0  0
    0.4143    0.4982   -2.1540 H   0  0  0  0  0  0  0  0  0  0  0  0
    1.7257    1.6850    2.6642 H   0  0  0  0  0  0  0  0  0  0  0  0
    3.8308    0.4005    2.0904 H   0  0  0  0  0  0  0  0  0  0  0  0
    2.7151   -2.7274   -1.5708 H   0  0  0  0  0  0  0  0  0  0  0  0
   -2.8709    2.7017   -0.9262 H   0  0  0  0  0  0  0  0  0  0  0  0
   -3.0564    0.4365    1.6237 H   0  0  0  0  0  0  0  0  0  0  0  0
   -3.3913    0.5457   -2.6382 H   0  0  0  0  0  0  0  0  0  0  0  0
    7.5249   -0.5831    0.8005 H   0  0  0  0  0  0  0  0  0  0  0  0
    7.2066   -2.1128   -0.0480 H   0  0  0  0  0  0  0  0  0  0  0  0
    6.6702   -1.8866    1.6556 H   0  0  0  0  0  0  0  0  0  0  0  0
   -4.7113   -1.5253   -2.6207 H   0  0  0  0  0  0  0  0  0  0  0  0
   -5.6087   -3.1216   -1.3926 H   0  0  0  0  0  0  0  0  0  0  0  0
   -2.8466   -1.1805    3.0986 H   0  0  0  0  0  0  0  0  0  0  0  0
   -4.3796   -0.2096    3.2528 H   0  0  0  0  0  0  0  0  0  0  0  0
   -4.2499   -1.8222    3.9423 H   0  0  0  0  0  0  0  0  0  0  0  0
  1 11  1  0  0  0  0
  1 13  1  0  0  0  0
  2 10  1  0  0  0  0
  2 18  1  0  0  0  0
  3 13  1  0  0  0  0
  3 19  1  0  0  0  0
  4 18  2  0  0  0  0
  5 21  1  0  0  0  0
  5 25  1  0  0  0  0
  6 21  2  0  0  0  0
  7 26  1  0  0  0  0
  7 29  1  0  0  0  0
  8 28  1  0  0  0  0
  8 44  1  0  0  0  0
  9 10  1  0  0  0  0
  9 12  1  0  0  0  0
  9 13  1  0  0  0  0
  9 30  1  0  0  0  0
 10 11  1  0  0  0  0
 10 14  1  0  0  0  0
 11 16  1  0  0  0  0
 11 31  1  0  0  0  0
 12 15  1  0  0  0  0
 12 17  1  0  0  0  0
 12 32  1  0  0  0  0
 13 33  1  0  0  0  0
 14 15  2  0  0  0  0
 14 34  1  0  0  0  0
 15 35  1  0  0  0  0
 16 18  1  0  0  0  0
 16 20  2  0  0  0  0
 17 19  2  0  0  0  0
 17 21  1  0  0  0  0
 19 36  1  0  0  0  0
 20 22  1  0  0  0  0
 20 37  1  0  0  0  0
 22 23  2  0  0  0  0
 22 24  1  0  0  0  0
 23 26  1  0  0  0  0
 23 38  1  0  0  0  0
 24 27  2  0  0  0  0
 24 39  1  0  0  0  0
 25 40  1  0  0  0  0
 25 41  1  0  0  0  0
 25 42  1  0  0  0  0
 26 28  2  0  0  0  0
 27 28  1  0  0  0  0
 27 43  1  0  0  0  0
 29 45  1  0  0  0  0
 29 46  1  0  0  0  0
 29 47  1  0  0  0  0
M  END
> <PUBCHEM_COMPOUND_CID>
132566764

> <PUBCHEM_CONFORMER_RMSD>
0.8

> <PUBCHEM_CONFORMER_DIVERSEORDER>
1
13
6
12
5
7
10
9
4
8
11
3
2

> <PUBCHEM_MMFF94_PARTIAL_CHARGES>
36
1 -0.56
10 0.42
11 0.42
12 0.28
13 0.56
14 -0.29
15 -0.29
16 -0.12
17 -0.12
18 0.71
19 -0.07
2 -0.43
20 -0.18
21 0.71
22 0.03
23 -0.15
24 -0.15
25 0.28
26 0.08
27 -0.15
28 0.08
29 0.28
3 -0.36
34 0.15
35 0.15
36 0.15
37 0.15
38 0.15
39 0.15
4 -0.57
43 0.15
44 0.45
5 -0.43
6 -0.57
7 -0.36
8 -0.53

> <PUBCHEM_EFFECTIVE_ROTOR_COUNT>
4.6

> <PUBCHEM_PHARMACOPHORE_FEATURES>
11
1 1 acceptor
1 3 acceptor
1 4 acceptor
1 6 acceptor
1 7 acceptor
1 8 donor
5 1 9 10 11 13 rings
5 2 10 11 16 18 rings
5 9 10 12 14 15 rings
6 22 23 24 26 27 28 rings
6 3 9 12 13 17 19 rings

> <PUBCHEM_HEAVY_ATOM_COUNT>
29

> <PUBCHEM_ATOM_DEF_STEREO_COUNT>
5

> <PUBCHEM_ATOM_UDEF_STEREO_COUNT>
0

> <PUBCHEM_BOND_DEF_STEREO_COUNT>
1

> <PUBCHEM_BOND_UDEF_STEREO_COUNT>
0

> <PUBCHEM_ISOTOPIC_ATOM_COUNT>
0

> <PUBCHEM_COMPONENT_COUNT>
1

> <PUBCHEM_CACTVS_TAUTO_COUNT>
5

> <PUBCHEM_CONFORMER_ID>
07E6CEEC00000001

> <PUBCHEM_MMFF94_ENERGY>
97.9869

> <PUBCHEM_FEATURE_SELFOVERLAP>
57.229

> <PUBCHEM_SHAPE_FINGERPRINT>
10928967 22 18342468044673858359
11135609 12 18261965067541852433
11488393 25 18044385052104843212
11796584 16 17676765388104414594
11828532 37 17679029442140986003
12363563 72 18335702771397764057
12422481 6 17632305510116885286
12553582 1 18271262580942320775
12633257 1 17346602971384780379
12769317 202 7853583395735560534
13103583 49 17703802409254199827
13140716 1 18272652294778421225
13544653 18 18409732858772163429
13782708 43 17987235526792612206
14341114 328 15554167089976065411
14790565 3 17620466248420191916
14849402 71 16486115366794222562
14950920 106 16630236008845963011
15510800 12 18042121128067896107
17492 89 18196084676395773703
17974551 9 15192226352089333871
1813 80 18270977815968270949
18927931 339 18340209578970118270
19315092 285 16772084038705821295
20642791 268 16487262058094542176
20739085 24 18130510845869469188
21033650 10 17168974604939665461
21304303 282 17536020078793222853
21796203 349 18125468477181121576
22393880 68 15574714733095380827
23559900 14 18336532842093746188
2838139 119 10953464033349012666
3737641 26 17559690438388878606
392239 28 16128083572320444475
463206 1 18261115201046970939
5104073 3 18060133232531422873
633830 44 11170177744997208241
6431902 208 18336263462082784946
6669772 16 17834404797379254940
7970288 3 18410571825005278863

> <PUBCHEM_SHAPE_MULTIPOLES>
549.85
12
3.5
1.79
5.23
2.41
0.95
-12.59
2.05
-0.58
-0.12
-2.03
-0.77
0.97

> <PUBCHEM_SHAPE_SELFOVERLAP>
1235.083

> <PUBCHEM_SHAPE_VOLUME>
291.2

> <PUBCHEM_COORDINATE_TYPE>
2
5
10

$$$$
