132558561
  -OEChem-03292013293D

 50 54  0     1  0  0  0  0  0999 V2000
    4.3168   -0.5032    0.0311 O   0  0  0  0  0  0  0  0  0  0  0  0
    2.1039   -2.4118    0.3468 O   0  0  0  0  0  0  0  0  0  0  0  0
   -3.1056   -0.6745    0.8994 O   0  0  0  0  0  0  0  0  0  0  0  0
   -0.5347   -1.1498   -0.7409 O   0  0  0  0  0  0  0  0  0  0  0  0
    2.3062    3.2975   -0.0832 O   0  0  0  0  0  0  0  0  0  0  0  0
    3.3170   -4.1763    1.1710 O   0  0  0  0  0  0  0  0  0  0  0  0
   -5.8706   -1.1783    0.1629 O   0  0  0  0  0  0  0  0  0  0  0  0
    0.2270    4.6634    0.5008 O   0  0  0  0  0  0  0  0  0  0  0  0
    2.2635   -1.4934   -0.7437 C   0  0  2  0  0  0  0  0  0  0  0  0
    3.7617   -1.3901   -0.9367 C   0  0  2  0  0  0  0  0  0  0  0  0
    1.6074   -0.1804   -0.4280 C   0  0  0  0  0  0  0  0  0  0  0  0
    2.3390    0.9217   -0.1904 C   0  0  0  0  0  0  0  0  0  0  0  0
    3.8546    0.8525   -0.1030 C   0  0  1  0  0  0  0  0  0  0  0  0
    4.2216   -2.7936   -0.6055 C   0  0  0  0  0  0  0  0  0  0  0  0
    0.1206   -0.1487   -0.4748 C   0  0  0  0  0  0  0  0  0  0  0  0
   -0.5487    1.1268   -0.1737 C   0  0  0  0  0  0  0  0  0  0  0  0
    1.6707    2.2497   -0.0762 C   0  0  0  0  0  0  0  0  0  0  0  0
    3.2021   -3.2265    0.4120 C   0  0  0  0  0  0  0  0  0  0  0  0
    0.2003    2.2847    0.0195 C   0  0  0  0  0  0  0  0  0  0  0  0
    4.4368    1.5658    1.1188 C   0  0  0  0  0  0  0  0  0  0  0  0
   -1.9460    1.1749   -0.0941 C   0  0  0  0  0  0  0  0  0  0  0  0
   -2.8440    0.0170   -0.2683 C   0  0  0  0  0  0  0  0  0  0  0  0
   -3.6608   -1.9890    0.7260 C   0  0  2  0  0  0  0  0  0  0  0  0
   -4.7981   -1.9981   -0.3015 C   0  0  2  0  0  0  0  0  0  0  0  0
   -0.4469    3.4966    0.2915 C   0  0  0  0  0  0  0  0  0  0  0  0
   -4.2985   -1.4704   -1.6457 C   0  0  0  0  0  0  0  0  0  0  0  0
   -2.5875    2.3827    0.1808 C   0  0  0  0  0  0  0  0  0  0  0  0
   -3.3463   -0.3271   -1.4676 C   0  0  0  0  0  0  0  0  0  0  0  0
   -1.8391    3.5420    0.3729 C   0  0  0  0  0  0  0  0  0  0  0  0
   -4.1225   -2.4640    2.0999 C   0  0  0  0  0  0  0  0  0  0  0  0
    1.8026   -1.9474   -1.6306 H   0  0  0  0  0  0  0  0  0  0  0  0
    4.0634   -1.0704   -1.9399 H   0  0  0  0  0  0  0  0  0  0  0  0
    4.2961    1.2752   -1.0137 H   0  0  0  0  0  0  0  0  0  0  0  0
    5.2227   -2.8140   -0.1674 H   0  0  0  0  0  0  0  0  0  0  0  0
    4.1505   -3.4598   -1.4700 H   0  0  0  0  0  0  0  0  0  0  0  0
    3.9652    1.2097    2.0422 H   0  0  0  0  0  0  0  0  0  0  0  0
    4.3247    2.6513    1.0686 H   0  0  0  0  0  0  0  0  0  0  0  0
    5.5075    1.3492    1.2120 H   0  0  0  0  0  0  0  0  0  0  0  0
   -2.8536   -2.6524    0.3873 H   0  0  0  0  0  0  0  0  0  0  0  0
   -5.1946   -3.0126   -0.4223 H   0  0  0  0  0  0  0  0  0  0  0  0
   -5.1399   -1.1406   -2.2654 H   0  0  0  0  0  0  0  0  0  0  0  0
   -3.7728   -2.2663   -2.1859 H   0  0  0  0  0  0  0  0  0  0  0  0
   -3.6714    2.4427    0.2519 H   0  0  0  0  0  0  0  0  0  0  0  0
   -3.0844    0.2407   -2.3566 H   0  0  0  0  0  0  0  0  0  0  0  0
   -2.3474    4.4782    0.5881 H   0  0  0  0  0  0  0  0  0  0  0  0
   -4.8580   -1.7781    2.5341 H   0  0  0  0  0  0  0  0  0  0  0  0
   -3.2759   -2.4899    2.7949 H   0  0  0  0  0  0  0  0  0  0  0  0
   -4.5596   -3.4657    2.0481 H   0  0  0  0  0  0  0  0  0  0  0  0
   -6.5851   -1.2303   -0.4947 H   0  0  0  0  0  0  0  0  0  0  0  0
    1.1798    4.4986    0.5679 H   0  0  0  0  0  0  0  0  0  0  0  0
  1 10  1  0  0  0  0
  1 13  1  0  0  0  0
  2  9  1  0  0  0  0
  2 18  1  0  0  0  0
  3 22  1  0  0  0  0
  3 23  1  0  0  0  0
  4 15  2  0  0  0  0
  5 17  2  0  0  0  0
  6 18  2  0  0  0  0
  7 24  1  0  0  0  0
  7 49  1  0  0  0  0
  8 25  1  0  0  0  0
  8 50  1  0  0  0  0
  9 10  1  0  0  0  0
  9 11  1  0  0  0  0
  9 31  1  0  0  0  0
 10 14  1  0  0  0  0
 10 32  1  0  0  0  0
 11 12  2  0  0  0  0
 11 15  1  0  0  0  0
 12 13  1  0  0  0  0
 12 17  1  0  0  0  0
 13 20  1  0  0  0  0
 13 33  1  0  0  0  0
 14 18  1  0  0  0  0
 14 34  1  0  0  0  0
 14 35  1  0  0  0  0
 15 16  1  0  0  0  0
 16 19  1  0  0  0  0
 16 21  2  0  0  0  0
 17 19  1  0  0  0  0
 19 25  2  0  0  0  0
 20 36  1  0  0  0  0
 20 37  1  0  0  0  0
 20 38  1  0  0  0  0
 21 22  1  0  0  0  0
 21 27  1  0  0  0  0
 22 28  2  0  0  0  0
 23 24  1  0  0  0  0
 23 30  1  0  0  0  0
 23 39  1  0  0  0  0
 24 26  1  0  0  0  0
 24 40  1  0  0  0  0
 25 29  1  0  0  0  0
 26 28  1  0  0  0  0
 26 41  1  0  0  0  0
 26 42  1  0  0  0  0
 27 29  2  0  0  0  0
 27 43  1  0  0  0  0
 28 44  1  0  0  0  0
 29 45  1  0  0  0  0
 30 46  1  0  0  0  0
 30 47  1  0  0  0  0
 30 48  1  0  0  0  0
M  END
> <PUBCHEM_COMPOUND_CID>
132558561

> <PUBCHEM_CONFORMER_RMSD>
0.8

> <PUBCHEM_CONFORMER_DIVERSEORDER>
1
15
13
14
17
2
8
12
4
11
5
7
9
6
10
16
3

> <PUBCHEM_MMFF94_PARTIAL_CHARGES>
33
1 -0.56
10 0.28
11 -0.12
12 -0.12
13 0.42
14 0.06
15 0.47
16 0.09
17 0.47
18 0.66
19 0.09
2 -0.43
21 0.03
22 0.05
23 0.28
24 0.28
25 0.08
26 0.14
27 -0.15
28 -0.29
29 -0.15
3 -0.36
4 -0.57
43 0.15
44 0.15
45 0.15
49 0.4
5 -0.57
50 0.45
6 -0.57
7 -0.68
8 -0.53
9 0.42

> <PUBCHEM_EFFECTIVE_ROTOR_COUNT>
2.6

> <PUBCHEM_PHARMACOPHORE_FEATURES>
13
1 1 acceptor
1 3 acceptor
1 4 acceptor
1 5 acceptor
1 6 acceptor
1 7 acceptor
1 7 donor
1 8 donor
5 2 9 10 14 18 rings
6 1 9 10 11 12 13 rings
6 11 12 15 16 17 19 rings
6 16 19 21 25 27 29 rings
6 3 22 23 24 26 28 rings

> <PUBCHEM_HEAVY_ATOM_COUNT>
30

> <PUBCHEM_ATOM_DEF_STEREO_COUNT>
0

> <PUBCHEM_ATOM_UDEF_STEREO_COUNT>
5

> <PUBCHEM_BOND_DEF_STEREO_COUNT>
0

> <PUBCHEM_BOND_UDEF_STEREO_COUNT>
0

> <PUBCHEM_ISOTOPIC_ATOM_COUNT>
0

> <PUBCHEM_COMPONENT_COUNT>
1

> <PUBCHEM_CACTVS_TAUTO_COUNT>
34

> <PUBCHEM_CONFORMER_ID>
07E6AEE100000001

> <PUBCHEM_MMFF94_ENERGY>
77.5297

> <PUBCHEM_FEATURE_SELFOVERLAP>
66.228

> <PUBCHEM_SHAPE_FINGERPRINT>
10411042 1 18412829049262049223
1100329 8 18050002190939060129
11578080 2 17417227880386954153
11796584 16 17531801476268550451
12107183 9 18271540719536453529
12422481 6 17703242702296531447
12553582 1 18269566094377087645
12788726 201 18121777219273587747
13004483 165 18342449297552457007
13140716 1 17837204140480673048
13544653 18 18409171043064518215
13690498 29 18198640834481818598
138480 1 14880883945000274069
13911987 19 18046071724537787228
14223421 5 18341328899361667740
14790565 3 17185602854009679477
14844126 61 18124585389051044203
14863182 85 18120937462947130484
14866123 147 17689715260205437171
15042514 8 18124883361107544813
15927050 60 17188131730985348164
17492 89 18340202982095887414
17909252 39 18339089207145634482
1813 80 18058747886936037885
19319366 153 18263648544825395022
19591789 44 17330279879420244316
20028762 73 17840585130441783142
20101258 96 18340498759044070531
20775530 9 18341333314192194783
21033650 10 14708046540984110966
21133410 171 17543293442864447087
21315759 227 18113898303221374315
21478907 32 18339360764936830717
21703447 108 18340754967229469018
221490 88 18411142403125813078
23558518 356 18264213508548667624
23559900 14 18409159987444164773
3737641 26 18340218443877523346
4015057 19 18267573793110402743
4616759 239 17482248437589753442
46194498 28 17532368854359433245
463206 1 18266457787959436079
5104073 3 18271803459169616794
5309563 4 18339648944188906183
9709674 26 18409448072364987901

> <PUBCHEM_SHAPE_MULTIPOLES>
570.43
9.91
5.23
1.17
4.04
2.26
-0.16
-8.65
-0.53
-2.19
-1.53
0.94
-0.81
0.48

> <PUBCHEM_SHAPE_SELFOVERLAP>
1278.958

> <PUBCHEM_SHAPE_VOLUME>
299.6

> <PUBCHEM_COORDINATE_TYPE>
2
5
10

$$$$
