REMARK  Name = 132569620
REMARK  12 active torsions:
REMARK  status: ('A' for Active; 'I' for Inactive)
REMARK    1  A    between atoms: C_1  and  C_2
REMARK    2  A    between atoms: C_1  and  C_12
REMARK    3  A    between atoms: C_1  and  C_22
REMARK    4  A    between atoms: C_5  and  O_8
REMARK    5  A    between atoms: C_7  and  O_10
REMARK    6  A    between atoms: C_15  and  O_18
REMARK    7  A    between atoms: C_17  and  O_20
REMARK    8  A    between atoms: C_22  and  C_23
REMARK    9  A    between atoms: C_22  and  C_33
REMARK   10  A    between atoms: C_26  and  O_29
REMARK   11  A    between atoms: C_28  and  O_31
REMARK   12  A    between atoms: C_33  and  O_34
REMARK                            x       y       z     vdW  Elec       q    Type
REMARK                         _______ _______ _______ _____ _____    ______ ____
ROOT
ATOM      1  C   UNL     1      -0.719   0.526   0.363  0.00  0.00    +0.051 C 
ENDROOT
BRANCH   1   2
ATOM      2  C   UNL     1      -2.204   0.509   0.221  0.00  0.00    -0.015 C 
ATOM      3  C   UNL     1      -3.005   0.171   1.312  0.00  0.00    +0.036 C 
ATOM      4  C   UNL     1      -2.791   0.834  -1.002  0.00  0.00    -0.001 C 
ATOM      5  C   UNL     1      -4.393   0.156   1.180  0.00  0.00    +0.167 C 
ATOM      6  C   UNL     1      -4.180   0.818  -1.134  0.00  0.00    +0.040 C 
ATOM      7  C   UNL     1      -4.981   0.480  -0.043  0.00  0.00    +0.172 C 
BRANCH   5   8
ATOM      8  O   UNL     1      -5.164  -0.174   2.253  0.00  0.00    -0.503 OA
ATOM      9  H   UNL     1      -4.761  -0.390   3.071  0.00  0.00    +0.292 HD
ENDBRANCH   5   8
BRANCH   7  10
ATOM     10  O   UNL     1      -6.335   0.469  -0.184  0.00  0.00    -0.468 OA
ATOM     11  C   UNL     1      -6.856   0.812  -1.467  0.00  0.00    +0.253 C 
ENDBRANCH   7  10
ENDBRANCH   1   2
BRANCH   1  12
ATOM     12  C   UNL     1      -0.117  -0.878   0.154  0.00  0.00    -0.015 C 
ATOM     13  C   UNL     1       0.560  -1.509   1.197  0.00  0.00    +0.036 C 
ATOM     14  C   UNL     1      -0.252  -1.518  -1.078  0.00  0.00    -0.001 C 
ATOM     15  C   UNL     1       1.103  -2.780   1.009  0.00  0.00    +0.167 C 
ATOM     16  C   UNL     1       0.292  -2.789  -1.267  0.00  0.00    +0.040 C 
ATOM     17  C   UNL     1       0.969  -3.420  -0.223  0.00  0.00    +0.172 C 
BRANCH  15  18
ATOM     18  O   UNL     1       1.760  -3.386   2.036  0.00  0.00    -0.503 OA
ATOM     19  H   UNL     1       1.846  -2.949   2.861  0.00  0.00    +0.292 HD
ENDBRANCH  15  18
BRANCH  17  20
ATOM     20  O   UNL     1       1.495  -4.661  -0.419  0.00  0.00    -0.468 OA
ATOM     21  C   UNL     1       1.314  -5.245  -1.708  0.00  0.00    +0.253 C 
ENDBRANCH  17  20
ENDBRANCH   1  12
BRANCH   1  22
ATOM     22  C   UNL     1       0.025   1.643  -0.485  0.00  0.00    +0.060 C 
BRANCH  22  23
ATOM     23  C   UNL     1       1.544   1.548  -0.318  0.00  0.00    -0.016 C 
ATOM     24  C   UNL     1       2.118   1.709   0.943  0.00  0.00    +0.036 C 
ATOM     25  C   UNL     1       2.353   1.300  -1.426  0.00  0.00    -0.001 C 
ATOM     26  C   UNL     1       3.502   1.621   1.096  0.00  0.00    +0.167 C 
ATOM     27  C   UNL     1       3.737   1.213  -1.274  0.00  0.00    +0.040 C 
ATOM     28  C   UNL     1       4.311   1.373  -0.013  0.00  0.00    +0.172 C 
BRANCH  26  29
ATOM     29  O   UNL     1       4.050   1.778   2.333  0.00  0.00    -0.503 OA
ATOM     30  H   UNL     1       3.499   1.944   3.072  0.00  0.00    +0.292 HD
ENDBRANCH  26  29
BRANCH  28  31
ATOM     31  O   UNL     1       5.664   1.285   0.124  0.00  0.00    -0.468 OA
ATOM     32  C   UNL     1       6.419   1.030  -1.058  0.00  0.00    +0.253 C 
ENDBRANCH  28  31
ENDBRANCH  22  23
BRANCH  22  33
ATOM     33  C   UNL     1      -0.442   3.073  -0.139  0.00  0.00    +0.142 C 
BRANCH  33  34
ATOM     34  O   UNL     1       0.222   4.011  -0.982  0.00  0.00    -0.382 OA
ATOM     35  H   UNL     1      -0.073   4.908  -0.762  0.00  0.00    +0.210 HD
ENDBRANCH  33  34
ENDBRANCH  22  33
ENDBRANCH   1  22
TORSDOF 12
