132535159
  -OEChem-03292013293D

 31 32  0     1  0  0  0  0  0999 V2000
   -0.5009    1.5499   -0.0324 S   0  0  1  0  0  0  0  0  0  0  0  0
   -3.4120    1.1417   -1.7175 S   0  0  0  0  0  0  0  0  0  0  0  0
    1.4311   -1.4813    1.6258 O   0  0  0  0  0  0  0  0  0  0  0  0
    2.1096   -0.6671   -1.5046 O   0  0  0  0  0  0  0  0  0  0  0  0
    2.4691    2.5321    0.2859 O   0  3  0  0  0  0  0  0  0  0  0  0
   -1.2129    2.2776    1.0703 O   0  0  0  0  0  0  0  0  0  0  0  0
    1.2240   -2.6372   -0.9206 O   0  0  0  0  0  0  0  0  0  0  0  0
   -3.4567   -1.0539   -0.3573 O   0  5  0  0  0  0  0  0  0  0  0  0
    0.7528   -0.8062    0.5646 C   0  0  2  0  0  0  0  0  0  0  0  0
    0.9510    0.6963    0.7412 C   0  0  1  0  0  0  0  0  0  0  0  0
   -0.7701   -1.0690    0.6274 C   0  0  2  0  0  0  0  0  0  0  0  0
   -1.3772   -0.0357   -0.3333 C   0  0  1  0  0  0  0  0  0  0  0  0
    2.2787    1.1459    0.1510 C   0  0  1  0  0  0  0  0  0  0  0  0
    1.3693   -1.4387   -0.6790 C   0  0  0  0  0  0  0  0  0  0  0  0
   -1.3402   -1.0259    2.0528 C   0  0  0  0  0  0  0  0  0  0  0  0
    2.3698    0.7354   -1.3047 C   0  0  0  0  0  0  0  0  0  0  0  0
   -2.8856    0.1360   -0.2696 C   0  0  1  0  0  0  0  0  0  0  0  0
    0.9210    0.9639    1.8057 H   0  0  0  0  0  0  0  0  0  0  0  0
   -0.9780   -2.0808    0.2535 H   0  0  0  0  0  0  0  0  0  0  0  0
   -1.0682   -0.3249   -1.3504 H   0  0  0  0  0  0  0  0  0  0  0  0
    3.0868    0.6519    0.7068 H   0  0  0  0  0  0  0  0  0  0  0  0
   -1.2030   -0.0485    2.5244 H   0  0  0  0  0  0  0  0  0  0  0  0
   -0.8476   -1.7690    2.6892 H   0  0  0  0  0  0  0  0  0  0  0  0
   -2.4070   -1.2612    2.0834 H   0  0  0  0  0  0  0  0  0  0  0  0
    1.6876    1.2978   -1.9522 H   0  0  0  0  0  0  0  0  0  0  0  0
    3.3804    0.9264   -1.6846 H   0  0  0  0  0  0  0  0  0  0  0  0
   -3.1333    0.7755    0.5868 H   0  0  0  0  0  0  0  0  0  0  0  0
    1.1628   -2.4162    1.6089 H   0  0  0  0  0  0  0  0  0  0  0  0
    3.3320    2.8258   -0.1049 H   0  0  0  0  0  0  0  0  0  0  0  0
    2.3909    2.8245    1.2303 H   0  0  0  0  0  0  0  0  0  0  0  0
   -4.7169    1.1722   -1.4102 H   0  0  0  0  0  0  0  0  0  0  0  0
  1  6  2  0  0  0  0
  1 10  1  0  0  0  0
  1 12  1  0  0  0  0
  2 17  1  0  0  0  0
  2 31  1  0  0  0  0
  3  9  1  0  0  0  0
  3 28  1  0  0  0  0
  4 14  1  0  0  0  0
  4 16  1  0  0  0  0
  5 13  1  0  0  0  0
  5 29  1  0  0  0  0
  5 30  1  0  0  0  0
  7 14  2  0  0  0  0
  8 17  1  0  0  0  0
  9 10  1  0  0  0  0
  9 11  1  0  0  0  0
  9 14  1  0  0  0  0
 10 13  1  0  0  0  0
 10 18  1  0  0  0  0
 11 12  1  0  0  0  0
 11 15  1  0  0  0  0
 11 19  1  0  0  0  0
 12 17  1  0  0  0  0
 12 20  1  0  0  0  0
 13 16  1  0  0  0  0
 13 21  1  0  0  0  0
 15 22  1  0  0  0  0
 15 23  1  0  0  0  0
 15 24  1  0  0  0  0
 16 25  1  0  0  0  0
 16 26  1  0  0  0  0
 17 27  1  0  0  0  0
M  CHG  2   5   1   8  -1
M  END
> <PUBCHEM_COMPOUND_CID>
132535159

> <PUBCHEM_CONFORMER_RMSD>
0.6

> <PUBCHEM_CONFORMER_DIVERSEORDER>
1
82
2
39
20
77
7
25
89
88
21
83
66
23
71
85
22
64
76
11
3
34
47
75
44
80
86
38
72
13
78
79
61
59
32
65
36
62
30
70
63
24
8
28
12
55
74
29
6
58
73
31
54
56
41
60
42
14
35
45
46
27
49
5
19
15
18
53
10
17
87
40
9
52
33
4
43
51
67
84
37
81
48
69
26
50
16
57
68

> <PUBCHEM_MMFF94_PARTIAL_CHARGES>
19
1 0.11
10 0.19
12 0.19
13 0.28
14 0.66
16 0.28
17 0.16
2 -0.41
28 0.4
29 0.57
3 -0.68
30 0.57
31 0.18
4 -0.43
5 -0.42
6 -0.5
7 -0.57
8 -0.93
9 0.34

> <PUBCHEM_EFFECTIVE_ROTOR_COUNT>
2

> <PUBCHEM_PHARMACOPHORE_FEATURES>
9
1 3 acceptor
1 3 donor
1 5 acceptor
1 5 donor
1 6 acceptor
1 7 acceptor
1 8 acceptor
5 1 9 10 11 12 rings
6 4 9 10 13 14 16 rings

> <PUBCHEM_HEAVY_ATOM_COUNT>
17

> <PUBCHEM_ATOM_DEF_STEREO_COUNT>
2

> <PUBCHEM_ATOM_UDEF_STEREO_COUNT>
5

> <PUBCHEM_BOND_DEF_STEREO_COUNT>
0

> <PUBCHEM_BOND_UDEF_STEREO_COUNT>
0

> <PUBCHEM_ISOTOPIC_ATOM_COUNT>
0

> <PUBCHEM_COMPONENT_COUNT>
1

> <PUBCHEM_CACTVS_TAUTO_COUNT>
1

> <PUBCHEM_CONFORMER_ID>
07E6537700000001

> <PUBCHEM_MMFF94_ENERGY>
49.753

> <PUBCHEM_FEATURE_SELFOVERLAP>
45.908

> <PUBCHEM_SHAPE_FINGERPRINT>
10863032 1 16806168903182119980
10948715 1 18190448549125636084
12423570 1 17986081090088677043
13132413 78 17174030047397087770
13299463 15 18059582415918764399
13464514 151 18261673666864111092
13571099 52 18114732841067855308
14761567 1 17824283521744911994
14817 1 17173785234372186898
15852999 172 18114179761033546206
15881359 60 17761225696625812490
16945 1 18270704020387485602
18186145 218 17968376724336535493
18981168 100 16951714418299182941
20511035 2 18114452470266914010
20645476 183 17242454060701173016
21296965 12 18118680165226496972
21501502 16 18269849618079617408
21524375 3 18119520187878635864
21947302 44 18040427772459221493
22112679 90 17472411058850908331
22802520 49 18265635228543595553
23402539 116 18129648837744316276
23493267 7 17531817968668673112
23557571 272 17130120062847100761
23559900 14 18335427902798413548
2748010 2 18122920977364264168
3060560 45 18057876029949637423
353137 74 18409452479102089113
5262128 65 18128822945254811773
5845 1 16018846756987812331
7364860 26 18340478968061623926
7832392 63 17912940382581975744
81228 2 17767390289272284321

> <PUBCHEM_SHAPE_MULTIPOLES>
322.34
4.46
2.37
1.62
3.01
0.19
-0.06
1.24
1.84
-0.79
-0.25
0.06
-0.27
0.69

> <PUBCHEM_SHAPE_SELFOVERLAP>
651.12

> <PUBCHEM_SHAPE_VOLUME>
191

> <PUBCHEM_COORDINATE_TYPE>
2
5
10

$$$$
