132561055
  -OEChem-03292013293D

 55 58  0     1  0  0  0  0  0999 V2000
    1.2241   -3.1713   -0.1526 O   0  0  0  0  0  0  0  0  0  0  0  0
   -1.2364    0.1981   -0.3432 O   0  0  0  0  0  0  0  0  0  0  0  0
    1.3540    0.9353    2.1213 O   0  0  0  0  0  0  0  0  0  0  0  0
   -3.8405   -0.5949   -0.8736 O   0  0  0  0  0  0  0  0  0  0  0  0
    0.9832    2.2929   -1.6795 O   0  0  0  0  0  0  0  0  0  0  0  0
    1.0651    0.1377   -2.5071 O   0  0  0  0  0  0  0  0  0  0  0  0
   -0.2185   -4.9278    0.2744 O   0  0  0  0  0  0  0  0  0  0  0  0
   -2.2427    2.0980    0.5021 O   0  0  0  0  0  0  0  0  0  0  0  0
   -0.1153    2.5625    2.8495 O   0  0  0  0  0  0  0  0  0  0  0  0
    1.8366    0.6195   -0.2594 C   0  0  1  0  0  0  0  0  0  0  0  0
    2.2553   -0.8904   -0.1457 C   0  0  1  0  0  0  0  0  0  0  0  0
    0.0679   -1.4405    0.8683 C   0  0  1  0  0  0  0  0  0  0  0  0
    1.0049   -1.7624   -0.2877 C   0  0  2  0  0  0  0  0  0  0  0  0
   -0.4386    0.0017    0.8185 C   0  0  1  0  0  0  0  0  0  0  0  0
    0.7697    0.9822    0.8175 C   0  0  1  0  0  0  0  0  0  0  0  0
   -0.8183   -2.6252    0.7487 C   0  0  0  0  0  0  0  0  0  0  0  0
    3.0822    1.4892   -0.2500 C   0  0  0  0  0  0  0  0  0  0  0  0
    3.4062   -1.2253   -1.0663 C   0  0  0  0  0  0  0  0  0  0  0  0
    1.2536    0.9579   -1.6189 C   0  0  0  0  0  0  0  0  0  0  0  0
   -3.3832    0.7360   -1.1230 C   0  0  1  0  0  0  0  0  0  0  0  0
    0.0436   -3.7392    0.2678 C   0  0  0  0  0  0  0  0  0  0  0  0
   -4.7283    0.4646   -0.5071 C   0  0  2  0  0  0  0  0  0  0  0  0
   -2.2452    1.1128   -0.2234 C   0  0  0  0  0  0  0  0  0  0  0  0
    4.2452    1.0323   -0.7488 C   0  0  0  0  0  0  0  0  0  0  0  0
    4.3409   -0.2948   -1.3237 C   0  0  0  0  0  0  0  0  0  0  0  0
   -2.1252   -2.7601    0.9747 C   0  0  0  0  0  0  0  0  0  0  0  0
   -3.2835    1.0919   -2.5612 C   0  0  0  0  0  0  0  0  0  0  0  0
   -5.0073    0.5582    0.9512 C   0  0  0  0  0  0  0  0  0  0  0  0
    0.8087    1.7834    3.0402 C   0  0  0  0  0  0  0  0  0  0  0  0
    0.4250    2.7519   -2.9147 C   0  0  0  0  0  0  0  0  0  0  0  0
    1.5166    1.6259    4.3517 C   0  0  0  0  0  0  0  0  0  0  0  0
    2.6608   -1.0762    0.8621 H   0  0  0  0  0  0  0  0  0  0  0  0
    0.6034   -1.5731    1.8217 H   0  0  0  0  0  0  0  0  0  0  0  0
    0.5224   -1.6368   -1.2618 H   0  0  0  0  0  0  0  0  0  0  0  0
   -1.0538    0.1608    1.7148 H   0  0  0  0  0  0  0  0  0  0  0  0
    0.4079    1.9988    0.6197 H   0  0  0  0  0  0  0  0  0  0  0  0
    3.0287    2.4966    0.1528 H   0  0  0  0  0  0  0  0  0  0  0  0
    3.5070   -2.2277   -1.4681 H   0  0  0  0  0  0  0  0  0  0  0  0
   -5.6160    0.6181   -1.1071 H   0  0  0  0  0  0  0  0  0  0  0  0
    5.1310    1.6572   -0.7590 H   0  0  0  0  0  0  0  0  0  0  0  0
    5.1977   -0.5208   -1.9481 H   0  0  0  0  0  0  0  0  0  0  0  0
   -2.7178   -1.9243    1.3283 H   0  0  0  0  0  0  0  0  0  0  0  0
   -2.6335   -3.7064    0.8248 H   0  0  0  0  0  0  0  0  0  0  0  0
   -4.1664    0.7729   -3.1255 H   0  0  0  0  0  0  0  0  0  0  0  0
   -2.4094    0.6151   -3.0164 H   0  0  0  0  0  0  0  0  0  0  0  0
   -3.1843    2.1755   -2.6802 H   0  0  0  0  0  0  0  0  0  0  0  0
   -4.1670    0.2183    1.5646 H   0  0  0  0  0  0  0  0  0  0  0  0
   -5.8750   -0.0587    1.2055 H   0  0  0  0  0  0  0  0  0  0  0  0
   -5.2356    1.5929    1.2243 H   0  0  0  0  0  0  0  0  0  0  0  0
    0.1676    3.8080   -2.7994 H   0  0  0  0  0  0  0  0  0  0  0  0
   -0.4836    2.1948   -3.1573 H   0  0  0  0  0  0  0  0  0  0  0  0
    1.1629    2.6540   -3.7164 H   0  0  0  0  0  0  0  0  0  0  0  0
    1.0756    2.3061    5.0859 H   0  0  0  0  0  0  0  0  0  0  0  0
    2.5737    1.8774    4.2345 H   0  0  0  0  0  0  0  0  0  0  0  0
    1.4019    0.6010    4.7135 H   0  0  0  0  0  0  0  0  0  0  0  0
  1 13  1  0  0  0  0
  1 21  1  0  0  0  0
  2 14  1  0  0  0  0
  2 23  1  0  0  0  0
  3 15  1  0  0  0  0
  3 29  1  0  0  0  0
  4 20  1  0  0  0  0
  4 22  1  0  0  0  0
  5 19  1  0  0  0  0
  5 30  1  0  0  0  0
  6 19  2  0  0  0  0
  7 21  2  0  0  0  0
  8 23  2  0  0  0  0
  9 29  2  0  0  0  0
 10 11  1  0  0  0  0
 10 15  1  0  0  0  0
 10 17  1  0  0  0  0
 10 19  1  0  0  0  0
 11 13  1  0  0  0  0
 11 18  1  0  0  0  0
 11 32  1  0  0  0  0
 12 13  1  0  0  0  0
 12 14  1  0  0  0  0
 12 16  1  0  0  0  0
 12 33  1  0  0  0  0
 13 34  1  0  0  0  0
 14 15  1  0  0  0  0
 14 35  1  0  0  0  0
 15 36  1  0  0  0  0
 16 21  1  0  0  0  0
 16 26  2  0  0  0  0
 17 24  2  0  0  0  0
 17 37  1  0  0  0  0
 18 25  2  0  0  0  0
 18 38  1  0  0  0  0
 20 22  1  0  0  0  0
 20 23  1  0  0  0  0
 20 27  1  0  0  0  0
 22 28  1  0  0  0  0
 22 39  1  0  0  0  0
 24 25  1  0  0  0  0
 24 40  1  0  0  0  0
 25 41  1  0  0  0  0
 26 42  1  0  0  0  0
 26 43  1  0  0  0  0
 27 44  1  0  0  0  0
 27 45  1  0  0  0  0
 27 46  1  0  0  0  0
 28 47  1  0  0  0  0
 28 48  1  0  0  0  0
 28 49  1  0  0  0  0
 29 31  1  0  0  0  0
 30 50  1  0  0  0  0
 30 51  1  0  0  0  0
 30 52  1  0  0  0  0
 31 53  1  0  0  0  0
 31 54  1  0  0  0  0
 31 55  1  0  0  0  0
M  END
> <PUBCHEM_COMPOUND_CID>
132561055

> <PUBCHEM_CONFORMER_RMSD>
1

> <PUBCHEM_CONFORMER_DIVERSEORDER>
1
6
8
2
7
5
4
3

> <PUBCHEM_MMFF94_PARTIAL_CHARGES>
38
1 -0.43
10 0.2
11 0.14
12 0.14
13 0.28
14 0.28
15 0.28
16 -0.12
17 -0.29
18 -0.29
19 0.66
2 -0.43
20 0.05
21 0.71
22 -0.05
23 0.72
24 -0.15
25 -0.15
26 -0.3
27 0.09
28 0.09
29 0.66
3 -0.43
30 0.28
31 0.06
37 0.15
38 0.15
39 0.1
4 -0.3
40 0.15
41 0.15
42 0.15
43 0.15
5 -0.43
6 -0.57
7 -0.57
8 -0.57
9 -0.57

> <PUBCHEM_EFFECTIVE_ROTOR_COUNT>
8.2

> <PUBCHEM_PHARMACOPHORE_FEATURES>
8
1 4 acceptor
1 6 acceptor
1 7 acceptor
1 8 acceptor
1 9 acceptor
5 1 12 13 16 21 rings
6 10 11 12 13 14 15 rings
6 10 11 17 18 24 25 rings

> <PUBCHEM_HEAVY_ATOM_COUNT>
31

> <PUBCHEM_ATOM_DEF_STEREO_COUNT>
8

> <PUBCHEM_ATOM_UDEF_STEREO_COUNT>
0

> <PUBCHEM_BOND_DEF_STEREO_COUNT>
0

> <PUBCHEM_BOND_UDEF_STEREO_COUNT>
0

> <PUBCHEM_ISOTOPIC_ATOM_COUNT>
0

> <PUBCHEM_COMPONENT_COUNT>
1

> <PUBCHEM_CACTVS_TAUTO_COUNT>
1

> <PUBCHEM_CONFORMER_ID>
07E6B89F00000001

> <PUBCHEM_MMFF94_ENERGY>
86.6083

> <PUBCHEM_FEATURE_SELFOVERLAP>
40.691

> <PUBCHEM_SHAPE_FINGERPRINT>
10165383 225 18336840748921305339
10863032 1 18334300889845876478
10930396 42 15674922375973958637
11370993 70 18334857225080254630
11421498 54 18200043824203586905
11578080 2 17767415934110792648
12058002 1 17769979802491087612
12156800 1 17831271150310145536
12160290 23 17901925759174849651
12788726 201 17200243534021411377
13009979 54 17338153005419264651
13149001 5 17988082334468906186
14787075 74 17988627593968987040
15219462 58 17767647643765862557
16945 1 18266464213403999378
17980427 26 17700940393176997104
18681886 176 18115024229277712109
19319366 153 17984442753892455641
23419403 2 17342101746847905738
23559900 14 18341901839946947012
244849 19 17558825328473989410
298252 57 17749394775633515944
3060560 45 18186514397663034839
3493558 16 18195531626057808460
35225 105 17328245645416943537
70251023 43 16558209115740285876

> <PUBCHEM_SHAPE_MULTIPOLES>
585.14
6.64
3.95
3.12
4.68
5.13
3.23
-2.06
-2.59
0.19
-0.06
-1.18
-3.3
0.88

> <PUBCHEM_SHAPE_SELFOVERLAP>
1263.509

> <PUBCHEM_SHAPE_VOLUME>
318.5

> <PUBCHEM_COORDINATE_TYPE>
2
5
10

$$$$
