REMARK  Name = 132512004
REMARK  11 active torsions:
REMARK  status: ('A' for Active; 'I' for Inactive)
REMARK    1  A    between atoms: C_3  and  C_25
REMARK    2  A    between atoms: C_4  and  O_17
REMARK    3  A    between atoms: C_6  and  O_19
REMARK    4  A    between atoms: C_13  and  O_21
REMARK    5  A    between atoms: C_15  and  O_23
REMARK    6  A    between atoms: C_25  and  C_26
REMARK    7  A    between atoms: C_25  and  C_31
REMARK    8  A    between atoms: C_26  and  C_27
REMARK    9  A    between atoms: C_27  and  C_29
REMARK   10  A    between atoms: C_31  and  O_32
REMARK   11  A    between atoms: O_32  and  C_34
REMARK                            x       y       z     vdW  Elec       q    Type
REMARK                         _______ _______ _______ _____ _____    ______ ____
ROOT
ATOM      1  O   UNL     1      -1.732   0.010  -2.373  0.00  0.00    -0.286 OA
ATOM      2  O   UNL     1      -2.469  -0.145   2.918  0.00  0.00    -0.287 OA
ATOM      3  C   UNL     1       1.652   0.072   0.098  0.00  0.00    +0.049 C 
ATOM      4  C   UNL     1       0.555   0.054  -0.763  0.00  0.00    +0.136 C 
ATOM      5  C   UNL     1      -0.743  -0.005  -0.241  0.00  0.00    +0.076 C 
ATOM      6  C   UNL     1       1.460   0.031   1.477  0.00  0.00    +0.133 C 
ATOM      7  C   UNL     1      -0.936  -0.046   1.141  0.00  0.00    +0.048 C 
ATOM      8  C   UNL     1       0.168  -0.028   2.002  0.00  0.00    +0.040 C 
ATOM      9  C   UNL     1      -1.899  -0.025  -1.160  0.00  0.00    +0.202 C 
ATOM     10  C   UNL     1      -3.263  -0.086  -0.596  0.00  0.00    +0.076 C 
ATOM     11  C   UNL     1      -2.300  -0.108   1.706  0.00  0.00    +0.196 C 
ATOM     12  C   UNL     1      -3.456  -0.126   0.787  0.00  0.00    +0.048 C 
ATOM     13  C   UNL     1      -4.368  -0.103  -1.456  0.00  0.00    +0.140 C 
ATOM     14  C   UNL     1      -4.754  -0.185   1.309  0.00  0.00    +0.040 C 
ATOM     15  C   UNL     1      -5.852  -0.202   0.448  0.00  0.00    +0.137 C 
ATOM     16  C   UNL     1      -5.659  -0.162  -0.931  0.00  0.00    +0.073 C 
ENDROOT
BRANCH   4  17
ATOM     17  O   UNL     1       0.798   0.096  -2.106  0.00  0.00    -0.506 OA
ATOM     18  H   UNL     1       1.679   0.135  -2.422  0.00  0.00    +0.292 HD
ENDBRANCH   4  17
BRANCH   6  19
ATOM     19  O   UNL     1       2.522   0.048   2.331  0.00  0.00    -0.506 OA
ATOM     20  H   UNL     1       3.394   0.087   1.993  0.00  0.00    +0.292 HD
ENDBRANCH   6  19
BRANCH  13  21
ATOM     21  O   UNL     1      -4.253  -0.066  -2.814  0.00  0.00    -0.505 OA
ATOM     22  H   UNL     1      -3.405  -0.026  -3.212  0.00  0.00    +0.292 HD
ENDBRANCH  13  21
BRANCH  15  23
ATOM     23  O   UNL     1      -7.113  -0.259   0.957  0.00  0.00    -0.505 OA
ATOM     24  H   UNL     1      -7.244  -0.286   1.884  0.00  0.00    +0.292 HD
ENDBRANCH  15  23
BRANCH   3  25
ATOM     25  C   UNL     1       3.041   0.136  -0.455  0.00  0.00    +0.073 C 
BRANCH  25  26
ATOM     26  C   UNL     1       3.928  -1.081  -0.057  0.00  0.00    +0.016 C 
BRANCH  26  27
ATOM     27  C   UNL     1       3.414  -2.426  -0.579  0.00  0.00    +0.065 C 
BRANCH  27  29
ATOM     28  O   UNL     1       5.393  -3.467   0.339  0.00  0.00    -0.296 OA
ATOM     29  C   UNL     1       4.321  -3.599  -0.249  0.00  0.00    +0.151 C 
ATOM     30  C   UNL     1       3.861  -4.950  -0.730  0.00  0.00    +0.072 C 
ENDBRANCH  27  29
ENDBRANCH  26  27
ENDBRANCH  25  26
BRANCH  25  31
ATOM     31  C   UNL     1       3.777   1.432  -0.035  0.00  0.00    +0.213 C 
BRANCH  31  32
ATOM     32  O   UNL     1       3.037   2.560  -0.487  0.00  0.00    -0.448 OA
BRANCH  32  34
ATOM     33  O   UNL     1       4.611   3.981   0.427  0.00  0.00    -0.250 OA
ATOM     34  C   UNL     1       3.572   3.781  -0.186  0.00  0.00    +0.318 C 
ATOM     35  C   UNL     1       2.690   4.869  -0.721  0.00  0.00    +0.121 C 
ENDBRANCH  32  34
ENDBRANCH  31  32
ENDBRANCH  25  31
ENDBRANCH   3  25
TORSDOF 11
