132608877
  -OEChem-03292013293D

 37 38  0     1  0  0  0  0  0999 V2000
   -1.4176    0.8505   -1.2309 O   0  0  0  0  0  0  0  0  0  0  0  0
   -2.1242   -1.9576    0.8844 O   0  0  0  0  0  0  0  0  0  0  0  0
   -3.9823   -0.5208   -0.5018 O   0  0  0  0  0  0  0  0  0  0  0  0
   -1.5360    3.5464   -0.4657 O   0  0  0  0  0  0  0  0  0  0  0  0
    0.5078   -2.7593   -0.9925 O   0  0  0  0  0  0  0  0  0  0  0  0
    3.7546    1.7619    1.6220 O   0  0  0  0  0  0  0  0  0  0  0  0
    0.3523   -0.5058   -0.5288 N   0  0  0  0  0  0  0  0  0  0  0  0
    2.4469   -1.6944   -0.4943 N   0  0  0  0  0  0  0  0  0  0  0  0
    4.4436   -0.6456    0.0084 N   0  0  0  0  0  0  0  0  0  0  0  0
   -1.8313   -0.6069    0.5911 C   0  0  2  0  0  0  0  0  0  0  0  0
   -3.0800    0.2084    0.3297 C   0  0  1  0  0  0  0  0  0  0  0  0
   -1.0697   -0.4439   -0.7129 C   0  0  1  0  0  0  0  0  0  0  0  0
   -2.5345    1.3762   -0.4808 C   0  0  1  0  0  0  0  0  0  0  0  0
   -2.0281    2.5239    0.3825 C   0  0  0  0  0  0  0  0  0  0  0  0
    1.0309    0.6536   -0.1838 C   0  0  0  0  0  0  0  0  0  0  0  0
    1.0786   -1.7107   -0.6876 C   0  0  0  0  0  0  0  0  0  0  0  0
    2.3518    0.7031    0.0105 C   0  0  0  0  0  0  0  0  0  0  0  0
   -2.5333   -2.1295    2.2377 C   0  0  0  0  0  0  0  0  0  0  0  0
    3.0783   -0.5945   -0.1693 C   0  0  0  0  0  0  0  0  0  0  0  0
    3.0921    1.9451    0.3821 C   0  0  0  0  0  0  0  0  0  0  0  0
   -1.2583   -0.1587    1.4147 H   0  0  0  0  0  0  0  0  0  0  0  0
   -3.6165    0.5016    1.2365 H   0  0  0  0  0  0  0  0  0  0  0  0
   -1.3743   -1.1986   -1.4478 H   0  0  0  0  0  0  0  0  0  0  0  0
   -3.2563    1.7520   -1.2148 H   0  0  0  0  0  0  0  0  0  0  0  0
   -1.2307    2.2234    1.0662 H   0  0  0  0  0  0  0  0  0  0  0  0
   -2.8495    2.9387    0.9761 H   0  0  0  0  0  0  0  0  0  0  0  0
   -4.7474    0.0540   -0.6745 H   0  0  0  0  0  0  0  0  0  0  0  0
    0.4585    1.5609   -0.0699 H   0  0  0  0  0  0  0  0  0  0  0  0
   -2.7311   -3.1927    2.3996 H   0  0  0  0  0  0  0  0  0  0  0  0
   -3.4522   -1.5735    2.4438 H   0  0  0  0  0  0  0  0  0  0  0  0
   -1.7388   -1.8184    2.9229 H   0  0  0  0  0  0  0  0  0  0  0  0
   -1.2305    4.2711    0.1061 H   0  0  0  0  0  0  0  0  0  0  0  0
    3.8354    2.1880   -0.3848 H   0  0  0  0  0  0  0  0  0  0  0  0
    2.4177    2.8026    0.4805 H   0  0  0  0  0  0  0  0  0  0  0  0
    4.9907    0.1682    0.2670 H   0  0  0  0  0  0  0  0  0  0  0  0
    4.9480   -1.5177   -0.1107 H   0  0  0  0  0  0  0  0  0  0  0  0
    4.2345    2.5853    1.8151 H   0  0  0  0  0  0  0  0  0  0  0  0
  1 12  1  0  0  0  0
  1 13  1  0  0  0  0
  2 10  1  0  0  0  0
  2 18  1  0  0  0  0
  3 11  1  0  0  0  0
  3 27  1  0  0  0  0
  4 14  1  0  0  0  0
  4 32  1  0  0  0  0
  5 16  2  0  0  0  0
  6 20  1  0  0  0  0
  6 37  1  0  0  0  0
  7 12  1  0  0  0  0
  7 15  1  0  0  0  0
  7 16  1  0  0  0  0
  8 16  1  0  0  0  0
  8 19  2  0  0  0  0
  9 19  1  0  0  0  0
  9 35  1  0  0  0  0
  9 36  1  0  0  0  0
 10 11  1  0  0  0  0
 10 12  1  0  0  0  0
 10 21  1  0  0  0  0
 11 13  1  0  0  0  0
 11 22  1  0  0  0  0
 12 23  1  0  0  0  0
 13 14  1  0  0  0  0
 13 24  1  0  0  0  0
 14 25  1  0  0  0  0
 14 26  1  0  0  0  0
 15 17  2  0  0  0  0
 15 28  1  0  0  0  0
 17 19  1  0  0  0  0
 17 20  1  0  0  0  0
 18 29  1  0  0  0  0
 18 30  1  0  0  0  0
 18 31  1  0  0  0  0
 20 33  1  0  0  0  0
 20 34  1  0  0  0  0
M  END
> <PUBCHEM_COMPOUND_CID>
132608877

> <PUBCHEM_CONFORMER_RMSD>
0.8

> <PUBCHEM_CONFORMER_DIVERSEORDER>
1
7
16
9
14
8
2
6
11
13
10
12
3
15
5
4

> <PUBCHEM_MMFF94_PARTIAL_CHARGES>
26
1 -0.56
10 0.28
11 0.28
12 0.58
13 0.28
14 0.28
15 -0.04
16 0.84
17 -0.12
18 0.28
19 0.49
2 -0.56
20 0.42
27 0.4
28 0.15
3 -0.68
32 0.4
35 0.4
36 0.4
37 0.4
4 -0.68
5 -0.57
6 -0.68
7 -0.47
8 -0.66
9 -0.85

> <PUBCHEM_EFFECTIVE_ROTOR_COUNT>
5

> <PUBCHEM_PHARMACOPHORE_FEATURES>
13
1 1 acceptor
1 2 acceptor
1 3 acceptor
1 3 donor
1 4 acceptor
1 4 donor
1 5 acceptor
1 6 acceptor
1 6 donor
1 8 donor
1 9 donor
5 1 10 11 12 13 rings
6 7 8 15 16 17 19 rings

> <PUBCHEM_HEAVY_ATOM_COUNT>
20

> <PUBCHEM_ATOM_DEF_STEREO_COUNT>
4

> <PUBCHEM_ATOM_UDEF_STEREO_COUNT>
0

> <PUBCHEM_BOND_DEF_STEREO_COUNT>
0

> <PUBCHEM_BOND_UDEF_STEREO_COUNT>
0

> <PUBCHEM_ISOTOPIC_ATOM_COUNT>
0

> <PUBCHEM_COMPONENT_COUNT>
1

> <PUBCHEM_CACTVS_TAUTO_COUNT>
3

> <PUBCHEM_CONFORMER_ID>
07E7736D00000001

> <PUBCHEM_MMFF94_ENERGY>
60.1644

> <PUBCHEM_FEATURE_SELFOVERLAP>
66.036

> <PUBCHEM_SHAPE_FINGERPRINT>
10366900 7 18409736153128247278
10608611 8 18340485552083237852
1100329 8 14952928104627952176
12403259 226 18343016696690888300
12403260 363 18341319016362124078
12633257 1 18335144150370347282
12670545 47 18335427880241966846
12824470 246 15648466764999350075
13140716 1 18263375818274747643
13294875 104 17179666075186827073
13544592 271 18337668736958782913
13583140 156 17460845580081290792
14026960 21 18339364200831455216
14223421 5 18411709763509467814
14787075 74 16957047328935186834
15295992 7 18273217473708859568
16945 1 18263664908281338607
18186145 218 17632021935465266220
19049666 15 18193566557816925967
19591789 44 16606060209167442197
200 152 18060126623162219151
20510252 161 18335987446214878593
20600515 1 17531238517603959685
21501502 16 18265900150769114583
21524375 3 18060133280177184278
23402539 116 18335978701782608015
23419403 2 17104229055273550735
23557571 272 18115323261964723107
23558518 356 18263365798322131581
23559900 14 18113901572055165070
2748010 2 18411986883616161516
6049 1 18267888153834092566
81228 2 18115042822322725597
8809292 202 18263652753365550734
9709674 26 18339648840930349703
9981440 41 18198879509776972016

> <PUBCHEM_SHAPE_MULTIPOLES>
361.43
6.57
3.09
1.25
3.45
1.17
0.59
0.6
1.52
-0.94
0.27
-0.42
-0.48
1.76

> <PUBCHEM_SHAPE_SELFOVERLAP>
754.921

> <PUBCHEM_SHAPE_VOLUME>
204.5

> <PUBCHEM_COORDINATE_TYPE>
2
5
10

$$$$
