REMARK  Name = 132616
REMARK  10 active torsions:
REMARK  status: ('A' for Active; 'I' for Inactive)
REMARK    1  A    between atoms: N_1  and  C_8
REMARK    2  A    between atoms: N_1  and  CA_20
REMARK    3  A    between atoms: C_7  and  C_17
REMARK    4  A    between atoms: C_17  and  O_18
REMARK    5  A    between atoms: CA_20  and  C_22
REMARK    6  A    between atoms: CA_20  and  C_25
REMARK    7  A    between atoms: C_22  and  O_23
REMARK    8  A    between atoms: C_25  and  C_26
REMARK    9  A    between atoms: C_26  and  C_27
REMARK   10  A    between atoms: C_32  and  O_33
REMARK                            x       y       z     vdW  Elec       q    Type
REMARK                         _______ _______ _______ _____ _____    ______ ____
ROOT
ATOM      1  N   UNL     1       0.576   1.538   0.805  0.00  0.00    +0.399 N 
ATOM      2  H1  UNL     1       0.159   2.240   1.416  0.00  0.00    -0.083 HD
ATOM      3  H2  UNL     1       0.719   0.667   1.316  0.00  0.00    -0.083 HD
ENDROOT
BRANCH   1   8
ATOM      4  O   UNL     1       2.624   1.219  -1.776  0.00  0.00    -0.276 OA
ATOM      5  N   UNL     1       2.663  -0.505   1.360  0.00  0.00    -0.202 NA
ATOM      6  N   UNL     1       2.940  -0.224   0.001  0.00  0.00    -0.214 N 
ATOM      7  C   UNL     1       3.666  -1.218  -0.802  0.00  0.00    +0.190 C 
ATOM      8  C   UNL     1       1.867   2.023   0.330  0.00  0.00    +0.019 C 
ATOM      9  C   UNL     1       2.595  -1.944   1.623  0.00  0.00    +0.092 C 
ATOM     10  C   UNL     1       3.584   0.198   2.255  0.00  0.00    +0.092 C 
ATOM     11  C   UNL     1       4.569  -2.128   0.026  0.00  0.00    +0.034 C 
ATOM     12  C   UNL     1       2.815   2.512   1.431  0.00  0.00    -0.011 C 
ATOM     13  C   UNL     1       3.882  -2.688   1.272  0.00  0.00    +0.021 C 
ATOM     14  C   UNL     1       3.021   1.571   2.618  0.00  0.00    +0.017 C 
ATOM     15  C   UNL     1       2.499   0.969  -0.571  0.00  0.00    +0.219 C 
BRANCH   7  17
ATOM     16  O   UNL     1       1.444  -1.877  -1.504  0.00  0.00    -0.248 OA
ATOM     17  C   UNL     1       2.657  -2.003  -1.591  0.00  0.00    +0.334 C 
BRANCH  17  18
ATOM     18  O   UNL     1       3.275  -2.881  -2.418  0.00  0.00    -0.479 OA
ATOM     19  H   UNL     1       4.210  -2.929  -2.437  0.00  0.00    +0.295 HD
ENDBRANCH  17  18
ENDBRANCH   7  17
ENDBRANCH   1   8
BRANCH   1  20
ATOM     20  CA  UNL     1      -0.317   1.285  -0.312  0.00  0.00    +0.041 C 
BRANCH  20  22
ATOM     21  OXT UNL     1      -1.010   3.606  -0.567  0.00  0.00    -0.253 OA
ATOM     22  C   UNL     1      -0.493   2.603  -1.045  0.00  0.00    +0.293 C 
BRANCH  22  23
ATOM     23  O   UNL     1       0.013   2.570  -2.304  0.00  0.00    -0.482 OA
ATOM     24  H   UNL     1       0.400   1.782  -2.633  0.00  0.00    +0.295 HD
ENDBRANCH  22  23
ENDBRANCH  20  22
BRANCH  20  25
ATOM     25  C   UNL     1      -1.660   0.765   0.221  0.00  0.00    -0.006 C 
BRANCH  25  26
ATOM     26  C   UNL     1      -2.693   0.436  -0.868  0.00  0.00    +0.025 C 
BRANCH  26  27
ATOM     27  C   UNL     1      -3.985  -0.147  -0.349  0.00  0.00    -0.022 C 
ATOM     28  C   UNL     1      -4.106  -1.522  -0.218  0.00  0.00    -0.001 C 
ATOM     29  C   UNL     1      -5.027   0.702  -0.014  0.00  0.00    -0.001 C 
ATOM     30  C   UNL     1      -5.300  -2.060   0.260  0.00  0.00    +0.036 C 
ATOM     31  C   UNL     1      -6.221   0.163   0.465  0.00  0.00    +0.036 C 
ATOM     32  C   UNL     1      -6.358  -1.218   0.602  0.00  0.00    +0.134 C 
BRANCH  32  33
ATOM     33  O   UNL     1      -7.522  -1.745   1.069  0.00  0.00    -0.506 OA
ATOM     34  H   UNL     1      -7.613  -2.673   1.161  0.00  0.00    +0.292 HD
ENDBRANCH  32  33
ENDBRANCH  26  27
ENDBRANCH  25  26
ENDBRANCH  20  25
ENDBRANCH   1  20
TORSDOF 10
