REMARK  Name = 132605045
REMARK  3 active torsions:
REMARK  status: ('A' for Active; 'I' for Inactive)
REMARK    1  A    between atoms: C_6  and  O_33
REMARK    2  A    between atoms: C_21  and  O_35
REMARK    3  A    between atoms: C_23  and  O_37
REMARK                            x       y       z     vdW  Elec       q    Type
REMARK                         _______ _______ _______ _____ _____    ______ ____
ROOT
ATOM      1  O   UNL     1      -4.468  -2.953  -0.767  0.00  0.00    -0.274 OA
ATOM      2  O   UNL     1      -2.062  -2.076   2.842  0.00  0.00    -0.291 OA
ATOM      3  O   UNL     1       6.001   2.015   0.675  0.00  0.00    -0.289 OA
ATOM      4  N   UNL     1      -4.733  -0.677  -0.496  0.00  0.00    -0.275 N 
ATOM      5  C   UNL     1      -6.257   0.733  -1.575  0.00  0.00    +0.049 C 
ATOM      6  C   UNL     1      -5.392   1.614  -0.667  0.00  0.00    +0.134 C 
ATOM      7  C   UNL     1      -4.625   0.609   0.216  0.00  0.00    +0.124 C 
ATOM      8  C   UNL     1      -5.374  -0.489  -1.791  0.00  0.00    +0.096 C 
ATOM      9  C   UNL     1      -6.655   1.414  -2.874  0.00  0.00    +0.004 C 
ATOM     10  C   UNL     1      -3.177   1.009   0.309  0.00  0.00    -0.004 C 
ATOM     11  C   UNL     1      -4.394  -1.947  -0.053  0.00  0.00    +0.234 C 
ATOM     12  C   UNL     1      -3.934  -2.095   1.381  0.00  0.00    +0.154 C 
ATOM     13  C   UNL     1      -2.540   1.280   1.458  0.00  0.00    -0.003 C 
ATOM     14  C   UNL     1      -2.449  -2.117   1.672  0.00  0.00    +0.182 C 
ATOM     15  C   UNL     1      -1.131   1.589   1.517  0.00  0.00    -0.005 C 
ATOM     16  C   UNL     1      -0.514   2.666   0.992  0.00  0.00    -0.022 C 
ATOM     17  C   UNL     1      -1.476  -2.213   0.545  0.00  0.00    +0.038 C 
ATOM     18  C   UNL     1      -1.195   3.825   0.320  0.00  0.00    +0.031 C 
ATOM     19  C   UNL     1      -0.159  -2.112   0.792  0.00  0.00    -0.001 C 
ATOM     20  C   UNL     1       0.934   2.775   1.061  0.00  0.00    -0.004 C 
ATOM     21  C   UNL     1       6.837  -0.773  -0.725  0.00  0.00    +0.149 C 
ATOM     22  C   UNL     1       0.924  -2.176  -0.195  0.00  0.00    -0.022 C 
ATOM     23  C   UNL     1       6.281   0.565  -1.232  0.00  0.00    +0.199 C 
ATOM     24  C   UNL     1       5.895  -1.983  -0.838  0.00  0.00    +0.058 C 
ATOM     25  C   UNL     1       1.753   1.981   0.354  0.00  0.00    -0.000 C 
ATOM     26  C   UNL     1       2.197  -2.061   0.244  0.00  0.00    -0.005 C 
ATOM     27  C   UNL     1       5.466   1.363  -0.221  0.00  0.00    +0.202 C 
ATOM     28  C   UNL     1       4.634  -1.918  -0.023  0.00  0.00    -0.024 C 
ATOM     29  C   UNL     1       0.529  -2.360  -1.638  0.00  0.00    +0.031 C 
ATOM     30  C   UNL     1       3.194   2.044   0.434  0.00  0.00    +0.003 C 
ATOM     31  C   UNL     1       3.411  -2.106  -0.545  0.00  0.00    -0.005 C 
ATOM     32  C   UNL     1       3.987   1.339  -0.384  0.00  0.00    +0.040 C 
ENDROOT
BRANCH   6  33
ATOM     33  O   UNL     1      -6.203   2.453   0.141  0.00  0.00    -0.382 OA
ATOM     34  H   UNL     1      -6.681   3.081  -0.423  0.00  0.00    +0.210 HD
ENDBRANCH   6  33
BRANCH  21  35
ATOM     35  O   UNL     1       7.311  -0.635   0.615  0.00  0.00    -0.381 OA
ATOM     36  H   UNL     1       7.903   0.131   0.670  0.00  0.00    +0.210 HD
ENDBRANCH  21  35
BRANCH  23  37
ATOM     37  O   UNL     1       7.386   1.420  -1.546  0.00  0.00    -0.375 OA
ATOM     38  H   UNL     1       7.961   0.981  -2.192  0.00  0.00    +0.211 HD
ENDBRANCH  23  37
TORSDOF 3
