132607002
  -OEChem-03292013293D

 49 50  0     1  0  0  0  0  0999 V2000
    2.0443    0.5934    0.9446 S   0  0  0  0  0  0  0  0  0  0  0  0
   -0.7812   -1.8807   -0.5631 O   0  0  0  0  0  0  0  0  0  0  0  0
    5.3244   -3.0529   -0.6788 O   0  0  0  0  0  0  0  0  0  0  0  0
    2.0422    4.3185    1.3286 O   0  0  0  0  0  0  0  0  0  0  0  0
    3.5644    3.8214   -0.2766 O   0  0  0  0  0  0  0  0  0  0  0  0
   -0.3846   -1.3441    1.6709 O   0  0  0  0  0  0  0  0  0  0  0  0
   -1.0958    4.1180   -1.5316 O   0  0  0  0  0  0  0  0  0  0  0  0
    0.0621    3.0651    0.1926 N   0  0  0  0  0  0  0  0  0  0  0  0
    4.8014   -0.4632    0.1897 N   0  0  0  0  0  0  0  0  0  0  0  0
    1.3267    2.9104   -0.4818 C   0  0  2  0  0  0  0  0  0  0  0  0
    1.7012    1.4344   -0.6366 C   0  0  0  0  0  0  0  0  0  0  0  0
    2.4330   -1.0583    0.3812 C   0  0  0  0  0  0  0  0  0  0  0  0
    1.4158   -2.0041    0.2538 C   0  0  0  0  0  0  0  0  0  0  0  0
    3.7484   -1.4023    0.0699 C   0  0  0  0  0  0  0  0  0  0  0  0
    1.7140   -3.2940   -0.1855 C   0  0  0  0  0  0  0  0  0  0  0  0
    4.0465   -2.6924   -0.3692 C   0  0  0  0  0  0  0  0  0  0  0  0
    2.4302    3.7221    0.1760 C   0  0  0  0  0  0  0  0  0  0  0  0
    3.0293   -3.6382   -0.4969 C   0  0  0  0  0  0  0  0  0  0  0  0
    0.0201   -1.7083    0.5611 C   0  0  0  0  0  0  0  0  0  0  0  0
   -1.0453    3.6585   -0.3937 C   0  0  0  0  0  0  0  0  0  0  0  0
   -2.1349   -1.6139   -0.3410 C   0  0  0  0  0  0  0  0  0  0  0  0
   -2.2411    3.6686    0.5206 C   0  0  0  0  0  0  0  0  0  0  0  0
   -2.9881   -2.6364    0.0739 C   0  0  0  0  0  0  0  0  0  0  0  0
   -2.6326   -0.3250   -0.5335 C   0  0  0  0  0  0  0  0  0  0  0  0
   -4.8368   -1.0812    0.1042 C   0  0  0  0  0  0  0  0  0  0  0  0
   -4.3390   -2.3700    0.2964 C   0  0  0  0  0  0  0  0  0  0  0  0
   -3.9836   -0.0588   -0.3109 C   0  0  0  0  0  0  0  0  0  0  0  0
   -6.2450   -0.8033    0.3379 C   0  0  0  0  0  0  0  0  0  0  0  0
   -6.9959    0.1168   -0.3022 C   0  0  0  0  0  0  0  0  0  0  0  0
    1.2189    3.3364   -1.4872 H   0  0  0  0  0  0  0  0  0  0  0  0
    2.5977    1.3493   -1.2609 H   0  0  0  0  0  0  0  0  0  0  0  0
    0.8912    0.8988   -1.1447 H   0  0  0  0  0  0  0  0  0  0  0  0
    0.0010    2.7505    1.1568 H   0  0  0  0  0  0  0  0  0  0  0  0
    0.9344   -4.0452   -0.2866 H   0  0  0  0  0  0  0  0  0  0  0  0
    3.2468   -4.6473   -0.8369 H   0  0  0  0  0  0  0  0  0  0  0  0
    5.7479   -0.7333   -0.0425 H   0  0  0  0  0  0  0  0  0  0  0  0
    4.6023    0.4772    0.5038 H   0  0  0  0  0  0  0  0  0  0  0  0
   -2.1574    4.5097    1.2139 H   0  0  0  0  0  0  0  0  0  0  0  0
   -2.3050    2.7354    1.0875 H   0  0  0  0  0  0  0  0  0  0  0  0
   -3.1538    3.7770   -0.0719 H   0  0  0  0  0  0  0  0  0  0  0  0
   -2.6058   -3.6422    0.2249 H   0  0  0  0  0  0  0  0  0  0  0  0
   -1.9714    0.4755   -0.8539 H   0  0  0  0  0  0  0  0  0  0  0  0
    5.3328   -3.9830   -0.9630 H   0  0  0  0  0  0  0  0  0  0  0  0
    2.7708    4.8306    1.7399 H   0  0  0  0  0  0  0  0  0  0  0  0
   -4.9899   -3.1793    0.6186 H   0  0  0  0  0  0  0  0  0  0  0  0
   -4.3354    0.9593   -0.4562 H   0  0  0  0  0  0  0  0  0  0  0  0
   -6.7354   -1.4228    1.0858 H   0  0  0  0  0  0  0  0  0  0  0  0
   -8.0459    0.2265   -0.0506 H   0  0  0  0  0  0  0  0  0  0  0  0
   -6.5993    0.7581   -1.0810 H   0  0  0  0  0  0  0  0  0  0  0  0
  1 11  1  0  0  0  0
  1 12  1  0  0  0  0
  2 19  1  0  0  0  0
  2 21  1  0  0  0  0
  3 16  1  0  0  0  0
  3 43  1  0  0  0  0
  4 17  1  0  0  0  0
  4 44  1  0  0  0  0
  5 17  2  0  0  0  0
  6 19  2  0  0  0  0
  7 20  2  0  0  0  0
  8 10  1  0  0  0  0
  8 20  1  0  0  0  0
  8 33  1  0  0  0  0
  9 14  1  0  0  0  0
  9 36  1  0  0  0  0
  9 37  1  0  0  0  0
 10 11  1  0  0  0  0
 10 17  1  0  0  0  0
 10 30  1  0  0  0  0
 11 31  1  0  0  0  0
 11 32  1  0  0  0  0
 12 13  2  0  0  0  0
 12 14  1  0  0  0  0
 13 15  1  0  0  0  0
 13 19  1  0  0  0  0
 14 16  2  0  0  0  0
 15 18  2  0  0  0  0
 15 34  1  0  0  0  0
 16 18  1  0  0  0  0
 18 35  1  0  0  0  0
 20 22  1  0  0  0  0
 21 23  2  0  0  0  0
 21 24  1  0  0  0  0
 22 38  1  0  0  0  0
 22 39  1  0  0  0  0
 22 40  1  0  0  0  0
 23 26  1  0  0  0  0
 23 41  1  0  0  0  0
 24 27  2  0  0  0  0
 24 42  1  0  0  0  0
 25 26  2  0  0  0  0
 25 27  1  0  0  0  0
 25 28  1  0  0  0  0
 26 45  1  0  0  0  0
 27 46  1  0  0  0  0
 28 29  2  0  0  0  0
 28 47  1  0  0  0  0
 29 48  1  0  0  0  0
 29 49  1  0  0  0  0
M  END
> <PUBCHEM_COMPOUND_CID>
132607002

> <PUBCHEM_CONFORMER_RMSD>
1

> <PUBCHEM_CONFORMER_DIVERSEORDER>
1
32
18
47
25
27
23
17
54
36
52
56
29
61
49
63
55
50
15
6
8
64
67
37
48
28
21
38
68
22
40
11
62
53
66
42
34
12
7
45
41
59
65
60
26
3
39
33
44
10
51
24
30
35
46
43
19
70
4
57
58
14
69
9
16
31
20
13
2
5

> <PUBCHEM_MMFF94_PARTIAL_CHARGES>
43
1 -0.33
10 0.36
11 0.23
12 0.1
13 0.09
14 0.1
15 -0.15
16 0.08
17 0.66
18 -0.15
19 0.63
2 -0.23
20 0.57
21 0.08
22 0.06
23 -0.15
24 -0.15
25 0.03
26 -0.15
27 -0.15
28 -0.18
29 -0.3
3 -0.53
33 0.37
34 0.15
35 0.15
36 0.4
37 0.4
4 -0.65
41 0.15
42 0.15
43 0.45
44 0.5
45 0.15
46 0.15
47 0.15
48 0.15
49 0.15
5 -0.57
6 -0.57
7 -0.57
8 -0.73
9 -0.9

> <PUBCHEM_EFFECTIVE_ROTOR_COUNT>
10

> <PUBCHEM_PHARMACOPHORE_FEATURES>
12
1 29 hydrophobe
1 3 donor
1 4 acceptor
1 5 acceptor
1 6 acceptor
1 7 acceptor
1 8 donor
1 9 cation
1 9 donor
3 4 5 17 anion
6 12 13 14 15 16 18 rings
6 21 23 24 25 26 27 rings

> <PUBCHEM_HEAVY_ATOM_COUNT>
29

> <PUBCHEM_ATOM_DEF_STEREO_COUNT>
1

> <PUBCHEM_ATOM_UDEF_STEREO_COUNT>
0

> <PUBCHEM_BOND_DEF_STEREO_COUNT>
0

> <PUBCHEM_BOND_UDEF_STEREO_COUNT>
0

> <PUBCHEM_ISOTOPIC_ATOM_COUNT>
0

> <PUBCHEM_COMPONENT_COUNT>
1

> <PUBCHEM_CACTVS_TAUTO_COUNT>
20

> <PUBCHEM_CONFORMER_ID>
07E76C1A00000001

> <PUBCHEM_MMFF94_ENERGY>
97.7874

> <PUBCHEM_FEATURE_SELFOVERLAP>
60.959

> <PUBCHEM_SHAPE_FINGERPRINT>
10050765 1 17834396719089297334
10483366 6 18264503943682044980
10688039 33 18262521385997105903
1100329 8 18194968435374910145
11014199 57 18410862070441935899
11578080 2 17199349683140900474
12156800 1 17840336353061490909
12166972 35 18201719535906825651
12293681 4 18187934945143421379
12788726 201 18116997676160635978
12925494 130 18265614463379078443
13140716 1 18191578855621536186
13590594 115 18338245846986882451
138480 1 18410574015221568484
14028597 1 17531795849961840954
14790565 3 17615411793393374973
15081414 286 18412823586474877686
15082195 135 18054485149581652783
15400415 2 17618503624929265865
15420108 30 17836911671020486280
15483637 11 18121216472665224237
19591789 44 16537640259219014302
19930381 70 18121778589130791151
21133410 127 17969495090898317509
21133410 90 17202186444747313609
221357 26 18339359656598307311
23559900 14 18411415129291844659
4015057 19 18337665434662409751
4144715 1 18261401104762269547
469060 322 16807024125369910455
5265222 85 17541954525058228949
6287921 2 18194116549907016295
6371009 1 17259043625105487639
9981440 41 17762334017126278035

> <PUBCHEM_SHAPE_MULTIPOLES>
555.48
11.31
6.65
0.95
13.96
7.5
-0.1
-7.04
0.6
-5.54
0.52
-0.11
0.35
1.03

> <PUBCHEM_SHAPE_SELFOVERLAP>
1160.273

> <PUBCHEM_SHAPE_VOLUME>
314.4

> <PUBCHEM_COORDINATE_TYPE>
2
5
10

$$$$
