REMARK  Name = 132608877
REMARK  7 active torsions:
REMARK  status: ('A' for Active; 'I' for Inactive)
REMARK    1  A    between atoms: N_2  and  C_14
REMARK    2  A    between atoms: C_7  and  C_23
REMARK    3  A    between atoms: C_12  and  O_16
REMARK    4  A    between atoms: C_13  and  O_18
REMARK    5  A    between atoms: C_15  and  C_20
REMARK    6  A    between atoms: C_20  and  O_21
REMARK    7  A    between atoms: C_23  and  O_24
REMARK                            x       y       z     vdW  Elec       q    Type
REMARK                         _______ _______ _______ _____ _____    ______ ____
ROOT
ATOM      1  O   UNL     1       0.508  -2.759  -0.993  0.00  0.00    -0.193 OA
ATOM      2  N   UNL     1       0.352  -0.506  -0.529  0.00  0.00    -0.178 N 
ATOM      3  N   UNL     1       2.447  -1.694  -0.494  0.00  0.00    -0.306 NA
ATOM      4  N   UNL     1       4.444  -0.646   0.008  0.00  0.00    -0.332 N 
ATOM      5  C   UNL     1       1.031   0.654  -0.184  0.00  0.00    +0.081 C 
ATOM      6  C   UNL     1       1.079  -1.711  -0.688  0.00  0.00    +0.275 C 
ATOM      7  C   UNL     1       2.352   0.703   0.011  0.00  0.00    +0.067 C 
ATOM      8  C   UNL     1       3.078  -0.595  -0.169  0.00  0.00    +0.191 C 
ATOM      9  H   UNL     1       4.924  -1.497  -0.109  0.00  0.00    +0.145 HD
ATOM     10  H   UNL     1       4.939   0.169   0.253  0.00  0.00    +0.145 HD
ENDROOT
BRANCH   2  14
ATOM     11  O   UNL     1      -1.418   0.851  -1.231  0.00  0.00    -0.332 OA
ATOM     12  C   UNL     1      -1.831  -0.607   0.591  0.00  0.00    +0.192 C 
ATOM     13  C   UNL     1      -3.080   0.208   0.330  0.00  0.00    +0.171 C 
ATOM     14  C   UNL     1      -1.070  -0.444  -0.713  0.00  0.00    +0.237 C 
ATOM     15  C   UNL     1      -2.534   1.376  -0.481  0.00  0.00    +0.175 C 
BRANCH  12  16
ATOM     16  O   UNL     1      -2.124  -1.958   0.884  0.00  0.00    -0.347 OA
ATOM     17  C   UNL     1      -2.533  -2.130   2.238  0.00  0.00    +0.174 C 
ENDBRANCH  12  16
BRANCH  13  18
ATOM     18  O   UNL     1      -3.982  -0.521  -0.502  0.00  0.00    -0.379 OA
ATOM     19  H   UNL     1      -4.344  -1.272  -0.006  0.00  0.00    +0.211 HD
ENDBRANCH  13  18
BRANCH  15  20
ATOM     20  C   UNL     1      -2.028   2.524   0.383  0.00  0.00    +0.169 C 
BRANCH  20  21
ATOM     21  O   UNL     1      -1.536   3.546  -0.466  0.00  0.00    -0.379 OA
ATOM     22  H   UNL     1      -1.210   4.284   0.073  0.00  0.00    +0.211 HD
ENDBRANCH  20  21
ENDBRANCH  15  20
ENDBRANCH   2  14
BRANCH   7  23
ATOM     23  C   UNL     1       3.092   1.945   0.382  0.00  0.00    +0.169 C 
BRANCH  23  24
ATOM     24  O   UNL     1       3.755   1.762   1.622  0.00  0.00    -0.377 OA
ATOM     25  H   UNL     1       4.233   2.573   1.856  0.00  0.00    +0.211 HD
ENDBRANCH  23  24
ENDBRANCH   7  23
TORSDOF 7
