REMARK  Name = 132607002
REMARK  12 active torsions:
REMARK  status: ('A' for Active; 'I' for Inactive)
REMARK    1  A    between atoms: C_1  and  S_23
REMARK    2  A    between atoms: C_2  and  C_13
REMARK    3  A    between atoms: C_3  and  N_7
REMARK    4  A    between atoms: C_5  and  O_10
REMARK    5  A    between atoms: C_13  and  O_14
REMARK    6  A    between atoms: O_14  and  C_15
REMARK    7  A    between atoms: C_18  and  C_21
REMARK    8  A    between atoms: S_23  and  C_24
REMARK    9  A    between atoms: C_24  and  C_25
REMARK   10  A    between atoms: C_25  and  N_27
REMARK   11  A    between atoms: C_25  and  C_32
REMARK   12  A    between atoms: C_32  and  O_33
REMARK                            x       y       z     vdW  Elec       q    Type
REMARK                         _______ _______ _______ _____ _____    ______ ____
ROOT
ATOM      1  C   UNK A   1       2.433  -1.058   0.381  0.00  0.00    +0.047 C 
ATOM      2  C   UNK A   1       1.416  -2.004   0.254  0.00  0.00    +0.083 C 
ATOM      3  C   UNK A   1       3.748  -1.402   0.070  0.00  0.00    +0.082 C 
ATOM      4  C   UNK A   1       1.714  -3.294  -0.185  0.00  0.00    +0.010 C 
ATOM      5  C   UNK A   1       4.046  -2.692  -0.369  0.00  0.00    +0.147 C 
ATOM      6  C   UNK A   1       3.029  -3.638  -0.497  0.00  0.00    +0.038 C 
ENDROOT
BRANCH   3   7
ATOM      7  N   UNK A   1       4.801  -0.463   0.190  0.00  0.00    -0.354 N 
ATOM      8  H   UNK A   1       4.612   0.452   0.498  0.00  0.00    +0.142 HD
ATOM      9  H   UNK A   1       5.723  -0.726  -0.035  0.00  0.00    +0.142 HD
ENDBRANCH   3   7
BRANCH   5  10
ATOM     10  O   UNK A   1       5.324  -3.053  -0.679  0.00  0.00    -0.504 OA
ATOM     11  H   UNK A   1       6.019  -2.430  -0.599  0.00  0.00    +0.292 HD
ENDBRANCH   5  10
BRANCH   2  13
ATOM     12  O   UNK A   1      -0.385  -1.344   1.671  0.00  0.00    -0.244 OA
ATOM     13  C   UNK A   1       0.020  -1.708   0.561  0.00  0.00    +0.346 C 
BRANCH  13  14
ATOM     14  O   UNK A   1      -0.781  -1.881  -0.563  0.00  0.00    -0.421 OA
BRANCH  14  15
ATOM     15  C   UNK A   1      -2.135  -1.614  -0.341  0.00  0.00    +0.149 C 
ATOM     16  C   UNK A   1      -2.988  -2.636   0.074  0.00  0.00    +0.038 C 
ATOM     17  C   UNK A   1      -2.633  -0.325  -0.533  0.00  0.00    +0.038 C 
ATOM     18  C   UNK A   1      -4.837  -1.081   0.104  0.00  0.00    +0.000 C 
ATOM     19  C   UNK A   1      -4.339  -2.370   0.296  0.00  0.00    +0.003 C 
ATOM     20  C   UNK A   1      -3.984  -0.059  -0.311  0.00  0.00    +0.003 C 
BRANCH  18  21
ATOM     21  C   UNK A   1      -6.245  -0.803   0.338  0.00  0.00    +0.000 C 
ATOM     22  C   UNK A   1      -6.996   0.117  -0.302  0.00  0.00    +0.000 C 
ENDBRANCH  18  21
ENDBRANCH  14  15
ENDBRANCH  13  14
ENDBRANCH   2  13
BRANCH   1  23
ATOM     23  S   UNK A   1       2.044   0.593   0.945  0.00  0.00    -0.110 S 
BRANCH  23  24
ATOM     24  C   UNK A   1       1.701   1.434  -0.637  0.00  0.00    +0.093 C 
BRANCH  24  25
ATOM     25  C   UNK A   1       1.327   2.910  -0.482  0.00  0.00    +0.182 C 
BRANCH  25  27
ATOM     26  O   UNK A   0      -1.096   4.118  -1.532  0.00  0.00    -0.275 OA
ATOM     27  N   UNK A   1       0.062   3.065   0.193  0.00  0.00    -0.296 N 
ATOM     28  C   UNK A   0      -1.045   3.659  -0.394  0.00  0.00    +0.223 C 
ATOM     29  C   UNK A   0      -2.241   3.669   0.521  0.00  0.00    +0.095 C 
ATOM     30  H   UNK A   1      -0.019   2.733   1.116  0.00  0.00    +0.150 HD
ENDBRANCH  25  27
BRANCH  25  32
ATOM     31  O   UNK A   1       3.564   3.821  -0.277  0.00  0.00    -0.248 OA
ATOM     32  C   UNK A   1       2.430   3.722   0.176  0.00  0.00    +0.333 C 
BRANCH  32  33
ATOM     33  O   UNK A   1       2.042   4.319   1.329  0.00  0.00    -0.479 OA
ATOM     34  H   UNK A   1       1.163   4.215   1.637  0.00  0.00    +0.295 HD
ENDBRANCH  32  33
ENDBRANCH  25  32
ENDBRANCH  24  25
ENDBRANCH  23  24
ENDBRANCH   1  23
TORSDOF 12
