REMARK  Name = 132609320
REMARK  10 active torsions:
REMARK  status: ('A' for Active; 'I' for Inactive)
REMARK    1  A    between atoms: C_4  and  O_12
REMARK    2  A    between atoms: C_5  and  O_10
REMARK    3  A    between atoms: C_6  and  O_14
REMARK    4  A    between atoms: C_7  and  C_24
REMARK    5  A    between atoms: C_9  and  C_16
REMARK    6  A    between atoms: C_17  and  C_18
REMARK    7  A    between atoms: C_19  and  C_20
REMARK    8  A    between atoms: C_20  and  C_21
REMARK    9  A    between atoms: C_24  and  C_25
REMARK   10  A    between atoms: C_25  and  C_28
REMARK                            x       y       z     vdW  Elec       q    Type
REMARK                         _______ _______ _______ _____ _____    ______ ____
ROOT
ATOM      1  O   UNL     1       0.626  -1.191  -1.753  0.00  0.00    -0.459 OA
ATOM      2  N   UNL     1       0.029  -1.439   0.528  0.00  0.00    -0.208 NA
ATOM      3  C   UNL     1       1.990  -1.613  -1.518  0.00  0.00    +0.229 C 
ATOM      4  C   UNL     1       2.011  -2.574  -0.335  0.00  0.00    +0.204 C 
ATOM      5  C   UNL     1       1.420  -1.800   0.854  0.00  0.00    +0.227 C 
ATOM      6  C   UNL     1       2.874  -0.368  -1.282  0.00  0.00    +0.171 C 
ATOM      7  C   UNL     1       2.847   0.139   0.146  0.00  0.00    -0.014 C 
ATOM      8  C   UNL     1       2.174  -0.513   1.112  0.00  0.00    +0.020 C 
ATOM      9  C   UNL     1      -0.236  -1.157  -0.700  0.00  0.00    +0.223 C 
ENDROOT
BRANCH   5  10
ATOM     10  O   UNL     1       1.565  -2.622   2.015  0.00  0.00    -0.330 OA
ATOM     11  C   UNL     1       0.555  -3.616   2.069  0.00  0.00    +0.177 C 
ENDBRANCH   5  10
BRANCH   4  12
ATOM     12  O   UNL     1       3.334  -3.025  -0.077  0.00  0.00    -0.377 OA
ATOM     13  H   UNL     1       3.668  -3.506  -0.850  0.00  0.00    +0.211 HD
ENDBRANCH   4  12
BRANCH   6  14
ATOM     14  O   UNL     1       4.227  -0.683  -1.609  0.00  0.00    -0.377 OA
ATOM     15  H   UNL     1       4.271  -1.011  -2.521  0.00  0.00    +0.211 HD
ENDBRANCH   6  14
BRANCH   9  16
ATOM     16  C   UNL     1      -1.558  -0.751  -1.183  0.00  0.00    +0.057 C 
ATOM     17  C   UNL     1      -2.367  -0.090  -0.350  0.00  0.00    +0.004 C 
BRANCH  17  18
ATOM     18  C   UNL     1      -3.689   0.352  -0.735  0.00  0.00    -0.004 C 
ATOM     19  C   UNL     1      -4.511   1.016   0.091  0.00  0.00    -0.026 C 
BRANCH  19  20
ATOM     20  C   UNL     1      -5.888   1.476  -0.298  0.00  0.00    +0.026 C 
BRANCH  20  21
ATOM     21  C   UNL     1      -7.003   0.807   0.528  0.00  0.00    +0.004 C 
ATOM     22  C   UNL     1      -6.955  -0.711   0.335  0.00  0.00    +0.000 C 
ATOM     23  C   UNL     1      -8.392   1.332   0.156  0.00  0.00    +0.000 C 
ENDBRANCH  20  21
ENDBRANCH  19  20
ENDBRANCH  17  18
ENDBRANCH   9  16
BRANCH   7  24
ATOM     24  C   UNL     1       3.579   1.420   0.423  0.00  0.00    +0.034 C 
BRANCH  24  25
ATOM     25  C   UNL     1       2.699   2.635   0.160  0.00  0.00    +0.089 C 
BRANCH  25  28
ATOM     26  O   UNL     1       4.596   4.000   0.808  0.00  0.00    -0.275 OA
ATOM     27  N   UNL     1       2.641   5.040   0.190  0.00  0.00    -0.329 N 
ATOM     28  C   UNL     1       3.432   3.935   0.426  0.00  0.00    +0.220 C 
ATOM     29  H   UNL     1       3.005   5.944   0.327  0.00  0.00    +0.145 HD
ATOM     30  H   UNL     1       1.713   4.924  -0.116  0.00  0.00    +0.145 HD
ENDBRANCH  25  28
ENDBRANCH  24  25
ENDBRANCH   7  24
TORSDOF 10
