REMARK  Name = 132605044
REMARK  4 active torsions:
REMARK  status: ('A' for Active; 'I' for Inactive)
REMARK    1  A    between atoms: C_6  and  O_33
REMARK    2  A    between atoms: C_21  and  O_35
REMARK    3  A    between atoms: C_22  and  O_37
REMARK    4  A    between atoms: C_23  and  O_39
REMARK                            x       y       z     vdW  Elec       q    Type
REMARK                         _______ _______ _______ _____ _____    ______ ____
ROOT
ATOM      1  O   UNL     1       5.050  -2.167   2.096  0.00  0.00    -0.274 OA
ATOM      2  O   UNL     1       2.166  -2.905   1.861  0.00  0.00    -0.291 OA
ATOM      3  O   UNL     1      -5.718   2.465  -0.271  0.00  0.00    -0.289 OA
ATOM      4  N   UNL     1       5.213  -0.597   0.415  0.00  0.00    -0.275 N 
ATOM      5  C   UNL     1       7.027   0.824  -0.025  0.00  0.00    +0.049 C 
ATOM      6  C   UNL     1       5.941   1.142  -1.061  0.00  0.00    +0.134 C 
ATOM      7  C   UNL     1       4.935  -0.018  -0.911  0.00  0.00    +0.124 C 
ATOM      8  C   UNL     1       6.230   0.186   1.106  0.00  0.00    +0.096 C 
ATOM      9  C   UNL     1       7.813   2.046   0.419  0.00  0.00    +0.004 C 
ATOM     10  C   UNL     1       3.494   0.416  -1.018  0.00  0.00    -0.004 C 
ATOM     11  C   UNL     1       4.743  -1.782   0.963  0.00  0.00    +0.234 C 
ATOM     12  C   UNL     1       3.803  -2.631   0.127  0.00  0.00    +0.154 C 
ATOM     13  C   UNL     1       2.914   1.416  -0.333  0.00  0.00    -0.003 C 
ATOM     14  C   UNL     1       2.390  -2.675   0.674  0.00  0.00    +0.182 C 
ATOM     15  C   UNL     1       1.512   1.750  -0.473  0.00  0.00    -0.005 C 
ATOM     16  C   UNL     1       0.881   2.831   0.026  0.00  0.00    -0.022 C 
ATOM     17  C   UNL     1       1.288  -2.426  -0.300  0.00  0.00    +0.038 C 
ATOM     18  C   UNL     1       1.526   3.970   0.768  0.00  0.00    +0.031 C 
ATOM     19  C   UNL     1       0.008  -2.413   0.102  0.00  0.00    -0.001 C 
ATOM     20  C   UNL     1      -0.556   3.001  -0.167  0.00  0.00    -0.004 C 
ATOM     21  C   UNL     1      -6.904  -0.380   0.250  0.00  0.00    +0.176 C 
ATOM     22  C   UNL     1      -6.075  -1.221  -0.741  0.00  0.00    +0.162 C 
ATOM     23  C   UNL     1      -6.120   0.569   1.168  0.00  0.00    +0.202 C 
ATOM     24  C   UNL     1      -1.156  -2.090  -0.731  0.00  0.00    -0.022 C 
ATOM     25  C   UNL     1      -1.469   2.122   0.272  0.00  0.00    -0.000 C 
ATOM     26  C   UNL     1      -4.822  -1.815  -0.162  0.00  0.00    +0.005 C 
ATOM     27  C   UNL     1      -5.246   1.578   0.436  0.00  0.00    +0.202 C 
ATOM     28  C   UNL     1      -2.381  -2.120  -0.164  0.00  0.00    -0.005 C 
ATOM     29  C   UNL     1      -3.628  -1.696  -0.765  0.00  0.00    -0.002 C 
ATOM     30  C   UNL     1      -0.892  -1.710  -2.168  0.00  0.00    +0.031 C 
ATOM     31  C   UNL     1      -2.896   2.285   0.091  0.00  0.00    +0.003 C 
ATOM     32  C   UNL     1      -3.775   1.442   0.648  0.00  0.00    +0.040 C 
ENDROOT
BRANCH   6  33
ATOM     33  O   UNL     1       6.487   1.147  -2.372  0.00  0.00    -0.382 OA
ATOM     34  H   UNL     1       7.118   1.879  -2.458  0.00  0.00    +0.210 HD
ENDBRANCH   6  33
BRANCH  21  35
ATOM     35  O   UNL     1      -7.842   0.396  -0.510  0.00  0.00    -0.379 OA
ATOM     36  H   UNL     1      -8.346  -0.190  -1.096  0.00  0.00    +0.211 HD
ENDBRANCH  21  35
BRANCH  22  37
ATOM     37  O   UNL     1      -6.914  -2.289  -1.194  0.00  0.00    -0.377 OA
ATOM     38  H   UNL     1      -7.729  -1.923  -1.571  0.00  0.00    +0.211 HD
ENDBRANCH  22  37
BRANCH  23  39
ATOM     39  O   UNL     1      -7.027   1.349   1.943  0.00  0.00    -0.375 OA
ATOM     40  H   UNL     1      -7.618   0.760   2.438  0.00  0.00    +0.211 HD
ENDBRANCH  23  39
TORSDOF 4
