REMARK  Name = 132651
REMARK  15 active torsions:
REMARK  status: ('A' for Active; 'I' for Inactive)
REMARK    1  A    between atoms: N_2  and  CA_5
REMARK    2  A    between atoms: C_3  and  C_21
REMARK    3  A    between atoms: CA_5  and  C_12
REMARK    4  A    between atoms: CA_5  and  CB_17
REMARK    5  A    between atoms: CA_8  and  C_14
REMARK    6  A    between atoms: C_14  and  O_15
REMARK    7  A    between atoms: CB_17  and  CG_18
REMARK    8  A    between atoms: C_21  and  O_22
REMARK    9  A    between atoms: C_21  and  C_24
REMARK   10  A    between atoms: C_24  and  N_25
REMARK   11  A    between atoms: C_24  and  C_29
REMARK   12  A    between atoms: C_29  and  C_30
REMARK   13  A    between atoms: C_30  and  C_31
REMARK   14  A    between atoms: C_31  and  C_32
REMARK   15  A    between atoms: C_32  and  N_33
REMARK                            x       y       z     vdW  Elec       q    Type
REMARK                         _______ _______ _______ _____ _____    ______ ____
ROOT
ATOM      1  O   UNL     1      -0.962   1.569  -2.068  0.00  0.00    -0.273 OA
ATOM      2  N   UNL     1      -0.792   1.329   0.234  0.00  0.00    -0.296 N 
ATOM      3  C   ACE A   0      -1.483   1.431  -0.964  0.00  0.00    +0.248 C 
ATOM      4  H   UNL     1      -1.305   1.222   1.067  0.00  0.00    +0.150 HD
ENDROOT
BRANCH   2   5
ATOM      5  CA  UNL     1       0.650   1.374   0.310  0.00  0.00    +0.149 C 
BRANCH   5  12
ATOM      6  O   UNL     1       0.386  -0.988   0.451  0.00  0.00    -0.273 OA
ATOM      7  N   UNL     1       2.262  -0.198  -0.650  0.00  0.00    -0.270 N 
ATOM      8  CA  UNL     1       2.732  -1.492  -1.127  0.00  0.00    +0.175 C 
ATOM      9  CB  UNL     1       3.767  -1.159  -2.195  0.00  0.00    +0.033 C 
ATOM     10  CD  UNL     1       3.108   0.885  -1.146  0.00  0.00    +0.094 C 
ATOM     11  CG  UNL     1       4.322   0.190  -1.743  0.00  0.00    +0.024 C 
ATOM     12  C   UNL     1       1.074  -0.049   0.047  0.00  0.00    +0.244 C 
BRANCH   8  14
ATOM     13  OXT UNL     1       3.896  -1.645   0.987  0.00  0.00    -0.248 OA
ATOM     14  C   UNL     1       3.348  -2.197   0.044  0.00  0.00    +0.332 C 
BRANCH  14  15
ATOM     15  O   UNL     1       3.219  -3.540  -0.083  0.00  0.00    -0.479 OA
ATOM     16  H   UNL     1       2.787  -3.900  -0.833  0.00  0.00    +0.295 HD
ENDBRANCH  14  15
ENDBRANCH   8  14
ENDBRANCH   5  12
BRANCH   5  17
ATOM     17  CB  UNL     1       1.158   1.846   1.673  0.00  0.00    +0.029 C 
BRANCH  17  18
ATOM     18  CG  UNL     1       0.717   3.270   2.065  0.00  0.00    +0.002 C 
ATOM     19  CD1 UNL     1       1.236   3.605   3.466  0.00  0.00    +0.000 C 
ATOM     20  CD2 UNL     1       1.201   4.326   1.071  0.00  0.00    +0.000 C 
ENDBRANCH  17  18
ENDBRANCH   5  17
ENDBRANCH   2   5
BRANCH   3  21
ATOM     21  C   UNL     1      -2.997   1.382  -0.773  0.00  0.00    +0.166 C 
BRANCH  21  22
ATOM     22  O   UNL     1      -3.543   2.630  -1.174  0.00  0.00    -0.377 OA
ATOM     23  H   UNL     1      -4.506   2.613  -1.058  0.00  0.00    +0.211 HD
ENDBRANCH  21  22
BRANCH  21  24
ATOM     24  C   UNL     1      -3.640   0.234  -1.580  0.00  0.00    -0.029 C 
BRANCH  24  25
ATOM     25  N   UNL     1      -5.097   0.284  -1.408  0.00  0.00    +0.384 N 
ATOM     26  H   UNL     1      -5.441   1.203  -1.684  0.00  0.00    -0.089 HD
ATOM     27  H   UNL     1      -5.330   0.114  -0.429  0.00  0.00    -0.089 HD
ATOM     28  H   UNL     1      -5.533  -0.431  -1.990  0.00  0.00    -0.089 HD
ENDBRANCH  24  25
BRANCH  24  29
ATOM     29  C   UNL     1      -3.116  -1.156  -1.163  0.00  0.00    -0.019 C 
BRANCH  29  30
ATOM     30  C   UNL     1      -3.354  -1.465   0.322  0.00  0.00    -0.004 C 
BRANCH  30  31
ATOM     31  C   UNL     1      -2.749  -2.820   0.707  0.00  0.00    -0.024 C 
BRANCH  31  32
ATOM     32  C   UNL     1      -2.947  -3.168   2.183  0.00  0.00    -0.086 C 
BRANCH  32  33
ATOM     33  N   UNL     1      -2.396  -4.477   2.513  0.00  0.00    +0.380 N 
ATOM     34  H   UNL     1      -2.549  -4.670   3.503  0.00  0.00    -0.089 HD
ATOM     35  H   UNL     1      -1.396  -4.485   2.315  0.00  0.00    -0.089 HD
ATOM     36  H   UNL     1      -2.859  -5.192   1.952  0.00  0.00    -0.089 HD
ENDBRANCH  32  33
ENDBRANCH  31  32
ENDBRANCH  30  31
ENDBRANCH  29  30
ENDBRANCH  24  29
ENDBRANCH  21  24
ENDBRANCH   3  21
TORSDOF 15
