REMARK  Name = 132663
REMARK  5 active torsions:
REMARK  status: ('A' for Active; 'I' for Inactive)
REMARK    1  A    between atoms: C_2  and  O_19
REMARK    2  A    between atoms: C_3  and  O_21
REMARK    3  A    between atoms: C_4  and  N_7
REMARK    4  A    between atoms: C_5  and  C_23
REMARK    5  A    between atoms: C_23  and  N_24
REMARK                            x       y       z     vdW  Elec       q    Type
REMARK                         _______ _______ _______ _____ _____    ______ ____
ROOT
ATOM      1  O   UNL     1       2.079  -0.410  -0.997  0.00  0.00    -0.337 OA
ATOM      2  C   UNL     1       1.864   0.991   0.900  0.00  0.00    +0.188 C 
ATOM      3  C   UNL     1       3.325   0.961   0.497  0.00  0.00    +0.166 C 
ATOM      4  C   UNL     1       1.186   0.541  -0.385  0.00  0.00    +0.243 C 
ATOM      5  C   UNL     1       3.389  -0.270  -0.402  0.00  0.00    +0.125 C 
ENDROOT
BRANCH   4   7
ATOM      6 BR   UNL     1      -2.233  -3.300   0.590  0.00  0.00    -0.030 Br
ATOM      7  N   UNL     1      -0.125  -0.072  -0.184  0.00  0.00    -0.170 N 
ATOM      8  N   UNL     1      -0.211  -1.389   0.087  0.00  0.00    -0.172 NA
ATOM      9  N   UNL     1      -1.567   1.850  -0.489  0.00  0.00    -0.231 NA
ATOM     10  N   UNL     1      -3.921   1.264  -0.233  0.00  0.00    -0.234 NA
ATOM     11  C   UNL     1      -1.339   0.550  -0.240  0.00  0.00    +0.140 C 
ATOM     12  C   UNL     1      -2.284  -0.428   0.013  0.00  0.00    +0.157 C 
ATOM     13  C   UNL     1      -1.527  -1.599   0.206  0.00  0.00    +0.124 C 
ATOM     14  C   UNL     1      -3.618  -0.034   0.011  0.00  0.00    +0.112 C 
ATOM     15  C   UNL     1      -2.892   2.113  -0.465  0.00  0.00    +0.252 C 
ATOM     16  N   UNL     1      -4.659  -0.947   0.257  0.00  0.00    -0.346 N 
ATOM     17  H   UNL     1      -5.594  -0.640   0.250  0.00  0.00    +0.143 HD
ATOM     18  H   UNL     1      -4.452  -1.892   0.437  0.00  0.00    +0.143 HD
ENDBRANCH   4   7
BRANCH   2  19
ATOM     19  O   UNL     1       1.428   2.272   1.305  0.00  0.00    -0.378 OA
ATOM     20  H   UNL     1       1.881   2.523   2.125  0.00  0.00    +0.211 HD
ENDBRANCH   2  19
BRANCH   3  21
ATOM     21  O   UNL     1       3.627   2.117  -0.283  0.00  0.00    -0.380 OA
ATOM     22  H   UNL     1       3.589   2.906   0.280  0.00  0.00    +0.211 HD
ENDBRANCH   3  21
BRANCH   5  23
ATOM     23  C   UNL     1       3.709  -1.547   0.362  0.00  0.00    -0.053 C 
BRANCH  23  24
ATOM     24  N   UNL     1       3.767  -2.662  -0.548  0.00  0.00    +0.382 N 
ATOM     25  H   UNL     1       3.982  -3.514  -0.030  0.00  0.00    -0.089 HD
ATOM     26  H   UNL     1       4.495  -2.495  -1.244  0.00  0.00    -0.089 HD
ATOM     27  H   UNL     1       2.867  -2.766  -1.016  0.00  0.00    -0.089 HD
ENDBRANCH  23  24
ENDBRANCH   5  23
TORSDOF 5
