132605046
  -OEChem-03292013293D

 70 72  0     1  0  0  0  0  0999 V2000
   -5.3183   -0.7354   -2.3052 O   0  0  0  0  0  0  0  0  0  0  0  0
   -3.1153    1.9780   -1.3840 O   0  0  0  0  0  0  0  0  0  0  0  0
   -5.1294    2.7891    0.2781 O   0  0  0  0  0  0  0  0  0  0  0  0
   -3.9526    1.1108    2.0285 O   0  0  0  0  0  0  0  0  0  0  0  0
    1.5374    4.0729    0.7329 O   0  0  0  0  0  0  0  0  0  0  0  0
    4.5193    2.9158   -0.4377 O   0  0  0  0  0  0  0  0  0  0  0  0
    4.9810    1.0765    0.9032 N   0  0  0  0  0  0  0  0  0  0  0  0
   -3.5929   -1.1492   -0.6638 C   0  0  1  0  0  0  0  0  0  0  0  0
   -2.0424   -1.2880   -0.5363 C   0  0  2  0  0  0  0  0  0  0  0  0
   -4.2936   -0.8880    0.6888 C   0  0  2  0  0  0  0  0  0  0  0  0
   -4.0858   -0.2038   -1.7958 C   0  0  2  0  0  0  0  0  0  0  0  0
   -1.6968   -2.4116    0.5092 C   0  0  2  0  0  0  0  0  0  0  0  0
   -4.3452    1.2632   -1.4130 C   0  0  1  0  0  0  0  0  0  0  0  0
   -5.0732    1.4221   -0.0797 C   0  0  1  0  0  0  0  0  0  0  0  0
   -4.3691    0.6051    0.9886 C   0  0  0  0  0  0  0  0  0  0  0  0
   -3.6923   -1.6454    1.8346 C   0  0  0  0  0  0  0  0  0  0  0  0
   -2.5533   -2.3453    1.7534 C   0  0  0  0  0  0  0  0  0  0  0  0
   -1.3051   -0.0029   -0.2263 C   0  0  0  0  0  0  0  0  0  0  0  0
   -0.1896   -2.5170    0.8048 C   0  0  0  0  0  0  0  0  0  0  0  0
   -0.4049    0.6329   -1.0038 C   0  0  0  0  0  0  0  0  0  0  0  0
    0.3331   -1.8817    2.0731 C   0  0  0  0  0  0  0  0  0  0  0  0
    0.5960   -3.1950   -0.0584 C   0  0  0  0  0  0  0  0  0  0  0  0
   -0.0401    0.2652   -2.4143 C   0  0  0  0  0  0  0  0  0  0  0  0
    0.3111    1.7970   -0.5022 C   0  0  0  0  0  0  0  0  0  0  0  0
    2.0198   -3.4150    0.0507 C   0  0  0  0  0  0  0  0  0  0  0  0
    1.1556    1.7335    0.5356 C   0  0  0  0  0  0  0  0  0  0  0  0
    2.9513   -2.4630   -0.1195 C   0  0  0  0  0  0  0  0  0  0  0  0
    1.9348    2.9309    0.9459 C   0  0  0  0  0  0  0  0  0  0  0  0
    4.3628   -2.7378    0.0269 C   0  0  0  0  0  0  0  0  0  0  0  0
    3.2737    2.6539    1.5915 C   0  0  0  0  0  0  0  0  0  0  0  0
    5.3691   -0.5592   -0.9126 C   0  0  1  0  0  0  0  0  0  0  0  0
    5.3904   -1.9304   -0.2769 C   0  0  0  0  0  0  0  0  0  0  0  0
    5.9857    0.4889    0.0311 C   0  0  0  0  0  0  0  0  0  0  0  0
    4.3200    2.2493    0.5770 C   0  0  0  0  0  0  0  0  0  0  0  0
    6.1587   -0.6163   -2.2249 C   0  0  0  0  0  0  0  0  0  0  0  0
   -3.9224   -2.1598   -0.9584 H   0  0  0  0  0  0  0  0  0  0  0  0
   -1.6916   -1.6721   -1.5016 H   0  0  0  0  0  0  0  0  0  0  0  0
   -5.3363   -1.2252    0.6021 H   0  0  0  0  0  0  0  0  0  0  0  0
   -3.3731   -0.2405   -2.6285 H   0  0  0  0  0  0  0  0  0  0  0  0
   -1.9871   -3.3665    0.0415 H   0  0  0  0  0  0  0  0  0  0  0  0
   -4.9567    1.7463   -2.1857 H   0  0  0  0  0  0  0  0  0  0  0  0
   -6.1013    1.0510   -0.1615 H   0  0  0  0  0  0  0  0  0  0  0  0
   -4.2498   -1.6665    2.7679 H   0  0  0  0  0  0  0  0  0  0  0  0
   -2.2534   -2.9315    2.6184 H   0  0  0  0  0  0  0  0  0  0  0  0
   -1.4952    0.4053    0.7658 H   0  0  0  0  0  0  0  0  0  0  0  0
   -5.1265   -1.6092   -2.6864 H   0  0  0  0  0  0  0  0  0  0  0  0
   -2.7326    1.9399   -2.2772 H   0  0  0  0  0  0  0  0  0  0  0  0
   -5.6711    2.8589    1.0828 H   0  0  0  0  0  0  0  0  0  0  0  0
   -0.0773   -0.8781    2.2129 H   0  0  0  0  0  0  0  0  0  0  0  0
    1.4208   -1.7775    2.0884 H   0  0  0  0  0  0  0  0  0  0  0  0
    0.0562   -2.4880    2.9417 H   0  0  0  0  0  0  0  0  0  0  0  0
    0.1420   -3.6802   -0.9204 H   0  0  0  0  0  0  0  0  0  0  0  0
    0.9723   -0.1520   -2.4477 H   0  0  0  0  0  0  0  0  0  0  0  0
   -0.7188   -0.4639   -2.8619 H   0  0  0  0  0  0  0  0  0  0  0  0
   -0.0684    1.1483   -3.0631 H   0  0  0  0  0  0  0  0  0  0  0  0
    0.1764    2.7188   -1.0617 H   0  0  0  0  0  0  0  0  0  0  0  0
    2.3107   -4.4451    0.2434 H   0  0  0  0  0  0  0  0  0  0  0  0
    1.3620    0.8044    1.0548 H   0  0  0  0  0  0  0  0  0  0  0  0
    2.6481   -1.4479   -0.3573 H   0  0  0  0  0  0  0  0  0  0  0  0
    4.6138   -3.7133    0.4419 H   0  0  0  0  0  0  0  0  0  0  0  0
    3.6191    3.5645    2.0938 H   0  0  0  0  0  0  0  0  0  0  0  0
    3.1440    1.8953    2.3708 H   0  0  0  0  0  0  0  0  0  0  0  0
    4.3456   -0.2633   -1.1690 H   0  0  0  0  0  0  0  0  0  0  0  0
    6.3861   -2.3256   -0.0712 H   0  0  0  0  0  0  0  0  0  0  0  0
    6.7617    0.0583    0.6741 H   0  0  0  0  0  0  0  0  0  0  0  0
    6.4484    1.3002   -0.5425 H   0  0  0  0  0  0  0  0  0  0  0  0
    4.7524    0.5864    1.7628 H   0  0  0  0  0  0  0  0  0  0  0  0
    7.2120   -0.8651   -2.0518 H   0  0  0  0  0  0  0  0  0  0  0  0
    6.1220    0.3502   -2.7395 H   0  0  0  0  0  0  0  0  0  0  0  0
    5.7403   -1.3683   -2.9034 H   0  0  0  0  0  0  0  0  0  0  0  0
  1 11  1  0  0  0  0
  1 46  1  0  0  0  0
  2 13  1  0  0  0  0
  2 47  1  0  0  0  0
  3 14  1  0  0  0  0
  3 48  1  0  0  0  0
  4 15  2  0  0  0  0
  5 28  2  0  0  0  0
  6 34  2  0  0  0  0
  7 33  1  0  0  0  0
  7 34  1  0  0  0  0
  7 67  1  0  0  0  0
  8  9  1  0  0  0  0
  8 10  1  0  0  0  0
  8 11  1  0  0  0  0
  8 36  1  0  0  0  0
  9 12  1  0  0  0  0
  9 18  1  0  0  0  0
  9 37  1  0  0  0  0
 10 15  1  0  0  0  0
 10 16  1  0  0  0  0
 10 38  1  0  0  0  0
 11 13  1  0  0  0  0
 11 39  1  0  0  0  0
 12 17  1  0  0  0  0
 12 19  1  0  0  0  0
 12 40  1  0  0  0  0
 13 14  1  0  0  0  0
 13 41  1  0  0  0  0
 14 15  1  0  0  0  0
 14 42  1  0  0  0  0
 16 17  2  0  0  0  0
 16 43  1  0  0  0  0
 17 44  1  0  0  0  0
 18 20  2  0  0  0  0
 18 45  1  0  0  0  0
 19 21  1  0  0  0  0
 19 22  2  0  0  0  0
 20 23  1  0  0  0  0
 20 24  1  0  0  0  0
 21 49  1  0  0  0  0
 21 50  1  0  0  0  0
 21 51  1  0  0  0  0
 22 25  1  0  0  0  0
 22 52  1  0  0  0  0
 23 53  1  0  0  0  0
 23 54  1  0  0  0  0
 23 55  1  0  0  0  0
 24 26  2  0  0  0  0
 24 56  1  0  0  0  0
 25 27  2  0  0  0  0
 25 57  1  0  0  0  0
 26 28  1  0  0  0  0
 26 58  1  0  0  0  0
 27 29  1  0  0  0  0
 27 59  1  0  0  0  0
 28 30  1  0  0  0  0
 29 32  2  0  0  0  0
 29 60  1  0  0  0  0
 30 34  1  0  0  0  0
 30 61  1  0  0  0  0
 30 62  1  0  0  0  0
 31 32  1  0  0  0  0
 31 33  1  0  0  0  0
 31 35  1  0  0  0  0
 31 63  1  0  0  0  0
 32 64  1  0  0  0  0
 33 65  1  0  0  0  0
 33 66  1  0  0  0  0
 35 68  1  0  0  0  0
 35 69  1  0  0  0  0
 35 70  1  0  0  0  0
M  END
> <PUBCHEM_COMPOUND_CID>
132605046

> <PUBCHEM_CONFORMER_RMSD>
0.8

> <PUBCHEM_CONFORMER_DIVERSEORDER>
1
2

> <PUBCHEM_MMFF94_PARTIAL_CHARGES>
47
1 -0.68
10 0.2
11 0.28
12 0.28
13 0.28
14 0.34
15 0.45
16 -0.29
17 -0.29
18 -0.29
19 -0.28
2 -0.68
20 -0.14
21 0.14
22 -0.15
23 0.14
24 -0.15
25 -0.15
26 -0.14
27 -0.15
28 0.49
29 -0.15
3 -0.68
30 0.12
31 0.14
32 -0.29
33 0.3
34 0.57
4 -0.57
43 0.15
44 0.15
45 0.15
46 0.4
47 0.4
48 0.4
5 -0.57
52 0.15
56 0.15
57 0.15
58 0.15
59 0.15
6 -0.57
60 0.15
64 0.15
67 0.37
7 -0.73
9 0.14

> <PUBCHEM_EFFECTIVE_ROTOR_COUNT>
1.4

> <PUBCHEM_PHARMACOPHORE_FEATURES>
13
1 1 acceptor
1 1 donor
1 2 acceptor
1 2 donor
1 3 acceptor
1 3 donor
1 30 anion
1 4 acceptor
1 5 acceptor
1 6 acceptor
1 7 donor
6 8 10 11 13 14 15 rings
6 8 9 10 12 16 17 rings

> <PUBCHEM_HEAVY_ATOM_COUNT>
35

> <PUBCHEM_ATOM_DEF_STEREO_COUNT>
8

> <PUBCHEM_ATOM_UDEF_STEREO_COUNT>
0

> <PUBCHEM_BOND_DEF_STEREO_COUNT>
5

> <PUBCHEM_BOND_UDEF_STEREO_COUNT>
0

> <PUBCHEM_ISOTOPIC_ATOM_COUNT>
0

> <PUBCHEM_COMPONENT_COUNT>
1

> <PUBCHEM_CACTVS_TAUTO_COUNT>
1001

> <PUBCHEM_CONFORMER_ID>
07E7647600000001

> <PUBCHEM_MMFF94_ENERGY>
80.6366

> <PUBCHEM_FEATURE_SELFOVERLAP>
66.02

> <PUBCHEM_SHAPE_FINGERPRINT>
10290309 65 17761495094281873321
10675989 125 15884037736556319212
10864689 126 18340211765789142158
11112241 14 18058718251672186360
12128747 34 18411983580755116740
12422481 6 17675922101577752638
12788726 201 17833544592142418066
13165054 342 17385997434490949258
13402501 40 18337109060108304642
13617811 41 17603575318807327469
13726171 33 17823717428608932500
14415360 78 17899691268469724973
14790565 3 18265336109909863107
14904385 45 18192997015685285162
14931854 50 18338813238975841686
15274700 259 17606101911098115589
16067689 134 17838351691703537024
16112460 7 17911248221729604457
17349148 13 15123242103314552644
20764821 26 18338505422621942314
21279426 13 18411984654633909076
21585483 110 18337391539215637127
22121540 332 17461697538114801821
23559900 14 18261677068842226236
3298306 158 18337665412569862230
3680242 22 18335130952706311162
437795 51 18335709307894773019
460360 51 18334302006236757952
508706 21 18187079576773073475
5265222 85 17830184854856454012
550186 83 17822556288437339120
77296 10 17417522639523021885

> <PUBCHEM_SHAPE_MULTIPOLES>
680.09
13.65
4.45
1.97
7.39
0.73
-0.41
2.6
-3.03
3.18
1.57
-1.12
0
1.86

> <PUBCHEM_SHAPE_SELFOVERLAP>
1412.754

> <PUBCHEM_SHAPE_VOLUME>
379.8

> <PUBCHEM_COORDINATE_TYPE>
2
5
10

$$$$
