REMARK  Name = 132600633
REMARK  3 active torsions:
REMARK  status: ('A' for Active; 'I' for Inactive)
REMARK    1  A    between atoms: C_19  and  O_33
REMARK    2  A    between atoms: C_26  and  O_35
REMARK    3  A    between atoms: C_28  and  O_37
REMARK                            x       y       z     vdW  Elec       q    Type
REMARK                         _______ _______ _______ _____ _____    ______ ____
ROOT
ATOM      1  O   UNL     1      -3.614  -3.143  -0.272  0.00  0.00    -0.291 OA
ATOM      2  O   UNL     1      -1.990   3.265  -2.142  0.00  0.00    -0.291 OA
ATOM      3  O   UNL     1       4.507   2.982   0.211  0.00  0.00    -0.286 OA
ATOM      4  C   UNL     1      -0.432  -0.489  -0.944  0.00  0.00    +0.046 C 
ATOM      5  C   UNL     1      -1.708  -0.465  -1.810  0.00  0.00    +0.023 C 
ATOM      6  C   UNL     1      -0.217  -1.840  -0.301  0.00  0.00    -0.013 C 
ATOM      7  C   UNL     1      -0.217   0.585   0.118  0.00  0.00    -0.018 C 
ATOM      8  C   UNL     1      -2.941  -1.032  -1.109  0.00  0.00    +0.070 C 
ATOM      9  C   UNL     1      -1.938   0.893  -2.490  0.00  0.00    +0.070 C 
ATOM     10  C   UNL     1      -1.288  -2.722  -0.068  0.00  0.00    +0.065 C 
ATOM     11  C   UNL     1       1.093  -2.175   0.118  0.00  0.00    -0.003 C 
ATOM     12  C   UNL     1       1.035   0.923   0.540  0.00  0.00    -0.003 C 
ATOM     13  C   UNL     1      -2.674  -2.378  -0.477  0.00  0.00    +0.176 C 
ATOM     14  C   UNL     1      -1.434   1.258   0.627  0.00  0.00    +0.002 C 
ATOM     15  C   UNL     1       2.242   0.130   0.114  0.00  0.00    +0.006 C 
ATOM     16  C   UNL     1       2.256  -1.275  -0.126  0.00  0.00    -0.000 C 
ATOM     17  C   UNL     1      -2.046   2.144  -1.638  0.00  0.00    +0.176 C 
ATOM     18  C   UNL     1      -2.270   2.030  -0.188  0.00  0.00    +0.068 C 
ATOM     19  C   UNL     1      -1.066  -3.944   0.575  0.00  0.00    +0.136 C 
ATOM     20  C   UNL     1       1.277  -3.406   0.778  0.00  0.00    +0.003 C 
ATOM     21  C   UNL     1       3.456   0.848  -0.005  0.00  0.00    +0.073 C 
ATOM     22  C   UNL     1       1.277   2.127   1.334  0.00  0.00    +0.003 C 
ATOM     23  C   UNL     1      -1.779   1.113   1.983  0.00  0.00    -0.000 C 
ATOM     24  C   UNL     1       0.214  -4.281   1.000  0.00  0.00    +0.037 C 
ATOM     25  C   UNL     1       3.450  -1.853  -0.615  0.00  0.00    +0.003 C 
ATOM     26  C   UNL     1      -3.381   2.698   0.345  0.00  0.00    +0.136 C 
ATOM     27  C   UNL     1       3.553   2.255   0.460  0.00  0.00    +0.199 C 
ATOM     28  C   UNL     1       4.622   0.242  -0.482  0.00  0.00    +0.137 C 
ATOM     29  C   UNL     1       2.446   2.773   1.293  0.00  0.00    +0.042 C 
ATOM     30  C   UNL     1       4.610  -1.105  -0.807  0.00  0.00    +0.037 C 
ATOM     31  C   UNL     1      -2.894   1.765   2.514  0.00  0.00    +0.003 C 
ATOM     32  C   UNL     1      -3.688   2.565   1.697  0.00  0.00    +0.037 C 
ENDROOT
BRANCH  19  33
ATOM     33  O   UNL     1      -2.057  -4.845   0.827  0.00  0.00    -0.505 OA
ATOM     34  H   UNL     1      -2.936  -4.662   0.560  0.00  0.00    +0.292 HD
ENDBRANCH  19  33
BRANCH  26  35
ATOM     35  O   UNL     1      -4.208   3.452  -0.434  0.00  0.00    -0.505 OA
ATOM     36  H   UNL     1      -4.025   3.558  -1.346  0.00  0.00    +0.292 HD
ENDBRANCH  26  35
BRANCH  28  37
ATOM     37  O   UNL     1       5.803   0.908  -0.626  0.00  0.00    -0.505 OA
ATOM     38  H   UNL     1       5.854   1.820  -0.417  0.00  0.00    +0.292 HD
ENDBRANCH  28  37
TORSDOF 3
