REMARK  Name = 132605046
REMARK  3 active torsions:
REMARK  status: ('A' for Active; 'I' for Inactive)
REMARK    1  A    between atoms: C_8  and  O_34
REMARK    2  A    between atoms: C_10  and  O_36
REMARK    3  A    between atoms: C_11  and  O_38
REMARK                            x       y       z     vdW  Elec       q    Type
REMARK                         _______ _______ _______ _____ _____    ______ ____
ROOT
ATOM      1  O   UNL     1      -3.953   1.111   2.029  0.00  0.00    -0.293 OA
ATOM      2  O   UNL     1       1.537   4.073   0.733  0.00  0.00    -0.291 OA
ATOM      3  O   UNL     1       4.519   2.916  -0.438  0.00  0.00    -0.275 OA
ATOM      4  N   UNL     1       4.981   1.077   0.903  0.00  0.00    -0.304 N 
ATOM      5  C   UNL     1      -3.593  -1.149  -0.664  0.00  0.00    +0.045 C 
ATOM      6  C   UNL     1      -2.042  -1.288  -0.536  0.00  0.00    +0.033 C 
ATOM      7  C   UNL     1      -4.294  -0.888   0.689  0.00  0.00    +0.084 C 
ATOM      8  C   UNL     1      -4.086  -0.204  -1.796  0.00  0.00    +0.141 C 
ATOM      9  C   UNL     1      -1.697  -2.412   0.509  0.00  0.00    +0.044 C 
ATOM     10  C   UNL     1      -4.345   1.263  -1.413  0.00  0.00    +0.171 C 
ATOM     11  C   UNL     1      -5.073   1.422  -0.080  0.00  0.00    +0.197 C 
ATOM     12  C   UNL     1      -4.369   0.605   0.989  0.00  0.00    +0.183 C 
ATOM     13  C   UNL     1      -3.692  -1.645   1.835  0.00  0.00    -0.023 C 
ATOM     14  C   UNL     1      -2.553  -2.345   1.753  0.00  0.00    -0.026 C 
ATOM     15  C   UNL     1      -1.305  -0.003  -0.226  0.00  0.00    -0.030 C 
ATOM     16  C   UNL     1      -0.190  -2.517   0.805  0.00  0.00    -0.040 C 
ATOM     17  C   UNL     1      -0.405   0.633  -1.004  0.00  0.00    -0.026 C 
ATOM     18  C   UNL     1       0.333  -1.882   2.073  0.00  0.00    +0.027 C 
ATOM     19  C   UNL     1       0.596  -3.195  -0.058  0.00  0.00    -0.008 C 
ATOM     20  C   UNL     1      -0.040   0.265  -2.414  0.00  0.00    +0.031 C 
ATOM     21  C   UNL     1       0.311   1.797  -0.502  0.00  0.00    -0.002 C 
ATOM     22  C   UNL     1       2.020  -3.415   0.051  0.00  0.00    -0.001 C 
ATOM     23  C   UNL     1       1.156   1.734   0.536  0.00  0.00    +0.038 C 
ATOM     24  C   UNL     1       2.951  -2.463  -0.119  0.00  0.00    -0.000 C 
ATOM     25  C   UNL     1       1.935   2.931   0.946  0.00  0.00    +0.182 C 
ATOM     26  C   UNL     1       4.363  -2.738   0.027  0.00  0.00    -0.005 C 
ATOM     27  C   UNL     1       3.274   2.654   1.591  0.00  0.00    +0.154 C 
ATOM     28  C   UNL     1       5.369  -0.559  -0.913  0.00  0.00    +0.042 C 
ATOM     29  C   UNL     1       5.390  -1.930  -0.277  0.00  0.00    -0.025 C 
ATOM     30  C   UNL     1       5.986   0.489   0.031  0.00  0.00    +0.094 C 
ATOM     31  C   UNL     1       4.320   2.249   0.577  0.00  0.00    +0.230 C 
ATOM     32  C   UNL     1       6.159  -0.616  -2.225  0.00  0.00    +0.006 C 
ATOM     33  H   UNL     1       4.764   0.627   1.752  0.00  0.00    +0.149 HD
ENDROOT
BRANCH   8  34
ATOM     34  O   UNL     1      -5.318  -0.735  -2.305  0.00  0.00    -0.382 OA
ATOM     35  H   UNL     1      -5.190  -1.663  -2.557  0.00  0.00    +0.210 HD
ENDBRANCH   8  34
BRANCH  10  36
ATOM     36  O   UNL     1      -3.115   1.978  -1.384  0.00  0.00    -0.379 OA
ATOM     37  H   UNL     1      -2.660   1.872  -2.234  0.00  0.00    +0.211 HD
ENDBRANCH  10  36
BRANCH  11  38
ATOM     38  O   UNL     1      -5.129   2.789   0.278  0.00  0.00    -0.375 OA
ATOM     39  H   UNL     1      -5.583   3.288  -0.420  0.00  0.00    +0.211 HD
ENDBRANCH  11  38
TORSDOF 3
