REMARK  Name = 13264465
REMARK  10 active torsions:
REMARK  status: ('A' for Active; 'I' for Inactive)
REMARK    1  A    between atoms: N_3  and  C_21
REMARK    2  A    between atoms: C_14  and  O_19
REMARK    3  A    between atoms: C_21  and  C_22
REMARK    4  A    between atoms: C_22  and  O_23
REMARK    5  A    between atoms: C_22  and  C_25
REMARK    6  A    between atoms: C_25  and  O_26
REMARK    7  A    between atoms: C_25  and  C_28
REMARK    8  A    between atoms: C_28  and  O_29
REMARK    9  A    between atoms: C_28  and  C_31
REMARK   10  A    between atoms: C_31  and  O_32
REMARK                            x       y       z     vdW  Elec       q    Type
REMARK                         _______ _______ _______ _____ _____    ______ ____
ROOT
ATOM      1  O   UNL     1      -4.904   1.129   1.086  0.00  0.00    -0.266 OA
ATOM      2  O   UNL     1      -2.299   4.579  -0.474  0.00  0.00    -0.193 OA
ATOM      3  N   UNL     1      -0.486   0.289  -0.686  0.00  0.00    -0.255 N 
ATOM      4  N   UNL     1      -2.920  -0.589   0.467  0.00  0.00    -0.396 NA
ATOM      5  N   UNL     1      -1.409   2.487  -0.581  0.00  0.00    -0.303 NA
ATOM      6  N   UNL     1      -3.601   2.891   0.301  0.00  0.00    -0.196 N 
ATOM      7  C   UNL     1      -0.678  -1.085  -0.423  0.00  0.00    +0.083 C 
ATOM      8  C   UNL     1      -1.486   1.205  -0.380  0.00  0.00    +0.236 C 
ATOM      9  C   UNL     1      -1.898  -1.498   0.151  0.00  0.00    +0.127 C 
ATOM     10  C   UNL     1      -2.753   0.671   0.231  0.00  0.00    +0.230 C 
ATOM     11  C   UNL     1       0.285  -2.073  -0.704  0.00  0.00    +0.053 C 
ATOM     12  C   UNL     1      -2.127  -2.854   0.427  0.00  0.00    +0.085 C 
ATOM     13  C   UNL     1      -1.160  -3.813   0.141  0.00  0.00    -0.003 C 
ATOM     14  C   UNL     1       0.047  -3.421  -0.425  0.00  0.00    +0.133 C 
ATOM     15  C   UNL     1      -3.883   1.578   0.593  0.00  0.00    +0.293 C 
ATOM     16  C   UNL     1      -1.434  -5.247   0.448  0.00  0.00    +0.030 C 
ATOM     17  C   UNL     1      -2.419   3.370  -0.266  0.00  0.00    +0.273 C 
ATOM     18  H   UNL     1      -4.296   3.555   0.511  0.00  0.00    +0.169 HD
ENDROOT
BRANCH  14  19
ATOM     19  O   UNL     1       1.010  -4.340  -0.715  0.00  0.00    -0.472 OA
ATOM     20  C   UNL     1       1.963  -4.625   0.307  0.00  0.00    +0.252 C 
ENDBRANCH  14  19
BRANCH   3  21
ATOM     21  C   UNL     1       0.782   0.707  -1.282  0.00  0.00    +0.130 C 
BRANCH  21  22
ATOM     22  C   UNL     1       1.798   1.030  -0.180  0.00  0.00    +0.160 C 
BRANCH  22  23
ATOM     23  O   UNL     1       1.261   2.066   0.644  0.00  0.00    -0.380 OA
ATOM     24  H   UNL     1       0.403   1.784   0.999  0.00  0.00    +0.211 HD
ENDBRANCH  22  23
BRANCH  22  25
ATOM     25  C   UNL     1       3.160   1.483  -0.743  0.00  0.00    +0.168 C 
BRANCH  25  26
ATOM     26  O   UNL     1       3.695   0.463  -1.585  0.00  0.00    -0.379 OA
ATOM     27  H   UNL     1       3.055   0.251  -2.282  0.00  0.00    +0.211 HD
ENDBRANCH  25  26
BRANCH  25  28
ATOM     28  C   UNL     1       4.190   1.804   0.357  0.00  0.00    +0.169 C 
BRANCH  28  29
ATOM     29  O   UNL     1       5.422   2.189  -0.255  0.00  0.00    -0.379 OA
ATOM     30  H   UNL     1       5.270   2.948  -0.840  0.00  0.00    +0.211 HD
ENDBRANCH  28  29
BRANCH  28  31
ATOM     31  C   UNL     1       4.456   0.609   1.271  0.00  0.00    +0.169 C 
BRANCH  31  32
ATOM     32  O   UNL     1       5.388   0.998   2.275  0.00  0.00    -0.379 OA
ATOM     33  H   UNL     1       5.564   0.246   2.862  0.00  0.00    +0.211 HD
ENDBRANCH  31  32
ENDBRANCH  28  31
ENDBRANCH  25  28
ENDBRANCH  22  25
ENDBRANCH  21  22
ENDBRANCH   3  21
TORSDOF 10
