REMARK  Name = 132606955
REMARK  6 active torsions:
REMARK  status: ('A' for Active; 'I' for Inactive)
REMARK    1  A    between atoms: C_3  and  O_19
REMARK    2  A    between atoms: C_12  and  N_15
REMARK    3  A    between atoms: O_19  and  C_25
REMARK    4  A    between atoms: C_21  and  O_27
REMARK    5  A    between atoms: C_22  and  O_29
REMARK    6  A    between atoms: C_23  and  O_31
REMARK                            x       y       z     vdW  Elec       q    Type
REMARK                         _______ _______ _______ _____ _____    ______ ____
ROOT
ATOM      1  O   UNL     1       3.981  -2.318  -0.059  0.00  0.00    -0.285 OA
ATOM      2  O   UNL     1       1.572   2.456  -0.148  0.00  0.00    -0.287 OA
ATOM      3  C   UNL     1      -0.821  -0.967   0.362  0.00  0.00    +0.137 C 
ATOM      4  C   UNL     1      -0.189  -2.209   0.386  0.00  0.00    +0.012 C 
ATOM      5  C   UNL     1      -0.070   0.197   0.196  0.00  0.00    +0.040 C 
ATOM      6  C   UNL     1       1.319   0.116   0.051  0.00  0.00    +0.045 C 
ATOM      7  C   UNL     1       1.954  -1.128   0.074  0.00  0.00    +0.043 C 
ATOM      8  C   UNL     1       1.196  -2.293   0.242  0.00  0.00    +0.002 C 
ATOM      9  C   UNL     1      -0.981  -3.463   0.564  0.00  0.00    +0.034 C 
ATOM     10  C   UNL     1       3.420  -1.228  -0.078  0.00  0.00    +0.209 C 
ATOM     11  C   UNL     1       2.104   1.353  -0.124  0.00  0.00    +0.197 C 
ATOM     12  C   UNL     1       4.181   0.034  -0.253  0.00  0.00    +0.093 C 
ATOM     13  C   UNL     1       3.568   1.222  -0.273  0.00  0.00    +0.060 C 
ENDROOT
BRANCH  12  15
ATOM     14  O   UNL     1       6.133   1.976   0.556  0.00  0.00    -0.275 OA
ATOM     15  N   UNL     1       5.535  -0.069  -0.392  0.00  0.00    -0.281 N 
ATOM     16  C   UNL     1       6.425   0.909   0.021  0.00  0.00    +0.227 C 
ATOM     17  C   UNL     1       7.855   0.549  -0.286  0.00  0.00    +0.095 C 
ATOM     18  H   UNL     1       5.900  -0.883  -0.810  0.00  0.00    +0.155 HD
ENDBRANCH  12  15
BRANCH   3  19
ATOM     19  O   UNL     1      -2.180  -0.872   0.502  0.00  0.00    -0.451 OA
BRANCH  19  25
ATOM     20  O   UNL     1      -2.964   1.152  -0.454  0.00  0.00    -0.319 OA
ATOM     21  C   UNL     1      -5.173  -0.408   0.484  0.00  0.00    +0.173 C 
ATOM     22  C   UNL     1      -5.165   1.117   0.608  0.00  0.00    +0.167 C 
ATOM     23  C   UNL     1      -4.290  -0.891  -0.671  0.00  0.00    +0.210 C 
ATOM     24  C   UNL     1      -3.714   1.612   0.679  0.00  0.00    +0.148 C 
ATOM     25  C   UNL     1      -2.893  -0.274  -0.576  0.00  0.00    +0.318 C 
ATOM     26  C   UNL     1      -3.606   3.132   0.702  0.00  0.00    +0.035 C 
BRANCH  21  27
ATOM     27  O   UNL     1      -6.508  -0.875   0.328  0.00  0.00    -0.379 OA
ATOM     28  H   UNL     1      -7.050  -0.559   1.068  0.00  0.00    +0.211 HD
ENDBRANCH  21  27
BRANCH  22  29
ATOM     29  O   UNL     1      -5.833   1.687  -0.517  0.00  0.00    -0.379 OA
ATOM     30  H   UNL     1      -6.747   1.365  -0.548  0.00  0.00    +0.211 HD
ENDBRANCH  22  29
BRANCH  23  31
ATOM     31  O   UNL     1      -4.855  -0.516  -1.926  0.00  0.00    -0.377 OA
ATOM     32  H   UNL     1      -5.743  -0.898  -2.008  0.00  0.00    +0.211 HD
ENDBRANCH  23  31
ENDBRANCH  19  25
ENDBRANCH   3  19
TORSDOF 6
