132605045
  -OEChem-03292013293D

 70 71  0     1  0  0  0  0  0999 V2000
   -6.2032    2.4528    0.1414 O   0  0  0  0  0  0  0  0  0  0  0  0
   -4.4677   -2.9530   -0.7670 O   0  0  0  0  0  0  0  0  0  0  0  0
   -2.0620   -2.0762    2.8421 O   0  0  0  0  0  0  0  0  0  0  0  0
    7.3111   -0.6352    0.6145 O   0  0  0  0  0  0  0  0  0  0  0  0
    7.3861    1.4202   -1.5462 O   0  0  0  0  0  0  0  0  0  0  0  0
    6.0006    2.0151    0.6749 O   0  0  0  0  0  0  0  0  0  0  0  0
   -4.7334   -0.6773   -0.4964 N   0  0  0  0  0  0  0  0  0  0  0  0
   -6.2573    0.7325   -1.5754 C   0  0  2  0  0  0  0  0  0  0  0  0
   -5.3916    1.6139   -0.6666 C   0  0  2  0  0  0  0  0  0  0  0  0
   -4.6248    0.6087    0.2165 C   0  0  2  0  0  0  0  0  0  0  0  0
   -5.3744   -0.4887   -1.7906 C   0  0  0  0  0  0  0  0  0  0  0  0
   -6.6554    1.4140   -2.8745 C   0  0  0  0  0  0  0  0  0  0  0  0
   -3.1772    1.0086    0.3094 C   0  0  0  0  0  0  0  0  0  0  0  0
   -4.3944   -1.9473   -0.0531 C   0  0  0  0  0  0  0  0  0  0  0  0
   -3.9340   -2.0949    1.3811 C   0  0  0  0  0  0  0  0  0  0  0  0
   -2.5402    1.2799    1.4583 C   0  0  0  0  0  0  0  0  0  0  0  0
   -2.4486   -2.1167    1.6722 C   0  0  0  0  0  0  0  0  0  0  0  0
   -1.1310    1.5894    1.5166 C   0  0  0  0  0  0  0  0  0  0  0  0
   -0.5145    2.6655    0.9915 C   0  0  0  0  0  0  0  0  0  0  0  0
   -1.4755   -2.2127    0.5454 C   0  0  0  0  0  0  0  0  0  0  0  0
   -1.1948    3.8250    0.3199 C   0  0  0  0  0  0  0  0  0  0  0  0
   -0.1593   -2.1118    0.7923 C   0  0  0  0  0  0  0  0  0  0  0  0
    0.9340    2.7749    1.0614 C   0  0  0  0  0  0  0  0  0  0  0  0
    6.8368   -0.7734   -0.7245 C   0  0  2  0  0  0  0  0  0  0  0  0
    0.9242   -2.1762   -0.1945 C   0  0  0  0  0  0  0  0  0  0  0  0
    6.2811    0.5652   -1.2321 C   0  0  1  0  0  0  0  0  0  0  0  0
    5.8947   -1.9830   -0.8378 C   0  0  0  0  0  0  0  0  0  0  0  0
    1.7527    1.9809    0.3537 C   0  0  0  0  0  0  0  0  0  0  0  0
    2.1968   -2.0612    0.2441 C   0  0  0  0  0  0  0  0  0  0  0  0
    5.4664    1.3635   -0.2212 C   0  0  0  0  0  0  0  0  0  0  0  0
    4.6344   -1.9182   -0.0226 C   0  0  0  0  0  0  0  0  0  0  0  0
    0.5286   -2.3604   -1.6381 C   0  0  0  0  0  0  0  0  0  0  0  0
    3.1941    2.0438    0.4341 C   0  0  0  0  0  0  0  0  0  0  0  0
    3.4112   -2.1062   -0.5449 C   0  0  0  0  0  0  0  0  0  0  0  0
    3.9866    1.3386   -0.3838 C   0  0  0  0  0  0  0  0  0  0  0  0
   -7.1720    0.4382   -1.0430 H   0  0  0  0  0  0  0  0  0  0  0  0
   -4.7224    2.2525   -1.2558 H   0  0  0  0  0  0  0  0  0  0  0  0
   -5.0813    0.5104    1.2068 H   0  0  0  0  0  0  0  0  0  0  0  0
   -4.5844   -0.3068   -2.5283 H   0  0  0  0  0  0  0  0  0  0  0  0
   -5.9445   -1.3729   -2.0914 H   0  0  0  0  0  0  0  0  0  0  0  0
   -5.7771    1.7271   -3.4490 H   0  0  0  0  0  0  0  0  0  0  0  0
   -7.2621    2.3031   -2.6744 H   0  0  0  0  0  0  0  0  0  0  0  0
   -7.2432    0.7354   -3.5011 H   0  0  0  0  0  0  0  0  0  0  0  0
   -2.6250    1.0610   -0.6284 H   0  0  0  0  0  0  0  0  0  0  0  0
   -6.8096    1.8906    0.6529 H   0  0  0  0  0  0  0  0  0  0  0  0
   -4.3362   -3.0519    1.7393 H   0  0  0  0  0  0  0  0  0  0  0  0
   -4.3898   -1.3255    2.0091 H   0  0  0  0  0  0  0  0  0  0  0  0
   -3.0534    1.1837    2.4102 H   0  0  0  0  0  0  0  0  0  0  0  0
   -0.5447    0.8434    2.0514 H   0  0  0  0  0  0  0  0  0  0  0  0
   -1.8629   -2.3542   -0.4545 H   0  0  0  0  0  0  0  0  0  0  0  0
   -0.9357    3.8554   -0.7440 H   0  0  0  0  0  0  0  0  0  0  0  0
   -2.2851    3.7813    0.3963 H   0  0  0  0  0  0  0  0  0  0  0  0
   -0.8833    4.7710    0.7773 H   0  0  0  0  0  0  0  0  0  0  0  0
    0.1667   -1.9640    1.8211 H   0  0  0  0  0  0  0  0  0  0  0  0
    1.3278    3.5591    1.7027 H   0  0  0  0  0  0  0  0  0  0  0  0
    7.7255   -1.0090   -1.3252 H   0  0  0  0  0  0  0  0  0  0  0  0
    5.7225    0.4335   -2.1639 H   0  0  0  0  0  0  0  0  0  0  0  0
    6.4389   -2.8747   -0.5000 H   0  0  0  0  0  0  0  0  0  0  0  0
    5.6579   -2.1436   -1.8970 H   0  0  0  0  0  0  0  0  0  0  0  0
    1.3308    1.2328   -0.3149 H   0  0  0  0  0  0  0  0  0  0  0  0
    2.3669   -1.9171    1.3117 H   0  0  0  0  0  0  0  0  0  0  0  0
    4.7488   -1.7342    1.0431 H   0  0  0  0  0  0  0  0  0  0  0  0
   -0.1229   -1.5416   -1.9643 H   0  0  0  0  0  0  0  0  0  0  0  0
   -0.0043   -3.3084   -1.7719 H   0  0  0  0  0  0  0  0  0  0  0  0
    1.3741   -2.3751   -2.3288 H   0  0  0  0  0  0  0  0  0  0  0  0
    3.6163    2.6748    1.2116 H   0  0  0  0  0  0  0  0  0  0  0  0
    3.3294   -2.2983   -1.6089 H   0  0  0  0  0  0  0  0  0  0  0  0
    3.5803    0.7244   -1.1796 H   0  0  0  0  0  0  0  0  0  0  0  0
    7.7026   -1.4853    0.8784 H   0  0  0  0  0  0  0  0  0  0  0  0
    7.9590    1.4668   -0.7613 H   0  0  0  0  0  0  0  0  0  0  0  0
  1  9  1  0  0  0  0
  1 45  1  0  0  0  0
  2 14  2  0  0  0  0
  3 17  2  0  0  0  0
  4 24  1  0  0  0  0
  4 69  1  0  0  0  0
  5 26  1  0  0  0  0
  5 70  1  0  0  0  0
  6 30  2  0  0  0  0
  7 10  1  0  0  0  0
  7 11  1  0  0  0  0
  7 14  1  0  0  0  0
  8  9  1  0  0  0  0
  8 11  1  0  0  0  0
  8 12  1  0  0  0  0
  8 36  1  0  0  0  0
  9 10  1  0  0  0  0
  9 37  1  0  0  0  0
 10 13  1  0  0  0  0
 10 38  1  0  0  0  0
 11 39  1  0  0  0  0
 11 40  1  0  0  0  0
 12 41  1  0  0  0  0
 12 42  1  0  0  0  0
 12 43  1  0  0  0  0
 13 16  2  0  0  0  0
 13 44  1  0  0  0  0
 14 15  1  0  0  0  0
 15 17  1  0  0  0  0
 15 46  1  0  0  0  0
 15 47  1  0  0  0  0
 16 18  1  0  0  0  0
 16 48  1  0  0  0  0
 17 20  1  0  0  0  0
 18 19  2  0  0  0  0
 18 49  1  0  0  0  0
 19 21  1  0  0  0  0
 19 23  1  0  0  0  0
 20 22  2  0  0  0  0
 20 50  1  0  0  0  0
 21 51  1  0  0  0  0
 21 52  1  0  0  0  0
 21 53  1  0  0  0  0
 22 25  1  0  0  0  0
 22 54  1  0  0  0  0
 23 28  2  0  0  0  0
 23 55  1  0  0  0  0
 24 26  1  0  0  0  0
 24 27  1  0  0  0  0
 24 56  1  0  0  0  0
 25 29  2  0  0  0  0
 25 32  1  0  0  0  0
 26 30  1  0  0  0  0
 26 57  1  0  0  0  0
 27 31  1  0  0  0  0
 27 58  1  0  0  0  0
 27 59  1  0  0  0  0
 28 33  1  0  0  0  0
 28 60  1  0  0  0  0
 29 34  1  0  0  0  0
 29 61  1  0  0  0  0
 30 35  1  0  0  0  0
 31 34  2  0  0  0  0
 31 62  1  0  0  0  0
 32 63  1  0  0  0  0
 32 64  1  0  0  0  0
 32 65  1  0  0  0  0
 33 35  2  0  0  0  0
 33 66  1  0  0  0  0
 34 67  1  0  0  0  0
 35 68  1  0  0  0  0
M  END
> <PUBCHEM_COMPOUND_CID>
132605045

> <PUBCHEM_CONFORMER_RMSD>
0.8

> <PUBCHEM_CONFORMER_DIVERSEORDER>
1
6
9
7
12
10
4
3
2
11
8
5

> <PUBCHEM_MMFF94_PARTIAL_CHARGES>
48
1 -0.68
10 0.44
11 0.3
13 -0.29
14 0.57
15 0.12
16 -0.15
17 0.49
18 -0.15
19 -0.14
2 -0.57
20 -0.14
21 0.14
22 -0.15
23 -0.15
24 0.28
25 -0.14
26 0.34
27 0.14
28 -0.15
29 -0.15
3 -0.57
30 0.49
31 -0.29
32 0.14
33 -0.15
34 -0.15
35 -0.14
4 -0.68
44 0.15
45 0.4
48 0.15
49 0.15
5 -0.68
50 0.15
54 0.15
55 0.15
6 -0.57
60 0.15
61 0.15
62 0.15
66 0.15
67 0.15
68 0.15
69 0.4
7 -0.66
70 0.4
9 0.28

> <PUBCHEM_EFFECTIVE_ROTOR_COUNT>
1.4

> <PUBCHEM_PHARMACOPHORE_FEATURES>
11
1 1 acceptor
1 1 donor
1 15 anion
1 2 acceptor
1 3 acceptor
1 4 acceptor
1 4 donor
1 5 acceptor
1 5 donor
1 6 acceptor
5 7 8 9 10 11 rings

> <PUBCHEM_HEAVY_ATOM_COUNT>
35

> <PUBCHEM_ATOM_DEF_STEREO_COUNT>
5

> <PUBCHEM_ATOM_UDEF_STEREO_COUNT>
0

> <PUBCHEM_BOND_DEF_STEREO_COUNT>
7

> <PUBCHEM_BOND_UDEF_STEREO_COUNT>
0

> <PUBCHEM_ISOTOPIC_ATOM_COUNT>
0

> <PUBCHEM_COMPONENT_COUNT>
1

> <PUBCHEM_CACTVS_TAUTO_COUNT>
1001

> <PUBCHEM_CONFORMER_ID>
07E7647500000001

> <PUBCHEM_MMFF94_ENERGY>
80.9258

> <PUBCHEM_FEATURE_SELFOVERLAP>
55.835

> <PUBCHEM_SHAPE_FINGERPRINT>
10369192 42 14056721236447487473
11135926 11 18412826867750731549
11513181 2 17700990855080210814
13402501 40 18411140250946388040
13811026 1 18410287025512053000
14931854 50 18412263904659298652
15001296 14 18410853270438983920
15082195 135 18200589190281829658
15183329 4 18408319986509936056
15968369 153 18060127761487028704
16067689 302 18271530909320154303
19958102 18 18260544489813189436
20028762 73 17917712349741935406
20721686 56 18412548717421716610
21279426 13 18410014342634233582
23559900 14 18341607178793507673
463206 1 18341335500758336345
46939830 39 17749116607903658244
508706 21 18040434438528234435
6009941 240 17822014233367547522
6036956 94 18336000725906364828
6371009 1 18339078186485815130

> <PUBCHEM_SHAPE_MULTIPOLES>
680.09
19.06
4.23
1.86
14.47
0.66
-0.25
2.92
-10.75
-0.6
0.92
-2.68
-0.2
1.44

> <PUBCHEM_SHAPE_SELFOVERLAP>
1389.467

> <PUBCHEM_SHAPE_VOLUME>
389.9

> <PUBCHEM_COORDINATE_TYPE>
2
5
10

$$$$
