REMARK  Name = 132607644
REMARK  2 active torsions:
REMARK  status: ('A' for Active; 'I' for Inactive)
REMARK    1  A    between atoms: N_2  and  C_11
REMARK    2  A    between atoms: N_3  and  C_19
REMARK                            x       y       z     vdW  Elec       q    Type
REMARK                         _______ _______ _______ _____ _____    ______ ____
ROOT
ATOM      1  O   UNL     1      -0.861  -1.869   0.001  0.00  0.00    -0.252 OA
ATOM      2  N   UNL     1       0.565  -0.006   0.000  0.00  0.00    -0.270 N 
ATOM      3  N   UNL     1      -1.738   0.299   0.000  0.00  0.00    -0.268 N 
ATOM      4  C   UNL     1      -0.705  -0.652   0.000  0.00  0.00    +0.308 C 
ATOM      5  H   UNL     1       0.539   0.978  -0.001  0.00  0.00    +0.156 HD
ATOM      6  H   UNL     1      -1.456   1.242  -0.001  0.00  0.00    +0.156 HD
ENDROOT
BRANCH   2  11
ATOM      7  S   UNL     1       3.671  -2.356  -0.001  0.00  0.00    -0.070 S 
ATOM      8  N   UNL     1       5.445  -0.367   0.000  0.00  0.00    -0.241 NA
ATOM      9  N   UNL     1       4.656   1.925   0.000  0.00  0.00    -0.234 NA
ATOM     10  C   UNL     1       3.062   0.153   0.000  0.00  0.00    +0.136 C 
ATOM     11  C   UNL     1       1.827  -0.568   0.000  0.00  0.00    +0.048 C 
ATOM     12  C   UNL     1       4.144  -0.718   0.000  0.00  0.00    +0.097 C 
ATOM     13  C   UNL     1       3.369   1.518   0.000  0.00  0.00    +0.110 C 
ATOM     14  C   UNL     1       2.014  -1.933   0.000  0.00  0.00    +0.048 C 
ATOM     15  C   UNL     1       5.604   0.968   0.000  0.00  0.00    +0.252 C 
ATOM     16  N   UNL     1       2.352   2.492   0.000  0.00  0.00    -0.346 N 
ATOM     17  H   UNL     1       2.585   3.448   0.000  0.00  0.00    +0.143 HD
ATOM     18  H   UNL     1       1.406   2.216   0.000  0.00  0.00    +0.143 HD
ENDBRANCH   2  11
BRANCH   3  19
ATOM     19  C   UNL     1      -3.134   0.069   0.000  0.00  0.00    +0.051 C 
ATOM     20  C   UNL     1      -5.396   0.919   0.000  0.00  0.00    -0.021 C 
ATOM     21  C   UNL     1      -4.019   1.147   0.000  0.00  0.00    +0.010 C 
ATOM     22  C   UNL     1      -3.625  -1.237   0.001  0.00  0.00    +0.015 C 
ATOM     23  C   UNL     1      -5.886  -0.387   0.000  0.00  0.00    -0.004 C 
ATOM     24  C   UNL     1      -5.001  -1.465   0.000  0.00  0.00    +0.001 C 
ATOM     25  C   UNL     1      -6.342   2.071   0.000  0.00  0.00    +0.031 C 
ENDBRANCH   3  19
TORSDOF 2
