132609320
  -OEChem-03292013293D

 54 55  0     1  0  0  0  0  0999 V2000
    0.6261   -1.1907   -1.7531 O   0  0  0  0  0  0  0  0  0  0  0  0
    1.5645   -2.6218    2.0148 O   0  0  0  0  0  0  0  0  0  0  0  0
    3.3341   -3.0245   -0.0771 O   0  0  0  0  0  0  0  0  0  0  0  0
    4.2272   -0.6830   -1.6092 O   0  0  0  0  0  0  0  0  0  0  0  0
    4.5965    3.9997    0.8083 O   0  0  0  0  0  0  0  0  0  0  0  0
    0.0290   -1.4387    0.5279 N   0  0  0  0  0  0  0  0  0  0  0  0
    2.6413    5.0396    0.1896 N   0  0  0  0  0  0  0  0  0  0  0  0
    1.9901   -1.6132   -1.5184 C   0  0  2  0  0  0  0  0  0  0  0  0
    2.0109   -2.5736   -0.3353 C   0  0  2  0  0  0  0  0  0  0  0  0
    1.4198   -1.8003    0.8536 C   0  0  2  0  0  0  0  0  0  0  0  0
    2.8742   -0.3685   -1.2817 C   0  0  1  0  0  0  0  0  0  0  0  0
    2.8474    0.1390    0.1461 C   0  0  0  0  0  0  0  0  0  0  0  0
    2.1738   -0.5133    1.1120 C   0  0  0  0  0  0  0  0  0  0  0  0
    3.5785    1.4204    0.4231 C   0  0  0  0  0  0  0  0  0  0  0  0
   -0.2362   -1.1571   -0.7002 C   0  0  0  0  0  0  0  0  0  0  0  0
    2.6986    2.6347    0.1600 C   0  0  0  0  0  0  0  0  0  0  0  0
    0.5548   -3.6160    2.0691 C   0  0  0  0  0  0  0  0  0  0  0  0
   -1.5579   -0.7513   -1.1830 C   0  0  0  0  0  0  0  0  0  0  0  0
    3.4319    3.9352    0.4257 C   0  0  0  0  0  0  0  0  0  0  0  0
   -2.3671   -0.0896   -0.3496 C   0  0  0  0  0  0  0  0  0  0  0  0
   -7.0026    0.8068    0.5285 C   0  0  0  0  0  0  0  0  0  0  0  0
   -3.6888    0.3517   -0.7353 C   0  0  0  0  0  0  0  0  0  0  0  0
   -5.8885    1.4764   -0.2976 C   0  0  0  0  0  0  0  0  0  0  0  0
   -4.5109    1.0163    0.0907 C   0  0  0  0  0  0  0  0  0  0  0  0
   -6.9550   -0.7106    0.3352 C   0  0  0  0  0  0  0  0  0  0  0  0
   -8.3915    1.3322    0.1557 C   0  0  0  0  0  0  0  0  0  0  0  0
    2.3281   -2.1368   -2.4204 H   0  0  0  0  0  0  0  0  0  0  0  0
    1.4051   -3.4553   -0.5729 H   0  0  0  0  0  0  0  0  0  0  0  0
    2.5477    0.4376   -1.9497 H   0  0  0  0  0  0  0  0  0  0  0  0
    2.1416   -0.1047    2.1191 H   0  0  0  0  0  0  0  0  0  0  0  0
    3.9165    1.4373    1.4682 H   0  0  0  0  0  0  0  0  0  0  0  0
    4.4957    1.4726   -0.1762 H   0  0  0  0  0  0  0  0  0  0  0  0
    3.6620   -3.4498   -0.8877 H   0  0  0  0  0  0  0  0  0  0  0  0
    4.2520   -0.9268   -2.5502 H   0  0  0  0  0  0  0  0  0  0  0  0
    1.8081    2.6085    0.8004 H   0  0  0  0  0  0  0  0  0  0  0  0
    2.3593    2.6461   -0.8829 H   0  0  0  0  0  0  0  0  0  0  0  0
    0.7727   -4.2580    2.9284 H   0  0  0  0  0  0  0  0  0  0  0  0
    0.5387   -4.2553    1.1835 H   0  0  0  0  0  0  0  0  0  0  0  0
   -0.4306   -3.1728    2.2428 H   0  0  0  0  0  0  0  0  0  0  0  0
   -1.8353   -0.9876   -2.2044 H   0  0  0  0  0  0  0  0  0  0  0  0
   -2.0526    0.1452    0.6644 H   0  0  0  0  0  0  0  0  0  0  0  0
   -6.8365    1.0225    1.5921 H   0  0  0  0  0  0  0  0  0  0  0  0
   -4.0171    0.1211   -1.7457 H   0  0  0  0  0  0  0  0  0  0  0  0
   -5.9351    2.5629   -0.1520 H   0  0  0  0  0  0  0  0  0  0  0  0
   -6.0666    1.3022   -1.3667 H   0  0  0  0  0  0  0  0  0  0  0  0
    3.0016    5.9781    0.3264 H   0  0  0  0  0  0  0  0  0  0  0  0
    1.6799    4.9612   -0.1264 H   0  0  0  0  0  0  0  0  0  0  0  0
   -4.1904    1.2519    1.1032 H   0  0  0  0  0  0  0  0  0  0  0  0
   -6.0279   -1.1420    0.7254 H   0  0  0  0  0  0  0  0  0  0  0  0
   -9.1650    0.8649    0.7741 H   0  0  0  0  0  0  0  0  0  0  0  0
   -7.7801   -1.1926    0.8713 H   0  0  0  0  0  0  0  0  0  0  0  0
   -8.4475    2.4149    0.3094 H   0  0  0  0  0  0  0  0  0  0  0  0
   -8.6243    1.1266   -0.8946 H   0  0  0  0  0  0  0  0  0  0  0  0
   -7.0414   -0.9814   -0.7229 H   0  0  0  0  0  0  0  0  0  0  0  0
  1  8  1  0  0  0  0
  1 15  1  0  0  0  0
  2 10  1  0  0  0  0
  2 17  1  0  0  0  0
  3  9  1  0  0  0  0
  3 33  1  0  0  0  0
  4 11  1  0  0  0  0
  4 34  1  0  0  0  0
  5 19  2  0  0  0  0
  6 10  1  0  0  0  0
  6 15  2  0  0  0  0
  7 19  1  0  0  0  0
  7 46  1  0  0  0  0
  7 47  1  0  0  0  0
  8  9  1  0  0  0  0
  8 11  1  0  0  0  0
  8 27  1  0  0  0  0
  9 10  1  0  0  0  0
  9 28  1  0  0  0  0
 10 13  1  0  0  0  0
 11 12  1  0  0  0  0
 11 29  1  0  0  0  0
 12 13  2  0  0  0  0
 12 14  1  0  0  0  0
 13 30  1  0  0  0  0
 14 16  1  0  0  0  0
 14 31  1  0  0  0  0
 14 32  1  0  0  0  0
 15 18  1  0  0  0  0
 16 19  1  0  0  0  0
 16 35  1  0  0  0  0
 16 36  1  0  0  0  0
 17 37  1  0  0  0  0
 17 38  1  0  0  0  0
 17 39  1  0  0  0  0
 18 20  2  0  0  0  0
 18 40  1  0  0  0  0
 20 22  1  0  0  0  0
 20 41  1  0  0  0  0
 21 23  1  0  0  0  0
 21 25  1  0  0  0  0
 21 26  1  0  0  0  0
 21 42  1  0  0  0  0
 22 24  2  0  0  0  0
 22 43  1  0  0  0  0
 23 24  1  0  0  0  0
 23 44  1  0  0  0  0
 23 45  1  0  0  0  0
 24 48  1  0  0  0  0
 25 49  1  0  0  0  0
 25 51  1  0  0  0  0
 25 54  1  0  0  0  0
 26 50  1  0  0  0  0
 26 52  1  0  0  0  0
 26 53  1  0  0  0  0
M  END
> <PUBCHEM_COMPOUND_CID>
132609320

> <PUBCHEM_CONFORMER_RMSD>
1

> <PUBCHEM_CONFORMER_DIVERSEORDER>
1
33
56
20
11
34
55
39
41
42
28
27
12
15
47
32
14
6
53
21
46
25
7
54
9
2
30
17
16
13
19
45
26
35
10
37
3
8
48
22
18
36
24
4
50
5
44
38
29
43
40
23
49
51
52
31

> <PUBCHEM_MMFF94_PARTIAL_CHARGES>
32
1 -0.43
10 0.66
11 0.42
12 -0.28
13 -0.29
14 0.14
15 0.59
16 0.06
17 0.28
18 -0.14
19 0.57
2 -0.56
20 -0.15
22 -0.15
23 0.14
24 -0.29
3 -0.68
30 0.15
33 0.4
34 0.4
4 -0.68
40 0.15
41 0.15
43 0.15
46 0.37
47 0.37
48 0.15
5 -0.57
6 -0.7
7 -0.8
8 0.28
9 0.28

> <PUBCHEM_EFFECTIVE_ROTOR_COUNT>
8.6

> <PUBCHEM_PHARMACOPHORE_FEATURES>
10
1 2 acceptor
1 3 acceptor
1 3 donor
1 4 acceptor
1 4 donor
1 5 acceptor
1 7 donor
3 21 25 26 hydrophobe
6 1 6 8 9 10 15 rings
6 8 9 10 11 12 13 rings

> <PUBCHEM_HEAVY_ATOM_COUNT>
26

> <PUBCHEM_ATOM_DEF_STEREO_COUNT>
3

> <PUBCHEM_ATOM_UDEF_STEREO_COUNT>
1

> <PUBCHEM_BOND_DEF_STEREO_COUNT>
2

> <PUBCHEM_BOND_UDEF_STEREO_COUNT>
0

> <PUBCHEM_ISOTOPIC_ATOM_COUNT>
0

> <PUBCHEM_COMPONENT_COUNT>
1

> <PUBCHEM_CACTVS_TAUTO_COUNT>
9

> <PUBCHEM_CONFORMER_ID>
07E7752800000001

> <PUBCHEM_MMFF94_ENERGY>
55.7998

> <PUBCHEM_FEATURE_SELFOVERLAP>
52.256

> <PUBCHEM_SHAPE_FINGERPRINT>
10165383 225 17822019700834684782
10411042 1 17980764840258776446
10673678 19 18059016193601378441
10675989 125 18200876291692676713
10816530 23 18413110585086194603
12596602 18 18411421692560561555
12788726 201 18193003617677513262
13533116 47 17969223335732406595
13955234 65 18260822649307087611
14251764 75 18196650915772586269
14565420 104 18334288812171103993
146900 427 18335421245208422099
14849402 71 18335135402044353584
15142526 21 18263639731193586105
15183329 4 10015577316869489699
15198563 99 10416259080599578032
15840311 113 17561069299253293154
17844677 252 18269560443054889033
17980427 26 18265032769824822462
21344244 78 18120919625747009978
21365058 113 17985846829697845678
21475661 188 18338516451570463884
21716022 299 14619416025238953877
23845131 108 18187641470397077947
239999 70 18342741780361652655
3411729 13 18341049700775860637
34797466 226 18202287979555584277
394071 54 18411705392014203357
427121 178 17748827423381197562
474 4 18341607170087021300
5207 123 9943539517745076385
56616090 278 18410570669616189602
57091435 61 18411417358189804729
57527585 21 17403451270426594540
633830 44 18340479066640325799
7288768 16 18118956142771890024
9981440 41 17839170063798751528

> <PUBCHEM_SHAPE_MULTIPOLES>
495.76
15.12
4.89
1.48
45.41
5.21
-0.08
10.64
-1.21
-9.45
-2.2
-1.17
-1.29
0.82

> <PUBCHEM_SHAPE_SELFOVERLAP>
1018.277

> <PUBCHEM_SHAPE_VOLUME>
281

> <PUBCHEM_COORDINATE_TYPE>
2
5
10

$$$$
