REMARK  Name = 132662
REMARK  10 active torsions:
REMARK  status: ('A' for Active; 'I' for Inactive)
REMARK    1  A    between atoms: C_1  and  N_3
REMARK    2  A    between atoms: C_1  and  C_8
REMARK    3  A    between atoms: C_1  and  C_20
REMARK    4  A    between atoms: C_8  and  O_9
REMARK    5  A    between atoms: O_9  and  C_10
REMARK    6  A    between atoms: C_10  and  C_11
REMARK    7  A    between atoms: C_11  and  S_12
REMARK    8  A    between atoms: S_12  and  S_13
REMARK    9  A    between atoms: S_13  and  C_15
REMARK   10  A    between atoms: C_20  and  C_21
REMARK                            x       y       z     vdW  Elec       q    Type
REMARK                         _______ _______ _______ _____ _____    ______ ____
ROOT
ATOM      1  C   UNL     1       2.531  -0.935  -0.590  0.00  0.00    +0.176 C 
ENDROOT
BRANCH   1   3
ATOM      2  O   UNL     1       2.526  -3.726   0.210  0.00  0.00    -0.275 OA
ATOM      3  N   UNL     1       1.386  -1.758  -0.287  0.00  0.00    -0.297 N 
ATOM      4  C   UNL     1       1.483  -3.088   0.089  0.00  0.00    +0.223 C 
ATOM      5  C   UNL     1       0.138  -3.704   0.371  0.00  0.00    +0.095 C 
ATOM      6  H   UNL     1       0.491  -1.353  -0.350  0.00  0.00    +0.150 HD
ENDBRANCH   1   3
BRANCH   1   8
ATOM      7  O   UNL     1       3.107   0.787  -2.183  0.00  0.00    -0.248 OA
ATOM      8  C   UNL     1       2.242   0.063  -1.703  0.00  0.00    +0.335 C 
BRANCH   8   9
ATOM      9  O   UNL     1       0.930   0.057  -2.071  0.00  0.00    -0.446 OA
BRANCH   9  10
ATOM     10  C   UNL     1       0.569   0.982  -3.102  0.00  0.00    +0.221 C 
BRANCH  10  11
ATOM     11  C   UNL     1      -0.875   1.424  -2.924  0.00  0.00    +0.116 C 
BRANCH  11  12
ATOM     12  S   UNL     1      -1.129   2.232  -1.315  0.00  0.00    -0.072 S 
BRANCH  12  13
ATOM     13  S   UNL     1      -3.165   2.065  -1.091  0.00  0.00    -0.036 S 
BRANCH  13  15
ATOM     14  N   UNL     1      -2.702   0.401   0.954  0.00  0.00    -0.237 NA
ATOM     15  C   UNL     1      -3.315   0.500  -0.247  0.00  0.00    +0.116 C 
ATOM     16  C   UNL     1      -4.034  -0.526  -0.838  0.00  0.00    +0.026 C 
ATOM     17  C   UNL     1      -4.129  -1.732  -0.153  0.00  0.00    +0.004 C 
ATOM     18  C   UNL     1      -3.512  -1.873   1.085  0.00  0.00    +0.021 C 
ATOM     19  C   UNL     1      -2.817  -0.786   1.590  0.00  0.00    +0.099 C 
ENDBRANCH  13  15
ENDBRANCH  12  13
ENDBRANCH  11  12
ENDBRANCH  10  11
ENDBRANCH   9  10
ENDBRANCH   8   9
ENDBRANCH   1   8
BRANCH   1  20
ATOM     20  C   UNL     1       3.090  -0.250   0.665  0.00  0.00    +0.057 C 
BRANCH  20  21
ATOM     21  C   UNL     1       2.148   0.736   1.320  0.00  0.00    -0.020 C 
ATOM     22  C   UNL     1       2.165   2.076   0.936  0.00  0.00    -0.004 C 
ATOM     23  C   UNL     1       1.263   0.304   2.307  0.00  0.00    -0.004 C 
ATOM     24  C   UNL     1       1.296   2.986   1.540  0.00  0.00    -0.000 C 
ATOM     25  C   UNL     1       0.394   1.213   2.911  0.00  0.00    -0.000 C 
ATOM     26  C   UNL     1       0.410   2.554   2.527  0.00  0.00    -0.000 C 
ENDBRANCH  20  21
ENDBRANCH   1  20
TORSDOF 10
