REMARK  Name = 132756
REMARK  4 active torsions:
REMARK  status: ('A' for Active; 'I' for Inactive)
REMARK    1  A    between atoms: C_8  and  S_15
REMARK    2  A    between atoms: S_15  and  C_16
REMARK    3  A    between atoms: C_16  and  C_17
REMARK    4  A    between atoms: C_17  and  N_20
REMARK                            x       y       z     vdW  Elec       q    Type
REMARK                         _______ _______ _______ _____ _____    ______ ____
ROOT
ATOM      1  N   UNL     1       4.486   1.036  -0.447  0.00  0.00    -0.268 NA
ATOM      2  N   UNL     1       2.208  -1.473   0.364  0.00  0.00    -0.322 NA
ATOM      3  N   UNL     1       0.915   0.595   0.314  0.00  0.00    -0.323 NA
ATOM      4  N   UNL     1       4.567  -1.171  -0.140  0.00  0.00    -0.296 N 
ATOM      5  C   UNL     1       3.209   0.657  -0.142  0.00  0.00    +0.192 C 
ATOM      6  C   UNL     1       3.285  -0.717   0.044  0.00  0.00    +0.194 C 
ATOM      7  C   UNL     1       2.008   1.324  -0.006  0.00  0.00    +0.189 C 
ATOM      8  C   UNL     1       1.080  -0.739   0.477  0.00  0.00    +0.170 C 
ATOM      9  C   UNL     1       5.263  -0.093  -0.433  0.00  0.00    +0.164 C 
ATOM     10  H   UNL     1       4.792   1.951  -0.640  0.00  0.00    +0.126 HD
ATOM     11  H   UNL     1       4.893  -2.097  -0.068  0.00  0.00    +0.150 HD
ATOM     12  N   UNL     1       1.919   2.713  -0.192  0.00  0.00    -0.334 N 
ATOM     13  H   UNL     1       1.053   3.169  -0.090  0.00  0.00    +0.144 HD
ATOM     14  H   UNL     1       2.724   3.231  -0.425  0.00  0.00    +0.144 HD
ENDROOT
BRANCH   8  15
ATOM     15  S   UNL     1      -0.398  -1.653   0.896  0.00  0.00    -0.016 S 
BRANCH  15  16
ATOM     16  C   UNL     1      -1.682  -0.660   0.088  0.00  0.00    +0.097 C 
BRANCH  16  17
ATOM     17  C   UNL     1      -3.075  -1.239   0.298  0.00  0.00    +0.117 C 
BRANCH  17  20
ATOM     18  I   UNL     1      -4.546  -0.998  -2.303  0.00  0.00    +0.049 I 
ATOM     19  O   UNL     1      -4.519   0.920   1.526  0.00  0.00    -0.274 OA
ATOM     20  N   UNL     1      -4.110  -0.446  -0.308  0.00  0.00    -0.231 N 
ATOM     21  C   UNL     1      -4.771   0.597   0.362  0.00  0.00    +0.234 C 
ATOM     22  C   UNL     1      -5.840   1.345  -0.397  0.00  0.00    +0.096 C 
ENDBRANCH  17  20
ENDBRANCH  16  17
ENDBRANCH  15  16
ENDBRANCH   8  15
TORSDOF 4
