REMARK  Name = 132744
REMARK  15 active torsions:
REMARK  status: ('A' for Active; 'I' for Inactive)
REMARK    1  A    between atoms: C_1  and  C_21
REMARK    2  A    between atoms: C_4  and  O_14
REMARK    3  A    between atoms: C_6  and  O_12
REMARK    4  A    between atoms: O_14  and  C_16
REMARK    5  A    between atoms: C_16  and  C_17
REMARK    6  A    between atoms: C_17  and  C_19
REMARK    7  A    between atoms: C_21  and  C_22
REMARK    8  A    between atoms: C_22  and  C_23
REMARK    9  A    between atoms: C_23  and  O_24
REMARK   10  A    between atoms: C_23  and  C_26
REMARK   11  A    between atoms: C_26  and  C_27
REMARK   12  A    between atoms: C_27  and  O_28
REMARK   13  A    between atoms: C_27  and  C_30
REMARK   14  A    between atoms: C_30  and  C_32
REMARK   15  A    between atoms: C_32  and  O_33
REMARK                            x       y       z     vdW  Elec       q    Type
REMARK                         _______ _______ _______ _____ _____    ______ ____
ROOT
ATOM      1  C   UNL     1      -0.084   0.563   0.636  0.00  0.00    +0.010 C 
ATOM      2  C   UNL     1      -1.017   0.976  -0.541  0.00  0.00    +0.063 C 
ATOM      3  C   UNL     1       0.746   1.775   1.137  0.00  0.00    +0.032 C 
ATOM      4  C   UNL     1      -2.011  -0.135  -0.959  0.00  0.00    +0.177 C 
ATOM      5  C   UNL     1      -1.753   2.282  -0.251  0.00  0.00    -0.021 C 
ATOM      6  C   UNL     1      -0.226   2.858   1.657  0.00  0.00    +0.132 C 
ATOM      7  C   UNL     1      -1.385   3.117   0.736  0.00  0.00    -0.002 C 
ATOM      8  C   UNL     1      -2.911   0.312  -2.120  0.00  0.00    +0.070 C 
ATOM      9  C   UNL     1       1.733   2.321   0.092  0.00  0.00    +0.003 C 
ATOM     10  C   UNL     1      -2.890   2.595  -1.099  0.00  0.00    -0.009 C 
ATOM     11  C   UNL     1      -3.410   1.718  -1.968  0.00  0.00    -0.023 C 
ENDROOT
BRANCH   6  12
ATOM     12  O   UNL     1       0.481   4.071   1.902  0.00  0.00    -0.380 OA
ATOM     13  H   UNL     1       1.227   3.895   2.497  0.00  0.00    +0.211 HD
ENDBRANCH   6  12
BRANCH   4  14
ATOM     14  O   UNL     1      -2.845  -0.516   0.135  0.00  0.00    -0.452 OA
BRANCH  14  16
ATOM     15  O   UNL     1      -3.629  -2.393  -0.954  0.00  0.00    -0.250 OA
ATOM     16  C   UNL     1      -3.762  -1.494  -0.133  0.00  0.00    +0.316 C 
BRANCH  16  17
ATOM     17  C   UNL     1      -4.999  -1.286   0.724  0.00  0.00    +0.099 C 
ATOM     18  C   UNL     1      -4.805  -2.037   2.038  0.00  0.00    +0.012 C 
BRANCH  17  19
ATOM     19  C   UNL     1      -6.269  -1.761   0.004  0.00  0.00    +0.011 C 
ATOM     20  C   UNL     1      -6.516  -1.015  -1.300  0.00  0.00    +0.001 C 
ENDBRANCH  17  19
ENDBRANCH  16  17
ENDBRANCH  14  16
ENDBRANCH   4  14
BRANCH   1  21
ATOM     21  C   UNL     1       0.809  -0.629   0.273  0.00  0.00    +0.003 C 
BRANCH  21  22
ATOM     22  C   UNL     1       1.682  -1.036   1.459  0.00  0.00    +0.029 C 
BRANCH  22  23
ATOM     23  C   UNL     1       2.540  -2.281   1.197  0.00  0.00    +0.113 C 
BRANCH  23  24
ATOM     24  O   UNL     1       1.664  -3.396   1.013  0.00  0.00    -0.384 OA
ATOM     25  H   UNL     1       1.064  -3.465   1.773  0.00  0.00    +0.210 HD
ENDBRANCH  23  24
BRANCH  23  26
ATOM     26  C   UNL     1       3.478  -2.193  -0.017  0.00  0.00    +0.059 C 
BRANCH  26  27
ATOM     27  C   UNL     1       4.491  -1.042   0.024  0.00  0.00    +0.124 C 
BRANCH  27  28
ATOM     28  O   UNL     1       5.349  -1.201   1.152  0.00  0.00    -0.384 OA
ATOM     29  H   UNL     1       4.819  -1.203   1.964  0.00  0.00    +0.210 HD
ENDBRANCH  27  28
BRANCH  27  30
ATOM     30  C   UNL     1       5.357  -1.044  -1.236  0.00  0.00    +0.139 C 
BRANCH  30  32
ATOM     31  O   UNL     1       6.239   1.115  -0.603  0.00  0.00    -0.250 OA
ATOM     32  C   UNL     1       6.399   0.047  -1.179  0.00  0.00    +0.316 C 
BRANCH  32  33
ATOM     33  O   UNL     1       7.545  -0.290  -1.822  0.00  0.00    -0.480 OA
ATOM     34  H   UNL     1       7.615  -1.121  -2.248  0.00  0.00    +0.295 HD
ENDBRANCH  32  33
ENDBRANCH  30  32
ENDBRANCH  27  30
ENDBRANCH  26  27
ENDBRANCH  23  26
ENDBRANCH  22  23
ENDBRANCH  21  22
ENDBRANCH   1  21
TORSDOF 15
