REMARK  Name = 132760
REMARK  10 active torsions:
REMARK  status: ('A' for Active; 'I' for Inactive)
REMARK    1  A    between atoms: C_5  and  N_11
REMARK    2  A    between atoms: C_7  and  C_22
REMARK    3  A    between atoms: C_9  and  C_32
REMARK    4  A    between atoms: C_12  and  C_14
REMARK    5  A    between atoms: C_14  and  C_15
REMARK    6  A    between atoms: C_22  and  O_23
REMARK    7  A    between atoms: O_23  and  C_24
REMARK    8  A    between atoms: C_24  and  O_25
REMARK    9  A    between atoms: O_25  and  C_27
REMARK   10  A    between atoms: C_27  and  C_28
REMARK                            x       y       z     vdW  Elec       q    Type
REMARK                         _______ _______ _______ _____ _____    ______ ____
ROOT
ATOM      1  S   UNL     1       1.538   0.987   1.278  0.00  0.00    -0.114 S 
ATOM      2  O   UNL     1      -0.040  -3.099  -0.284  0.00  0.00    -0.273 OA
ATOM      3  N   UNL     1      -0.081  -1.092   0.956  0.00  0.00    -0.242 N 
ATOM      4  C   UNL     1       1.107  -0.715   1.702  0.00  0.00    +0.155 C 
ATOM      5  C   UNL     1       1.837  -1.825   0.915  0.00  0.00    +0.178 C 
ATOM      6  C   UNL     1       0.423  -2.216   0.400  0.00  0.00    +0.251 C 
ATOM      7  C   UNL     1      -1.240  -0.382   0.970  0.00  0.00    +0.128 C 
ATOM      8  C   UNL     1      -0.042   1.658   1.902  0.00  0.00    +0.087 C 
ATOM      9  C   UNL     1      -1.279   0.888   1.441  0.00  0.00    +0.009 C 
ENDROOT
BRANCH   5  11
ATOM     10  O   UNL     1       4.724  -1.841   1.019  0.00  0.00    -0.275 OA
ATOM     11  N   UNL     1       2.760  -1.437  -0.150  0.00  0.00    -0.296 N 
ATOM     12  C   UNL     1       4.148  -1.480  -0.004  0.00  0.00    +0.227 C 
ATOM     13  H   UNL     1       2.387  -1.133  -1.009  0.00  0.00    +0.150 HD
BRANCH  12  14
ATOM     14  C   UNL     1       4.867  -1.024  -1.258  0.00  0.00    +0.111 C 
BRANCH  14  15
ATOM     15  C   UNL     1       5.749   0.177  -1.036  0.00  0.00    -0.013 C 
ATOM     16  C   UNL     1       5.223   1.451  -1.203  0.00  0.00    -0.004 C 
ATOM     17  C   UNL     1       7.074  -0.007  -0.669  0.00  0.00    -0.004 C 
ATOM     18  C   UNL     1       6.039   2.563  -0.998  0.00  0.00    -0.000 C 
ATOM     19  C   UNL     1       7.891   1.105  -0.464  0.00  0.00    -0.000 C 
ATOM     20  C   UNL     1       7.373   2.390  -0.628  0.00  0.00    -0.000 C 
ENDBRANCH  14  15
ENDBRANCH  12  14
ENDBRANCH   5  11
BRANCH   7  22
ATOM     21  O   UNL     1      -3.204  -1.704   1.076  0.00  0.00    -0.243 OA
ATOM     22  C   UNL     1      -2.420  -1.047   0.410  0.00  0.00    +0.358 C 
BRANCH  22  23
ATOM     23  O   UNL     1      -2.465  -0.799  -0.923  0.00  0.00    -0.404 OA
BRANCH  23  24
ATOM     24  C   UNL     1      -3.570  -1.379  -1.636  0.00  0.00    +0.433 C 
BRANCH  24  25
ATOM     25  O   UNL     1      -4.851  -0.914  -1.180  0.00  0.00    -0.408 OA
BRANCH  25  27
ATOM     26  O   UNL     1      -4.257   1.260  -1.641  0.00  0.00    -0.250 OA
ATOM     27  C   UNL     1      -5.066   0.434  -1.236  0.00  0.00    +0.319 C 
BRANCH  27  28
ATOM     28  C   UNL     1      -6.463   0.775  -0.708  0.00  0.00    +0.090 C 
ATOM     29  C   UNL     1      -6.688   2.290  -0.810  0.00  0.00    +0.011 C 
ATOM     30  C   UNL     1      -7.522   0.053  -1.556  0.00  0.00    +0.011 C 
ATOM     31  C   UNL     1      -6.590   0.311   0.749  0.00  0.00    +0.011 C 
ENDBRANCH  27  28
ENDBRANCH  25  27
ENDBRANCH  24  25
ENDBRANCH  23  24
ENDBRANCH  22  23
ENDBRANCH   7  22
BRANCH   9  32
ATOM     32  C   UNL     1      -2.485   1.687   1.551  0.00  0.00    -0.002 C 
ATOM     33  C   UNL     1      -2.489   2.930   2.017  0.00  0.00    -0.000 C 
ENDBRANCH   9  32
TORSDOF 10
