132856
  -OEChem-03292013323D

 39 39  0     1  0  0  0  0  0999 V2000
    0.4705   -0.0903   -0.7843 S   0  0  0  0  0  0  0  0  0  0  0  0
    2.9043   -1.8392   -1.7305 O   0  0  0  0  0  0  0  0  0  0  0  0
   -1.8214    2.6306    0.3117 O   0  0  0  0  0  0  0  0  0  0  0  0
   -2.8279    1.5576   -1.4557 O   0  0  0  0  0  0  0  0  0  0  0  0
   -3.2180   -2.0744    1.6927 O   0  0  0  0  0  0  0  0  0  0  0  0
   -2.6225   -0.9022   -0.2288 N   0  0  0  0  0  0  0  0  0  0  0  0
    2.0798   -0.4006    0.0327 C   0  0  1  0  0  0  0  0  0  0  0  0
    3.1776   -0.6353   -1.0152 C   0  0  1  0  0  0  0  0  0  0  0  0
    2.4127    0.7827    0.9471 C   0  0  0  0  0  0  0  0  0  0  0  0
    4.5529   -0.7732   -0.3556 C   0  0  0  0  0  0  0  0  0  0  0  0
    3.7859    0.6193    1.5958 C   0  0  0  0  0  0  0  0  0  0  0  0
    4.8755    0.4082    0.5504 C   0  0  0  0  0  0  0  0  0  0  0  0
   -0.5427    0.0339    0.7047 C   0  0  0  0  0  0  0  0  0  0  0  0
   -2.0309    0.2457    0.4138 C   0  0  1  0  0  0  0  0  0  0  0  0
   -2.2807    1.5364   -0.3579 C   0  0  0  0  0  0  0  0  0  0  0  0
   -3.1673   -1.9676    0.4701 C   0  0  0  0  0  0  0  0  0  0  0  0
   -3.7390   -3.0186   -0.4433 C   0  0  0  0  0  0  0  0  0  0  0  0
   -2.0089    3.8872   -0.3476 C   0  0  0  0  0  0  0  0  0  0  0  0
    1.9617   -1.3140    0.6291 H   0  0  0  0  0  0  0  0  0  0  0  0
    3.2137    0.1889   -1.7390 H   0  0  0  0  0  0  0  0  0  0  0  0
    2.3954    1.7256    0.3850 H   0  0  0  0  0  0  0  0  0  0  0  0
    1.7066    0.8777    1.7749 H   0  0  0  0  0  0  0  0  0  0  0  0
    4.5918   -1.7060    0.2222 H   0  0  0  0  0  0  0  0  0  0  0  0
    5.3233   -0.8746   -1.1297 H   0  0  0  0  0  0  0  0  0  0  0  0
    4.0186    1.5067    2.1953 H   0  0  0  0  0  0  0  0  0  0  0  0
    3.7674   -0.2356    2.2833 H   0  0  0  0  0  0  0  0  0  0  0  0
    4.9832    1.3160   -0.0558 H   0  0  0  0  0  0  0  0  0  0  0  0
    5.8369    0.2398    1.0483 H   0  0  0  0  0  0  0  0  0  0  0  0
   -0.4086   -0.8750    1.3015 H   0  0  0  0  0  0  0  0  0  0  0  0
   -0.2162    0.8866    1.3026 H   0  0  0  0  0  0  0  0  0  0  0  0
    2.0232   -1.7445   -2.1308 H   0  0  0  0  0  0  0  0  0  0  0  0
   -2.5514    0.3693    1.3730 H   0  0  0  0  0  0  0  0  0  0  0  0
   -2.6269   -0.9270   -1.2446 H   0  0  0  0  0  0  0  0  0  0  0  0
   -3.9847   -3.9143    0.1337 H   0  0  0  0  0  0  0  0  0  0  0  0
   -4.6466   -2.6355   -0.9175 H   0  0  0  0  0  0  0  0  0  0  0  0
   -3.0104   -3.2872   -1.2136 H   0  0  0  0  0  0  0  0  0  0  0  0
   -3.0751    4.0791   -0.5012 H   0  0  0  0  0  0  0  0  0  0  0  0
   -1.5999    4.6720    0.2944 H   0  0  0  0  0  0  0  0  0  0  0  0
   -1.4719    3.8980   -1.3008 H   0  0  0  0  0  0  0  0  0  0  0  0
  1  7  1  0  0  0  0
  1 13  1  0  0  0  0
  2  8  1  0  0  0  0
  2 31  1  0  0  0  0
  3 15  1  0  0  0  0
  3 18  1  0  0  0  0
  4 15  2  0  0  0  0
  5 16  2  0  0  0  0
  6 14  1  0  0  0  0
  6 16  1  0  0  0  0
  6 33  1  0  0  0  0
  7  8  1  0  0  0  0
  7  9  1  0  0  0  0
  7 19  1  0  0  0  0
  8 10  1  0  0  0  0
  8 20  1  0  0  0  0
  9 11  1  0  0  0  0
  9 21  1  0  0  0  0
  9 22  1  0  0  0  0
 10 12  1  0  0  0  0
 10 23  1  0  0  0  0
 10 24  1  0  0  0  0
 11 12  1  0  0  0  0
 11 25  1  0  0  0  0
 11 26  1  0  0  0  0
 12 27  1  0  0  0  0
 12 28  1  0  0  0  0
 13 14  1  0  0  0  0
 13 29  1  0  0  0  0
 13 30  1  0  0  0  0
 14 15  1  0  0  0  0
 14 32  1  0  0  0  0
 16 17  1  0  0  0  0
 17 34  1  0  0  0  0
 17 35  1  0  0  0  0
 17 36  1  0  0  0  0
 18 37  1  0  0  0  0
 18 38  1  0  0  0  0
 18 39  1  0  0  0  0
M  END
> <PUBCHEM_COMPOUND_CID>
132856

> <PUBCHEM_CONFORMER_RMSD>
0.8

> <PUBCHEM_CONFORMER_DIVERSEORDER>
1
48
134
178
4
86
58
62
198
124
29
121
156
25
180
168
137
166
150
193
3
15
171
186
104
93
142
163
173
33
54
183
158
119
31
106
161
207
28
57
91
36
78
146
162
73
85
141
160
131
189
26
108
55
177
90
100
60
139
21
8
136
169
64
118
92
101
14
188
127
20
157
53
35
115
87
170
201
197
152
143
42
147
40
185
46
38
165
144
111
113
105
7
10
50
43
167
95
9
172
32
153
114
107
65
6
71
120
69
109
117
202
135
187
110
190
140
199
174
61
75
116
103
70
83
112
176
82
132
175
89
45
51
11
59
2
138
128
191
148
12
16
81
97
194
145
151
179
98
74
182
96
66
149
41
154
159
39
130
19
133
84
27
68
122
67
195
205
80
102
47
52
56
125
126
184
13
204
79
94
192
30
22
203
5
88
37
123
17
49
72
200
206
164
99
155
34
23
181
63
196
18
24
77
44
129
76

> <PUBCHEM_MMFF94_PARTIAL_CHARGES>
16
1 -0.46
13 0.23
14 0.36
15 0.66
16 0.57
17 0.06
18 0.28
2 -0.68
3 -0.43
31 0.4
33 0.37
4 -0.57
5 -0.57
6 -0.73
7 0.23
8 0.28

> <PUBCHEM_EFFECTIVE_ROTOR_COUNT>
8.2

> <PUBCHEM_PHARMACOPHORE_FEATURES>
6
1 2 acceptor
1 2 donor
1 4 acceptor
1 5 acceptor
1 6 donor
6 7 8 9 10 11 12 rings

> <PUBCHEM_HEAVY_ATOM_COUNT>
18

> <PUBCHEM_ATOM_DEF_STEREO_COUNT>
1

> <PUBCHEM_ATOM_UDEF_STEREO_COUNT>
2

> <PUBCHEM_BOND_DEF_STEREO_COUNT>
0

> <PUBCHEM_BOND_UDEF_STEREO_COUNT>
0

> <PUBCHEM_ISOTOPIC_ATOM_COUNT>
0

> <PUBCHEM_COMPONENT_COUNT>
1

> <PUBCHEM_CACTVS_TAUTO_COUNT>
2

> <PUBCHEM_CONFORMER_ID>
000206F800000001

> <PUBCHEM_MMFF94_ENERGY>
32.1056

> <PUBCHEM_FEATURE_SELFOVERLAP>
30.447

> <PUBCHEM_SHAPE_FINGERPRINT>
11370993 144 17702965646472104731
12173636 292 18120654626476031293
12346177 29 18186515484179100991
12363563 72 18190184679341360083
12500047 106 18193838141647302516
12553582 1 18193855953030121047
13296908 3 18272653437355383274
13583140 156 18201993297074630702
14178342 30 18188208698016320410
14289901 80 18334582334768293914
15099037 37 18410007771107449818
1813 80 18193852650453302579
19049666 15 18199472069377291142
19141452 34 18129951190847365507
20645477 56 18267871583734486273
20645477 70 16987996069033490356
20671657 53 16878785057669569847
20681677 76 18342728642035543224
20693207 138 17915765135728718526
21065201 7 18337107870133221538
21304303 282 17612547260802181053
21339142 36 18336535127638450061
21728266 224 18042384941843316010
22943178 12 18202003175383211102
23402539 116 18261666077435365843
23557571 272 18409726270419055085
23559900 14 18340204077765734718
314173 85 18337679727759410379
3268164 11 18113894978868915655
6049 1 18131078108265259580
621550 34 18130504261958761450
633830 44 14979959224656514920
6913067 236 17987217005885705490
7399639 24 18058153111349020536
7615 1 17168152238702602292
81228 2 18334867104048321681
9709674 26 18272366413175327452

> <PUBCHEM_SHAPE_MULTIPOLES>
345.82
9.14
3.31
1.35
6.65
2.1
0.05
-3.57
0.73
-5.62
-0.52
0.47
-0.31
1.85

> <PUBCHEM_SHAPE_SELFOVERLAP>
664.579

> <PUBCHEM_SHAPE_VOLUME>
211.5

> <PUBCHEM_COORDINATE_TYPE>
2
5
10

$$$$
