REMARK  Name = 132859
REMARK  10 active torsions:
REMARK  status: ('A' for Active; 'I' for Inactive)
REMARK    1  A    between atoms: C_2  and  C_9
REMARK    2  A    between atoms: C_3  and  N_25
REMARK    3  A    between atoms: N_8  and  C_13
REMARK    4  A    between atoms: C_12  and  C_19
REMARK    5  A    between atoms: N_18  and  C_21
REMARK    6  A    between atoms: C_21  and  C_22
REMARK    7  A    between atoms: C_26  and  C_28
REMARK    8  A    between atoms: C_28  and  C_29
REMARK    9  A    between atoms: C_29  and  O_30
REMARK   10  A    between atoms: O_30  and  S_31
REMARK                            x       y       z     vdW  Elec       q    Type
REMARK                         _______ _______ _______ _____ _____    ______ ____
ROOT
ATOM      1  N   UNL     1      -0.556   3.385  -0.136  0.00  0.00    -0.280 N 
ATOM      2  C   UNL     1      -0.296   2.040  -0.092  0.00  0.00    +0.107 C 
ATOM      3  C   UNL     1      -2.516   2.354  -0.296  0.00  0.00    +0.067 C 
ATOM      4  C   UNL     1      -1.498   1.375  -0.190  0.00  0.00    +0.035 C 
ATOM      5  C   UNL     1      -1.905   3.588  -0.260  0.00  0.00    +0.080 C 
ATOM      6  C   UNL     1       0.430   4.441  -0.066  0.00  0.00    +0.117 C 
ENDROOT
BRANCH   2   9
ATOM      7  O   UNL     1       1.951   2.060   0.611  0.00  0.00    -0.268 OA
ATOM      8  N   UNL     1       1.190   0.203  -0.565  0.00  0.00    -0.278 N 
ATOM      9  C   UNL     1       1.010   1.469   0.036  0.00  0.00    +0.263 C 
ATOM     10  H   UNL     1       0.391  -0.182  -0.993  0.00  0.00    +0.155 HD
BRANCH   8  13
ATOM     11  N   UNL     1       3.732  -2.257  -1.101  0.00  0.00    -0.280 N 
ATOM     12  C   UNL     1       4.465  -1.326  -0.412  0.00  0.00    +0.107 C 
ATOM     13  C   UNL     1       2.351  -0.581  -0.636  0.00  0.00    +0.067 C 
ATOM     14  C   UNL     1       3.630  -0.272  -0.110  0.00  0.00    +0.035 C 
ATOM     15  C   UNL     1       2.443  -1.813  -1.244  0.00  0.00    +0.080 C 
ATOM     16  C   UNL     1       4.226  -3.519  -1.605  0.00  0.00    +0.117 C 
BRANCH  12  19
ATOM     17  O   UNL     1       6.666  -2.124  -0.770  0.00  0.00    -0.269 OA
ATOM     18  N   UNL     1       6.300  -0.832   1.093  0.00  0.00    -0.300 N 
ATOM     19  C   UNL     1       5.851  -1.462  -0.086  0.00  0.00    +0.260 C 
ATOM     20  H   UNL     1       5.649  -0.315   1.621  0.00  0.00    +0.150 HD
BRANCH  18  21
ATOM     21  C   UNL     1       7.663  -0.904   1.569  0.00  0.00    +0.090 C 
BRANCH  21  22
ATOM     22  C   UNL     1       8.529   0.223   1.020  0.00  0.00    +0.021 C 
ATOM     23  C   UNL     1       8.028   1.601   1.428  0.00  0.00    +0.002 C 
ENDBRANCH  21  22
ENDBRANCH  18  21
ENDBRANCH  12  19
ENDBRANCH   8  13
ENDBRANCH   2   9
BRANCH   3  25
ATOM     24  O   UNL     1      -4.052  -0.206  -0.396  0.00  0.00    -0.275 OA
ATOM     25  N   UNL     1      -3.894   2.138  -0.418  0.00  0.00    -0.283 N 
ATOM     26  C   UNL     1      -4.552   0.912  -0.458  0.00  0.00    +0.229 C 
ATOM     27  H   UNL     1      -4.460   2.941  -0.482  0.00  0.00    +0.155 HD
BRANCH  26  28
ATOM     28  C   UNL     1      -6.056   1.119  -0.598  0.00  0.00    +0.120 C 
BRANCH  28  29
ATOM     29  C   UNL     1      -6.838  -0.185  -0.648  0.00  0.00    +0.182 C 
BRANCH  29  30
ATOM     30  O   UNL     1      -6.625  -0.909   0.557  0.00  0.00    -0.241 OA
BRANCH  30  31
ATOM     31  S   UNL     1      -7.364  -2.353   0.743  0.00  0.00    -0.005 S 
ATOM     32  O   UNL     1      -6.796  -3.308  -0.187  0.00  0.00    -0.072 OA
ATOM     33  O   UNL     1      -8.794  -2.151   0.859  0.00  0.00    -0.072 OA
ATOM     34  C   UNL     1      -6.722  -2.706   2.359  0.00  0.00    +0.181 C 
ENDBRANCH  30  31
ENDBRANCH  29  30
ENDBRANCH  28  29
ENDBRANCH  26  28
ENDBRANCH   3  25
TORSDOF 10
