REMARK  Name = 132808
REMARK  7 active torsions:
REMARK  status: ('A' for Active; 'I' for Inactive)
REMARK    1  A    between atoms: C_11  and  C_26
REMARK    2  A    between atoms: C_18  and  O_22
REMARK    3  A    between atoms: C_19  and  O_24
REMARK    4  A    between atoms: C_26  and  C_27
REMARK    5  A    between atoms: C_27  and  C_28
REMARK    6  A    between atoms: C_28  and  C_29
REMARK    7  A    between atoms: C_34  and  N_35
REMARK                            x       y       z     vdW  Elec       q    Type
REMARK                         _______ _______ _______ _____ _____    ______ ____
ROOT
ATOM      1  O   UNL     1      -3.285  -1.890  -0.390  0.00  0.00    -0.275 OA
ATOM      2  N   UNL     1      -1.575  -0.489  -1.098  0.00  0.00    -0.276 N 
ATOM      3  N   UNL     1       1.144   0.123  -0.651  0.00  0.00    -0.231 N 
ATOM      4  N   UNL     1       3.375  -0.625  -0.365  0.00  0.00    -0.332 NA
ATOM      5  N   UNL     1       2.811   1.698  -0.062  0.00  0.00    -0.317 NA
ATOM      6  N   UNL     1       4.462   3.269   0.524  0.00  0.00    -0.335 N 
ATOM      7  C   UNL     1      -1.062   0.824  -1.495  0.00  0.00    +0.116 C 
ATOM      8  C   UNL     1      -0.581  -1.557  -1.165  0.00  0.00    +0.116 C 
ATOM      9  C   UNL     1       0.152   1.208  -0.648  0.00  0.00    +0.125 C 
ATOM     10  C   UNL     1       0.637  -1.216  -0.309  0.00  0.00    +0.125 C 
ATOM     11  C   UNL     1      -2.880  -0.767  -0.703  0.00  0.00    +0.226 C 
ATOM     12  C   UNL     1       2.481   0.409  -0.351  0.00  0.00    +0.203 C 
ATOM     13  C   UNL     1       4.661  -0.358  -0.077  0.00  0.00    +0.138 C 
ATOM     14  C   UNL     1       5.088   0.944   0.233  0.00  0.00    +0.146 C 
ATOM     15  C   UNL     1       4.106   1.931   0.222  0.00  0.00    +0.178 C 
ATOM     16  C   UNL     1       5.616  -1.372  -0.076  0.00  0.00    +0.069 C 
ATOM     17  C   UNL     1       6.435   1.211   0.533  0.00  0.00    +0.029 C 
ATOM     18  C   UNL     1       6.957  -1.115   0.221  0.00  0.00    +0.174 C 
ATOM     19  C   UNL     1       7.368   0.178   0.526  0.00  0.00    +0.169 C 
ATOM     20  H   UNL     1       3.775   3.974   0.520  0.00  0.00    +0.144 HD
ATOM     21  H   UNL     1       5.396   3.493   0.739  0.00  0.00    +0.144 HD
ENDROOT
BRANCH  18  22
ATOM     22  O   UNL     1       7.853  -2.141   0.208  0.00  0.00    -0.468 OA
ATOM     23  C   UNL     1       8.048  -2.846   1.433  0.00  0.00    +0.253 C 
ENDBRANCH  18  22
BRANCH  19  24
ATOM     24  O   UNL     1       8.671   0.444   0.817  0.00  0.00    -0.469 OA
ATOM     25  C   UNL     1       9.523   0.787  -0.275  0.00  0.00    +0.253 C 
ENDBRANCH  19  24
BRANCH  11  26
ATOM     26  C   UNL     1      -3.835   0.399  -0.661  0.00  0.00    +0.086 C 
BRANCH  26  27
ATOM     27  C   UNL     1      -5.213  -0.060  -0.214  0.00  0.00    +0.014 C 
BRANCH  27  28
ATOM     28  C   UNL     1      -6.245   1.073  -0.227  0.00  0.00    +0.027 C 
BRANCH  28  29
ATOM     29  C   UNL     1      -7.620   0.577   0.143  0.00  0.00    -0.022 C 
ATOM     30  C   UNL     1      -8.472   0.129  -0.855  0.00  0.00    -0.003 C 
ATOM     31  C   UNL     1      -8.009   0.577   1.474  0.00  0.00    -0.003 C 
ATOM     32  C   UNL     1      -9.745  -0.330  -0.514  0.00  0.00    +0.014 C 
ATOM     33  C   UNL     1      -9.281   0.118   1.815  0.00  0.00    +0.014 C 
ATOM     34  C   UNL     1     -10.149  -0.335   0.821  0.00  0.00    +0.042 C 
BRANCH  34  35
ATOM     35  N   UNL     1     -11.435  -0.800   1.167  0.00  0.00    -0.357 N 
ATOM     36  H   UNL     1     -12.048  -1.120   0.466  0.00  0.00    +0.142 HD
ATOM     37  H   UNL     1     -11.720  -0.805   2.109  0.00  0.00    +0.142 HD
ENDBRANCH  34  35
ENDBRANCH  28  29
ENDBRANCH  27  28
ENDBRANCH  26  27
ENDBRANCH  11  26
TORSDOF 7
