REMARK  Name = 1328227
REMARK  6 active torsions:
REMARK  status: ('A' for Active; 'I' for Inactive)
REMARK    1  A    between atoms: S_1  and  N_2
REMARK    2  A    between atoms: S_1  and  C_3
REMARK    3  A    between atoms: S_1  and  O_22
REMARK    4  A    between atoms: N_2  and  S_12
REMARK    5  A    between atoms: C_6  and  N_11
REMARK    6  A    between atoms: S_12  and  C_16
REMARK                            x       y       z     vdW  Elec       q    Type
REMARK                         _______ _______ _______ _____ _____    ______ ____
ROOT
ATOM      1  S   UNL     1       0.526   1.933   0.830  0.00  0.00    +0.063 S 
ENDROOT
BRANCH   1   2
ATOM      2  C   UNL     1       1.891   0.815   0.510  0.00  0.00    +0.058 C 
ATOM      3  C   UNL     1       1.836  -0.502   0.967  0.00  0.00    +0.011 C 
ATOM      4  C   UNL     1       3.008   1.262  -0.196  0.00  0.00    +0.011 C 
ATOM      5  C   UNL     1       4.014  -0.925   0.012  0.00  0.00    +0.143 C 
ATOM      6  C   UNL     1       2.897  -1.371   0.718  0.00  0.00    +0.025 C 
ATOM      7  C   UNL     1       4.070   0.392  -0.444  0.00  0.00    +0.025 C 
BRANCH   5  10
ATOM      8  O   UNL     1       5.025  -2.990   0.178  0.00  0.00    -0.126 OA
ATOM      9  O   UNL     1       6.090  -1.388  -0.878  0.00  0.00    -0.126 OA
ATOM     10  N   UNL     1       5.095  -1.810  -0.241  0.00  0.00    +0.058 N 
ENDBRANCH   5  10
ENDBRANCH   1   2
BRANCH   1  11
ATOM     11  O   UNL     1       0.926   2.977  -0.334  0.00  0.00    -0.288 OA
ATOM     12  C   UNL     1       0.066   4.100  -0.458  0.00  0.00    +0.192 C 
ENDBRANCH   1  11
BRANCH   1  13
ATOM     13  N   UNL     1      -0.536   1.023   0.043  0.00  0.00    +0.001 NA
BRANCH  13  14
ATOM     14  S   UNL     1      -2.128   1.657   0.026  0.00  0.00    +0.088 S 
ATOM     15  O   UNL     1      -2.379   2.359  -1.218  0.00  0.00    -0.151 OA
ATOM     16  O   UNL     1      -2.408   2.288   1.302  0.00  0.00    -0.151 OA
BRANCH  14  18
ATOM     17 CL   UNL     1      -5.389  -3.677  -0.223  0.00  0.00    -0.082 Cl
ATOM     18  C   UNL     1      -3.050   0.150  -0.044  0.00  0.00    +0.125 C 
ATOM     19  C   UNL     1      -3.430  -0.465   1.136  0.00  0.00    +0.021 C 
ATOM     20  C   UNL     1      -3.374  -0.387  -1.278  0.00  0.00    +0.021 C 
ATOM     21  C   UNL     1      -4.157  -1.654   1.080  0.00  0.00    +0.013 C 
ATOM     22  C   UNL     1      -4.101  -1.576  -1.334  0.00  0.00    +0.013 C 
ATOM     23  C   UNL     1      -4.493  -2.210  -0.155  0.00  0.00    +0.058 C 
ENDBRANCH  14  18
ENDBRANCH  13  14
ENDBRANCH   1  13
TORSDOF 6
