REMARK  Name = 132884
REMARK  4 active torsions:
REMARK  status: ('A' for Active; 'I' for Inactive)
REMARK    1  A    between atoms: N_2  and  C_15
REMARK    2  A    between atoms: C_14  and  O_18
REMARK    3  A    between atoms: C_17  and  C_20
REMARK    4  A    between atoms: C_20  and  O_21
REMARK                            x       y       z     vdW  Elec       q    Type
REMARK                         _______ _______ _______ _____ _____    ______ ____
ROOT
ATOM      1  O   UNL     1      -1.486   2.208   1.496  0.00  0.00    -0.193 OA
ATOM      2  N   UNL     1      -0.675   0.452   0.244  0.00  0.00    -0.178 N 
ATOM      3  N   UNL     1      -3.004   0.729   0.689  0.00  0.00    -0.306 NA
ATOM      4  N   UNL     1      -4.581  -0.756  -0.116  0.00  0.00    -0.332 N 
ATOM      5  C   UNL     1      -0.943  -0.687  -0.478  0.00  0.00    +0.079 C 
ATOM      6  C   UNL     1      -1.709   1.186   0.845  0.00  0.00    +0.275 C 
ATOM      7  C   UNL     1      -2.183  -1.155  -0.648  0.00  0.00    +0.038 C 
ATOM      8  C   UNL     1      -3.268  -0.354   0.003  0.00  0.00    +0.189 C 
ATOM      9  C   UNL     1      -2.507  -2.388  -1.424  0.00  0.00    +0.037 C 
ATOM     10  H   UNL     1      -5.297  -0.231   0.310  0.00  0.00    +0.145 HD
ATOM     11  H   UNL     1      -4.803  -1.567  -0.627  0.00  0.00    +0.145 HD
ENDROOT
BRANCH   2  15
ATOM     12  F   UNL     1       1.451   2.384  -1.274  0.00  0.00    -0.230 F 
ATOM     13  O   UNL     1       1.432  -0.154   1.058  0.00  0.00    -0.332 OA
ATOM     14  C   UNL     1       2.736   0.487  -0.781  0.00  0.00    +0.177 C 
ATOM     15  C   UNL     1       0.695   0.864   0.362  0.00  0.00    +0.242 C 
ATOM     16  C   UNL     1       1.355   1.062  -0.990  0.00  0.00    +0.237 C 
ATOM     17  C   UNL     1       2.447  -0.654   0.175  0.00  0.00    +0.176 C 
BRANCH  14  18
ATOM     18  O   UNL     1       3.301   0.012  -1.986  0.00  0.00    -0.379 OA
ATOM     19  H   UNL     1       3.475   0.760  -2.579  0.00  0.00    +0.211 HD
ENDBRANCH  14  18
BRANCH  17  20
ATOM     20  C   UNL     1       3.659  -1.089   0.979  0.00  0.00    +0.169 C 
BRANCH  20  21
ATOM     21  O   UNL     1       3.279  -2.147   1.845  0.00  0.00    -0.379 OA
ATOM     22  H   UNL     1       4.047  -2.432   2.363  0.00  0.00    +0.211 HD
ENDBRANCH  20  21
ENDBRANCH  17  20
ENDBRANCH   2  15
TORSDOF 4
