REMARK  Name = 132821
REMARK  5 active torsions:
REMARK  status: ('A' for Active; 'I' for Inactive)
REMARK    1  A    between atoms: N_1  and  C_12
REMARK    2  A    between atoms: C_10  and  C_15
REMARK    3  A    between atoms: C_15  and  O_16
REMARK    4  A    between atoms: C_15  and  C_18
REMARK    5  A    between atoms: C_18  and  O_19
REMARK                            x       y       z     vdW  Elec       q    Type
REMARK                         _______ _______ _______ _____ _____    ______ ____
ROOT
ATOM      1  N   UNL     1       0.939   1.297   0.278  0.00  0.00    -0.273 N 
ATOM      2  N   UNL     1       3.106   1.335   0.802  0.00  0.00    -0.242 NA
ATOM      3  N   UNL     1       0.769  -0.949  -0.633  0.00  0.00    -0.228 NA
ATOM      4  N   UNL     1       2.923  -2.095  -0.570  0.00  0.00    -0.229 NA
ATOM      5  C   UNL     1       1.436   0.076  -0.079  0.00  0.00    +0.150 C 
ATOM      6  C   UNL     1       1.980   2.018   0.801  0.00  0.00    +0.221 C 
ATOM      7  C   UNL     1       2.780   0.119   0.255  0.00  0.00    +0.140 C 
ATOM      8  C   UNL     1       3.531  -1.022  -0.011  0.00  0.00    +0.143 C 
ATOM      9  C   UNL     1       1.599  -1.994  -0.842  0.00  0.00    +0.253 C 
ATOM     10  N   UNL     1       4.902  -1.067   0.297  0.00  0.00    -0.342 N 
ATOM     11  H   UNL     1       5.423  -1.879   0.105  0.00  0.00    +0.144 HD
ATOM     12  H   UNL     1       5.341  -0.285   0.704  0.00  0.00    +0.144 HD
ENDROOT
BRANCH   1  15
ATOM     13  C   UNL     1      -2.710   0.834  -0.040  0.00  0.00    +0.031 C 
ATOM     14  C   UNL     1      -1.468   0.878   0.866  0.00  0.00    +0.022 C 
ATOM     15  C   UNL     1      -0.442   1.760   0.133  0.00  0.00    +0.076 C 
ATOM     16  C   UNL     1      -2.167   1.247  -1.374  0.00  0.00    +0.004 C 
ATOM     17  C   UNL     1      -0.935   1.756  -1.282  0.00  0.00    +0.020 C 
BRANCH  13  18
ATOM     18  C   UNL     1      -3.357  -0.543  -0.065  0.00  0.00    +0.140 C 
BRANCH  18  19
ATOM     19  O   UNL     1      -4.403  -0.544  -1.035  0.00  0.00    -0.382 OA
ATOM     20  H   UNL     1      -4.037  -0.318  -1.905  0.00  0.00    +0.210 HD
ENDBRANCH  18  19
BRANCH  18  21
ATOM     21  C   UNL     1      -3.959  -0.900   1.288  0.00  0.00    +0.166 C 
BRANCH  21  22
ATOM     22  O   UNL     1      -4.522  -2.206   1.212  0.00  0.00    -0.379 OA
ATOM     23  H   UNL     1      -4.908  -2.441   2.071  0.00  0.00    +0.211 HD
ENDBRANCH  21  22
ENDBRANCH  18  21
ENDBRANCH  13  18
ENDBRANCH   1  15
TORSDOF 5
