132872
  -OEChem-03292013323D

 29 29  0     1  0  0  0  0  0999 V2000
    4.7843    0.5063   -0.5001 Cl  0  0  0  0  0  0  0  0  0  0  0  0
   -0.7072    2.7429   -0.6616 O   0  0  0  0  0  0  0  0  0  0  0  0
   -1.1696   -3.1129   -1.3548 O   0  0  0  0  0  0  0  0  0  0  0  0
   -2.5502    1.6641   -1.4260 O   0  0  0  0  0  0  0  0  0  0  0  0
   -0.4869   -3.0314    0.8141 O   0  0  0  0  0  0  0  0  0  0  0  0
   -3.1883    1.0397    1.1791 N   0  0  0  0  0  0  0  0  0  0  0  0
   -1.0323   -0.1604    0.8224 C   0  0  1  0  0  0  0  0  0  0  0  0
   -1.7702    1.2060    0.8377 C   0  0  1  0  0  0  0  0  0  0  0  0
   -1.7052   -1.1547   -0.1537 C   0  0  0  0  0  0  0  0  0  0  0  0
    0.4485    0.0079    0.4861 C   0  0  0  0  0  0  0  0  0  0  0  0
    1.3285    0.3008    1.5039 C   0  0  0  0  0  0  0  0  0  0  0  0
    0.8497   -0.1380   -0.8232 C   0  0  0  0  0  0  0  0  0  0  0  0
   -1.7374    1.8671   -0.5324 C   0  0  0  0  0  0  0  0  0  0  0  0
   -1.0624   -2.5237   -0.1370 C   0  0  0  0  0  0  0  0  0  0  0  0
    2.6803    0.4556    1.1965 C   0  0  0  0  0  0  0  0  0  0  0  0
    2.2015    0.0169   -1.1305 C   0  0  0  0  0  0  0  0  0  0  0  0
    3.1168    0.3137   -0.1207 C   0  0  0  0  0  0  0  0  0  0  0  0
   -1.0966   -0.5992    1.8292 H   0  0  0  0  0  0  0  0  0  0  0  0
   -1.3173    1.8849    1.5701 H   0  0  0  0  0  0  0  0  0  0  0  0
   -1.7522   -0.7847   -1.1821 H   0  0  0  0  0  0  0  0  0  0  0  0
   -2.7458   -1.3246    0.1506 H   0  0  0  0  0  0  0  0  0  0  0  0
    0.9950    0.4146    2.5307 H   0  0  0  0  0  0  0  0  0  0  0  0
    0.1807   -0.3347   -1.6511 H   0  0  0  0  0  0  0  0  0  0  0  0
   -3.6249    1.9557    1.2772 H   0  0  0  0  0  0  0  0  0  0  0  0
   -3.2661    0.5893    2.0903 H   0  0  0  0  0  0  0  0  0  0  0  0
    3.3821    0.6876    1.9936 H   0  0  0  0  0  0  0  0  0  0  0  0
    2.5269   -0.0890   -2.1623 H   0  0  0  0  0  0  0  0  0  0  0  0
   -0.6983    3.1688   -1.5451 H   0  0  0  0  0  0  0  0  0  0  0  0
   -0.7401   -3.9947   -1.3734 H   0  0  0  0  0  0  0  0  0  0  0  0
  1 17  1  0  0  0  0
  2 13  1  0  0  0  0
  2 28  1  0  0  0  0
  3 14  1  0  0  0  0
  3 29  1  0  0  0  0
  4 13  2  0  0  0  0
  5 14  2  0  0  0  0
  6  8  1  0  0  0  0
  6 24  1  0  0  0  0
  6 25  1  0  0  0  0
  7  8  1  0  0  0  0
  7  9  1  0  0  0  0
  7 10  1  0  0  0  0
  7 18  1  0  0  0  0
  8 13  1  0  0  0  0
  8 19  1  0  0  0  0
  9 14  1  0  0  0  0
  9 20  1  0  0  0  0
  9 21  1  0  0  0  0
 10 11  2  0  0  0  0
 10 12  1  0  0  0  0
 11 15  1  0  0  0  0
 11 22  1  0  0  0  0
 12 16  2  0  0  0  0
 12 23  1  0  0  0  0
 15 17  2  0  0  0  0
 15 26  1  0  0  0  0
 16 17  1  0  0  0  0
 16 27  1  0  0  0  0
M  END
> <PUBCHEM_COMPOUND_CID>
132872

> <PUBCHEM_CONFORMER_RMSD>
0.6

> <PUBCHEM_CONFORMER_DIVERSEORDER>
1
25
29
22
31
23
10
28
14
30
17
27
21
7
8
12
15
20
26
13
16
18
9
6
3
4
19
2
5
11
24

> <PUBCHEM_MMFF94_PARTIAL_CHARGES>
25
1 -0.18
10 -0.14
11 -0.15
12 -0.15
13 0.66
14 0.66
15 -0.15
16 -0.15
17 0.18
2 -0.65
22 0.15
23 0.15
24 0.36
25 0.36
26 0.15
27 0.15
28 0.5
29 0.5
3 -0.65
4 -0.57
5 -0.57
6 -0.99
7 0.14
8 0.33
9 0.06

> <PUBCHEM_EFFECTIVE_ROTOR_COUNT>
5

> <PUBCHEM_PHARMACOPHORE_FEATURES>
9
1 2 acceptor
1 3 acceptor
1 4 acceptor
1 5 acceptor
1 6 cation
1 6 donor
3 2 4 13 anion
3 3 5 14 anion
6 10 11 12 15 16 17 rings

> <PUBCHEM_HEAVY_ATOM_COUNT>
17

> <PUBCHEM_ATOM_DEF_STEREO_COUNT>
1

> <PUBCHEM_ATOM_UDEF_STEREO_COUNT>
1

> <PUBCHEM_BOND_DEF_STEREO_COUNT>
0

> <PUBCHEM_BOND_UDEF_STEREO_COUNT>
0

> <PUBCHEM_ISOTOPIC_ATOM_COUNT>
0

> <PUBCHEM_COMPONENT_COUNT>
1

> <PUBCHEM_CACTVS_TAUTO_COUNT>
1

> <PUBCHEM_CONFORMER_ID>
0002070800000001

> <PUBCHEM_MMFF94_ENERGY>
37.506

> <PUBCHEM_FEATURE_SELFOVERLAP>
45.787

> <PUBCHEM_SHAPE_FINGERPRINT>
1 1 18050006584490033355
11322862 65 18272664440887743263
12138202 97 18341890784025809398
12500047 106 18413106148194209318
13681431 1 17257924326326294447
14181834 199 17617360793595833751
14817 1 9167048918336017451
15309172 13 18337681810475631545
15375462 478 17168435891022328265
15852999 172 18129365043310828742
16945 1 18410003334633190488
17357779 13 17700112585480569679
18534176 82 18202003248265799112
20645477 56 18410019836198247920
20711985 344 18268140036280645938
21524375 3 18339645525278790275
22112679 90 18046364177292234589
23402539 116 18341327894212707247
23419403 2 16832004222473870121
23557571 272 18125146380588802672
23559900 14 18131637760580628882
23598294 1 18334572477406899922
25 1 17488190291912935352
2748010 2 18267319654804134167
58051976 100 18338530702572502422
69090 78 18409173190374086216
7364860 26 17547277909519364941
81228 2 18195800988914806851

> <PUBCHEM_SHAPE_MULTIPOLES>
323.26
5.31
2.82
1.38
6.11
1.88
-0.06
-1.78
0.43
-2.92
0.75
-0.07
-0.11
0.04

> <PUBCHEM_SHAPE_SELFOVERLAP>
663.211

> <PUBCHEM_SHAPE_VOLUME>
186

> <PUBCHEM_COORDINATE_TYPE>
2
5
10

$$$$
