REMARK  Name = 132856
REMARK  7 active torsions:
REMARK  status: ('A' for Active; 'I' for Inactive)
REMARK    1  A    between atoms: C_1  and  S_2
REMARK    2  A    between atoms: C_1  and  C_11
REMARK    3  A    between atoms: S_2  and  C_3
REMARK    4  A    between atoms: C_4  and  O_9
REMARK    5  A    between atoms: C_11  and  N_13
REMARK    6  A    between atoms: C_11  and  C_18
REMARK    7  A    between atoms: C_18  and  O_19
REMARK                            x       y       z     vdW  Elec       q    Type
REMARK                         _______ _______ _______ _____ _____    ______ ____
ROOT
ATOM      1  C   UNL     1      -0.543   0.034   0.705  0.00  0.00    +0.089 C 
ENDROOT
BRANCH   1   2
ATOM      2  S   UNL     1       0.470  -0.090  -0.784  0.00  0.00    -0.136 S 
BRANCH   2   3
ATOM      3  C   UNL     1       2.080  -0.401   0.033  0.00  0.00    +0.074 C 
ATOM      4  C   UNL     1       3.178  -0.635  -1.015  0.00  0.00    +0.120 C 
ATOM      5  C   UNL     1       2.413   0.783   0.947  0.00  0.00    +0.013 C 
ATOM      6  C   UNL     1       4.553  -0.773  -0.356  0.00  0.00    +0.030 C 
ATOM      7  C   UNL     1       3.786   0.619   1.596  0.00  0.00    +0.001 C 
ATOM      8  C   UNL     1       4.875   0.408   0.550  0.00  0.00    +0.003 C 
BRANCH   4   9
ATOM      9  O   UNL     1       2.904  -1.839  -1.730  0.00  0.00    -0.384 OA
ATOM     10  H   UNL     1       2.036  -1.772  -2.157  0.00  0.00    +0.210 HD
ENDBRANCH   4   9
ENDBRANCH   2   3
ENDBRANCH   1   2
BRANCH   1  11
ATOM     11  C   UNL     1      -2.031   0.246   0.414  0.00  0.00    +0.182 C 
BRANCH  11  13
ATOM     12  O   UNL     1      -3.218  -2.074   1.693  0.00  0.00    -0.275 OA
ATOM     13  N   UNL     1      -2.623  -0.902  -0.229  0.00  0.00    -0.296 N 
ATOM     14  C   UNL     1      -3.167  -1.968   0.470  0.00  0.00    +0.223 C 
ATOM     15  C   UNL     1      -3.739  -3.019  -0.443  0.00  0.00    +0.095 C 
ATOM     16  H   UNL     1      -2.640  -0.930  -1.213  0.00  0.00    +0.150 HD
ENDBRANCH  11  13
BRANCH  11  18
ATOM     17  O   UNL     1      -2.828   1.558  -1.456  0.00  0.00    -0.248 OA
ATOM     18  C   UNL     1      -2.281   1.536  -0.358  0.00  0.00    +0.336 C 
BRANCH  18  19
ATOM     19  O   UNL     1      -1.821   2.631   0.312  0.00  0.00    -0.443 OA
ATOM     20  C   UNL     1      -2.009   3.887  -0.348  0.00  0.00    +0.256 C 
ENDBRANCH  18  19
ENDBRANCH  11  18
ENDBRANCH   1  11
TORSDOF 7
