REMARK  Name = 132848
REMARK  7 active torsions:
REMARK  status: ('A' for Active; 'I' for Inactive)
REMARK    1  A    between atoms: C_2  and  N_19
REMARK    2  A    between atoms: C_9  and  O_25
REMARK    3  A    between atoms: C_13  and  O_27
REMARK    4  A    between atoms: C_14  and  O_29
REMARK    5  A    between atoms: C_17  and  S_23
REMARK    6  A    between atoms: O_29  and  C_31
REMARK    7  A    between atoms: C_31  and  C_33
REMARK                            x       y       z     vdW  Elec       q    Type
REMARK                         _______ _______ _______ _____ _____    ______ ____
ROOT
ATOM      1  O   UNL     1       4.880  -0.233   1.975  0.00  0.00    -0.286 OA
ATOM      2  C   UNL     1       1.269  -2.077  -0.496  0.00  0.00    +0.094 C 
ATOM      3  C   UNL     1       0.680  -2.156  -1.922  0.00  0.00    +0.029 C 
ATOM      4  C   UNL     1       0.131  -0.869  -2.552  0.00  0.00    +0.029 C 
ATOM      5  C   UNL     1       2.105  -0.845  -0.146  0.00  0.00    -0.001 C 
ATOM      6  C   UNL     1      -0.633   0.001  -1.590  0.00  0.00    -0.016 C 
ATOM      7  C   UNL     1       0.045   0.654  -0.540  0.00  0.00    +0.033 C 
ATOM      8  C   UNL     1       1.518   0.480  -0.396  0.00  0.00    +0.000 C 
ATOM      9  C   UNL     1      -0.679   1.436   0.373  0.00  0.00    +0.175 C 
ATOM     10  C   UNL     1      -2.021   0.153  -1.714  0.00  0.00    +0.037 C 
ATOM     11  C   UNL     1       3.292  -1.052   0.455  0.00  0.00    +0.040 C 
ATOM     12  C   UNL     1       2.227   1.604  -0.621  0.00  0.00    +0.000 C 
ATOM     13  C   UNL     1      -2.059   1.579   0.236  0.00  0.00    +0.207 C 
ATOM     14  C   UNL     1      -2.728   0.941  -0.806  0.00  0.00    +0.185 C 
ATOM     15  C   UNL     1       4.273  -0.042   0.924  0.00  0.00    +0.201 C 
ATOM     16  C   UNL     1       3.658   1.773  -0.666  0.00  0.00    +0.009 C 
ATOM     17  C   UNL     1       4.584   1.102   0.030  0.00  0.00    +0.064 C 
ENDROOT
BRANCH   2  19
ATOM     18  O   UNL     1       0.142  -4.582   0.444  0.00  0.00    -0.275 OA
ATOM     19  N   UNL     1       0.253  -2.258   0.521  0.00  0.00    -0.302 N 
ATOM     20  C   UNL     1      -0.220  -3.500   0.900  0.00  0.00    +0.223 C 
ATOM     21  C   UNL     1      -1.252  -3.404   1.992  0.00  0.00    +0.095 C 
ATOM     22  H   UNL     1      -0.117  -1.460   0.962  0.00  0.00    +0.150 HD
ENDBRANCH   2  19
BRANCH  17  23
ATOM     23  S   UNL     1       6.267   1.530  -0.049  0.00  0.00    -0.110 S 
ATOM     24  C   UNL     1       6.775   0.485  -1.430  0.00  0.00    +0.074 C 
ENDBRANCH  17  23
BRANCH   9  25
ATOM     25  O   UNL     1      -0.053   2.049   1.422  0.00  0.00    -0.468 OA
ATOM     26  C   UNL     1       0.041   1.310   2.636  0.00  0.00    +0.253 C 
ENDBRANCH   9  25
BRANCH  13  27
ATOM     27  O   UNL     1      -2.759   2.339   1.127  0.00  0.00    -0.465 OA
ATOM     28  C   UNL     1      -2.918   3.721   0.813  0.00  0.00    +0.253 C 
ENDBRANCH  13  27
BRANCH  14  29
ATOM     29  O   UNL     1      -4.077   1.071  -0.946  0.00  0.00    -0.420 OA
BRANCH  29  31
ATOM     30  O   UNL     1      -4.353  -0.800   0.427  0.00  0.00    -0.248 OA
ATOM     31  C   UNL     1      -4.828   0.100  -0.253  0.00  0.00    +0.338 C 
BRANCH  31  33
ATOM     32 CL   UNL     1      -7.267  -0.867   0.343  0.00  0.00    -0.101 Cl
ATOM     33  C   UNL     1      -6.293   0.356  -0.490  0.00  0.00    +0.204 C 
ENDBRANCH  31  33
ENDBRANCH  29  31
ENDBRANCH  14  29
TORSDOF 7
