REMARK  Name = 132827
REMARK  10 active torsions:
REMARK  status: ('A' for Active; 'I' for Inactive)
REMARK    1  A    between atoms: CA_5  and  N_11
REMARK    2  A    between atoms: CA_7  and  C_26
REMARK    3  A    between atoms: C_8  and  C_29
REMARK    4  A    between atoms: C_12  and  CA_14
REMARK    5  A    between atoms: CA_14  and  C_15
REMARK    6  A    between atoms: CA_14  and  N_21
REMARK    7  A    between atoms: C_26  and  O_27
REMARK    8  A    between atoms: C_29  and  S_30
REMARK    9  A    between atoms: S_30  and  C_31
REMARK   10  A    between atoms: C_31  and  C_35
REMARK                            x       y       z     vdW  Elec       q    Type
REMARK                         _______ _______ _______ _____ _____    ______ ____
ROOT
ATOM      1  S   UNL     1       1.003   0.010   1.474  0.00  0.00    -0.114 S 
ATOM      2  O   UNL     1       1.036  -3.555  -1.510  0.00  0.00    -0.273 OA
ATOM      3  N   UNL     1       0.273  -2.261   0.308  0.00  0.00    -0.242 N 
ATOM      4  C   UNL     1       1.246  -1.769   1.267  0.00  0.00    +0.155 C 
ATOM      5  CA  UNL     1       2.325  -2.201   0.249  0.00  0.00    +0.178 C 
ATOM      6  C   UNL     1       1.149  -2.864  -0.525  0.00  0.00    +0.251 C 
ATOM      7  CA  UNL     1      -1.065  -2.056   0.417  0.00  0.00    +0.124 C 
ATOM      8  C   UNL     1      -1.571  -1.132   1.267  0.00  0.00    -0.003 C 
ATOM      9  C   UNL     1      -0.704  -0.182   2.090  0.00  0.00    +0.083 C 
ENDROOT
BRANCH   5  11
ATOM     10  O   UNL     1       5.005  -1.234   0.680  0.00  0.00    -0.277 OA
ATOM     11  N   UNL     1       3.020  -1.167  -0.516  0.00  0.00    -0.298 N 
ATOM     12  C   UNL     1       4.326  -0.764  -0.231  0.00  0.00    +0.206 C 
ATOM     13  H   UNL     1       2.547  -0.737  -1.265  0.00  0.00    +0.150 HD
BRANCH  12  14
ATOM     14  CA  UNL     1       4.821   0.343  -1.156  0.00  0.00    +0.036 C 
BRANCH  14  15
ATOM     15  C   UNL     1       4.500   1.708  -0.584  0.00  0.00    -0.034 C 
ATOM     16  C   UNL     1       3.291   2.329  -0.897  0.00  0.00    -0.006 C 
ATOM     17  C   UNL     1       5.413   2.345   0.257  0.00  0.00    -0.006 C 
ATOM     18  C   UNL     1       2.995   3.587  -0.370  0.00  0.00    -0.000 C 
ATOM     19  C   UNL     1       5.118   3.602   0.784  0.00  0.00    -0.000 C 
ATOM     20  C   UNL     1       3.909   4.223   0.470  0.00  0.00    -0.000 C 
ENDBRANCH  14  15
BRANCH  14  21
ATOM     21  N   UNL     1       6.259   0.146  -1.358  0.00  0.00    +0.390 N 
ATOM     22  H1  UNL     1       6.424  -0.784  -1.743  0.00  0.00    -0.088 HD
ATOM     23  H2  UNL     1       6.743   0.235  -0.465  0.00  0.00    -0.088 HD
ATOM     24  H3  UNL     1       6.610   0.850  -2.007  0.00  0.00    -0.088 HD
ENDBRANCH  14  21
ENDBRANCH  12  14
ENDBRANCH   5  11
BRANCH   7  26
ATOM     25  OXT UNL     1      -2.658  -2.352  -1.322  0.00  0.00    -0.244 OA
ATOM     26  C   UNL     1      -1.934  -2.837  -0.476  0.00  0.00    +0.351 C 
BRANCH  26  27
ATOM     27  O   UNL     1      -1.794  -4.149  -0.201  0.00  0.00    -0.476 OA
ATOM     28  H   UNL     1      -1.207  -4.426   0.475  0.00  0.00    +0.295 HD
ENDBRANCH  26  27
ENDBRANCH   7  26
BRANCH   8  29
ATOM     29  C   UNL     1      -3.045  -0.902   1.505  0.00  0.00    +0.082 C 
BRANCH  29  30
ATOM     30  S   UNL     1      -3.654   0.323   0.335  0.00  0.00    -0.129 S 
BRANCH  30  31
ATOM     31  C   UNL     1      -5.384   0.373   0.861  0.00  0.00    +0.107 C 
BRANCH  31  35
ATOM     32  N   UNL     1      -6.294   2.619   0.411  0.00  0.00    -0.167 NA
ATOM     33  N   UNL     1      -7.065   3.099  -0.578  0.00  0.00    -0.157 N 
ATOM     34  N   UNL     1      -7.459   2.259  -1.548  0.00  0.00    -0.162 NA
ATOM     35  C   UNL     1      -6.178   1.340   0.043  0.00  0.00    +0.109 C 
ATOM     36  C   UNL     1      -6.885   1.121  -1.147  0.00  0.00    +0.136 C 
ATOM     37  H   UNL     1      -7.335   4.046  -0.591  0.00  0.00    +0.197 HD
ENDBRANCH  31  35
ENDBRANCH  30  31
ENDBRANCH  29  30
ENDBRANCH   8  29
TORSDOF 10
