132831
  -OEChem-03292013323D

 25 25  0     0  0  0  0  0  0999 V2000
    1.4756    2.5082   -0.5440 Cl  0  0  0  0  0  0  0  0  0  0  0  0
   -0.1638   -2.6770   -0.3243 Cl  0  0  0  0  0  0  0  0  0  0  0  0
    4.1111    1.3269    0.1823 O   0  0  0  0  0  0  0  0  0  0  0  0
   -1.0397    0.5676    1.5965 O   0  0  0  0  0  0  0  0  0  0  0  0
   -2.7231    1.0593    0.0842 N   0  0  0  0  0  0  0  0  0  0  0  0
   -4.9845    0.3964   -0.4069 N   0  0  0  0  0  0  0  0  0  0  0  0
   -3.4201   -1.1616    0.1691 N   0  0  0  0  0  0  0  0  0  0  0  0
    0.7938   -0.1217   -0.3990 C   0  0  0  0  0  0  0  0  0  0  0  0
   -0.6031    0.3089   -0.7618 C   0  0  0  0  0  0  0  0  0  0  0  0
    1.8030    0.8283   -0.2798 C   0  0  0  0  0  0  0  0  0  0  0  0
    1.0632   -1.4697   -0.1854 C   0  0  0  0  0  0  0  0  0  0  0  0
    3.0956    0.4259    0.0565 C   0  0  0  0  0  0  0  0  0  0  0  0
    2.3558   -1.8720    0.1509 C   0  0  0  0  0  0  0  0  0  0  0  0
    3.3719   -0.9243    0.2718 C   0  0  0  0  0  0  0  0  0  0  0  0
   -1.4632    0.6338    0.4450 C   0  0  0  0  0  0  0  0  0  0  0  0
   -3.6724    0.1712   -0.0551 C   0  0  0  0  0  0  0  0  0  0  0  0
   -1.1045   -0.4545   -1.3666 H   0  0  0  0  0  0  0  0  0  0  0  0
   -0.5921    1.1833   -1.4223 H   0  0  0  0  0  0  0  0  0  0  0  0
    2.5879   -2.9201    0.3221 H   0  0  0  0  0  0  0  0  0  0  0  0
    4.3766   -1.2448    0.5340 H   0  0  0  0  0  0  0  0  0  0  0  0
    3.7552    2.2142    0.0017 H   0  0  0  0  0  0  0  0  0  0  0  0
   -5.6499   -0.3647   -0.4872 H   0  0  0  0  0  0  0  0  0  0  0  0
   -5.3213    1.3335   -0.5994 H   0  0  0  0  0  0  0  0  0  0  0  0
   -4.1548   -1.8529    0.0612 H   0  0  0  0  0  0  0  0  0  0  0  0
   -2.5120   -1.5126    0.4511 H   0  0  0  0  0  0  0  0  0  0  0  0
  1 10  1  0  0  0  0
  2 11  1  0  0  0  0
  3 12  1  0  0  0  0
  3 21  1  0  0  0  0
  4 15  2  0  0  0  0
  5 15  1  0  0  0  0
  5 16  2  0  0  0  0
  6 16  1  0  0  0  0
  6 22  1  0  0  0  0
  6 23  1  0  0  0  0
  7 16  1  0  0  0  0
  7 24  1  0  0  0  0
  7 25  1  0  0  0  0
  8  9  1  0  0  0  0
  8 10  1  0  0  0  0
  8 11  2  0  0  0  0
  9 15  1  0  0  0  0
  9 17  1  0  0  0  0
  9 18  1  0  0  0  0
 10 12  2  0  0  0  0
 11 13  1  0  0  0  0
 12 14  1  0  0  0  0
 13 14  2  0  0  0  0
 13 19  1  0  0  0  0
 14 20  1  0  0  0  0
M  END
> <PUBCHEM_COMPOUND_CID>
132831

> <PUBCHEM_CONFORMER_RMSD>
0.6

> <PUBCHEM_CONFORMER_DIVERSEORDER>
1
17
27
37
43
46
38
44
24
26
4
33
39
34
14
42
7
40
22
12
28
36
25
45
19
41
8
3
23
21
15
13
35
10
16
2
32
6
18
11
20
5
29
9
30
31

> <PUBCHEM_MMFF94_PARTIAL_CHARGES>
23
1 -0.18
10 0.18
11 0.18
12 0.08
13 -0.15
14 -0.15
15 0.72
16 0.55
19 0.15
2 -0.18
20 0.15
21 0.45
22 0.4
23 0.4
24 0.4
25 0.4
3 -0.53
4 -0.57
5 -0.66
6 -0.85
7 -0.85
8 -0.14
9 0.2

> <PUBCHEM_EFFECTIVE_ROTOR_COUNT>
3

> <PUBCHEM_PHARMACOPHORE_FEATURES>
6
1 3 donor
1 4 acceptor
1 5 donor
1 6 donor
1 7 donor
6 8 10 11 12 13 14 rings

> <PUBCHEM_HEAVY_ATOM_COUNT>
16

> <PUBCHEM_ATOM_DEF_STEREO_COUNT>
0

> <PUBCHEM_ATOM_UDEF_STEREO_COUNT>
0

> <PUBCHEM_BOND_DEF_STEREO_COUNT>
0

> <PUBCHEM_BOND_UDEF_STEREO_COUNT>
0

> <PUBCHEM_ISOTOPIC_ATOM_COUNT>
0

> <PUBCHEM_COMPONENT_COUNT>
1

> <PUBCHEM_CACTVS_TAUTO_COUNT>
22

> <PUBCHEM_CONFORMER_ID>
000206DF00000001

> <PUBCHEM_MMFF94_ENERGY>
48.6829

> <PUBCHEM_FEATURE_SELFOVERLAP>
30.577

> <PUBCHEM_SHAPE_FINGERPRINT>
10219947 1 18408606929064267636
10967382 1 18410293609950248902
10980938 120 18408044000786129884
11370993 70 18408599254174182391
11471102 20 18409444773830182733
12011746 2 18335426751034670958
13380535 76 18410576210092658286
14251717 144 18409729534557127479
14787075 74 17701529834504323129
14993402 34 18410863152857681334
15196674 1 18410855477646121863
15207287 21 17748828492490217027
15775835 57 18412828009995631132
16945 1 18262818344399275952
18186145 218 18342465815569253517
200 152 18272646831838028877
20645477 70 18337388241155838927
23402539 116 18130779092594607158
23558518 356 17684927299583416256
23559900 14 18410571773243378346
2748010 2 18119798120045241996
3060560 45 18412265017108491446
33824 294 18335700520381441219
5104073 3 18410013204620699923
57812782 119 18040435490568232145
58051976 378 18413389851963541309
6333272 397 18411420652249748984
69090 78 18334572451927408379
7364860 26 18272092634748719958
77492 1 17846490400887523172
81228 2 15090073402243101933
8272917 22 18269560455459424869
9709674 26 18409173199376075031

> <PUBCHEM_SHAPE_MULTIPOLES>
306.33
7.03
2.34
0.83
5.86
0.56
0.14
-1.08
0.21
-1.32
-0.31
0.13
-0.1
-0.18

> <PUBCHEM_SHAPE_SELFOVERLAP>
624.648

> <PUBCHEM_SHAPE_VOLUME>
178.4

> <PUBCHEM_COORDINATE_TYPE>
2
5
10

$$$$
