REMARK  Name = 132872
REMARK  8 active torsions:
REMARK  status: ('A' for Active; 'I' for Inactive)
REMARK    1  A    between atoms: C_1  and  C_3
REMARK    2  A    between atoms: C_1  and  CA_9
REMARK    3  A    between atoms: C_1  and  C_18
REMARK    4  A    between atoms: CA_9  and  N_10
REMARK    5  A    between atoms: CA_9  and  C_15
REMARK    6  A    between atoms: C_15  and  O_16
REMARK    7  A    between atoms: C_18  and  C_20
REMARK    8  A    between atoms: C_20  and  O_21
REMARK                            x       y       z     vdW  Elec       q    Type
REMARK                         _______ _______ _______ _____ _____    ______ ____
ROOT
ATOM      1  C   UNL     1      -1.032  -0.160   0.822  0.00  0.00    +0.024 C 
ENDROOT
BRANCH   1   3
ATOM      2 CL   UNL     1       4.784   0.506  -0.500  0.00  0.00    -0.082 Cl
ATOM      3  C   UNL     1       0.449   0.008   0.486  0.00  0.00    -0.023 C 
ATOM      4  C   UNL     1       1.329   0.301   1.504  0.00  0.00    -0.003 C 
ATOM      5  C   UNL     1       0.850  -0.138  -0.823  0.00  0.00    -0.003 C 
ATOM      6  C   UNL     1       2.680   0.456   1.196  0.00  0.00    +0.011 C 
ATOM      7  C   UNL     1       2.201   0.017  -1.131  0.00  0.00    +0.011 C 
ATOM      8  C   UNL     1       3.117   0.314  -0.121  0.00  0.00    +0.058 C 
ENDBRANCH   1   3
BRANCH   1   9
ATOM      9  CA  UNL     1      -1.770   1.206   0.838  0.00  0.00    +0.040 C 
BRANCH   9  10
ATOM     10  N   UNL     1      -3.188   1.040   1.179  0.00  0.00    +0.389 N 
ATOM     11  H1  UNL     1      -3.268   0.598   2.095  0.00  0.00    -0.088 HD
ATOM     12  H2  UNL     1      -3.640   0.453   0.478  0.00  0.00    -0.088 HD
ATOM     13  H3  UNL     1      -3.642   1.953   1.202  0.00  0.00    -0.088 HD
ENDBRANCH   9  10
BRANCH   9  15
ATOM     14  OXT UNL     1      -2.550   1.664  -1.426  0.00  0.00    -0.253 OA
ATOM     15  C   UNL     1      -1.737   1.867  -0.532  0.00  0.00    +0.293 C 
BRANCH  15  16
ATOM     16  O   UNL     1      -0.707   2.743  -0.662  0.00  0.00    -0.482 OA
ATOM     17  H   UNL     1      -0.107   2.869   0.047  0.00  0.00    +0.295 HD
ENDBRANCH  15  16
ENDBRANCH   9  15
ENDBRANCH   1   9
BRANCH   1  18
ATOM     18  C   UNL     1      -1.705  -1.155  -0.154  0.00  0.00    +0.112 C 
BRANCH  18  20
ATOM     19  O   UNL     1      -0.487  -3.031   0.814  0.00  0.00    -0.250 OA
ATOM     20  C   UNL     1      -1.062  -2.524  -0.137  0.00  0.00    +0.314 C 
BRANCH  20  21
ATOM     21  O   UNL     1      -1.170  -3.113  -1.355  0.00  0.00    -0.480 OA
ATOM     22  H   UNL     1      -1.623  -2.676  -2.048  0.00  0.00    +0.295 HD
ENDBRANCH  20  21
ENDBRANCH  18  20
ENDBRANCH   1  18
TORSDOF 8
