REMARK  Name = 132831
REMARK  5 active torsions:
REMARK  status: ('A' for Active; 'I' for Inactive)
REMARK    1  A    between atoms: C_1  and  C_4
REMARK    2  A    between atoms: C_1  and  C_13
REMARK    3  A    between atoms: C_7  and  O_10
REMARK    4  A    between atoms: C_13  and  N_14
REMARK    5  A    between atoms: N_14  and  C_17
REMARK                            x       y       z     vdW  Elec       q    Type
REMARK                         _______ _______ _______ _____ _____    ______ ____
ROOT
ATOM      1  C   UNL     1      -0.603   0.309  -0.762  0.00  0.00    +0.115 C 
ENDROOT
BRANCH   1   4
ATOM      2 CL   UNL     1       1.476   2.508  -0.544  0.00  0.00    -0.079 Cl
ATOM      3 CL   UNL     1      -0.164  -2.677  -0.324  0.00  0.00    -0.083 Cl
ATOM      4  C   UNL     1       0.794  -0.122  -0.399  0.00  0.00    +0.011 C 
ATOM      5  C   UNL     1       1.803   0.828  -0.280  0.00  0.00    +0.089 C 
ATOM      6  C   UNL     1       1.063  -1.470  -0.185  0.00  0.00    +0.055 C 
ATOM      7  C   UNL     1       3.096   0.426   0.057  0.00  0.00    +0.144 C 
ATOM      8  C   UNL     1       2.356  -1.872   0.151  0.00  0.00    +0.014 C 
ATOM      9  C   UNL     1       3.372  -0.924   0.272  0.00  0.00    +0.038 C 
BRANCH   7  10
ATOM     10  O   UNL     1       4.111   1.327   0.182  0.00  0.00    -0.505 OA
ATOM     11  H   UNL     1       3.948   2.239   0.042  0.00  0.00    +0.292 HD
ENDBRANCH   7  10
ENDBRANCH   1   4
BRANCH   1  13
ATOM     12  O   UNL     1      -1.040   0.568   1.597  0.00  0.00    -0.273 OA
ATOM     13  C   UNL     1      -1.463   0.634   0.445  0.00  0.00    +0.252 C 
BRANCH  13  14
ATOM     14  N   UNL     1      -2.723   1.059   0.084  0.00  0.00    -0.147 NA
BRANCH  14  17
ATOM     15  N   UNL     1      -4.984   0.396  -0.407  0.00  0.00    -0.372 N 
ATOM     16  N   UNL     1      -3.420  -1.162   0.169  0.00  0.00    -0.372 N 
ATOM     17  C   UNL     1      -3.672   0.171  -0.055  0.00  0.00    +0.184 C 
ATOM     18  H   UNL     1      -5.294   1.312  -0.595  0.00  0.00    +0.159 HD
ATOM     19  H   UNL     1      -5.613  -0.358  -0.471  0.00  0.00    +0.159 HD
ATOM     20  H   UNL     1      -2.517  -1.455   0.428  0.00  0.00    +0.159 HD
ATOM     21  H   UNL     1      -4.143  -1.823   0.071  0.00  0.00    +0.159 HD
ENDBRANCH  14  17
ENDBRANCH  13  14
ENDBRANCH   1  13
TORSDOF 5
