132840
  -OEChem-03292013323D

 54 58  0     0  0  0  0  0  0999 V2000
    1.9049   -3.9644   -1.5378 O   0  0  0  0  0  0  0  0  0  0  0  0
    3.4424   -1.5721    0.3005 N   0  0  0  0  0  0  0  0  0  0  0  0
    4.3298    0.2831    1.3664 N   0  0  0  0  0  0  0  0  0  0  0  0
    3.2384   -2.8837    0.0314 N   0  0  0  0  0  0  0  0  0  0  0  0
    1.9815   -1.6346   -1.3925 N   0  0  0  0  0  0  0  0  0  0  0  0
   -2.9391   -1.7326    1.5063 N   0  0  0  0  0  0  0  0  0  0  0  0
   -3.4936   -2.1041   -0.6575 N   0  0  0  0  0  0  0  0  0  0  0  0
   -2.4549   -2.8786    1.0075 N   0  0  0  0  0  0  0  0  0  0  0  0
   -2.7589   -3.1400   -0.2713 N   0  0  0  0  0  0  0  0  0  0  0  0
    2.7202    0.6036   -0.4823 C   0  0  0  0  0  0  0  0  0  0  0  0
    3.5578    1.0654    0.4894 C   0  0  0  0  0  0  0  0  0  0  0  0
    1.8504    1.3783   -1.4167 C   0  0  0  0  0  0  0  0  0  0  0  0
    2.6687   -0.8801   -0.5772 C   0  0  0  0  0  0  0  0  0  0  0  0
    3.7684    2.5410    0.7199 C   0  0  0  0  0  0  0  0  0  0  0  0
    0.3950    1.3190   -1.0374 C   0  0  0  0  0  0  0  0  0  0  0  0
    4.2509   -1.0212    1.2470 C   0  0  0  0  0  0  0  0  0  0  0  0
    4.9214    3.0724   -0.1186 C   0  0  0  0  0  0  0  0  0  0  0  0
    0.0267    1.4938    0.2894 C   0  0  0  0  0  0  0  0  0  0  0  0
   -0.5587    1.0903   -2.0195 C   0  0  0  0  0  0  0  0  0  0  0  0
   -2.2890    1.2094   -0.3377 C   0  0  0  0  0  0  0  0  0  0  0  0
    2.3298   -2.9382   -1.0213 C   0  0  0  0  0  0  0  0  0  0  0  0
    5.0639   -1.8881    2.1682 C   0  0  0  0  0  0  0  0  0  0  0  0
   -1.3221    1.4386    0.6411 C   0  0  0  0  0  0  0  0  0  0  0  0
   -1.9074    1.0352   -1.6680 C   0  0  0  0  0  0  0  0  0  0  0  0
    5.1102    4.5649    0.1048 C   0  0  0  0  0  0  0  0  0  0  0  0
   -3.6882    1.1530    0.0269 C   0  0  0  0  0  0  0  0  0  0  0  0
   -4.3059   -0.0452    0.3937 C   0  0  0  0  0  0  0  0  0  0  0  0
   -4.4300    2.3365    0.0078 C   0  0  0  0  0  0  0  0  0  0  0  0
   -5.6572   -0.0596    0.7391 C   0  0  0  0  0  0  0  0  0  0  0  0
   -5.7814    2.3220    0.3531 C   0  0  0  0  0  0  0  0  0  0  0  0
   -3.5790   -1.2881    0.4265 C   0  0  0  0  0  0  0  0  0  0  0  0
   -6.3951    1.1241    0.7188 C   0  0  0  0  0  0  0  0  0  0  0  0
    1.9980    0.9887   -2.4327 H   0  0  0  0  0  0  0  0  0  0  0  0
    2.1455    2.4321   -1.4718 H   0  0  0  0  0  0  0  0  0  0  0  0
    2.8540    3.1065    0.5069 H   0  0  0  0  0  0  0  0  0  0  0  0
    3.9689    2.7193    1.7850 H   0  0  0  0  0  0  0  0  0  0  0  0
    5.8516    2.5512    0.1385 H   0  0  0  0  0  0  0  0  0  0  0  0
    4.7365    2.8932   -1.1844 H   0  0  0  0  0  0  0  0  0  0  0  0
    3.6965   -3.6246    0.5444 H   0  0  0  0  0  0  0  0  0  0  0  0
    0.7537    1.6896    1.0709 H   0  0  0  0  0  0  0  0  0  0  0  0
   -0.2742    0.9538   -3.0589 H   0  0  0  0  0  0  0  0  0  0  0  0
    5.6481   -1.2735    2.8586 H   0  0  0  0  0  0  0  0  0  0  0  0
    5.7461   -2.5078    1.5797 H   0  0  0  0  0  0  0  0  0  0  0  0
    4.3969   -2.5345    2.7452 H   0  0  0  0  0  0  0  0  0  0  0  0
   -1.6030    1.5797    1.6822 H   0  0  0  0  0  0  0  0  0  0  0  0
   -2.6484    0.8551   -2.4433 H   0  0  0  0  0  0  0  0  0  0  0  0
    5.3318    4.7803    1.1549 H   0  0  0  0  0  0  0  0  0  0  0  0
    4.2114    5.1216   -0.1791 H   0  0  0  0  0  0  0  0  0  0  0  0
    5.9436    4.9355   -0.5004 H   0  0  0  0  0  0  0  0  0  0  0  0
   -3.9701    3.2810   -0.2742 H   0  0  0  0  0  0  0  0  0  0  0  0
   -6.1526   -0.9843    1.0263 H   0  0  0  0  0  0  0  0  0  0  0  0
   -6.3560    3.2435    0.3373 H   0  0  0  0  0  0  0  0  0  0  0  0
   -7.4473    1.1130    0.9877 H   0  0  0  0  0  0  0  0  0  0  0  0
   -1.8906   -3.5108    1.5650 H   0  0  0  0  0  0  0  0  0  0  0  0
  1 21  2  0  0  0  0
  2  4  1  0  0  0  0
  2 13  1  0  0  0  0
  2 16  1  0  0  0  0
  3 11  1  0  0  0  0
  3 16  2  0  0  0  0
  4 21  1  0  0  0  0
  4 39  1  0  0  0  0
  5 13  2  0  0  0  0
  5 21  1  0  0  0  0
  6  8  1  0  0  0  0
  6 31  2  0  0  0  0
  7  9  2  0  0  0  0
  7 31  1  0  0  0  0
  8  9  1  0  0  0  0
  8 54  1  0  0  0  0
 10 11  2  0  0  0  0
 10 12  1  0  0  0  0
 10 13  1  0  0  0  0
 11 14  1  0  0  0  0
 12 15  1  0  0  0  0
 12 33  1  0  0  0  0
 12 34  1  0  0  0  0
 14 17  1  0  0  0  0
 14 35  1  0  0  0  0
 14 36  1  0  0  0  0
 15 18  2  0  0  0  0
 15 19  1  0  0  0  0
 16 22  1  0  0  0  0
 17 25  1  0  0  0  0
 17 37  1  0  0  0  0
 17 38  1  0  0  0  0
 18 23  1  0  0  0  0
 18 40  1  0  0  0  0
 19 24  2  0  0  0  0
 19 41  1  0  0  0  0
 20 23  2  0  0  0  0
 20 24  1  0  0  0  0
 20 26  1  0  0  0  0
 22 42  1  0  0  0  0
 22 43  1  0  0  0  0
 22 44  1  0  0  0  0
 23 45  1  0  0  0  0
 24 46  1  0  0  0  0
 25 47  1  0  0  0  0
 25 48  1  0  0  0  0
 25 49  1  0  0  0  0
 26 27  1  0  0  0  0
 26 28  2  0  0  0  0
 27 29  2  0  0  0  0
 27 31  1  0  0  0  0
 28 30  1  0  0  0  0
 28 50  1  0  0  0  0
 29 32  1  0  0  0  0
 29 51  1  0  0  0  0
 30 32  2  0  0  0  0
 30 52  1  0  0  0  0
 32 53  1  0  0  0  0
M  END
> <PUBCHEM_COMPOUND_CID>
132840

> <PUBCHEM_CONFORMER_RMSD>
0.8

> <PUBCHEM_CONFORMER_DIVERSEORDER>
2
30
7
56
41
53
3
6
34
12
40
50
17
19
42
27
48
28
43
13
29
33
22
45
26
54
51
57
44
9
25
18
37
55
31
35
20
47
52
14
21
1
8
46
39
16
5
11
32
36
49
15
38
10
24
4
23

> <PUBCHEM_MMFF94_PARTIAL_CHARGES>
38
1 -0.57
10 -0.12
11 0.03
12 0.28
13 0.49
14 0.14
15 -0.14
16 0.44
18 -0.15
19 -0.15
2 -0.12
21 0.84
22 0.06
23 -0.15
24 -0.15
27 0.05
28 -0.15
29 -0.15
3 -0.62
30 -0.15
31 0.46
32 -0.15
39 0.37
4 -0.41
40 0.15
41 0.15
45 0.15
46 0.15
5 -0.66
50 0.15
51 0.15
52 0.15
53 0.15
54 0.27
6 -0.71
7 -0.23
8 0.57
9 -0.42

> <PUBCHEM_EFFECTIVE_ROTOR_COUNT>
6

> <PUBCHEM_PHARMACOPHORE_FEATURES>
11
1 1 acceptor
1 25 hydrophobe
1 4 donor
1 5 donor
3 2 3 16 cation
3 6 7 31 cation
5 2 4 5 13 21 rings
5 6 7 8 9 31 rings
6 15 18 19 20 23 24 rings
6 2 3 10 11 13 16 rings
6 26 27 28 29 30 32 rings

> <PUBCHEM_HEAVY_ATOM_COUNT>
32

> <PUBCHEM_ATOM_DEF_STEREO_COUNT>
0

> <PUBCHEM_ATOM_UDEF_STEREO_COUNT>
0

> <PUBCHEM_BOND_DEF_STEREO_COUNT>
0

> <PUBCHEM_BOND_UDEF_STEREO_COUNT>
0

> <PUBCHEM_ISOTOPIC_ATOM_COUNT>
0

> <PUBCHEM_COMPONENT_COUNT>
1

> <PUBCHEM_CACTVS_TAUTO_COUNT>
4

> <PUBCHEM_CONFORMER_ID>
000206E800000002

> <PUBCHEM_MMFF94_ENERGY>
95.7595

> <PUBCHEM_FEATURE_SELFOVERLAP>
56.001

> <PUBCHEM_SHAPE_FINGERPRINT>
10816530 23 18341896328554386257
11112241 14 17774417435668038939
11135609 12 18189899704362156374
11513181 2 18128826416011231566
12422481 6 18335977601648825875
12596602 18 15984523564660187167
12633257 1 18336820901513563618
12788726 201 17274833402428797937
13402501 40 18193846929045648887
13533116 47 18200600177139969061
13583140 156 17987800842660973161
14725015 67 17832427497351431991
14790565 3 17979077411948356348
16126227 98 17760085512529454692
17980427 23 17460879741956121884
1813 80 16805329885753256837
19301679 30 17754759422485439187
1979834 28 18201435809966279430
21756936 100 17914608613122150100
21859007 373 17532922815179244165
23559900 14 18341621356353190940
3004659 81 18115320976767392935
3178227 256 18410289199868369928
3633792 109 18262220155146962125
3680242 22 18042970869924603019
404807 14 16975912251772491935
4073 2 18116155648096496752
4403749 210 18125425660979922720
463206 1 17168428160007200434
5047190 48 18337674225415791317
5104073 3 18335148579062365337
5281201 14 8718829786089600413
57527293 21 17823121458704125248
6823239 73 18270417005098493358

> <PUBCHEM_SHAPE_MULTIPOLES>
612.83
13.66
4.59
1.54
7.4
0.83
-0.16
-5.57
5.76
-5.04
-0.37
-0.97
0.58
0.07

> <PUBCHEM_SHAPE_SELFOVERLAP>
1357.007

> <PUBCHEM_SHAPE_VOLUME>
329.6

> <PUBCHEM_COORDINATE_TYPE>
2
5
10

$$$$
