REMARK  Name = 132840
REMARK  6 active torsions:
REMARK  status: ('A' for Active; 'I' for Inactive)
REMARK    1  A    between atoms: C_1  and  C_19
REMARK    2  A    between atoms: C_4  and  C_7
REMARK    3  A    between atoms: C_8  and  C_17
REMARK    4  A    between atoms: C_19  and  C_25
REMARK    5  A    between atoms: C_26  and  C_32
REMARK    6  A    between atoms: C_32  and  C_33
REMARK                            x       y       z     vdW  Elec       q    Type
REMARK                         _______ _______ _______ _____ _____    ______ ____
ROOT
ATOM      1  C   UNL     1       0.395   1.319  -1.037  0.00  0.00    -0.021 C 
ATOM      2  C   UNL     1       0.027   1.494   0.289  0.00  0.00    -0.004 C 
ATOM      3  C   UNL     1      -0.559   1.090  -2.019  0.00  0.00    -0.004 C 
ATOM      4  C   UNL     1      -2.289   1.209  -0.338  0.00  0.00    +0.001 C 
ATOM      5  C   UNL     1      -1.322   1.439   0.641  0.00  0.00    -0.000 C 
ATOM      6  C   UNL     1      -1.907   1.035  -1.668  0.00  0.00    -0.000 C 
ENDROOT
BRANCH   4   7
ATOM      7  C   UNL     1      -3.688   1.153   0.027  0.00  0.00    +0.009 C 
ATOM      8  C   UNL     1      -4.306  -0.045   0.394  0.00  0.00    +0.065 C 
ATOM      9  C   UNL     1      -4.430   2.337   0.008  0.00  0.00    +0.001 C 
ATOM     10  C   UNL     1      -5.657  -0.060   0.739  0.00  0.00    +0.010 C 
ATOM     11  C   UNL     1      -5.781   2.322   0.353  0.00  0.00    +0.000 C 
ATOM     12  C   UNL     1      -6.395   1.124   0.719  0.00  0.00    +0.001 C 
BRANCH   8  17
ATOM     13  N   UNL     1      -2.939  -1.733   1.506  0.00  0.00    -0.110 NA
ATOM     14  N   UNL     1      -3.494  -2.104  -0.657  0.00  0.00    -0.087 NA
ATOM     15  N   UNL     1      -2.455  -2.879   1.008  0.00  0.00    -0.140 N 
ATOM     16  N   UNL     1      -2.759  -3.140  -0.271  0.00  0.00    -0.022 NA
ATOM     17  C   UNL     1      -3.579  -1.288   0.426  0.00  0.00    +0.073 C 
ATOM     18  H   UNL     1      -1.908  -3.492   1.549  0.00  0.00    +0.197 HD
ENDBRANCH   8  17
ENDBRANCH   4   7
BRANCH   1  19
ATOM     19  C   UNL     1       1.850   1.378  -1.417  0.00  0.00    +0.042 C 
BRANCH  19  25
ATOM     20  O   UNL     1       1.905  -3.964  -1.538  0.00  0.00    -0.192 OA
ATOM     21  N   UNL     1       3.442  -1.572   0.300  0.00  0.00    -0.161 N 
ATOM     22  N   UNL     1       4.330   0.283   1.366  0.00  0.00    -0.398 NA
ATOM     23  N   UNL     1       3.238  -2.884   0.031  0.00  0.00    -0.172 N 
ATOM     24  N   UNL     1       1.982  -1.635  -1.393  0.00  0.00    -0.307 NA
ATOM     25  C   UNL     1       2.720   0.604  -0.482  0.00  0.00    +0.122 C 
ATOM     26  C   UNL     1       3.558   1.065   0.489  0.00  0.00    +0.096 C 
ATOM     27  C   UNL     1       2.669  -0.880  -0.577  0.00  0.00    +0.202 C 
ATOM     28  C   UNL     1       4.251  -1.021   1.247  0.00  0.00    +0.181 C 
ATOM     29  C   UNL     1       2.330  -2.938  -1.021  0.00  0.00    +0.283 C 
ATOM     30  C   UNL     1       5.064  -1.888   2.168  0.00  0.00    +0.086 C 
ATOM     31  H   UNL     1       3.652  -3.650   0.491  0.00  0.00    +0.185 HD
BRANCH  26  32
ATOM     32  C   UNL     1       3.768   2.541   0.720  0.00  0.00    +0.055 C 
BRANCH  32  33
ATOM     33  C   UNL     1       4.921   3.072  -0.119  0.00  0.00    +0.007 C 
ATOM     34  C   UNL     1       5.110   4.565   0.105  0.00  0.00    +0.000 C 
ENDBRANCH  32  33
ENDBRANCH  26  32
ENDBRANCH  19  25
ENDBRANCH   1  19
TORSDOF 6
