REMARK  Name = 132842
REMARK  6 active torsions:
REMARK  status: ('A' for Active; 'I' for Inactive)
REMARK    1  A    between atoms: N_2  and  C1*_14
REMARK    2  A    between atoms: C_7  and  C_24
REMARK    3  A    between atoms: C2*_12  and  O2*_16
REMARK    4  A    between atoms: C3*_13  and  O3*_18
REMARK    5  A    between atoms: C4*_15  and  C5*_20
REMARK    6  A    between atoms: C5*_20  and  O5*_21
REMARK                            x       y       z     vdW  Elec       q    Type
REMARK                         _______ _______ _______ _____ _____    ______ ____
ROOT
ATOM      1  O   UNL     1       0.471  -2.896  -0.595  0.00  0.00    -0.193 OA
ATOM      2  N   UNL     1       0.236  -0.620  -0.303  0.00  0.00    -0.178 N 
ATOM      3  N   UNL     1       2.378  -1.723  -0.231  0.00  0.00    -0.306 NA
ATOM      4  N   UNL     1       4.342  -0.560   0.137  0.00  0.00    -0.332 N 
ATOM      5  C   UNL     1       0.874   0.590  -0.068  0.00  0.00    +0.087 C 
ATOM      6  C   UNL     1       1.007  -1.805  -0.386  0.00  0.00    +0.276 C 
ATOM      7  C   UNL     1       2.196   0.693   0.085  0.00  0.00    +0.102 C 
ATOM      8  C   UNL     1       2.973  -0.577  -0.010  0.00  0.00    +0.196 C 
ATOM      9  H   UNL     1       4.854  -1.398   0.075  0.00  0.00    +0.145 HD
ATOM     10  H   UNL     1       4.808   0.291   0.304  0.00  0.00    +0.145 HD
ENDROOT
BRANCH   2  14
ATOM     11  O4* UNL     1      -1.635   0.551  -1.072  0.00  0.00    -0.332 OA
ATOM     12  C2* UNL     1      -1.915  -0.775   0.871  0.00  0.00    +0.188 C 
ATOM     13  C3* UNL     1      -3.222  -0.070   0.573  0.00  0.00    +0.171 C 
ATOM     14  C1* UNL     1      -1.189  -0.669  -0.459  0.00  0.00    +0.236 C 
ATOM     15  C4* UNL     1      -2.772   1.061  -0.342  0.00  0.00    +0.175 C 
BRANCH  12  16
ATOM     16  O2* UNL     1      -2.109  -2.113   1.280  0.00  0.00    -0.378 OA
ATOM     17  H2* UNL     1      -2.575  -2.127   2.131  0.00  0.00    +0.211 HD
ENDBRANCH  12  16
BRANCH  13  18
ATOM     18  O3* UNL     1      -4.086  -0.924  -0.176  0.00  0.00    -0.379 OA
ATOM     19  H3* UNL     1      -4.386  -1.655   0.388  0.00  0.00    +0.211 HD
ENDBRANCH  13  18
BRANCH  15  20
ATOM     20  C5* UNL     1      -2.331   2.308   0.413  0.00  0.00    +0.169 C 
BRANCH  20  21
ATOM     21  O5* UNL     1      -1.926   3.287  -0.526  0.00  0.00    -0.379 OA
ATOM     22  H5* UNL     1      -1.642   4.087  -0.057  0.00  0.00    +0.211 HD
ENDBRANCH  20  21
ENDBRANCH  15  20
ENDBRANCH   2  14
BRANCH   7  24
ATOM     23  O   UNL     1       3.954   2.219   0.481  0.00  0.00    -0.283 OA
ATOM     24  C   UNL     1       2.754   2.023   0.327  0.00  0.00    +0.239 C 
ENDBRANCH   7  24
TORSDOF 6
