REMARK  Name = 132849
REMARK  7 active torsions:
REMARK  status: ('A' for Active; 'I' for Inactive)
REMARK    1  A    between atoms: C_2  and  N_19
REMARK    2  A    between atoms: C_9  and  O_25
REMARK    3  A    between atoms: C_13  and  O_29
REMARK    4  A    between atoms: C_14  and  O_27
REMARK    5  A    between atoms: C_17  and  S_23
REMARK    6  A    between atoms: O_29  and  C_31
REMARK    7  A    between atoms: C_31  and  C_33
REMARK                            x       y       z     vdW  Elec       q    Type
REMARK                         _______ _______ _______ _____ _____    ______ ____
ROOT
ATOM      1  O   UNL     1       4.443   1.305   2.031  0.00  0.00    -0.286 OA
ATOM      2  C   UNL     1       1.962  -2.025  -0.271  0.00  0.00    +0.094 C 
ATOM      3  C   UNL     1       1.530  -2.463  -1.689  0.00  0.00    +0.029 C 
ATOM      4  C   UNL     1       0.565  -1.558  -2.466  0.00  0.00    +0.029 C 
ATOM      5  C   UNL     1       2.240  -0.537  -0.049  0.00  0.00    -0.001 C 
ATOM      6  C   UNL     1      -0.527  -0.963  -1.618  0.00  0.00    -0.016 C 
ATOM      7  C   UNL     1      -0.212   0.001  -0.638  0.00  0.00    +0.033 C 
ATOM      8  C   UNL     1       1.204   0.426  -0.454  0.00  0.00    +0.000 C 
ATOM      9  C   UNL     1      -1.231   0.526   0.172  0.00  0.00    +0.176 C 
ATOM     10  C   UNL     1      -1.857  -1.373  -1.779  0.00  0.00    +0.036 C 
ATOM     11  C   UNL     1       3.379  -0.208   0.588  0.00  0.00    +0.040 C 
ATOM     12  C   UNL     1       1.440   1.709  -0.792  0.00  0.00    +0.000 C 
ATOM     13  C   UNL     1      -2.550   0.109  -0.001  0.00  0.00    +0.216 C 
ATOM     14  C   UNL     1      -2.863  -0.837  -0.975  0.00  0.00    +0.176 C 
ATOM     15  C   UNL     1       3.869   1.142   0.956  0.00  0.00    +0.201 C 
ATOM     16  C   UNL     1       2.697   2.414  -0.835  0.00  0.00    +0.009 C 
ATOM     17  C   UNL     1       3.768   2.225  -0.055  0.00  0.00    +0.064 C 
ENDROOT
BRANCH   2  19
ATOM     18  O   UNL     1       1.829  -4.666   0.925  0.00  0.00    -0.275 OA
ATOM     19  N   UNL     1       1.037  -2.485   0.744  0.00  0.00    -0.302 N 
ATOM     20  C   UNL     1       1.055  -3.771   1.252  0.00  0.00    +0.223 C 
ATOM     21  C   UNL     1       0.005  -3.976   2.311  0.00  0.00    +0.095 C 
ATOM     22  H   UNL     1       0.364  -1.854   1.088  0.00  0.00    +0.150 HD
ENDBRANCH   2  19
BRANCH  17  23
ATOM     23  S   UNL     1       5.160   3.261  -0.156  0.00  0.00    -0.110 S 
ATOM     24  C   UNL     1       6.107   2.367  -1.404  0.00  0.00    +0.074 C 
ENDBRANCH  17  23
BRANCH   9  25
ATOM     25  O   UNL     1      -0.948   1.432   1.154  0.00  0.00    -0.468 OA
ATOM     26  C   UNL     1      -0.647   0.909   2.445  0.00  0.00    +0.253 C 
ENDBRANCH   9  25
BRANCH  14  27
ATOM     27  O   UNL     1      -4.149  -1.254  -1.148  0.00  0.00    -0.468 OA
ATOM     28  C   UNL     1      -4.571  -2.383  -0.387  0.00  0.00    +0.253 C 
ENDBRANCH  14  27
BRANCH  13  29
ATOM     29  O   UNL     1      -3.537   0.622   0.789  0.00  0.00    -0.417 OA
BRANCH  29  31
ATOM     30  O   UNL     1      -3.854   2.316  -0.788  0.00  0.00    -0.248 OA
ATOM     31  C   UNL     1      -4.149   1.780   0.272  0.00  0.00    +0.338 C 
BRANCH  31  33
ATOM     32 CL   UNL     1      -5.983   3.716   0.631  0.00  0.00    -0.101 Cl
ATOM     33  C   UNL     1      -5.212   2.239   1.234  0.00  0.00    +0.204 C 
ENDBRANCH  31  33
ENDBRANCH  29  31
ENDBRANCH  13  29
TORSDOF 7
