132849
  -OEChem-03292013323D

 56 58  0     1  0  0  0  0  0999 V2000
   -5.9827    3.7155    0.6306 Cl  0  0  0  0  0  0  0  0  0  0  0  0
    5.1600    3.2615   -0.1562 S   0  0  0  0  0  0  0  0  0  0  0  0
   -0.9481    1.4317    1.1544 O   0  0  0  0  0  0  0  0  0  0  0  0
   -4.1486   -1.2538   -1.1479 O   0  0  0  0  0  0  0  0  0  0  0  0
   -3.5371    0.6215    0.7891 O   0  0  0  0  0  0  0  0  0  0  0  0
    4.4432    1.3049    2.0306 O   0  0  0  0  0  0  0  0  0  0  0  0
    1.8293   -4.6661    0.9252 O   0  0  0  0  0  0  0  0  0  0  0  0
   -3.8540    2.3155   -0.7879 O   0  0  0  0  0  0  0  0  0  0  0  0
    1.0367   -2.4854    0.7441 N   0  0  0  0  0  0  0  0  0  0  0  0
    1.9618   -2.0248   -0.2713 C   0  0  1  0  0  0  0  0  0  0  0  0
    1.5296   -2.4634   -1.6888 C   0  0  0  0  0  0  0  0  0  0  0  0
    0.5653   -1.5579   -2.4662 C   0  0  0  0  0  0  0  0  0  0  0  0
    2.2397   -0.5374   -0.0488 C   0  0  0  0  0  0  0  0  0  0  0  0
   -0.5274   -0.9627   -1.6183 C   0  0  0  0  0  0  0  0  0  0  0  0
   -0.2119    0.0009   -0.6379 C   0  0  0  0  0  0  0  0  0  0  0  0
    1.2042    0.4260   -0.4540 C   0  0  0  0  0  0  0  0  0  0  0  0
   -1.2307    0.5261    0.1716 C   0  0  0  0  0  0  0  0  0  0  0  0
   -1.8571   -1.3728   -1.7791 C   0  0  0  0  0  0  0  0  0  0  0  0
    3.3794   -0.2085    0.5884 C   0  0  0  0  0  0  0  0  0  0  0  0
    1.4397    1.7090   -0.7923 C   0  0  0  0  0  0  0  0  0  0  0  0
   -2.5504    0.1090   -0.0009 C   0  0  0  0  0  0  0  0  0  0  0  0
   -2.8629   -0.8367   -0.9750 C   0  0  0  0  0  0  0  0  0  0  0  0
    3.8692    1.1423    0.9564 C   0  0  0  0  0  0  0  0  0  0  0  0
    1.0550   -3.7705    1.2523 C   0  0  0  0  0  0  0  0  0  0  0  0
    2.6969    2.4141   -0.8350 C   0  0  0  0  0  0  0  0  0  0  0  0
    3.7676    2.2255   -0.0546 C   0  0  0  0  0  0  0  0  0  0  0  0
    0.0052   -3.9757    2.3113 C   0  0  0  0  0  0  0  0  0  0  0  0
   -0.6472    0.9091    2.4449 C   0  0  0  0  0  0  0  0  0  0  0  0
   -4.5713   -2.3830   -0.3866 C   0  0  0  0  0  0  0  0  0  0  0  0
   -4.1487    1.7801    0.2719 C   0  0  0  0  0  0  0  0  0  0  0  0
    6.1071    2.3669   -1.4044 C   0  0  0  0  0  0  0  0  0  0  0  0
   -5.2118    2.2392    1.2345 C   0  0  0  0  0  0  0  0  0  0  0  0
    2.8908   -2.5830   -0.0849 H   0  0  0  0  0  0  0  0  0  0  0  0
    2.4308   -2.5745   -2.3069 H   0  0  0  0  0  0  0  0  0  0  0  0
    1.0863   -3.4668   -1.6317 H   0  0  0  0  0  0  0  0  0  0  0  0
    1.1231   -0.7448   -2.9493 H   0  0  0  0  0  0  0  0  0  0  0  0
    0.1338   -2.1328   -3.2956 H   0  0  0  0  0  0  0  0  0  0  0  0
    0.3394   -1.8404    1.1035 H   0  0  0  0  0  0  0  0  0  0  0  0
   -2.1107   -2.1171   -2.5304 H   0  0  0  0  0  0  0  0  0  0  0  0
    4.0356   -1.0010    0.9453 H   0  0  0  0  0  0  0  0  0  0  0  0
    0.6139    2.3313   -1.1409 H   0  0  0  0  0  0  0  0  0  0  0  0
    2.7010    3.2378   -1.5487 H   0  0  0  0  0  0  0  0  0  0  0  0
   -0.0500   -5.0352    2.5759 H   0  0  0  0  0  0  0  0  0  0  0  0
    0.2648   -3.3959    3.2013 H   0  0  0  0  0  0  0  0  0  0  0  0
   -0.9726   -3.6554    1.9395 H   0  0  0  0  0  0  0  0  0  0  0  0
    0.2614    0.3005    2.4174 H   0  0  0  0  0  0  0  0  0  0  0  0
   -1.4830    0.3148    2.8278 H   0  0  0  0  0  0  0  0  0  0  0  0
   -0.4800    1.7503    3.1233 H   0  0  0  0  0  0  0  0  0  0  0  0
   -4.4943   -2.1760    0.6855 H   0  0  0  0  0  0  0  0  0  0  0  0
   -3.9741   -3.2639   -0.6430 H   0  0  0  0  0  0  0  0  0  0  0  0
   -5.6178   -2.5873   -0.6288 H   0  0  0  0  0  0  0  0  0  0  0  0
    7.0462    2.8943   -1.5919 H   0  0  0  0  0  0  0  0  0  0  0  0
    6.3407    1.3555   -1.0598 H   0  0  0  0  0  0  0  0  0  0  0  0
    5.5497    2.3078   -2.3435 H   0  0  0  0  0  0  0  0  0  0  0  0
   -5.9798    1.4682    1.3320 H   0  0  0  0  0  0  0  0  0  0  0  0
   -4.7609    2.4635    2.2040 H   0  0  0  0  0  0  0  0  0  0  0  0
  1 32  1  0  0  0  0
  2 26  1  0  0  0  0
  2 31  1  0  0  0  0
  3 17  1  0  0  0  0
  3 28  1  0  0  0  0
  4 22  1  0  0  0  0
  4 29  1  0  0  0  0
  5 21  1  0  0  0  0
  5 30  1  0  0  0  0
  6 23  2  0  0  0  0
  7 24  2  0  0  0  0
  8 30  2  0  0  0  0
  9 10  1  0  0  0  0
  9 24  1  0  0  0  0
  9 38  1  0  0  0  0
 10 11  1  0  0  0  0
 10 13  1  0  0  0  0
 10 33  1  0  0  0  0
 11 12  1  0  0  0  0
 11 34  1  0  0  0  0
 11 35  1  0  0  0  0
 12 14  1  0  0  0  0
 12 36  1  0  0  0  0
 12 37  1  0  0  0  0
 13 16  1  0  0  0  0
 13 19  2  0  0  0  0
 14 15  1  0  0  0  0
 14 18  2  0  0  0  0
 15 16  1  0  0  0  0
 15 17  2  0  0  0  0
 16 20  2  0  0  0  0
 17 21  1  0  0  0  0
 18 22  1  0  0  0  0
 18 39  1  0  0  0  0
 19 23  1  0  0  0  0
 19 40  1  0  0  0  0
 20 25  1  0  0  0  0
 20 41  1  0  0  0  0
 21 22  2  0  0  0  0
 23 26  1  0  0  0  0
 24 27  1  0  0  0  0
 25 26  2  0  0  0  0
 25 42  1  0  0  0  0
 27 43  1  0  0  0  0
 27 44  1  0  0  0  0
 27 45  1  0  0  0  0
 28 46  1  0  0  0  0
 28 47  1  0  0  0  0
 28 48  1  0  0  0  0
 29 49  1  0  0  0  0
 29 50  1  0  0  0  0
 29 51  1  0  0  0  0
 30 32  1  0  0  0  0
 31 52  1  0  0  0  0
 31 53  1  0  0  0  0
 31 54  1  0  0  0  0
 32 55  1  0  0  0  0
 32 56  1  0  0  0  0
M  END
> <PUBCHEM_COMPOUND_CID>
132849

> <PUBCHEM_CONFORMER_RMSD>
1

> <PUBCHEM_CONFORMER_DIVERSEORDER>
1
34
25
7
22
17
40
15
47
46
14
24
26
39
36
29
28
27
23
4
48
35
8
32
33
16
43
5
2
13
6
30
45
20
10
3
11
18
9
41
42
21
44
37
19
12
31
38

> <PUBCHEM_MMFF94_PARTIAL_CHARGES>
36
1 -0.29
10 0.44
12 0.14
13 -0.14
14 -0.14
15 0.03
16 -0.03
17 0.08
18 -0.15
19 -0.14
2 -0.33
20 -0.15
21 0.08
22 0.08
23 0.54
24 0.57
25 -0.15
26 0.12
27 0.06
28 0.28
29 0.28
3 -0.36
30 0.66
31 0.23
32 0.35
38 0.37
39 0.15
4 -0.36
40 0.15
41 0.15
42 0.15
5 -0.23
6 -0.57
7 -0.57
8 -0.57
9 -0.73

> <PUBCHEM_EFFECTIVE_ROTOR_COUNT>
8.6

> <PUBCHEM_PHARMACOPHORE_FEATURES>
10
1 3 acceptor
1 31 hydrophobe
1 4 acceptor
1 6 acceptor
1 7 acceptor
1 8 acceptor
1 9 donor
6 14 15 17 18 21 22 rings
7 10 11 12 13 14 15 16 rings
7 13 16 19 20 23 25 26 rings

> <PUBCHEM_HEAVY_ATOM_COUNT>
32

> <PUBCHEM_ATOM_DEF_STEREO_COUNT>
1

> <PUBCHEM_ATOM_UDEF_STEREO_COUNT>
0

> <PUBCHEM_BOND_DEF_STEREO_COUNT>
0

> <PUBCHEM_BOND_UDEF_STEREO_COUNT>
0

> <PUBCHEM_ISOTOPIC_ATOM_COUNT>
0

> <PUBCHEM_COMPONENT_COUNT>
1

> <PUBCHEM_CACTVS_TAUTO_COUNT>
2

> <PUBCHEM_CONFORMER_ID>
000206F100000001

> <PUBCHEM_MMFF94_ENERGY>
128.314

> <PUBCHEM_FEATURE_SELFOVERLAP>
50.764

> <PUBCHEM_SHAPE_FINGERPRINT>
10032420 55 18199174269393464353
11370993 70 18042393789418150427
11421498 54 18197765795141071887
1200032 147 17773339879802524817
12236239 1 18268706289459472484
12422481 6 18263908965598412012
12788726 201 17833539472932115826
13140716 1 18410569583132115980
13583140 156 18044390335625949089
13726171 33 17774735216225186849
14787075 74 18050837007901159903
14790565 3 18267870660696800332
15131766 46 15650146879571627588
17980427 23 17413275045763938191
17980427 26 18335134237654731023
20511986 3 18058993000751690793
20715895 44 17912926076742413937
20739085 24 18113620067230396820
21033650 10 18056499441476609932
21421861 104 18118679920302461873
21756936 100 18265898154311305484
22149856 69 16844450420245780689
23419403 2 15035506530136913102
23559900 14 17559395738959729159
244849 19 17679896758940298537
3411729 13 18270121210178467349
376196 1 18202281437708735492
394222 165 18341888563338099330
404807 14 16337557907156239622
4058900 60 18260828224042203540
4340502 62 18188766292293690975
469060 322 18056495069494723689
474 4 18409163320628943248
7097593 13 18191863427559772055
9981440 41 17843678009985909266

> <PUBCHEM_SHAPE_MULTIPOLES>
624.07
10.74
5.15
2.01
2.72
3.1
0.28
-14.03
0.33
0.1
1.9
-0.29
1.19
-1.94

> <PUBCHEM_SHAPE_SELFOVERLAP>
1306.039

> <PUBCHEM_SHAPE_VOLUME>
354.4

> <PUBCHEM_COORDINATE_TYPE>
2
5
10

$$$$
