REMARK  Name = 132818
REMARK  8 active torsions:
REMARK  status: ('A' for Active; 'I' for Inactive)
REMARK    1  A    between atoms: C_3  and  C_22
REMARK    2  A    between atoms: C_4  and  C_28
REMARK    3  A    between atoms: C_5  and  N_10
REMARK    4  A    between atoms: C_22  and  C_23
REMARK    5  A    between atoms: C_23  and  C_24
REMARK    6  A    between atoms: C_24  and  C_25
REMARK    7  A    between atoms: C_25  and  C_26
REMARK    8  A    between atoms: C_28  and  O_29
REMARK                            x       y       z     vdW  Elec       q    Type
REMARK                         _______ _______ _______ _____ _____    ______ ____
ROOT
ATOM      1  O   UNL     1      -0.159   0.162   0.600  0.00  0.00    -0.341 OA
ATOM      2  N   UNL     1       0.974   1.639  -1.562  0.00  0.00    +0.390 N 
ATOM      3  C   UNL     1       1.738   0.591  -0.871  0.00  0.00    -0.031 C 
ATOM      4  C   UNL     1       1.251   0.438   0.584  0.00  0.00    +0.127 C 
ATOM      5  C   UNL     1      -0.935   1.142  -0.098  0.00  0.00    +0.178 C 
ATOM      6  C   UNL     1      -0.453   1.312  -1.541  0.00  0.00    -0.029 C 
ATOM      7  H   UNL     1       1.291   1.707  -2.529  0.00  0.00    -0.084 HD
ATOM      8  H   UNL     1       1.121   2.530  -1.087  0.00  0.00    -0.084 HD
ENDROOT
BRANCH   5  10
ATOM      9 BR   UNL     1      -3.397   3.440   0.051  0.00  0.00    +0.004 Br
ATOM     10  N   UNL     1      -2.341   0.722  -0.042  0.00  0.00    -0.219 N 
ATOM     11  N   UNL     1      -4.563   0.850   0.055  0.00  0.00    -0.374 NA
ATOM     12  N   UNL     1      -2.062  -1.690  -0.098  0.00  0.00    -0.227 NA
ATOM     13  N   UNL     1      -4.218  -2.832  -0.028  0.00  0.00    -0.227 NA
ATOM     14  C   UNL     1      -2.792  -0.566  -0.046  0.00  0.00    +0.169 C 
ATOM     15  C   UNL     1      -3.439   1.536   0.021  0.00  0.00    +0.225 C 
ATOM     16  C   UNL     1      -4.173  -0.465   0.014  0.00  0.00    +0.196 C 
ATOM     17  C   UNL     1      -4.891  -1.657   0.022  0.00  0.00    +0.155 C 
ATOM     18  C   UNL     1      -2.866  -2.776  -0.083  0.00  0.00    +0.253 C 
ATOM     19  N   UNL     1      -6.295  -1.649   0.082  0.00  0.00    -0.341 N 
ATOM     20  H   UNL     1      -6.793  -2.498   0.087  0.00  0.00    +0.144 HD
ATOM     21  H   UNL     1      -6.782  -0.793   0.119  0.00  0.00    +0.144 HD
ENDBRANCH   5  10
BRANCH   3  22
ATOM     22  C   UNL     1       3.230   0.901  -0.970  0.00  0.00    -0.019 C 
BRANCH  22  23
ATOM     23  C   UNL     1       4.076  -0.225  -0.376  0.00  0.00    -0.002 C 
BRANCH  23  24
ATOM     24  C   UNL     1       5.571   0.073  -0.508  0.00  0.00    -0.000 C 
BRANCH  24  25
ATOM     25  C   UNL     1       6.416  -1.073   0.053  0.00  0.00    -0.000 C 
BRANCH  25  26
ATOM     26  C   UNL     1       7.922  -0.835  -0.076  0.00  0.00    -0.000 C 
ATOM     27  C   UNL     1       8.767  -1.959   0.503  0.00  0.00    +0.000 C 
ENDBRANCH  25  26
ENDBRANCH  24  25
ENDBRANCH  23  24
ENDBRANCH  22  23
ENDBRANCH   3  22
BRANCH   4  28
ATOM     28  C   UNL     1       1.580   1.606   1.516  0.00  0.00    +0.164 C 
BRANCH  28  29
ATOM     29  O   UNL     1       1.059   1.314   2.798  0.00  0.00    -0.380 OA
ATOM     30  H   UNL     1       1.259   2.046   3.402  0.00  0.00    +0.211 HD
ENDBRANCH  28  29
ENDBRANCH   4  28
TORSDOF 8
