REMARK  Name = 132817
REMARK  8 active torsions:
REMARK  status: ('A' for Active; 'I' for Inactive)
REMARK    1  A    between atoms: C_5  and  C_32
REMARK    2  A    between atoms: C_6  and  O_30
REMARK    3  A    between atoms: C_10  and  N_15
REMARK    4  A    between atoms: C_16  and  C_18
REMARK    5  A    between atoms: C_19  and  O_28
REMARK    6  A    between atoms: C_21  and  N_25
REMARK    7  A    between atoms: C_32  and  C_33
REMARK    8  A    between atoms: C_33  and  C_34
REMARK                            x       y       z     vdW  Elec       q    Type
REMARK                         _______ _______ _______ _____ _____    ______ ____
ROOT
ATOM      1  O   UNL     1       0.650  -1.197  -0.928  0.00  0.00    -0.449 OA
ATOM      2  O   UNL     1       2.007   0.057   1.135  0.00  0.00    -0.450 OA
ATOM      3  O   UNL     1       4.008  -1.079   1.021  0.00  0.00    -0.250 OA
ATOM      4  O   UNL     1       1.324  -3.218  -0.047  0.00  0.00    -0.248 OA
ATOM      5  C   UNL     1       3.208   0.176  -0.904  0.00  0.00    +0.129 C 
ATOM      6  C   UNL     1       2.915  -0.953  -1.932  0.00  0.00    +0.161 C 
ATOM      7  C   UNL     1       1.426  -1.337  -2.135  0.00  0.00    +0.196 C 
ATOM      8  C   UNL     1       3.163  -0.341   0.529  0.00  0.00    +0.319 C 
ATOM      9  C   UNL     1       1.423  -0.873   2.082  0.00  0.00    +0.198 C 
ATOM     10  C   UNL     1       0.243  -1.574   1.373  0.00  0.00    +0.212 C 
ATOM     11  C   UNL     1       0.765  -0.409  -3.153  0.00  0.00    +0.050 C 
ATOM     12  C   UNL     1       0.743  -2.144   0.050  0.00  0.00    +0.339 C 
ATOM     13  C   UNL     1       1.016  -0.096   3.326  0.00  0.00    +0.050 C 
ENDROOT
BRANCH  10  15
ATOM     14  O   UNL     1      -2.541  -2.239   1.157  0.00  0.00    -0.270 OA
ATOM     15  N   UNL     1      -0.843  -0.660   1.111  0.00  0.00    -0.290 N 
ATOM     16  C   UNL     1      -2.163  -1.078   1.024  0.00  0.00    +0.249 C 
ATOM     17  H   UNL     1      -0.640   0.295   0.990  0.00  0.00    +0.150 HD
BRANCH  16  18
ATOM     18  C   UNL     1      -3.160  -0.019   0.723  0.00  0.00    +0.088 C 
ATOM     19  C   UNL     1      -4.311  -0.334   0.028  0.00  0.00    +0.151 C 
ATOM     20  C   UNL     1      -2.894   1.264   1.158  0.00  0.00    +0.008 C 
ATOM     21  C   UNL     1      -5.233   0.676  -0.244  0.00  0.00    +0.085 C 
ATOM     22  C   UNL     1      -3.816   2.274   0.886  0.00  0.00    +0.002 C 
ATOM     23  C   UNL     1      -4.986   1.980   0.186  0.00  0.00    +0.018 C 
BRANCH  21  25
ATOM     24  O   UNL     1      -7.524   2.483  -1.077  0.00  0.00    -0.265 OA
ATOM     25  N   UNL     1      -6.410   0.400  -0.944  0.00  0.00    -0.274 N 
ATOM     26  C   UNL     1      -7.424   1.284  -1.294  0.00  0.00    +0.304 C 
ATOM     27  H   UNL     1      -6.536  -0.536  -1.224  0.00  0.00    +0.155 HD
ENDBRANCH  21  25
BRANCH  19  28
ATOM     28  O   UNL     1      -4.551  -1.610  -0.392  0.00  0.00    -0.504 OA
ATOM     29  H   UNL     1      -3.931  -2.288  -0.209  0.00  0.00    +0.292 HD
ENDBRANCH  19  28
ENDBRANCH  16  18
ENDBRANCH  10  15
BRANCH   6  30
ATOM     30  O   UNL     1       3.627  -2.144  -1.584  0.00  0.00    -0.380 OA
ATOM     31  H   UNL     1       4.564  -1.934  -1.450  0.00  0.00    +0.211 HD
ENDBRANCH   6  30
BRANCH   5  32
ATOM     32  C   UNL     1       4.585   0.802  -1.137  0.00  0.00    +0.014 C 
BRANCH  32  33
ATOM     33  C   UNL     1       4.816   1.982  -0.195  0.00  0.00    +0.001 C 
BRANCH  33  34
ATOM     34  C   UNL     1       6.216   2.606  -0.340  0.00  0.00    +0.000 C 
ATOM     35  C   UNL     1       6.433   3.782   0.614  0.00  0.00    +0.000 C 
ATOM     36  C   UNL     1       7.288   1.540  -0.097  0.00  0.00    +0.000 C 
ENDBRANCH  33  34
ENDBRANCH  32  33
ENDBRANCH   5  32
TORSDOF 8
