132817
  -OEChem-03292013323D

 62 63  0     1  0  0  0  0  0999 V2000
    0.6500   -1.1969   -0.9281 O   0  0  0  0  0  0  0  0  0  0  0  0
    2.0067    0.0570    1.1348 O   0  0  0  0  0  0  0  0  0  0  0  0
    3.6270   -2.1445   -1.5838 O   0  0  0  0  0  0  0  0  0  0  0  0
    4.0079   -1.0795    1.0214 O   0  0  0  0  0  0  0  0  0  0  0  0
    1.3236   -3.2179   -0.0474 O   0  0  0  0  0  0  0  0  0  0  0  0
   -2.5414   -2.2388    1.1571 O   0  0  0  0  0  0  0  0  0  0  0  0
   -4.5510   -1.6103   -0.3919 O   0  0  0  0  0  0  0  0  0  0  0  0
   -7.5241    2.4830   -1.0770 O   0  0  0  0  0  0  0  0  0  0  0  0
   -0.8434   -0.6601    1.1113 N   0  0  0  0  0  0  0  0  0  0  0  0
   -6.4097    0.3996   -0.9442 N   0  0  0  0  0  0  0  0  0  0  0  0
    3.2075    0.1758   -0.9045 C   0  0  2  0  0  0  0  0  0  0  0  0
    2.9152   -0.9526   -1.9320 C   0  0  2  0  0  0  0  0  0  0  0  0
    4.5855    0.8022   -1.1368 C   0  0  0  0  0  0  0  0  0  0  0  0
    4.8162    1.9815   -0.1950 C   0  0  0  0  0  0  0  0  0  0  0  0
    1.4257   -1.3365   -2.1352 C   0  0  2  0  0  0  0  0  0  0  0  0
    6.2163    2.6060   -0.3400 C   0  0  0  0  0  0  0  0  0  0  0  0
    3.1635   -0.3411    0.5291 C   0  0  0  0  0  0  0  0  0  0  0  0
    1.4230   -0.8734    2.0815 C   0  0  2  0  0  0  0  0  0  0  0  0
    0.2431   -1.5738    1.3735 C   0  0  2  0  0  0  0  0  0  0  0  0
    0.7647   -0.4095   -3.1530 C   0  0  0  0  0  0  0  0  0  0  0  0
    0.7432   -2.1442    0.0499 C   0  0  0  0  0  0  0  0  0  0  0  0
    6.4333    3.7818    0.6136 C   0  0  0  0  0  0  0  0  0  0  0  0
    7.2877    1.5400   -0.0967 C   0  0  0  0  0  0  0  0  0  0  0  0
    1.0164   -0.0956    3.3259 C   0  0  0  0  0  0  0  0  0  0  0  0
   -2.1627   -1.0779    1.0243 C   0  0  0  0  0  0  0  0  0  0  0  0
   -3.1602   -0.0192    0.7229 C   0  0  0  0  0  0  0  0  0  0  0  0
   -4.3105   -0.3339    0.0281 C   0  0  0  0  0  0  0  0  0  0  0  0
   -2.8937    1.2641    1.1580 C   0  0  0  0  0  0  0  0  0  0  0  0
   -5.2332    0.6764   -0.2436 C   0  0  0  0  0  0  0  0  0  0  0  0
   -3.8164    2.2742    0.8864 C   0  0  0  0  0  0  0  0  0  0  0  0
   -4.9861    1.9804    0.1856 C   0  0  0  0  0  0  0  0  0  0  0  0
   -7.4242    1.2836   -1.2943 C   0  0  0  0  0  0  0  0  0  0  0  0
    2.4605    0.9704   -1.0266 H   0  0  0  0  0  0  0  0  0  0  0  0
    3.3207   -0.6516   -2.9063 H   0  0  0  0  0  0  0  0  0  0  0  0
    4.6665    1.1508   -2.1737 H   0  0  0  0  0  0  0  0  0  0  0  0
    5.3487    0.0300   -0.9975 H   0  0  0  0  0  0  0  0  0  0  0  0
    4.0619    2.7538   -0.3923 H   0  0  0  0  0  0  0  0  0  0  0  0
    4.6826    1.6788    0.8503 H   0  0  0  0  0  0  0  0  0  0  0  0
    1.3300   -2.3676   -2.4980 H   0  0  0  0  0  0  0  0  0  0  0  0
    6.3305    2.9806   -1.3651 H   0  0  0  0  0  0  0  0  0  0  0  0
    2.1569   -1.6343    2.3751 H   0  0  0  0  0  0  0  0  0  0  0  0
   -0.1389   -2.4001    1.9833 H   0  0  0  0  0  0  0  0  0  0  0  0
   -0.2904   -0.6758   -3.2811 H   0  0  0  0  0  0  0  0  0  0  0  0
    1.2575   -0.4714   -4.1280 H   0  0  0  0  0  0  0  0  0  0  0  0
    0.7850    0.6317   -2.8134 H   0  0  0  0  0  0  0  0  0  0  0  0
    6.3603    3.4632    1.6589 H   0  0  0  0  0  0  0  0  0  0  0  0
    5.6812    4.5592    0.4434 H   0  0  0  0  0  0  0  0  0  0  0  0
    7.4202    4.2318    0.4627 H   0  0  0  0  0  0  0  0  0  0  0  0
    7.3313    0.8125   -0.9124 H   0  0  0  0  0  0  0  0  0  0  0  0
    7.1161    1.0034    0.8427 H   0  0  0  0  0  0  0  0  0  0  0  0
    8.2815    1.9987   -0.0409 H   0  0  0  0  0  0  0  0  0  0  0  0
    3.5157   -2.7791   -2.3121 H   0  0  0  0  0  0  0  0  0  0  0  0
    1.9041    0.3282    3.8083 H   0  0  0  0  0  0  0  0  0  0  0  0
    0.3675    0.7517    3.0811 H   0  0  0  0  0  0  0  0  0  0  0  0
    0.5041   -0.7401    4.0464 H   0  0  0  0  0  0  0  0  0  0  0  0
   -0.5919    0.2901    0.8576 H   0  0  0  0  0  0  0  0  0  0  0  0
   -2.0118    1.5257    1.7341 H   0  0  0  0  0  0  0  0  0  0  0  0
   -3.6269    3.2880    1.2276 H   0  0  0  0  0  0  0  0  0  0  0  0
   -5.6525    2.8145    0.0154 H   0  0  0  0  0  0  0  0  0  0  0  0
   -5.1636   -1.6031   -1.1431 H   0  0  0  0  0  0  0  0  0  0  0  0
   -6.5721   -0.5632   -1.2197 H   0  0  0  0  0  0  0  0  0  0  0  0
   -8.2146    0.7403   -1.8403 H   0  0  0  0  0  0  0  0  0  0  0  0
  1 15  1  0  0  0  0
  1 21  1  0  0  0  0
  2 17  1  0  0  0  0
  2 18  1  0  0  0  0
  3 12  1  0  0  0  0
  3 52  1  0  0  0  0
  4 17  2  0  0  0  0
  5 21  2  0  0  0  0
  6 25  2  0  0  0  0
  7 27  1  0  0  0  0
  7 60  1  0  0  0  0
  8 32  2  0  0  0  0
  9 19  1  0  0  0  0
  9 25  1  0  0  0  0
  9 56  1  0  0  0  0
 10 29  1  0  0  0  0
 10 32  1  0  0  0  0
 10 61  1  0  0  0  0
 11 12  1  0  0  0  0
 11 13  1  0  0  0  0
 11 17  1  0  0  0  0
 11 33  1  0  0  0  0
 12 15  1  0  0  0  0
 12 34  1  0  0  0  0
 13 14  1  0  0  0  0
 13 35  1  0  0  0  0
 13 36  1  0  0  0  0
 14 16  1  0  0  0  0
 14 37  1  0  0  0  0
 14 38  1  0  0  0  0
 15 20  1  0  0  0  0
 15 39  1  0  0  0  0
 16 22  1  0  0  0  0
 16 23  1  0  0  0  0
 16 40  1  0  0  0  0
 18 19  1  0  0  0  0
 18 24  1  0  0  0  0
 18 41  1  0  0  0  0
 19 21  1  0  0  0  0
 19 42  1  0  0  0  0
 20 43  1  0  0  0  0
 20 44  1  0  0  0  0
 20 45  1  0  0  0  0
 22 46  1  0  0  0  0
 22 47  1  0  0  0  0
 22 48  1  0  0  0  0
 23 49  1  0  0  0  0
 23 50  1  0  0  0  0
 23 51  1  0  0  0  0
 24 53  1  0  0  0  0
 24 54  1  0  0  0  0
 24 55  1  0  0  0  0
 25 26  1  0  0  0  0
 26 27  2  0  0  0  0
 26 28  1  0  0  0  0
 27 29  1  0  0  0  0
 28 30  2  0  0  0  0
 28 57  1  0  0  0  0
 29 31  2  0  0  0  0
 30 31  1  0  0  0  0
 30 58  1  0  0  0  0
 31 59  1  0  0  0  0
 32 62  1  0  0  0  0
M  END
> <PUBCHEM_COMPOUND_CID>
132817

> <PUBCHEM_CONFORMER_RMSD>
1.2

> <PUBCHEM_CONFORMER_DIVERSEORDER>
3
115
101
164
220
260
142
9
263
144
167
200
11
218
86
176
23
188
32
98
38
257
124
113
248
175
126
116
121
169
69
47
103
1
135
229
10
217
161
49
19
213
119
266
131
150
92
130
81
42
247
254
146
222
253
37
230
123
76
13
208
180
182
70
141
109
59
267
210
91
89
239
147
14
33
24
151
43
166
158
80
82
265
97
138
155
105
120
168
79
84
85
6
171
8
216
252
241
93
107
221
25
77
114
45
74
231
87
99
235
149
106
159
177
136
67
4
215
224
244
207
227
223
17
96
211
173
246
137
140
64
226
259
243
174
199
201
160
261
187
214
191
129
117
88
186
262
27
127
108
162
58
95
251
256
15
145
125
20
22
240
63
228
234
100
205
143
219
212
26
73
139
249
197
163
7
202
192
206
185
40
134
90
181
132
245
36
133
156
39
46
68
122
50
128
152
102
209
148
65
236
264
232
28
5
56
21
238
153
94
104
178
193
196
57
198
237
48
203
66
225
183
179
184
71
60
55
242
172
118
233
41
78
29
110
51
30
189
75
16
18
44
204
12
62
54
165
157
112
31
2
154
34
250
194
170
190
61
53
52
195
111
72
255
35
258
83

> <PUBCHEM_MMFF94_PARTIAL_CHARGES>
33
1 -0.43
10 -0.55
11 0.06
12 0.28
15 0.28
17 0.66
18 0.28
19 0.36
2 -0.43
21 0.66
25 0.54
26 0.09
27 0.08
28 -0.15
29 0.12
3 -0.68
30 -0.15
31 -0.15
32 0.57
4 -0.57
5 -0.57
52 0.4
56 0.37
57 0.15
58 0.15
59 0.15
6 -0.57
60 0.45
61 0.37
62 0.06
7 -0.53
8 -0.57
9 -0.73

> <PUBCHEM_EFFECTIVE_ROTOR_COUNT>
9.4

> <PUBCHEM_PHARMACOPHORE_FEATURES>
11
1 10 donor
1 3 acceptor
1 3 donor
1 4 acceptor
1 5 acceptor
1 6 acceptor
1 7 donor
1 8 acceptor
1 9 donor
3 16 22 23 hydrophobe
6 26 27 28 29 30 31 rings

> <PUBCHEM_HEAVY_ATOM_COUNT>
32

> <PUBCHEM_ATOM_DEF_STEREO_COUNT>
0

> <PUBCHEM_ATOM_UDEF_STEREO_COUNT>
5

> <PUBCHEM_BOND_DEF_STEREO_COUNT>
0

> <PUBCHEM_BOND_UDEF_STEREO_COUNT>
0

> <PUBCHEM_ISOTOPIC_ATOM_COUNT>
0

> <PUBCHEM_COMPONENT_COUNT>
1

> <PUBCHEM_CACTVS_TAUTO_COUNT>
14

> <PUBCHEM_CONFORMER_ID>
000206D100000003

> <PUBCHEM_MMFF94_ENERGY>
90.6159

> <PUBCHEM_FEATURE_SELFOVERLAP>
55.832

> <PUBCHEM_SHAPE_FINGERPRINT>
11456790 92 13262397727405283573
11961588 58 18342175570438285279
12422481 6 16081076104996445436
13257819 101 18342462590465558836
13911987 19 16916801737636527264
14068700 675 17554326908836523778
14251764 30 9007067842191424572
14420673 8 8502388723407852993
14739800 52 18334005121271084056
14767858 380 16128386999339020512
14931854 50 15841839940586506957
15082195 135 17917709093402818569
15238133 3 14707501226582949439
15961568 22 18411984667271521332
17492 54 16917074381902125062
1813 80 13686295734383676299
20511986 3 17822282479844843535
21033648 29 16732985318737100857
21298829 104 17894910711765077013
21304303 282 18189334748147740123
21344244 181 13182737082684561124
23522609 53 17274280335685345441
23559900 14 18196382424497718706
24180151 46 15285900486542841204
2838139 119 18339927129663844768
3472631 163 18334577945074509381
3737641 26 9726818036348328060
44802255 64 17914065450230007828
46194498 28 17203030925379774233
56633871 153 8790878576183264401
57527295 17 16558481785332803330
8509985 295 14923953335962754343
9981440 41 18188220899850039338

> <PUBCHEM_SHAPE_MULTIPOLES>
601.63
17.44
3.17
2.35
9.38
1.16
-0.01
19.04
5.77
-2.54
-0.01
-0.72
-0.81
1.42

> <PUBCHEM_SHAPE_SELFOVERLAP>
1248.408

> <PUBCHEM_SHAPE_VOLUME>
336.6

> <PUBCHEM_COORDINATE_TYPE>
2
5
10

$$$$
