REMARK  Name = 132967
REMARK  13 active torsions:
REMARK  status: ('A' for Active; 'I' for Inactive)
REMARK    1  A    between atoms: N_2  and  C_5
REMARK    2  A    between atoms: C_3  and  C_20
REMARK    3  A    between atoms: C_5  and  C_8
REMARK    4  A    between atoms: C_5  and  C_16
REMARK    5  A    between atoms: N_7  and  C_10
REMARK    6  A    between atoms: C_16  and  C_17
REMARK    7  A    between atoms: C_20  and  N_21
REMARK    8  A    between atoms: C_20  and  C_30
REMARK    9  A    between atoms: N_21  and  CA_24
REMARK   10  A    between atoms: CA_24  and  C_27
REMARK   11  A    between atoms: C_27  and  O_28
REMARK   12  A    between atoms: C_30  and  C_31
REMARK   13  A    between atoms: C_31  and  C_32
REMARK                            x       y       z     vdW  Elec       q    Type
REMARK                         _______ _______ _______ _____ _____    ______ ____
ROOT
ATOM      1  O   UNK A   0      -0.490  -1.108   1.856  0.00  0.00    -0.277 OA
ATOM      2  N   UNK A   0      -0.343  -1.181  -0.458  0.00  0.00    -0.300 N 
ATOM      3  C   UNK A   0      -0.957  -0.859   0.746  0.00  0.00    +0.203 C 
ATOM      4  H   UNK A   0      -0.793  -0.942  -1.300  0.00  0.00    +0.150 HD
ENDROOT
BRANCH   2   5
ATOM      5  C   UNK A   0       0.930  -1.852  -0.512  0.00  0.00    +0.149 C 
BRANCH   5   8
ATOM      6  O   UNK A   0       1.867   0.329  -0.954  0.00  0.00    -0.273 OA
ATOM      7  N   UNK A   0       3.144  -1.249   0.224  0.00  0.00    -0.283 N 
ATOM      8  C   UNK A   0       2.014  -0.776  -0.438  0.00  0.00    +0.244 C 
ATOM      9  H   UNK A   0       3.102  -2.178   0.546  0.00  0.00    +0.155 HD
BRANCH   7  10
ATOM     10  C   UNK A   0       4.347  -0.551   0.487  0.00  0.00    +0.050 C 
ATOM     11  C   UNK A   0       5.387  -1.185   1.165  0.00  0.00    +0.015 C 
ATOM     12  C   UNK A   0       4.491   0.772   0.068  0.00  0.00    +0.015 C 
ATOM     13  C   UNK A   0       6.573  -0.497   1.425  0.00  0.00    +0.001 C 
ATOM     14  C   UNK A   0       5.677   1.460   0.327  0.00  0.00    +0.001 C 
ATOM     15  C   UNK A   0       6.717   0.825   1.006  0.00  0.00    +0.000 C 
ENDBRANCH   7  10
ENDBRANCH   5   8
BRANCH   5  16
ATOM     16  C   UNK A   0       1.093  -2.682  -1.793  0.00  0.00    +0.029 C 
BRANCH  16  17
ATOM     17  C   UNK A   0       0.444  -4.080  -1.745  0.00  0.00    +0.002 C 
ATOM     18  C   UNK A   0      -1.062  -3.941  -1.502  0.00  0.00    +0.000 C 
ATOM     19  C   UNK A   0       0.687  -4.879  -3.026  0.00  0.00    +0.000 C 
ENDBRANCH  16  17
ENDBRANCH   5  16
ENDBRANCH   2   5
BRANCH   3  20
ATOM     20  C   UNK A   0      -2.308  -0.182   0.554  0.00  0.00    +0.018 C 
BRANCH  20  21
ATOM     21  N   ALA A   1      -3.140  -0.630   1.673  0.00  0.00    +0.399 N 
ATOM     22  H1  ALA A   1      -3.910   0.026   1.801  0.00  0.00    -0.083 HD
ATOM     23  H2  ALA A   1      -2.565  -0.668   2.514  0.00  0.00    -0.083 HD
BRANCH  21  24
ATOM     24  CA  ALA A   1      -3.679  -1.955   1.413  0.00  0.00    +0.040 C 
ATOM     25  CB  ALA A   1      -4.083  -2.611   2.727  0.00  0.00    -0.012 C 
BRANCH  24  27
ATOM     26  OXT ALA A   1      -5.651  -0.861   0.465  0.00  0.00    -0.253 OA
ATOM     27  C   ALA A   1      -4.874  -1.805   0.496  0.00  0.00    +0.293 C 
BRANCH  27  28
ATOM     28  O   ALA A   1      -4.976  -2.881  -0.327  0.00  0.00    -0.482 OA
ATOM     29  H   ALA A   1      -4.356  -3.580  -0.264  0.00  0.00    +0.295 HD
ENDBRANCH  27  28
ENDBRANCH  24  27
ENDBRANCH  21  24
ENDBRANCH  20  21
BRANCH  20  30
ATOM     30  C   UNK A   0      -2.195   1.350   0.581  0.00  0.00    -0.008 C 
BRANCH  30  31
ATOM     31  C   UNK A   0      -1.651   1.962  -0.720  0.00  0.00    +0.025 C 
BRANCH  31  32
ATOM     32  C   UNK A   0      -1.483   3.459  -0.670  0.00  0.00    -0.022 C 
ATOM     33  C   UNK A   0      -2.534   4.292  -1.052  0.00  0.00    -0.004 C 
ATOM     34  C   UNK A   0      -0.276   4.011  -0.241  0.00  0.00    -0.004 C 
ATOM     35  C   UNK A   0      -2.378   5.678  -1.005  0.00  0.00    -0.000 C 
ATOM     36  C   UNK A   0      -0.120   5.397  -0.194  0.00  0.00    -0.000 C 
ATOM     37  C   UNK A   0      -1.172   6.230  -0.576  0.00  0.00    -0.000 C 
ENDBRANCH  31  32
ENDBRANCH  30  31
ENDBRANCH  20  30
ENDBRANCH   3  20
TORSDOF 13
