REMARK  Name = 132968
REMARK  9 active torsions:
REMARK  status: ('A' for Active; 'I' for Inactive)
REMARK    1  A    between atoms: C_1  and  C_6
REMARK    2  A    between atoms: C_1  and  N_8
REMARK    3  A    between atoms: C_1  and  C_18
REMARK    4  A    between atoms: N_8  and  C_11
REMARK    5  A    between atoms: C_11  and  P_12
REMARK    6  A    between atoms: P_12  and  O_14
REMARK    7  A    between atoms: P_12  and  O_16
REMARK    8  A    between atoms: C_18  and  C_19
REMARK    9  A    between atoms: C_22  and  C_25
REMARK                            x       y       z     vdW  Elec       q    Type
REMARK                         _______ _______ _______ _____ _____    ______ ____
ROOT
ATOM      1  C   UNL     1       2.031   0.451   0.085  0.00  0.00    +0.036 C 
ENDROOT
BRANCH   1   6
ATOM      2  N   UNL     1       1.564  -1.780   1.014  0.00  0.00    -0.116 NA
ATOM      3  N   UNL     1       2.129  -1.690  -1.177  0.00  0.00    -0.093 NA
ATOM      4  N   UNL     1       1.594  -2.975   0.408  0.00  0.00    -0.140 N 
ATOM      5  N   UNL     1       1.923  -2.970  -0.891  0.00  0.00    -0.022 NA
ATOM      6  C   UNL     1       1.903  -1.052  -0.022  0.00  0.00    +0.030 C 
ATOM      7  H   UNL     1       1.386  -3.808   0.889  0.00  0.00    +0.197 HD
ENDBRANCH   1   6
BRANCH   1   8
ATOM      8  N   UNL     1       3.420   0.819  -0.150  0.00  0.00    +0.402 N 
ATOM      9  H   UNL     1       3.515   1.832  -0.074  0.00  0.00    -0.082 HD
ATOM     10  H   UNL     1       3.687   0.507  -1.084  0.00  0.00    -0.082 HD
BRANCH   8  11
ATOM     11  C   UNL     1       4.296   0.183   0.822  0.00  0.00    +0.039 C 
BRANCH  11  12
ATOM     12  P   UNL     1       5.913   0.808   0.397  0.00  0.00    +0.316 P 
ATOM     13  O   UNL     1       6.024   2.302   0.484  0.00  0.00    -0.260 OA
BRANCH  12  14
ATOM     14  O   UNL     1       6.216   0.198  -1.070  0.00  0.00    -0.325 OA
ATOM     15  H   UNL     1       7.089   0.497  -1.371  0.00  0.00    +0.220 HD
ENDBRANCH  12  14
BRANCH  12  16
ATOM     16  O   UNL     1       6.930   0.002   1.363  0.00  0.00    -0.325 OA
ATOM     17  H   UNL     1       7.839   0.291   1.188  0.00  0.00    +0.220 HD
ENDBRANCH  12  16
ENDBRANCH  11  12
ENDBRANCH   8  11
ENDBRANCH   1   8
BRANCH   1  18
ATOM     18  C   UNL     1       1.106   1.230  -0.873  0.00  0.00    +0.020 C 
BRANCH  18  19
ATOM     19  C   UNL     1      -0.361   0.971  -0.619  0.00  0.00    -0.023 C 
ATOM     20  C   UNL     1      -0.991  -0.068  -1.285  0.00  0.00    -0.004 C 
ATOM     21  C   UNL     1      -1.047   1.778   0.274  0.00  0.00    -0.004 C 
ATOM     22  C   UNL     1      -3.050   0.497  -0.155  0.00  0.00    -0.000 C 
ATOM     23  C   UNL     1      -2.345  -0.306  -1.051  0.00  0.00    -0.000 C 
ATOM     24  C   UNL     1      -2.401   1.539   0.507  0.00  0.00    -0.000 C 
BRANCH  22  25
ATOM     25  C   UNL     1      -4.455   0.249   0.088  0.00  0.00    -0.000 C 
ATOM     26  C   UNL     1      -5.421   0.882  -0.695  0.00  0.00    -0.000 C 
ATOM     27  C   UNL     1      -4.843  -0.623   1.105  0.00  0.00    -0.000 C 
ATOM     28  C   UNL     1      -6.775   0.644  -0.459  0.00  0.00    +0.000 C 
ATOM     29  C   UNL     1      -6.197  -0.861   1.341  0.00  0.00    +0.000 C 
ATOM     30  C   UNL     1      -7.163  -0.228   0.559  0.00  0.00    +0.000 C 
ENDBRANCH  22  25
ENDBRANCH  18  19
ENDBRANCH   1  18
TORSDOF 9
