132990893
  -OEChem-03292013293D

 26 27  0     0  0  0  0  0  0999 V2000
    1.0606    2.8491    0.0313 O   0  0  0  0  0  0  0  0  0  0  0  0
   -3.1700    0.1221   -0.8001 O   0  0  0  0  0  0  0  0  0  0  0  0
   -1.5353    2.1688    0.3240 O   0  0  0  0  0  0  0  0  0  0  0  0
   -3.0292   -1.1547    1.1260 O   0  0  0  0  0  0  0  0  0  0  0  0
    0.6453    1.5090    0.0700 N   0  0  0  0  0  0  0  0  0  0  0  0
    2.9453    0.9522   -0.0807 N   0  0  0  0  0  0  0  0  0  0  0  0
   -0.5096   -2.4947   -0.0147 N   0  0  0  0  0  0  0  0  0  0  0  0
    1.2551   -0.8010   -0.0241 C   0  0  0  0  0  0  0  0  0  0  0  0
   -0.1969   -1.1589    0.0463 C   0  0  0  0  0  0  0  0  0  0  0  0
    1.6509    0.5408   -0.0150 C   0  0  0  0  0  0  0  0  0  0  0  0
   -1.1064   -0.1605    0.1606 C   0  0  0  0  0  0  0  0  0  0  0  0
   -0.6922    1.2811    0.2031 C   0  0  0  0  0  0  0  0  0  0  0  0
    2.2925   -1.7452   -0.0963 C   0  0  0  0  0  0  0  0  0  0  0  0
    3.6258   -1.3477   -0.1625 C   0  0  0  0  0  0  0  0  0  0  0  0
   -2.5492   -0.4732    0.2441 C   0  0  0  0  0  0  0  0  0  0  0  0
    3.8977    0.0028   -0.1533 C   0  0  0  0  0  0  0  0  0  0  0  0
   -4.5845   -0.0899   -0.8586 C   0  0  0  0  0  0  0  0  0  0  0  0
    2.1010   -2.8139   -0.1003 H   0  0  0  0  0  0  0  0  0  0  0  0
    4.4232   -2.0800   -0.2190 H   0  0  0  0  0  0  0  0  0  0  0  0
    0.1927   -3.2062   -0.1530 H   0  0  0  0  0  0  0  0  0  0  0  0
   -1.4802   -2.7808    0.0266 H   0  0  0  0  0  0  0  0  0  0  0  0
    4.9171    0.3692   -0.2036 H   0  0  0  0  0  0  0  0  0  0  0  0
    0.8682    3.0682   -0.8966 H   0  0  0  0  0  0  0  0  0  0  0  0
   -4.9702    0.4333   -1.7376 H   0  0  0  0  0  0  0  0  0  0  0  0
   -5.0665    0.3208    0.0339 H   0  0  0  0  0  0  0  0  0  0  0  0
   -4.8042   -1.1570   -0.9607 H   0  0  0  0  0  0  0  0  0  0  0  0
  1  5  1  0  0  0  0
  1 23  1  0  0  0  0
  2 15  1  0  0  0  0
  2 17  1  0  0  0  0
  3 12  2  0  0  0  0
  4 15  2  0  0  0  0
  5 10  1  0  0  0  0
  5 12  1  0  0  0  0
  6 10  1  0  0  0  0
  6 16  2  0  0  0  0
  7  9  1  0  0  0  0
  7 20  1  0  0  0  0
  7 21  1  0  0  0  0
  8  9  1  0  0  0  0
  8 10  2  0  0  0  0
  8 13  1  0  0  0  0
  9 11  2  0  0  0  0
 11 12  1  0  0  0  0
 11 15  1  0  0  0  0
 13 14  2  0  0  0  0
 13 18  1  0  0  0  0
 14 16  1  0  0  0  0
 14 19  1  0  0  0  0
 16 22  1  0  0  0  0
 17 24  1  0  0  0  0
 17 25  1  0  0  0  0
 17 26  1  0  0  0  0
M  END
> <PUBCHEM_COMPOUND_CID>
132990893

> <PUBCHEM_CONFORMER_RMSD>
0.6

> <PUBCHEM_CONFORMER_DIVERSEORDER>
1
2
3

> <PUBCHEM_MMFF94_PARTIAL_CHARGES>
23
1 -0.44
10 0.43
11 0.03
12 0.62
13 -0.15
14 -0.15
15 0.71
16 0.16
17 0.28
18 0.15
19 0.15
2 -0.43
20 0.4
21 0.4
22 0.15
23 0.4
3 -0.57
4 -0.57
5 -0.14
6 -0.62
7 -0.9
8 0.03
9 0.07

> <PUBCHEM_EFFECTIVE_ROTOR_COUNT>
2

> <PUBCHEM_PHARMACOPHORE_FEATURES>
8
1 11 anion
1 3 acceptor
1 4 acceptor
1 6 acceptor
1 7 cation
1 7 donor
6 5 8 9 10 11 12 rings
6 6 8 10 13 14 16 rings

> <PUBCHEM_HEAVY_ATOM_COUNT>
17

> <PUBCHEM_ATOM_DEF_STEREO_COUNT>
0

> <PUBCHEM_ATOM_UDEF_STEREO_COUNT>
0

> <PUBCHEM_BOND_DEF_STEREO_COUNT>
0

> <PUBCHEM_BOND_UDEF_STEREO_COUNT>
0

> <PUBCHEM_ISOTOPIC_ATOM_COUNT>
0

> <PUBCHEM_COMPONENT_COUNT>
1

> <PUBCHEM_CACTVS_TAUTO_COUNT>
4

> <PUBCHEM_CONFORMER_ID>
07ED47AD00000001

> <PUBCHEM_MMFF94_ENERGY>
56.9591

> <PUBCHEM_FEATURE_SELFOVERLAP>
40.623

> <PUBCHEM_SHAPE_FINGERPRINT>
10967382 1 18411420652392134746
11132069 177 18343013424089624898
11206711 2 18337397015277925268
11471102 20 18410570703801744391
11680986 33 18267865171500911088
12032990 46 18410582768655295402
12236239 1 17560804347084198483
13140716 1 18051977223112640216
13221675 6 18411704304928028330
13571099 22 18412542128292829967
14115302 16 18041006162630323863
14144814 61 18411706465301794738
14251717 144 18412821391350950695
14576447 43 18058150899504329135
14614273 12 18043810870932625957
14911166 2 18410292523128357342
14993402 34 18342458144694567286
15196674 1 18339360768857147660
15848700 24 18343294855984488622
16945 1 18340210794619773472
193761 8 17834960054618077498
200 152 18131062714986419791
20201158 50 18408322185438200571
20510252 161 18201158746168752616
20645477 70 18412542085322532487
21029758 11 18343016696675473376
21267235 1 18339652156903564902
21501502 16 18195529181956666130
221357 26 18265877126383650597
221490 88 18121498213987896919
2334 1 18339647737329119016
23402539 116 18271233950590390918
23402655 69 18339348675010009877
23419403 2 14537670750223259671
23463225 33 18337395941952773858
23493267 7 17676202468442221561
23559900 14 18411698812218458936
25 1 18188761744128468231
2748010 2 18339644417345753508
2871803 45 18337107873911315006
3071541 158 18260268589635080532
3286 77 16916775254541386058
34934 24 18339070588504084370
5104073 3 18340206263967399258
537710 114 18409735070891317396
7364860 26 18270399528776442576
8809292 202 18187090571953025435

> <PUBCHEM_SHAPE_MULTIPOLES>
311.43
6.55
2.31
0.73
2.13
0.8
-0.01
-1.37
1.22
-0.54
-0.16
0.48
-0.09
0.17

> <PUBCHEM_SHAPE_SELFOVERLAP>
675.905

> <PUBCHEM_SHAPE_VOLUME>
169.2

> <PUBCHEM_COORDINATE_TYPE>
2
5
10

$$$$
