REMARK  Name = 132919089
REMARK  5 active torsions:
REMARK  status: ('A' for Active; 'I' for Inactive)
REMARK    1  A    between atoms: C_6  and  O_25
REMARK    2  A    between atoms: C_7  and  O_27
REMARK    3  A    between atoms: C_8  and  S_22
REMARK    4  A    between atoms: C_14  and  O_29
REMARK    5  A    between atoms: C_18  and  O_31
REMARK                            x       y       z     vdW  Elec       q    Type
REMARK                         _______ _______ _______ _____ _____    ______ ____
ROOT
ATOM      1  O   UNL     1       0.154   0.059   1.351  0.00  0.00    -0.354 OA
ATOM      2  O   UNL     1      -0.240   1.720  -1.259  0.00  0.00    -0.332 OA
ATOM      3  C   UNL     1      -1.664   0.108  -0.347  0.00  0.00    +0.082 C 
ATOM      4  C   UNL     1      -0.646  -0.657  -1.195  0.00  0.00    +0.067 C 
ATOM      5  C   UNL     1      -1.273  -0.061   1.146  0.00  0.00    +0.101 C 
ATOM      6  C   UNL     1       0.028  -1.726  -0.301  0.00  0.00    +0.131 C 
ATOM      7  C   UNL     1      -1.609   1.516  -0.915  0.00  0.00    +0.192 C 
ATOM      8  C   UNL     1      -0.995  -2.489   0.586  0.00  0.00    +0.109 C 
ATOM      9  C   UNL     1       0.297   0.460  -1.724  0.00  0.00    +0.142 C 
ATOM     10  C   UNL     1       0.929  -0.949   0.679  0.00  0.00    +0.165 C 
ATOM     11  C   UNL     1      -1.660  -1.498   1.566  0.00  0.00    +0.043 C 
ATOM     12  C   UNL     1      -1.948   1.007   2.014  0.00  0.00    +0.054 C 
ATOM     13  C   UNL     1      -2.143   2.587   0.042  0.00  0.00    +0.083 C 
ATOM     14  C   UNL     1      -1.678   2.438   1.499  0.00  0.00    +0.095 C 
ATOM     15  C   UNL     1       2.036  -0.242  -0.057  0.00  0.00    +0.039 C 
ATOM     16  C   UNL     1       1.723   0.419  -1.252  0.00  0.00    +0.006 C 
ATOM     17  C   UNL     1      -2.393   3.456   2.392  0.00  0.00    +0.030 C 
ATOM     18  C   UNL     1       3.348  -0.229   0.428  0.00  0.00    +0.137 C 
ATOM     19  C   UNL     1       2.733   1.087  -1.956  0.00  0.00    -0.002 C 
ATOM     20  C   UNL     1       4.348   0.434  -0.283  0.00  0.00    +0.037 C 
ATOM     21  C   UNL     1       4.042   1.089  -1.474  0.00  0.00    +0.003 C 
ENDROOT
BRANCH   8  22
ATOM     22  S   UNL     1      -2.260  -3.372  -0.407  0.00  0.00    +0.044 S 
ATOM     23  O   UNL     1      -1.525  -4.101  -1.482  0.00  0.00    -0.256 OA
ATOM     24  C   UNL     1      -2.674  -4.561   0.889  0.00  0.00    +0.106 C 
ENDBRANCH   8  22
BRANCH   6  25
ATOM     25  O   UNL     1       0.810  -2.641  -1.054  0.00  0.00    -0.383 OA
ATOM     26  H   UNL     1       0.237  -3.127  -1.668  0.00  0.00    +0.210 HD
ENDBRANCH   6  25
BRANCH   7  27
ATOM     27  O   UNL     1      -2.402   1.547  -2.110  0.00  0.00    -0.331 OA
ATOM     28  C   UNL     1      -2.326   2.815  -2.737  0.00  0.00    +0.177 C 
ENDBRANCH   7  27
BRANCH  14  29
ATOM     29  O   UNL     1      -0.278   2.713   1.578  0.00  0.00    -0.386 OA
ATOM     30  H   UNL     1       0.207   2.084   1.022  0.00  0.00    +0.210 HD
ENDBRANCH  14  29
BRANCH  18  31
ATOM     31  O   UNL     1       3.679  -0.852   1.593  0.00  0.00    -0.472 OA
ATOM     32  C   UNL     1       3.589  -0.079   2.789  0.00  0.00    +0.252 C 
ENDBRANCH  18  31
TORSDOF 5
