132966
  -OEChem-03292013323D

 56 57  0     1  0  0  0  0  0999 V2000
    0.8495   -1.6519   -1.1001 P   0  0  2  0  0  0  0  0  0  0  0  0
    0.5997   -2.6859   -2.3109 O   0  0  0  0  0  0  0  0  0  0  0  0
   -0.0756   -0.4830   -1.0754 O   0  0  0  0  0  0  0  0  0  0  0  0
   -0.5883   -4.3832   -0.6148 O   0  0  0  0  0  0  0  0  0  0  0  0
   -0.3251    3.4782    0.9429 O   0  0  0  0  0  0  0  0  0  0  0  0
   -0.1407    3.7604   -1.3049 O   0  0  0  0  0  0  0  0  0  0  0  0
   -1.7578   -1.6539    1.5895 N   0  0  0  0  0  0  0  0  0  0  0  0
    3.1270   -0.4275   -0.1235 C   0  0  0  0  0  0  0  0  0  0  0  0
    4.6612   -0.4659   -0.1131 C   0  0  0  0  0  0  0  0  0  0  0  0
    2.6169    1.0199   -0.1230 C   0  0  0  0  0  0  0  0  0  0  0  0
    2.5764   -1.1930   -1.3253 C   0  0  0  0  0  0  0  0  0  0  0  0
    5.2374    0.3381    1.0502 C   0  0  0  0  0  0  0  0  0  0  0  0
    3.1965    1.8215    1.0403 C   0  0  0  0  0  0  0  0  0  0  0  0
    4.7211    1.7736    1.0525 C   0  0  0  0  0  0  0  0  0  0  0  0
    0.7988   -2.6759    0.3450 C   0  0  0  0  0  0  0  0  0  0  0  0
   -0.4882   -3.4852    0.4914 C   0  0  1  0  0  0  0  0  0  0  0  0
   -1.7715   -2.6526    0.5298 C   0  0  0  0  0  0  0  0  0  0  0  0
   -2.9523   -0.8217    1.5369 C   0  0  2  0  0  0  0  0  0  0  0  0
   -2.8376    0.2498    0.4709 C   0  0  0  0  0  0  0  0  0  0  0  0
   -3.2169   -0.2224    2.9200 C   0  0  0  0  0  0  0  0  0  0  0  0
   -1.8307    1.2116    0.5536 C   0  0  0  0  0  0  0  0  0  0  0  0
   -3.7388    0.2733   -0.5935 C   0  0  0  0  0  0  0  0  0  0  0  0
   -1.7252    2.1969   -0.4281 C   0  0  0  0  0  0  0  0  0  0  0  0
   -3.6332    1.2584   -1.5752 C   0  0  0  0  0  0  0  0  0  0  0  0
   -2.6264    2.2203   -1.4925 C   0  0  0  0  0  0  0  0  0  0  0  0
   -0.6762    3.2003   -0.3427 C   0  0  0  0  0  0  0  0  0  0  0  0
    2.7871   -0.9062    0.8011 H   0  0  0  0  0  0  0  0  0  0  0  0
    5.0501   -0.0646   -1.0578 H   0  0  0  0  0  0  0  0  0  0  0  0
    5.0104   -1.5028   -0.0400 H   0  0  0  0  0  0  0  0  0  0  0  0
    1.5280    1.0472   -0.0401 H   0  0  0  0  0  0  0  0  0  0  0  0
    2.8797    1.5129   -1.0674 H   0  0  0  0  0  0  0  0  0  0  0  0
    3.1391   -2.1246   -1.4583 H   0  0  0  0  0  0  0  0  0  0  0  0
    2.6860   -0.6175   -2.2510 H   0  0  0  0  0  0  0  0  0  0  0  0
    4.9704   -0.1476    1.9969 H   0  0  0  0  0  0  0  0  0  0  0  0
    6.3316    0.3402    0.9902 H   0  0  0  0  0  0  0  0  0  0  0  0
    2.8611    2.8627    0.9730 H   0  0  0  0  0  0  0  0  0  0  0  0
    2.8104    1.4225    1.9864 H   0  0  0  0  0  0  0  0  0  0  0  0
    5.1096    2.3024    0.1734 H   0  0  0  0  0  0  0  0  0  0  0  0
    5.0997    2.3006    1.9356 H   0  0  0  0  0  0  0  0  0  0  0  0
    1.6454   -3.3708    0.2943 H   0  0  0  0  0  0  0  0  0  0  0  0
    0.9453   -2.0627    1.2398 H   0  0  0  0  0  0  0  0  0  0  0  0
   -0.4256   -4.0948    1.4009 H   0  0  0  0  0  0  0  0  0  0  0  0
   -1.9317   -2.2004   -0.4557 H   0  0  0  0  0  0  0  0  0  0  0  0
   -2.6175   -3.3391    0.6713 H   0  0  0  0  0  0  0  0  0  0  0  0
   -0.2669   -3.1391   -2.3858 H   0  0  0  0  0  0  0  0  0  0  0  0
   -1.6976   -2.1317    2.4884 H   0  0  0  0  0  0  0  0  0  0  0  0
   -3.8276   -1.4509    1.3226 H   0  0  0  0  0  0  0  0  0  0  0  0
    0.2054   -4.9451   -0.6105 H   0  0  0  0  0  0  0  0  0  0  0  0
   -4.1021    0.4239    2.9013 H   0  0  0  0  0  0  0  0  0  0  0  0
   -3.3992   -1.0108    3.6594 H   0  0  0  0  0  0  0  0  0  0  0  0
   -2.3761    0.3811    3.2807 H   0  0  0  0  0  0  0  0  0  0  0  0
   -1.1216    1.1768    1.3772 H   0  0  0  0  0  0  0  0  0  0  0  0
   -4.5276   -0.4698   -0.6724 H   0  0  0  0  0  0  0  0  0  0  0  0
   -4.3350    1.2766   -2.4039 H   0  0  0  0  0  0  0  0  0  0  0  0
   -2.5593    2.9825   -2.2645 H   0  0  0  0  0  0  0  0  0  0  0  0
    0.3854    4.1531    0.9893 H   0  0  0  0  0  0  0  0  0  0  0  0
  1  2  1  0  0  0  0
  1  3  2  0  0  0  0
  1 11  1  0  0  0  0
  1 15  1  0  0  0  0
  2 45  1  0  0  0  0
  4 16  1  0  0  0  0
  4 48  1  0  0  0  0
  5 26  1  0  0  0  0
  5 56  1  0  0  0  0
  6 26  2  0  0  0  0
  7 17  1  0  0  0  0
  7 18  1  0  0  0  0
  7 46  1  0  0  0  0
  8  9  1  0  0  0  0
  8 10  1  0  0  0  0
  8 11  1  0  0  0  0
  8 27  1  0  0  0  0
  9 12  1  0  0  0  0
  9 28  1  0  0  0  0
  9 29  1  0  0  0  0
 10 13  1  0  0  0  0
 10 30  1  0  0  0  0
 10 31  1  0  0  0  0
 11 32  1  0  0  0  0
 11 33  1  0  0  0  0
 12 14  1  0  0  0  0
 12 34  1  0  0  0  0
 12 35  1  0  0  0  0
 13 14  1  0  0  0  0
 13 36  1  0  0  0  0
 13 37  1  0  0  0  0
 14 38  1  0  0  0  0
 14 39  1  0  0  0  0
 15 16  1  0  0  0  0
 15 40  1  0  0  0  0
 15 41  1  0  0  0  0
 16 17  1  0  0  0  0
 16 42  1  0  0  0  0
 17 43  1  0  0  0  0
 17 44  1  0  0  0  0
 18 19  1  0  0  0  0
 18 20  1  0  0  0  0
 18 47  1  0  0  0  0
 19 21  2  0  0  0  0
 19 22  1  0  0  0  0
 20 49  1  0  0  0  0
 20 50  1  0  0  0  0
 20 51  1  0  0  0  0
 21 23  1  0  0  0  0
 21 52  1  0  0  0  0
 22 24  2  0  0  0  0
 22 53  1  0  0  0  0
 23 25  2  0  0  0  0
 23 26  1  0  0  0  0
 24 25  1  0  0  0  0
 24 54  1  0  0  0  0
 25 55  1  0  0  0  0
M  END
> <PUBCHEM_COMPOUND_CID>
132966

> <PUBCHEM_CONFORMER_RMSD>
1

> <PUBCHEM_CONFORMER_DIVERSEORDER>
1
276
108
23
235
241
217
47
311
263
302
62
197
80
229
112
184
223
24
243
13
296
306
248
224
285
22
295
240
211
234
167
171
163
143
188
165
260
273
117
79
178
160
201
265
308
45
157
144
33
266
289
213
250
147
116
19
121
292
85
68
214
249
194
310
162
299
312
186
139
284
5
149
152
17
200
172
48
282
314
96
105
268
140
164
158
220
97
145
74
244
254
88
242
72
288
65
20
208
170
215
252
207
50
98
161
239
169
70
35
111
199
44
259
246
286
253
53
277
76
209
110
175
104
113
261
255
11
183
247
173
26
212
129
304
61
315
66
210
233
270
119
297
81
281
280
10
109
16
69
128
122
94
142
156
114
101
307
245
41
58
148
262
123
195
275
93
196
102
37
155
131
257
225
181
185
75
38
227
84
73
179
151
99
49
251
6
230
300
9
52
269
46
132
18
198
238
305
150
271
189
126
100
57
21
219
279
92
54
71
192
14
130
291
138
90
134
25
103
82
287
309
298
115
91
136
258
30
43
55
78
267
120
313
256
294
166
154
67
232
83
86
290
146
303
12
32
63
182
42
203
31
293
272
226
193
7
202
264
218
133
216
153
176
180
4
106
174
89
59
39
159
236
95
36
56
228
168
2
141
27
222
283
28
125
274
205
204
231
301
190
177
77
118
15
3
137
87
135
51
60
8
64
187
127
191
40
237
34
278
124
29
221
107
206

> <PUBCHEM_MMFF94_PARTIAL_CHARGES>
25
1 0.97
16 0.28
17 0.27
18 0.41
19 -0.14
2 -0.77
21 -0.15
22 -0.15
23 0.09
24 -0.15
25 -0.15
26 0.63
3 -0.7
4 -0.68
45 0.5
46 0.36
48 0.4
5 -0.65
52 0.15
53 0.15
54 0.15
55 0.15
56 0.5
6 -0.57
7 -0.9

> <PUBCHEM_EFFECTIVE_ROTOR_COUNT>
10.2

> <PUBCHEM_PHARMACOPHORE_FEATURES>
9
1 4 acceptor
1 4 donor
1 5 acceptor
1 6 acceptor
1 7 cation
1 7 donor
3 5 6 26 anion
6 19 21 22 23 24 25 rings
6 8 9 10 12 13 14 rings

> <PUBCHEM_HEAVY_ATOM_COUNT>
26

> <PUBCHEM_ATOM_DEF_STEREO_COUNT>
0

> <PUBCHEM_ATOM_UDEF_STEREO_COUNT>
2

> <PUBCHEM_BOND_DEF_STEREO_COUNT>
0

> <PUBCHEM_BOND_UDEF_STEREO_COUNT>
0

> <PUBCHEM_ISOTOPIC_ATOM_COUNT>
0

> <PUBCHEM_COMPONENT_COUNT>
1

> <PUBCHEM_CACTVS_TAUTO_COUNT>
1

> <PUBCHEM_CONFORMER_ID>
0002076600000001

> <PUBCHEM_MMFF94_ENERGY>
35.2811

> <PUBCHEM_FEATURE_SELFOVERLAP>
45.728

> <PUBCHEM_SHAPE_FINGERPRINT>
10366900 7 18194125118392717236
10675989 125 17396681104514383277
11370993 70 18263072245601556716
12035758 1 18187941598949355841
12156800 1 17263222701241300503
12422481 6 18049741894915786651
12596602 18 16443642297606894274
12633257 1 18267882733474504704
13402501 40 18411132541359019256
13544592 271 18335139769936383741
13583140 156 18260258651650158088
13726171 33 17535510064137983004
14081887 123 18334862679741370190
14114207 22 13743381665106614626
14251764 3 18411982429793311946
14466204 15 17833820574552549010
16728300 4 17605252043653427595
17492 54 18124000590793531047
17974551 9 17315354722306957866
23536364 44 17190418229845145206
23558518 356 18051134691926209396
23559900 14 17971200222366624279
238 59 18125706903558407239
238918 7 18342170021673010814
35225 105 17897416498442329624
4742675 86 17988921150435741056
5283178 26 18270409402568561929
70251023 43 17840871776922894255
9981440 41 18191011327274766347

> <PUBCHEM_SHAPE_MULTIPOLES>
504.59
7.97
4.79
1.93
8.62
1.16
-0.47
-3.1
-2.29
-1.27
0.97
-1.36
0.28
2.19

> <PUBCHEM_SHAPE_SELFOVERLAP>
1014.866

> <PUBCHEM_SHAPE_VOLUME>
295.3

> <PUBCHEM_COORDINATE_TYPE>
2
5
10

$$$$
