132968
  -OEChem-03292013323D

 43 45  0     1  0  0  0  0  0999 V2000
    5.9131    0.8077    0.3968 P   0  0  0  0  0  0  0  0  0  0  0  0
    6.2165    0.1977   -1.0703 O   0  0  0  0  0  0  0  0  0  0  0  0
    6.9299    0.0022    1.3628 O   0  0  0  0  0  0  0  0  0  0  0  0
    6.0238    2.3017    0.4845 O   0  0  0  0  0  0  0  0  0  0  0  0
    3.4200    0.8192   -0.1504 N   0  0  0  0  0  0  0  0  0  0  0  0
    1.5644   -1.7798    1.0142 N   0  0  0  0  0  0  0  0  0  0  0  0
    2.1290   -1.6896   -1.1770 N   0  0  0  0  0  0  0  0  0  0  0  0
    1.5941   -2.9751    0.4082 N   0  0  0  0  0  0  0  0  0  0  0  0
    1.9235   -2.9695   -0.8910 N   0  0  0  0  0  0  0  0  0  0  0  0
    2.0308    0.4505    0.0849 C   0  0  1  0  0  0  0  0  0  0  0  0
    1.1061    1.2299   -0.8725 C   0  0  0  0  0  0  0  0  0  0  0  0
   -0.3611    0.9708   -0.6190 C   0  0  0  0  0  0  0  0  0  0  0  0
    4.2960    0.1833    0.8217 C   0  0  0  0  0  0  0  0  0  0  0  0
    1.9027   -1.0522   -0.0221 C   0  0  0  0  0  0  0  0  0  0  0  0
   -0.9906   -0.0679   -1.2847 C   0  0  0  0  0  0  0  0  0  0  0  0
   -1.0472    1.7776    0.2735 C   0  0  0  0  0  0  0  0  0  0  0  0
   -3.0504    0.4968   -0.1551 C   0  0  0  0  0  0  0  0  0  0  0  0
   -2.3450   -0.3064   -1.0512 C   0  0  0  0  0  0  0  0  0  0  0  0
   -2.4015    1.5388    0.5072 C   0  0  0  0  0  0  0  0  0  0  0  0
   -4.4552    0.2488    0.0876 C   0  0  0  0  0  0  0  0  0  0  0  0
   -5.4208    0.8821   -0.6945 C   0  0  0  0  0  0  0  0  0  0  0  0
   -4.8431   -0.6225    1.1054 C   0  0  0  0  0  0  0  0  0  0  0  0
   -6.7748    0.6440   -0.4587 C   0  0  0  0  0  0  0  0  0  0  0  0
   -6.1972   -0.8607    1.3409 C   0  0  0  0  0  0  0  0  0  0  0  0
   -7.1631   -0.2275    0.5589 C   0  0  0  0  0  0  0  0  0  0  0  0
    1.7600    0.7489    1.1087 H   0  0  0  0  0  0  0  0  0  0  0  0
    1.2950    2.3086   -0.7811 H   0  0  0  0  0  0  0  0  0  0  0  0
    1.3384    0.9820   -1.9179 H   0  0  0  0  0  0  0  0  0  0  0  0
    3.5162    1.8324   -0.0814 H   0  0  0  0  0  0  0  0  0  0  0  0
    4.0462    0.4654    1.8495 H   0  0  0  0  0  0  0  0  0  0  0  0
    4.3275   -0.9065    0.7379 H   0  0  0  0  0  0  0  0  0  0  0  0
   -0.4558   -0.6948   -1.9918 H   0  0  0  0  0  0  0  0  0  0  0  0
   -0.5496    2.5898    0.7954 H   0  0  0  0  0  0  0  0  0  0  0  0
   -2.8359   -1.1217   -1.5773 H   0  0  0  0  0  0  0  0  0  0  0  0
   -2.9363    2.1741    1.2094 H   0  0  0  0  0  0  0  0  0  0  0  0
   -5.1355    1.5646   -1.4916 H   0  0  0  0  0  0  0  0  0  0  0  0
   -4.1031   -1.1242    1.7245 H   0  0  0  0  0  0  0  0  0  0  0  0
    1.3787   -3.8338    0.9034 H   0  0  0  0  0  0  0  0  0  0  0  0
    7.0424    0.4582   -1.5307 H   0  0  0  0  0  0  0  0  0  0  0  0
    7.8843    0.2274    1.3401 H   0  0  0  0  0  0  0  0  0  0  0  0
   -7.5270    1.1372   -1.0675 H   0  0  0  0  0  0  0  0  0  0  0  0
   -6.4995   -1.5391    2.1334 H   0  0  0  0  0  0  0  0  0  0  0  0
   -8.2173   -0.4128    0.7424 H   0  0  0  0  0  0  0  0  0  0  0  0
  1  2  1  0  0  0  0
  1  3  1  0  0  0  0
  1  4  2  0  0  0  0
  1 13  1  0  0  0  0
  2 39  1  0  0  0  0
  3 40  1  0  0  0  0
  5 10  1  0  0  0  0
  5 13  1  0  0  0  0
  5 29  1  0  0  0  0
  6  8  1  0  0  0  0
  6 14  2  0  0  0  0
  7  9  2  0  0  0  0
  7 14  1  0  0  0  0
  8  9  1  0  0  0  0
  8 38  1  0  0  0  0
 10 11  1  0  0  0  0
 10 14  1  0  0  0  0
 10 26  1  0  0  0  0
 11 12  1  0  0  0  0
 11 27  1  0  0  0  0
 11 28  1  0  0  0  0
 12 15  2  0  0  0  0
 12 16  1  0  0  0  0
 13 30  1  0  0  0  0
 13 31  1  0  0  0  0
 15 18  1  0  0  0  0
 15 32  1  0  0  0  0
 16 19  2  0  0  0  0
 16 33  1  0  0  0  0
 17 18  2  0  0  0  0
 17 19  1  0  0  0  0
 17 20  1  0  0  0  0
 18 34  1  0  0  0  0
 19 35  1  0  0  0  0
 20 21  2  0  0  0  0
 20 22  1  0  0  0  0
 21 23  1  0  0  0  0
 21 36  1  0  0  0  0
 22 24  2  0  0  0  0
 22 37  1  0  0  0  0
 23 25  2  0  0  0  0
 23 41  1  0  0  0  0
 24 25  1  0  0  0  0
 24 42  1  0  0  0  0
 25 43  1  0  0  0  0
M  END
> <PUBCHEM_COMPOUND_CID>
132968

> <PUBCHEM_CONFORMER_RMSD>
0.8

> <PUBCHEM_CONFORMER_DIVERSEORDER>
1
6
9
7
3
10
8
4
2
5
11

> <PUBCHEM_MMFF94_PARTIAL_CHARGES>
36
1 1.24
10 0.45
11 0.14
12 -0.14
13 0.27
14 0.34
15 -0.15
16 -0.15
18 -0.15
19 -0.15
2 -0.77
21 -0.15
22 -0.15
23 -0.15
24 -0.15
25 -0.15
29 0.36
3 -0.77
32 0.15
33 0.15
34 0.15
35 0.15
36 0.15
37 0.15
38 0.27
39 0.5
4 -0.7
40 0.5
41 0.15
42 0.15
43 0.15
5 -0.9
6 -0.71
7 -0.23
8 0.57
9 -0.42

> <PUBCHEM_EFFECTIVE_ROTOR_COUNT>
7

> <PUBCHEM_PHARMACOPHORE_FEATURES>
10
1 2 acceptor
1 3 acceptor
1 4 acceptor
1 5 cation
1 5 donor
3 6 7 14 cation
4 1 2 3 4 anion
5 6 7 8 9 14 rings
6 12 15 16 17 18 19 rings
6 20 21 22 23 24 25 rings

> <PUBCHEM_HEAVY_ATOM_COUNT>
25

> <PUBCHEM_ATOM_DEF_STEREO_COUNT>
1

> <PUBCHEM_ATOM_UDEF_STEREO_COUNT>
0

> <PUBCHEM_BOND_DEF_STEREO_COUNT>
0

> <PUBCHEM_BOND_UDEF_STEREO_COUNT>
0

> <PUBCHEM_ISOTOPIC_ATOM_COUNT>
0

> <PUBCHEM_COMPONENT_COUNT>
1

> <PUBCHEM_CACTVS_TAUTO_COUNT>
2

> <PUBCHEM_CONFORMER_ID>
0002076800000001

> <PUBCHEM_MMFF94_ENERGY>
26.0392

> <PUBCHEM_FEATURE_SELFOVERLAP>
50.784

> <PUBCHEM_SHAPE_FINGERPRINT>
10 15 18335418002181293432
10165383 225 14764348249402069748
10670039 82 13254805612025683715
10835480 77 18334850568625225005
11421498 54 17632020753985322328
11595378 159 16701749242223757435
11719270 70 18261111876636177618
11796584 16 17894633656804903923
11963148 33 18113896087124368858
12166972 35 11746937589937999903
12516196 113 18411983563970834545
12596602 18 17561089116142725947
13073987 5 18339647733735986169
14068700 675 12829481550227119702
14251764 18 14476961185678354649
14863182 85 18337121098284587286
15183329 4 9151177570894024090
15510800 12 17531828934274549507
15537594 2 18131628985176473031
15927050 60 17690286336327114668
21033650 10 15576410008511277541
21521721 280 18272089452541989768
21623969 137 18407763642527400499
21781051 124 18188223052446370250
22079108 93 18412541042204395096
22224240 67 18411694422218609066
22956985 138 17681262271200065338
23559900 14 18187083988322210605
239999 70 18335710411801971911
3009799 131 8862944970307936174
3178227 256 18411703222612308856
4325135 7 17530966890601883048
4340502 62 18408042913716376903
465052 167 17749388170353733232
5104073 3 18268153050553519777
5486654 2 18410015450851736588
5758199 1 18131069363690850088
59682541 35 18339924926107732465
59755656 215 18341899567408035798
59755656 520 14692565516513502685
6081469 158 10665218243097473384

> <PUBCHEM_SHAPE_MULTIPOLES>
475.82
18.1
2.11
1.2
0.91
1.39
-0.01
-3.11
5.07
-2.07
-0.05
-0.01
0.23
1.03

> <PUBCHEM_SHAPE_SELFOVERLAP>
1006.728

> <PUBCHEM_SHAPE_VOLUME>
268.1

> <PUBCHEM_COORDINATE_TYPE>
2
5
10

$$$$
