REMARK  Name = 132918381
REMARK  14 active torsions:
REMARK  status: ('A' for Active; 'I' for Inactive)
REMARK    1  A    between atoms: C_2  and  O_7
REMARK    2  A    between atoms: C_3  and  O_9
REMARK    3  A    between atoms: C_4  and  C_21
REMARK    4  A    between atoms: C_5  and  O_11
REMARK    5  A    between atoms: C_6  and  O_13
REMARK    6  A    between atoms: O_13  and  C_14
REMARK    7  A    between atoms: C_14  and  C_15
REMARK    8  A    between atoms: C_16  and  C_18
REMARK    9  A    between atoms: C_18  and  O_19
REMARK   10  A    between atoms: C_21  and  O_22
REMARK   11  A    between atoms: O_22  and  C_24
REMARK   12  A    between atoms: C_24  and  C_25
REMARK   13  A    between atoms: C_28  and  O_31
REMARK   14  A    between atoms: C_30  and  O_33
REMARK                            x       y       z     vdW  Elec       q    Type
REMARK                         _______ _______ _______ _____ _____    ______ ____
ROOT
ATOM      1  O   UNL     1       1.925  -0.792   0.179  0.00  0.00    -0.325 OA
ATOM      2  C   UNL     1       2.729  -3.077   0.285  0.00  0.00    +0.171 C 
ATOM      3  C   UNL     1       4.031  -2.658  -0.397  0.00  0.00    +0.172 C 
ATOM      4  C   UNL     1       1.582  -2.147  -0.118  0.00  0.00    +0.190 C 
ATOM      5  C   UNL     1       4.292  -1.162  -0.222  0.00  0.00    +0.196 C 
ATOM      6  C   UNL     1       3.052  -0.338  -0.568  0.00  0.00    +0.266 C 
ENDROOT
BRANCH   2   7
ATOM      7  O   UNL     1       2.407  -4.413  -0.093  0.00  0.00    -0.379 OA
ATOM      8  H   UNL     1       3.133  -5.004   0.161  0.00  0.00    +0.211 HD
ENDBRANCH   2   7
BRANCH   3   9
ATOM      9  O   UNL     1       5.099  -3.399   0.196  0.00  0.00    -0.379 OA
ATOM     10  H   UNL     1       4.934  -4.349   0.086  0.00  0.00    +0.211 HD
ENDBRANCH   3   9
BRANCH   5  11
ATOM     11  O   UNL     1       5.352  -0.761  -1.090  0.00  0.00    -0.378 OA
ATOM     12  H   UNL     1       6.149  -1.274  -0.886  0.00  0.00    +0.211 HD
ENDBRANCH   5  11
BRANCH   6  13
ATOM     13  O   UNL     1       3.326   1.025  -0.244  0.00  0.00    -0.324 OA
BRANCH  13  14
ATOM     14  C   UNL     1       2.449   1.905  -0.931  0.00  0.00    +0.171 C 
BRANCH  14  15
ATOM     15  C   UNL     1       2.791   3.309  -0.548  0.00  0.00    -0.000 C 
ATOM     16  C   UNL     1       2.002   4.224   0.048  0.00  0.00    -0.017 C 
ATOM     17  C   UNL     1       0.581   3.874   0.410  0.00  0.00    +0.029 C 
BRANCH  16  18
ATOM     18  C   UNL     1       2.426   5.617   0.429  0.00  0.00    +0.159 C 
BRANCH  18  19
ATOM     19  O   UNL     1       2.305   5.779   1.836  0.00  0.00    -0.378 OA
ATOM     20  H   UNL     1       2.578   6.676   2.083  0.00  0.00    +0.211 HD
ENDBRANCH  18  19
ENDBRANCH  16  18
ENDBRANCH  14  15
ENDBRANCH  13  14
ENDBRANCH   6  13
BRANCH   4  21
ATOM     21  C   UNL     1       0.298  -2.472   0.640  0.00  0.00    +0.241 C 
BRANCH  21  22
ATOM     22  O   UNL     1      -0.711  -1.569   0.226  0.00  0.00    -0.443 OA
BRANCH  22  24
ATOM     23  O   UNL     1      -2.225  -2.561   1.648  0.00  0.00    -0.245 OA
ATOM     24  C   UNL     1      -1.934  -1.722   0.810  0.00  0.00    +0.341 C 
BRANCH  24  25
ATOM     25  C   UNL     1      -2.899  -0.719   0.292  0.00  0.00    +0.079 C 
ATOM     26  C   UNL     1      -4.258  -1.027   0.230  0.00  0.00    +0.046 C 
ATOM     27  C   UNL     1      -2.446   0.530  -0.132  0.00  0.00    +0.010 C 
ATOM     28  C   UNL     1      -5.165  -0.085  -0.257  0.00  0.00    +0.172 C 
ATOM     29  C   UNL     1      -3.353   1.472  -0.618  0.00  0.00    +0.040 C 
ATOM     30  C   UNL     1      -4.712   1.165  -0.681  0.00  0.00    +0.168 C 
BRANCH  28  31
ATOM     31  O   UNL     1      -6.490  -0.397  -0.312  0.00  0.00    -0.468 OA
ATOM     32  C   UNL     1      -6.869  -1.695   0.141  0.00  0.00    +0.253 C 
ENDBRANCH  28  31
BRANCH  30  33
ATOM     33  O   UNL     1      -5.587   2.093  -1.157  0.00  0.00    -0.503 OA
ATOM     34  H   UNL     1      -6.502   1.895  -1.203  0.00  0.00    +0.292 HD
ENDBRANCH  30  33
ENDBRANCH  24  25
ENDBRANCH  22  24
ENDBRANCH  21  22
ENDBRANCH   4  21
TORSDOF 14
