REMARK  Name = 13296
REMARK  4 active torsions:
REMARK  status: ('A' for Active; 'I' for Inactive)
REMARK    1  A    between atoms: C_1  and  S_11
REMARK    2  A    between atoms: C_4  and  S_16
REMARK    3  A    between atoms: S_11  and  C_14
REMARK    4  A    between atoms: S_16  and  N_19
REMARK                            x       y       z     vdW  Elec       q    Type
REMARK                         _______ _______ _______ _____ _____    ______ ____
ROOT
ATOM      1  C   UNL     1       1.109   0.610  -0.249  0.00  0.00    +0.106 C 
ATOM      2  C   UNL     1       0.416  -0.609  -0.165  0.00  0.00    +0.018 C 
ATOM      3  C   UNL     1      -0.995  -0.598  -0.066  0.00  0.00    +0.020 C 
ATOM      4  C   UNL     1      -1.673   0.632  -0.053  0.00  0.00    +0.122 C 
ATOM      5  C   UNL     1       0.419   1.823  -0.235  0.00  0.00    +0.020 C 
ATOM      6  C   UNL     1      -0.969   1.834  -0.137  0.00  0.00    +0.021 C 
ATOM      7  C   UNL     1       1.094  -1.839  -0.178  0.00  0.00    +0.001 C 
ATOM      8  C   UNL     1      -1.688  -1.817   0.018  0.00  0.00    +0.001 C 
ATOM      9  C   UNL     1       0.391  -3.040  -0.093  0.00  0.00    +0.000 C 
ATOM     10  C   UNL     1      -0.998  -3.029   0.004  0.00  0.00    +0.000 C 
ENDROOT
BRANCH   1  11
ATOM     11  S   UNL     1       2.859   0.705  -0.376  0.00  0.00    +0.009 S 
ATOM     12  O   UNL     1       3.281  -0.283  -1.353  0.00  0.00    -0.169 OA
ATOM     13  O   UNL     1       3.234   2.099  -0.537  0.00  0.00    -0.169 OA
BRANCH  11  14
ATOM     14  C   UNL     1       3.434   0.187   1.222  0.00  0.00    +0.156 C 
ATOM     15  C   UNL     1       4.944   0.205   1.301  0.00  0.00    +0.028 C 
ENDBRANCH  11  14
ENDBRANCH   1  11
BRANCH   4  16
ATOM     16  S   UNL     1      -3.422   0.755   0.068  0.00  0.00    +0.057 S 
ATOM     17  O   UNL     1      -3.823   2.026  -0.510  0.00  0.00    -0.153 OA
ATOM     18  O   UNL     1      -3.996  -0.486  -0.423  0.00  0.00    -0.153 OA
BRANCH  16  19
ATOM     19  N   UNL     1      -3.616   0.825   1.762  0.00  0.00    -0.203 NA
ATOM     20  H   UNL     1      -4.608   0.899   1.987  0.00  0.00    +0.144 HD
ATOM     21  H   UNL     1      -3.122   1.639   2.127  0.00  0.00    +0.144 HD
ENDBRANCH  16  19
ENDBRANCH   4  16
TORSDOF 4
