REMARK  Name = 132967565
REMARK  8 active torsions:
REMARK  status: ('A' for Active; 'I' for Inactive)
REMARK    1  A    between atoms: O_1  and  C_2
REMARK    2  A    between atoms: O_1  and  C_20
REMARK    3  A    between atoms: C_2  and  C_9
REMARK    4  A    between atoms: CB_13  and  CG_16
REMARK    5  A    between atoms: C_20  and  C_21
REMARK    6  A    between atoms: C_21  and  N_23
REMARK    7  A    between atoms: C_24  and  C_26
REMARK    8  A    between atoms: C_31  and  N_34
REMARK                            x       y       z     vdW  Elec       q    Type
REMARK                         _______ _______ _______ _____ _____    ______ ____
ROOT
ATOM      1  O   UNK A   1       0.149  -1.957   0.172  0.00  0.00    -0.452 OA
ENDROOT
BRANCH   1   2
ATOM      2  C   UNK A   1       1.230  -1.944   1.107  0.00  0.00    +0.161 C 
ATOM      3  C   UNK A   1       0.747  -1.199   2.352  0.00  0.00    +0.046 C 
ATOM      4  C   UNK A   1       1.586  -3.390   1.456  0.00  0.00    +0.046 C 
BRANCH   2   9
ATOM      5  O   UNK A   1       0.913   0.501  -0.294  0.00  0.00    -0.273 OA
ATOM      6  O   LEU A   2       5.749  -0.638   1.697  0.00  0.00    -0.269 OA
ATOM      7  N   UNK A   1       3.547  -1.202   1.380  0.00  0.00    -0.291 N 
ATOM      8  N   LEU A   2       3.133   1.032  -0.117  0.00  0.00    -0.279 N 
ATOM      9  C   UNK A   1       2.414  -1.227   0.475  0.00  0.00    +0.186 C 
ATOM     10  C   UNK A   1       2.052   0.188   0.054  0.00  0.00    +0.248 C 
ATOM     11  CA  LEU A   2       4.413   0.764   0.299  0.00  0.00    +0.100 C 
ATOM     12  C   LEU A   2       4.663  -0.422   1.166  0.00  0.00    +0.259 C 
ATOM     13  CB  LEU A   2       5.429   1.586   0.008  0.00  0.00    -0.007 C 
ATOM     14  H   UNK A   1       3.517  -1.768   2.185  0.00  0.00    +0.150 HD
ATOM     15  H   LEU A   2       2.972   1.890  -0.571  0.00  0.00    +0.155 HD
BRANCH  13  16
ATOM     16  CG  LEU A   2       5.297   2.812  -0.856  0.00  0.00    +0.023 C 
ATOM     17  CD1 LEU A   2       6.602   3.072  -1.607  0.00  0.00    +0.005 C 
ATOM     18  CD2 LEU A   2       4.919   4.022  -0.002  0.00  0.00    +0.005 C 
ENDBRANCH  13  16
ENDBRANCH   2   9
ENDBRANCH   1   2
BRANCH   1  20
ATOM     19  O   UNK A   1       1.455  -3.121  -1.323  0.00  0.00    -0.248 OA
ATOM     20  C   UNK A   1       0.397  -2.583  -1.012  0.00  0.00    +0.337 C 
BRANCH  20  21
ATOM     21  C   UNK A   1      -0.792  -2.553  -1.943  0.00  0.00    +0.201 C 
BRANCH  21  23
ATOM     22  O   UNK A   1      -1.413   0.242  -2.155  0.00  0.00    -0.270 OA
ATOM     23  N   UNK A   1      -1.931  -1.884  -1.383  0.00  0.00    -0.291 N 
ATOM     24  C   UNK A   1      -2.153  -0.518  -1.536  0.00  0.00    +0.246 C 
ATOM     25  H   UNK A   1      -2.583  -2.412  -0.868  0.00  0.00    +0.150 HD
BRANCH  24  26
ATOM     26  C   UNK A   1      -3.365   0.028  -0.873  0.00  0.00    +0.053 C 
ATOM     27  C   UNK A   1      -3.401   1.365  -0.478  0.00  0.00    +0.006 C 
ATOM     28  C   UNK A   1      -4.467  -0.796  -0.645  0.00  0.00    +0.006 C 
ATOM     29  C   UNK A   1      -4.539   1.878   0.145  0.00  0.00    +0.024 C 
ATOM     30  C   UNK A   1      -5.605  -0.283  -0.023  0.00  0.00    +0.024 C 
ATOM     31  C   UNK A   1      -5.641   1.054   0.373  0.00  0.00    +0.143 C 
BRANCH  31  34
ATOM     32  O   UNK A   1      -6.810   2.781   1.355  0.00  0.00    -0.126 OA
ATOM     33  O   UNK A   1      -7.779   0.818   1.202  0.00  0.00    -0.126 OA
ATOM     34  N   UNK A   1      -6.799   1.576   1.007  0.00  0.00    +0.058 N 
ENDBRANCH  31  34
ENDBRANCH  24  26
ENDBRANCH  21  23
ENDBRANCH  20  21
ENDBRANCH   1  20
TORSDOF 8
