REMARK  Name = 132942996
REMARK  3 active torsions:
REMARK  status: ('A' for Active; 'I' for Inactive)
REMARK    1  A    between atoms: P_1  and  O_23
REMARK    2  A    between atoms: C_9  and  N_16
REMARK    3  A    between atoms: O_23  and  C_24
REMARK                            x       y       z     vdW  Elec       q    Type
REMARK                         _______ _______ _______ _____ _____    ______ ____
ROOT
ATOM      1  P   UNL     1      -3.404  -0.271  -0.375  0.00  0.00    +0.480 P 
ATOM      2  O   UNL     1      -0.052  -2.695   0.877  0.00  0.00    -0.352 OA
ATOM      3  O   UNL     1       0.587  -1.074  -1.858  0.00  0.00    -0.333 OA
ATOM      4  O   UNL     1      -2.138  -0.892   0.442  0.00  0.00    -0.270 OA
ATOM      5  O   UNL     1      -3.067  -0.551  -1.941  0.00  0.00    -0.270 OA
ATOM      6  O   UNL     1      -4.742  -0.775   0.082  0.00  0.00    -0.227 OA
ATOM      7  C   UNL     1       0.307  -1.330   0.512  0.00  0.00    +0.166 C 
ATOM      8  C   UNL     1      -0.866  -0.597  -0.103  0.00  0.00    +0.184 C 
ATOM      9  C   UNL     1       1.321  -1.339  -0.639  0.00  0.00    +0.227 C 
ATOM     10  C   UNL     1       0.714  -1.027   1.968  0.00  0.00    +0.066 C 
ATOM     11  C   UNL     1      -0.797  -1.141  -1.518  0.00  0.00    +0.177 C 
ATOM     12  C   UNL     1       0.135  -2.402   2.279  0.00  0.00    +0.145 C 
ATOM     13  C   UNL     1      -1.732  -0.361  -2.418  0.00  0.00    +0.186 C 
ENDROOT
BRANCH   9  16
ATOM     14  O   UNL     1       3.820  -1.611   0.651  0.00  0.00    -0.252 OA
ATOM     15  O   UNL     1       4.810   2.854   0.078  0.00  0.00    -0.270 OA
ATOM     16  N   UNL     1       2.252  -0.264  -0.438  0.00  0.00    -0.217 N 
ATOM     17  N   UNL     1       4.311   0.613   0.365  0.00  0.00    -0.236 N 
ATOM     18  C   UNL     1       3.480  -0.506   0.222  0.00  0.00    +0.315 C 
ATOM     19  C   UNL     1       1.946   1.014  -0.894  0.00  0.00    +0.076 C 
ATOM     20  C   UNL     1       2.749   2.071  -0.751  0.00  0.00    +0.074 C 
ATOM     21  C   UNL     1       4.049   1.903  -0.071  0.00  0.00    +0.254 C 
ATOM     22  H   UNL     1       5.171   0.468   0.822  0.00  0.00    +0.159 HD
ENDBRANCH   9  16
BRANCH   1  23
ATOM     23  O   UNL     1      -3.213   1.330  -0.219  0.00  0.00    -0.276 OA
BRANCH  23  24
ATOM     24  C   UNL     1      -3.732   1.931   0.953  0.00  0.00    +0.126 C 
ATOM     25  C   UNL     1      -2.760   1.710   2.102  0.00  0.00    +0.033 C 
ATOM     26  C   UNL     1      -3.974   3.410   0.692  0.00  0.00    +0.033 C 
ENDBRANCH  23  24
ENDBRANCH   1  23
TORSDOF 3
