REMARK  Name = 132960
REMARK  13 active torsions:
REMARK  status: ('A' for Active; 'I' for Inactive)
REMARK    1  A    between atoms: C_1  and  N_3
REMARK    2  A    between atoms: C_1  and  C_15
REMARK    3  A    between atoms: C_1  and  C_28
REMARK    4  A    between atoms: C_4  and  O_6
REMARK    5  A    between atoms: O_6  and  C_7
REMARK    6  A    between atoms: C_7  and  C_8
REMARK    7  A    between atoms: C_15  and  C_16
REMARK    8  A    between atoms: C_16  and  O_17
REMARK    9  A    between atoms: O_17  and  C_19
REMARK   10  A    between atoms: C_19  and  C_22
REMARK   11  A    between atoms: C_28  and  C_29
REMARK   12  A    between atoms: C_29  and  C_31
REMARK   13  A    between atoms: C_31  and  O_32
REMARK                            x       y       z     vdW  Elec       q    Type
REMARK                         _______ _______ _______ _____ _____    ______ ____
ROOT
ATOM      1  C   UNL     1      -0.527   1.780   0.336  0.00  0.00    +0.137 C 
ENDROOT
BRANCH   1   3
ATOM      2  O   UNL     1      -1.867   0.164  -1.672  0.00  0.00    -0.226 OA
ATOM      3  N   UNL     1      -1.725   0.998   0.489  0.00  0.00    -0.265 N 
ATOM      4  C   UNL     1      -2.297   0.255  -0.527  0.00  0.00    +0.402 C 
ATOM      5  H   UNL     1      -2.163   0.992   1.370  0.00  0.00    +0.153 HD
BRANCH   4   6
ATOM      6  O   UNL     1      -3.421  -0.372  -0.068  0.00  0.00    -0.430 OA
BRANCH   6   7
ATOM      7  C   UNL     1      -4.118  -1.182  -1.022  0.00  0.00    +0.237 C 
BRANCH   7   8
ATOM      8  C   UNL     1      -5.318  -1.793  -0.361  0.00  0.00    +0.021 C 
ATOM      9  C   UNL     1      -5.212  -3.033   0.270  0.00  0.00    -0.001 C 
ATOM     10  C   UNL     1      -6.541  -1.123  -0.379  0.00  0.00    -0.001 C 
ATOM     11  C   UNL     1      -6.327  -3.601   0.884  0.00  0.00    -0.000 C 
ATOM     12  C   UNL     1      -7.657  -1.691   0.235  0.00  0.00    -0.000 C 
ATOM     13  C   UNL     1      -7.550  -2.930   0.867  0.00  0.00    -0.000 C 
ENDBRANCH   7   8
ENDBRANCH   6   7
ENDBRANCH   4   6
ENDBRANCH   1   3
BRANCH   1  15
ATOM     14  O   UNL     1       0.577  -0.091   1.391  0.00  0.00    -0.290 OA
ATOM     15  C   UNL     1       0.644   0.838   0.584  0.00  0.00    +0.212 C 
BRANCH  15  16
ATOM     16  C   UNL     1       1.887   1.081  -0.250  0.00  0.00    +0.274 C 
BRANCH  16  17
ATOM     17  O   UNL     1       2.892   0.141   0.064  0.00  0.00    -0.437 OA
BRANCH  17  19
ATOM     18  O   UNL     1       4.314   1.093  -1.476  0.00  0.00    -0.245 OA
ATOM     19  C   UNL     1       4.067   0.254  -0.623  0.00  0.00    +0.343 C 
BRANCH  19  22
ATOM     20 CL   UNL     1       5.926   0.970   1.690  0.00  0.00    -0.082 Cl
ATOM     21 CL   UNL     1       3.990  -2.379  -2.164  0.00  0.00    -0.082 Cl
ATOM     22  C   UNL     1       5.036  -0.789  -0.202  0.00  0.00    +0.097 C 
ATOM     23  C   UNL     1       5.919  -0.539   0.848  0.00  0.00    +0.065 C 
ATOM     24  C   UNL     1       5.063  -2.020  -0.858  0.00  0.00    +0.065 C 
ATOM     25  C   UNL     1       6.830  -1.518   1.242  0.00  0.00    +0.012 C 
ATOM     26  C   UNL     1       5.974  -3.000  -0.464  0.00  0.00    +0.012 C 
ATOM     27  C   UNL     1       6.857  -2.749   0.586  0.00  0.00    +0.002 C 
ENDBRANCH  19  22
ENDBRANCH  17  19
ENDBRANCH  16  17
ENDBRANCH  15  16
ENDBRANCH   1  15
BRANCH   1  28
ATOM     28  C   UNL     1      -0.457   2.971   1.296  0.00  0.00    +0.039 C 
BRANCH  28  29
ATOM     29  C   UNL     1      -1.610   3.964   1.121  0.00  0.00    +0.112 C 
BRANCH  29  31
ATOM     30  O   UNL     1      -0.730   4.734  -1.015  0.00  0.00    -0.250 OA
ATOM     31  C   UNL     1      -1.679   4.580  -0.259  0.00  0.00    +0.314 C 
BRANCH  31  32
ATOM     32  O   UNL     1      -2.938   4.990  -0.561  0.00  0.00    -0.480 OA
ATOM     33  H   UNL     1      -3.635   4.851   0.050  0.00  0.00    +0.295 HD
ENDBRANCH  31  32
ENDBRANCH  29  31
ENDBRANCH  28  29
ENDBRANCH   1  28
TORSDOF 13
