REMARK  Name = 132933
REMARK  7 active torsions:
REMARK  status: ('A' for Active; 'I' for Inactive)
REMARK    1  A    between atoms: C_2  and  N_12
REMARK    2  A    between atoms: C_7  and  O_24
REMARK    3  A    between atoms: N_12  and  S_14
REMARK    4  A    between atoms: S_14  and  C_17
REMARK    5  A    between atoms: O_24  and  C_25
REMARK    6  A    between atoms: C_25  and  C_27
REMARK    7  A    between atoms: C_27  and  O_28
REMARK                            x       y       z     vdW  Elec       q    Type
REMARK                         _______ _______ _______ _____ _____    ______ ____
ROOT
ATOM      1  N   UNL     1      -1.931  -1.684   0.893  0.00  0.00    -0.409 NA
ATOM      2  C   UNL     1       0.113  -0.569   1.350  0.00  0.00    +0.152 C 
ATOM      3  C   UNL     1      -0.613  -1.538   0.663  0.00  0.00    +0.129 C 
ATOM      4  C   UNL     1       0.075  -2.348  -0.265  0.00  0.00    +0.030 C 
ATOM      5  C   UNL     1       1.482  -0.390   1.137  0.00  0.00    +0.035 C 
ATOM      6  C   UNL     1       1.452  -2.168  -0.480  0.00  0.00    +0.039 C 
ATOM      7  C   UNL     1       2.153  -1.191   0.221  0.00  0.00    +0.137 C 
ATOM      8  C   UNL     1      -0.654  -3.324  -0.956  0.00  0.00    +0.005 C 
ATOM      9  C   UNL     1      -2.599  -2.638   0.205  0.00  0.00    +0.109 C 
ATOM     10  C   UNL     1      -2.013  -3.477  -0.722  0.00  0.00    +0.028 C 
ATOM     11  C   UNL     1      -4.058  -2.766   0.489  0.00  0.00    +0.066 C 
ENDROOT
BRANCH   2  12
ATOM     12  N   UNL     1      -0.539   0.278   2.304  0.00  0.00    -0.170 NA
ATOM     13  H   UNL     1      -0.903  -0.094   3.140  0.00  0.00    +0.150 HD
BRANCH  12  14
ATOM     14  S   UNL     1      -0.673   1.959   1.961  0.00  0.00    +0.061 S 
ATOM     15  O   UNL     1      -1.641   2.547   2.867  0.00  0.00    -0.153 OA
ATOM     16  O   UNL     1       0.646   2.548   1.833  0.00  0.00    -0.153 OA
BRANCH  14  17
ATOM     17  C   UNL     1      -1.417   1.946   0.355  0.00  0.00    +0.122 C 
ATOM     18  C   UNL     1      -2.796   1.957   0.251  0.00  0.00    +0.020 C 
ATOM     19  C   UNL     1      -0.604   1.925  -0.764  0.00  0.00    +0.020 C 
ATOM     20  C   UNL     1      -2.579   1.926  -2.155  0.00  0.00    -0.022 C 
ATOM     21  C   UNL     1      -3.382   1.947  -1.015  0.00  0.00    -0.003 C 
ATOM     22  C   UNL     1      -1.190   1.915  -2.030  0.00  0.00    -0.003 C 
ATOM     23  C   UNL     1      -3.205   1.917  -3.509  0.00  0.00    +0.031 C 
ENDBRANCH  14  17
ENDBRANCH  12  14
ENDBRANCH   2  12
BRANCH   7  24
ATOM     24  O   UNL     1       3.485  -1.020   0.009  0.00  0.00    -0.464 OA
BRANCH  24  25
ATOM     25  C   UNL     1       4.010   0.295   0.189  0.00  0.00    +0.314 C 
BRANCH  25  27
ATOM     26  O   UNL     1       5.638  -0.320  -1.506  0.00  0.00    -0.246 OA
ATOM     27  C   UNL     1       5.178   0.507  -0.733  0.00  0.00    +0.359 C 
BRANCH  27  28
ATOM     28  O   UNL     1       5.664   1.766  -0.592  0.00  0.00    -0.478 OA
ATOM     29  H   UNL     1       5.267   2.355   0.019  0.00  0.00    +0.295 HD
ENDBRANCH  27  28
ENDBRANCH  25  27
ENDBRANCH  24  25
ENDBRANCH   7  24
TORSDOF 7
