REMARK  Name = 132966
REMARK  12 active torsions:
REMARK  status: ('A' for Active; 'I' for Inactive)
REMARK    1  A    between atoms: C_1  and  N_2
REMARK    2  A    between atoms: C_1  and  C_17
REMARK    3  A    between atoms: N_2  and  C_5
REMARK    4  A    between atoms: C_5  and  C_7
REMARK    5  A    between atoms: C_10  and  C_14
REMARK    6  A    between atoms: C_14  and  O_15
REMARK    7  A    between atoms: C_17  and  O_18
REMARK    8  A    between atoms: C_17  and  C_20
REMARK    9  A    between atoms: C_20  and  P_21
REMARK   10  A    between atoms: P_21  and  O_23
REMARK   11  A    between atoms: P_21  and  C_25
REMARK   12  A    between atoms: C_25  and  C_26
REMARK                            x       y       z     vdW  Elec       q    Type
REMARK                         _______ _______ _______ _____ _____    ______ ____
ROOT
ATOM      1  C   UNL     1      -1.772  -2.653   0.530  0.00  0.00    -0.051 C 
ENDROOT
BRANCH   1   2
ATOM      2  N   UNL     1      -1.758  -1.654   1.589  0.00  0.00    +0.389 N 
ATOM      3  H   UNL     1      -0.934  -1.063   1.480  0.00  0.00    -0.084 HD
ATOM      4  H   UNL     1      -1.735  -2.134   2.489  0.00  0.00    -0.084 HD
BRANCH   2   5
ATOM      5  C   UNL     1      -2.952  -0.822   1.537  0.00  0.00    -0.038 C 
ATOM      6  C   UNL     1      -3.217  -0.222   2.920  0.00  0.00    -0.019 C 
BRANCH   5   7
ATOM      7  C   UNL     1      -2.838   0.250   0.471  0.00  0.00    -0.042 C 
ATOM      8  C   UNL     1      -1.831   1.212   0.554  0.00  0.00    +0.000 C 
ATOM      9  C   UNL     1      -3.739   0.273  -0.594  0.00  0.00    -0.006 C 
ATOM     10  C   UNL     1      -1.725   2.197  -0.428  0.00  0.00    +0.075 C 
ATOM     11  C   UNL     1      -3.633   1.258  -1.575  0.00  0.00    -0.000 C 
ATOM     12  C   UNL     1      -2.626   2.220  -1.492  0.00  0.00    +0.006 C 
BRANCH  10  14
ATOM     13  O   UNL     1      -0.141   3.760  -1.305  0.00  0.00    -0.245 OA
ATOM     14  C   UNL     1      -0.676   3.200  -0.343  0.00  0.00    +0.338 C 
BRANCH  14  15
ATOM     15  O   UNL     1      -0.325   3.478   0.943  0.00  0.00    -0.477 OA
ATOM     16  H   UNL     1      -0.751   3.036   1.651  0.00  0.00    +0.295 HD
ENDBRANCH  14  15
ENDBRANCH  10  14
ENDBRANCH   5   7
ENDBRANCH   2   5
ENDBRANCH   1   2
BRANCH   1  17
ATOM     17  C   UNL     1      -0.488  -3.485   0.491  0.00  0.00    +0.099 C 
BRANCH  17  18
ATOM     18  O   UNL     1      -0.588  -4.383  -0.615  0.00  0.00    -0.386 OA
ATOM     19  H   UNL     1       0.214  -4.926  -0.664  0.00  0.00    +0.210 HD
ENDBRANCH  17  18
BRANCH  17  20
ATOM     20  C   UNL     1       0.799  -2.676   0.345  0.00  0.00    +0.114 C 
BRANCH  20  21
ATOM     21  P   UNL     1       0.850  -1.652  -1.100  0.00  0.00    +0.222 P 
ATOM     22  O   UNL     1      -0.076  -0.483  -1.075  0.00  0.00    -0.290 OA
BRANCH  21  23
ATOM     23  O   UNL     1       0.600  -2.686  -2.311  0.00  0.00    -0.343 OA
ATOM     24  H   UNL     1       0.611  -2.206  -3.154  0.00  0.00    +0.218 HD
ENDBRANCH  21  23
BRANCH  21  25
ATOM     25  C   UNL     1       2.576  -1.193  -1.325  0.00  0.00    +0.087 C 
BRANCH  25  26
ATOM     26  C   UNL     1       3.127  -0.427  -0.123  0.00  0.00    +0.010 C 
ATOM     27  C   UNL     1       4.661  -0.466  -0.113  0.00  0.00    +0.001 C 
ATOM     28  C   UNL     1       2.617   1.020  -0.123  0.00  0.00    +0.001 C 
ATOM     29  C   UNL     1       5.237   0.338   1.050  0.00  0.00    +0.000 C 
ATOM     30  C   UNL     1       3.196   1.821   1.040  0.00  0.00    +0.000 C 
ATOM     31  C   UNL     1       4.721   1.774   1.052  0.00  0.00    +0.000 C 
ENDBRANCH  25  26
ENDBRANCH  21  25
ENDBRANCH  20  21
ENDBRANCH  17  20
ENDBRANCH   1  17
TORSDOF 12
