13296
  -OEChem-03292013323D

 32 33  0     0  0  0  0  0  0999 V2000
    2.8591    0.7051   -0.3757 S   0  0  0  0  0  0  0  0  0  0  0  0
   -3.4224    0.7547    0.0676 S   0  0  0  0  0  0  0  0  0  0  0  0
    3.2807   -0.2835   -1.3526 O   0  0  0  0  0  0  0  0  0  0  0  0
    3.2341    2.0994   -0.5370 O   0  0  0  0  0  0  0  0  0  0  0  0
   -3.8232    2.0258   -0.5099 O   0  0  0  0  0  0  0  0  0  0  0  0
   -3.9962   -0.4862   -0.4235 O   0  0  0  0  0  0  0  0  0  0  0  0
   -3.6163    0.8247    1.7615 N   0  0  0  0  0  0  0  0  0  0  0  0
    1.1086    0.6103   -0.2492 C   0  0  0  0  0  0  0  0  0  0  0  0
    0.4164   -0.6088   -0.1651 C   0  0  0  0  0  0  0  0  0  0  0  0
   -0.9953   -0.5976   -0.0655 C   0  0  0  0  0  0  0  0  0  0  0  0
   -1.6732    0.6323   -0.0530 C   0  0  0  0  0  0  0  0  0  0  0  0
    3.4343    0.1866    1.2223 C   0  0  0  0  0  0  0  0  0  0  0  0
    0.4189    1.8230   -0.2353 C   0  0  0  0  0  0  0  0  0  0  0  0
   -0.9693    1.8339   -0.1374 C   0  0  0  0  0  0  0  0  0  0  0  0
    1.0943   -1.8386   -0.1778 C   0  0  0  0  0  0  0  0  0  0  0  0
   -1.6875   -1.8167    0.0184 C   0  0  0  0  0  0  0  0  0  0  0  0
    4.9445    0.2054    1.3010 C   0  0  0  0  0  0  0  0  0  0  0  0
    0.3905   -3.0403   -0.0934 C   0  0  0  0  0  0  0  0  0  0  0  0
   -0.9979   -3.0293    0.0045 C   0  0  0  0  0  0  0  0  0  0  0  0
    3.0132    0.8773    1.9598 H   0  0  0  0  0  0  0  0  0  0  0  0
    3.0697   -0.8178    1.4396 H   0  0  0  0  0  0  0  0  0  0  0  0
    0.9286    2.7799   -0.2934 H   0  0  0  0  0  0  0  0  0  0  0  0
   -1.4745    2.7954   -0.1176 H   0  0  0  0  0  0  0  0  0  0  0  0
    2.1695   -1.9422   -0.2346 H   0  0  0  0  0  0  0  0  0  0  0  0
   -2.7379   -1.9455    0.2135 H   0  0  0  0  0  0  0  0  0  0  0  0
    5.2778   -0.1046    2.2962 H   0  0  0  0  0  0  0  0  0  0  0  0
    5.3868   -0.4753    0.5666 H   0  0  0  0  0  0  0  0  0  0  0  0
    5.3400    1.2077    1.1079 H   0  0  0  0  0  0  0  0  0  0  0  0
    0.9263   -3.9852   -0.0945 H   0  0  0  0  0  0  0  0  0  0  0  0
   -1.5408   -3.9658    0.0966 H   0  0  0  0  0  0  0  0  0  0  0  0
   -3.9039    1.7209    2.1731 H   0  0  0  0  0  0  0  0  0  0  0  0
   -4.0182    0.0038    2.2305 H   0  0  0  0  0  0  0  0  0  0  0  0
  1  3  2  0  0  0  0
  1  4  2  0  0  0  0
  1  8  1  0  0  0  0
  1 12  1  0  0  0  0
  2  5  2  0  0  0  0
  2  6  2  0  0  0  0
  2  7  1  0  0  0  0
  2 11  1  0  0  0  0
  7 31  1  0  0  0  0
  7 32  1  0  0  0  0
  8  9  1  0  0  0  0
  8 13  2  0  0  0  0
  9 10  1  0  0  0  0
  9 15  2  0  0  0  0
 10 11  1  0  0  0  0
 10 16  2  0  0  0  0
 11 14  2  0  0  0  0
 12 17  1  0  0  0  0
 12 20  1  0  0  0  0
 12 21  1  0  0  0  0
 13 14  1  0  0  0  0
 13 22  1  0  0  0  0
 14 23  1  0  0  0  0
 15 18  1  0  0  0  0
 15 24  1  0  0  0  0
 16 19  1  0  0  0  0
 16 25  1  0  0  0  0
 17 26  1  0  0  0  0
 17 27  1  0  0  0  0
 17 28  1  0  0  0  0
 18 19  2  0  0  0  0
 18 29  1  0  0  0  0
 19 30  1  0  0  0  0
M  END
> <PUBCHEM_COMPOUND_CID>
13296

> <PUBCHEM_CONFORMER_RMSD>
0.6

> <PUBCHEM_CONFORMER_DIVERSEORDER>
1
8
5
4
2
3
6
7

> <PUBCHEM_MMFF94_PARTIAL_CHARGES>
24
1 1.2
11 -0.01
12 0.11
13 -0.15
14 -0.15
15 -0.15
16 -0.15
18 -0.15
19 -0.15
2 1.45
22 0.15
23 0.15
24 0.15
25 0.15
29 0.15
3 -0.65
30 0.15
31 0.42
32 0.42
4 -0.65
5 -0.65
6 -0.65
7 -0.98
8 -0.01

> <PUBCHEM_EFFECTIVE_ROTOR_COUNT>
3

> <PUBCHEM_PHARMACOPHORE_FEATURES>
7
1 3 acceptor
1 4 acceptor
1 5 acceptor
1 6 acceptor
1 7 donor
6 8 9 10 11 13 14 rings
6 9 10 15 16 18 19 rings

> <PUBCHEM_HEAVY_ATOM_COUNT>
19

> <PUBCHEM_ATOM_DEF_STEREO_COUNT>
0

> <PUBCHEM_ATOM_UDEF_STEREO_COUNT>
0

> <PUBCHEM_BOND_DEF_STEREO_COUNT>
0

> <PUBCHEM_BOND_UDEF_STEREO_COUNT>
0

> <PUBCHEM_ISOTOPIC_ATOM_COUNT>
0

> <PUBCHEM_COMPONENT_COUNT>
1

> <PUBCHEM_CACTVS_TAUTO_COUNT>
1

> <PUBCHEM_CONFORMER_ID>
000033F000000001

> <PUBCHEM_MMFF94_ENERGY>
37.4593

> <PUBCHEM_FEATURE_SELFOVERLAP>
35.584

> <PUBCHEM_SHAPE_FINGERPRINT>
10411042 1 17257656045779871566
10967382 1 18410296895457851079
10980938 120 18337957783657069663
11132069 177 18412261722657565340
11543360 7 15482661381971635445
11680986 33 18337117756525977259
12236239 1 17676206867063849212
12251169 10 18334005099801222872
12403814 3 17531237379089369173
12592029 89 18335144176435679835
12633257 1 18198879527647762568
12788726 201 17978793741879223922
13140716 1 18338237201123003729
13380535 76 18410853265532164679
13538477 17 18188488094534684980
13544592 145 18201729418705448054
13583140 156 16950277451017198069
14022349 108 18192988227817980146
14178342 30 18340215098530679177
14787075 74 17774143747240500625
14790565 3 18266482973458216877
15042514 8 18335980973277365306
15209294 21 17988929924916731129
15309172 13 18410019814485911281
15536298 74 18200312108887390206
16752209 62 18266737064033983022
16945 1 18409172086361860349
1813 80 16878779376282541714
18186145 218 18201449025385230101
193761 8 17690002657815247029
19591789 44 18410302406001456383
20028762 73 18057607775262994519
20510252 161 18126575749640909731
20600515 1 18342174501250411128
20645476 183 17531826769151543406
20739085 24 17976284355760076225
21501502 16 18120653788930761716
21524375 3 18342735230220054015
22182313 1 18045780078935724365
23184049 29 17906168812810297758
2334 1 18050009092745562125
23402539 116 18270382971313117084
23419403 2 15315407762058162136
23463225 33 18333444344317535880
23493267 7 17531831076639627338
23557571 272 18058166305678353594
23559900 14 18272101508984363332
2748010 2 18339098011496054431
352729 6 18338526338273618103
4072396 5 18189041032507999681
43471831 8 18336826377481009731
465052 167 17677064533051003713
5104073 3 18120943811393662545
5706482 22 18412539942160075915
58051976 378 18339353055354639637
58807428 26 18410011009602774106
633830 44 18202009789358943301
7097593 13 18188753029861416506
7364860 26 18053660274498334142
81228 2 17977947109351420859
84936 182 17985822627652383201
9862522 239 18261940873869566349

> <PUBCHEM_SHAPE_MULTIPOLES>
370.25
7.18
2.9
1.03
2.33
2.02
-0.3
-3.32
-1.82
-0.95
0.31
0.45
-0.18
-0.18

> <PUBCHEM_SHAPE_SELFOVERLAP>
771.51

> <PUBCHEM_SHAPE_VOLUME>
210.7

> <PUBCHEM_COORDINATE_TYPE>
2
5
10

$$$$
