REMARK  Name = 132969612
REMARK  10 active torsions:
REMARK  status: ('A' for Active; 'I' for Inactive)
REMARK    1  A    between atoms: O_1  and  C_6
REMARK    2  A    between atoms: O_1  and  C_15
REMARK    3  A    between atoms: C_5  and  O_10
REMARK    4  A    between atoms: C_7  and  O_12
REMARK    5  A    between atoms: C_15  and  C_16
REMARK    6  A    between atoms: C_17  and  C_18
REMARK    7  A    between atoms: C_18  and  C_19
REMARK    8  A    between atoms: C_19  and  C_20
REMARK    9  A    between atoms: C_20  and  C_21
REMARK   10  A    between atoms: C_21  and  O_23
REMARK                            x       y       z     vdW  Elec       q    Type
REMARK                         _______ _______ _______ _____ _____    ______ ____
ROOT
ATOM      1  O   UNL     1       0.650  -0.408   0.621  0.00  0.00    -0.444 OA
ENDROOT
BRANCH   1   6
ATOM      2  O   UNL     1       4.291   1.337   0.069  0.00  0.00    -0.326 OA
ATOM      3  O   UNL     1       4.327  -0.425  -1.435  0.00  0.00    -0.326 OA
ATOM      4  C   UNL     1       4.390   0.134   0.844  0.00  0.00    +0.178 C 
ATOM      5  C   UNL     1       2.974  -0.221   1.338  0.00  0.00    +0.183 C 
ATOM      6  C   UNL     1       1.996  -0.401   0.166  0.00  0.00    +0.230 C 
ATOM      7  C   UNL     1       2.219   0.651  -0.934  0.00  0.00    +0.210 C 
ATOM      8  C   UNL     1       3.725   0.848  -1.158  0.00  0.00    +0.267 C 
ATOM      9  C   UNL     1       4.951  -0.817  -0.197  0.00  0.00    +0.177 C 
BRANCH   5  10
ATOM     10  O   UNL     1       2.514   0.836   2.182  0.00  0.00    -0.378 OA
ATOM     11  H   UNL     1       3.130   0.951   2.922  0.00  0.00    +0.211 HD
ENDBRANCH   5  10
BRANCH   7  12
ATOM     12  O   UNL     1       1.651   1.904  -0.567  0.00  0.00    -0.377 OA
ATOM     13  H   UNL     1       0.698   1.797  -0.422  0.00  0.00    +0.211 HD
ENDBRANCH   7  12
ENDBRANCH   1   6
BRANCH   1  15
ATOM     14  O   UNL     1       0.076  -1.905  -1.043  0.00  0.00    -0.245 OA
ATOM     15  C   UNL     1      -0.199  -1.207  -0.080  0.00  0.00    +0.341 C 
BRANCH  15  16
ATOM     16  C   UNL     1      -1.538  -1.084   0.535  0.00  0.00    +0.077 C 
ATOM     17  C   UNL     1      -2.570  -1.774   0.032  0.00  0.00    -0.019 C 
BRANCH  17  18
ATOM     18  C   UNL     1      -3.961  -1.706   0.597  0.00  0.00    +0.026 C 
BRANCH  18  19
ATOM     19  C   UNL     1      -4.995  -1.207  -0.418  0.00  0.00    +0.007 C 
BRANCH  19  20
ATOM     20  C   UNL     1      -4.766   0.218  -0.945  0.00  0.00    +0.030 C 
BRANCH  20  21
ATOM     21  C   UNL     1      -4.870   1.312   0.123  0.00  0.00    +0.111 C 
ATOM     22  C   UNL     1      -4.729   2.697  -0.496  0.00  0.00    +0.032 C 
BRANCH  21  23
ATOM     23  O   UNL     1      -6.138   1.221   0.766  0.00  0.00    -0.384 OA
ATOM     24  H   UNL     1      -6.236   0.341   1.163  0.00  0.00    +0.210 HD
ENDBRANCH  21  23
ENDBRANCH  20  21
ENDBRANCH  19  20
ENDBRANCH  18  19
ENDBRANCH  17  18
ENDBRANCH  15  16
ENDBRANCH   1  15
TORSDOF 10
