REMARK  Name = 132991399
REMARK  7 active torsions:
REMARK  status: ('A' for Active; 'I' for Inactive)
REMARK    1  A    between atoms: C_2  and  O_16
REMARK    2  A    between atoms: C_3  and  C_20
REMARK    3  A    between atoms: C_4  and  O_18
REMARK    4  A    between atoms: C_5  and  N_7
REMARK    5  A    between atoms: C_20  and  O_21
REMARK    6  A    between atoms: O_21  and  P_22
REMARK    7  A    between atoms: C_26  and  C_30
REMARK                            x       y       z     vdW  Elec       q    Type
REMARK                         _______ _______ _______ _____ _____    ______ ____
ROOT
ATOM      1  O   UNL     1       2.305   1.650   0.807  0.00  0.00    -0.332 OA
ATOM      2  C   UNL     1       2.395   2.541  -1.386  0.00  0.00    +0.171 C 
ATOM      3  C   UNL     1       1.693   2.648  -0.040  0.00  0.00    +0.176 C 
ATOM      4  C   UNL     1       2.739   1.068  -1.449  0.00  0.00    +0.188 C 
ATOM      5  C   UNL     1       3.096   0.766  -0.004  0.00  0.00    +0.236 C 
ENDROOT
BRANCH   5   7
ATOM      6  O   UNL     1       4.928  -1.374  -0.080  0.00  0.00    -0.193 OA
ATOM      7  N   UNL     1       2.802  -0.591   0.361  0.00  0.00    -0.178 N 
ATOM      8  N   UNL     1       3.425  -2.904   0.665  0.00  0.00    -0.306 NA
ATOM      9  N   UNL     1       1.880  -4.465   1.427  0.00  0.00    -0.332 N 
ATOM     10  C   UNL     1       1.521  -0.903   0.790  0.00  0.00    +0.083 C 
ATOM     11  C   UNL     1       3.780  -1.617   0.297  0.00  0.00    +0.276 C 
ATOM     12  C   UNL     1       1.159  -2.134   1.148  0.00  0.00    +0.065 C 
ATOM     13  C   UNL     1       2.212  -3.180   1.067  0.00  0.00    +0.193 C 
ATOM     14  H   UNL     1       2.556  -5.179   1.384  0.00  0.00    +0.145 HD
ATOM     15  H   UNL     1       0.966  -4.671   1.730  0.00  0.00    +0.145 HD
ENDBRANCH   5   7
BRANCH   2  16
ATOM     16  O   UNL     1       3.587   3.325  -1.324  0.00  0.00    -0.379 OA
ATOM     17  H   UNL     1       3.353   4.266  -1.284  0.00  0.00    +0.211 HD
ENDBRANCH   2  16
BRANCH   4  18
ATOM     18  O   UNL     1       3.804   0.803  -2.339  0.00  0.00    -0.378 OA
ATOM     19  H   UNL     1       3.527   1.011  -3.245  0.00  0.00    +0.211 HD
ENDBRANCH   4  18
BRANCH   3  20
ATOM     20  C   UNL     1       0.200   2.355  -0.114  0.00  0.00    +0.186 C 
BRANCH  20  21
ATOM     21  O   UNL     1      -0.350   2.471   1.186  0.00  0.00    -0.270 OA
BRANCH  21  22
ATOM     22  P   UNL     1      -1.935   2.200   1.342  0.00  0.00    +0.480 P 
ATOM     23  O   UNL     1      -2.133   0.740   0.668  0.00  0.00    -0.271 OA
ATOM     24  O   UNL     1      -2.601   3.182   0.240  0.00  0.00    -0.273 OA
ATOM     25  O   UNL     1      -2.472   2.334   2.737  0.00  0.00    -0.227 OA
ATOM     26  C   UNL     1      -3.457   0.404   0.244  0.00  0.00    +0.151 C 
ATOM     27  C   UNL     1      -3.957   1.450  -0.766  0.00  0.00    +0.067 C 
ATOM     28  C   UNL     1      -3.923   2.861  -0.179  0.00  0.00    +0.157 C 
BRANCH  26  30
ATOM     29  N   UNL     1      -3.445  -3.564  -1.427  0.00  0.00    -0.242 NA
ATOM     30  C   UNL     1      -3.453  -0.988  -0.342  0.00  0.00    +0.008 C 
ATOM     31  C   UNL     1      -4.569  -1.807  -0.205  0.00  0.00    +0.019 C 
ATOM     32  C   UNL     1      -2.334  -1.456  -1.022  0.00  0.00    +0.019 C 
ATOM     33  C   UNL     1      -4.514  -3.075  -0.760  0.00  0.00    +0.099 C 
ATOM     34  C   UNL     1      -2.380  -2.739  -1.541  0.00  0.00    +0.099 C 
ENDBRANCH  26  30
ENDBRANCH  21  22
ENDBRANCH  20  21
ENDBRANCH   3  20
TORSDOF 7
