132969612
  -OEChem-03292013293D

 43 44  0     1  0  0  0  0  0999 V2000
    4.2912    1.3367    0.0686 O   0  0  0  0  0  0  0  0  0  0  0  0
    4.3270   -0.4253   -1.4348 O   0  0  0  0  0  0  0  0  0  0  0  0
    0.6505   -0.4085    0.6211 O   0  0  0  0  0  0  0  0  0  0  0  0
    2.5138    0.8363    2.1822 O   0  0  0  0  0  0  0  0  0  0  0  0
    1.6513    1.9038   -0.5674 O   0  0  0  0  0  0  0  0  0  0  0  0
    0.0763   -1.9052   -1.0428 O   0  0  0  0  0  0  0  0  0  0  0  0
   -6.1375    1.2206    0.7657 O   0  0  0  0  0  0  0  0  0  0  0  0
    4.3903    0.1335    0.8443 C   0  0  1  0  0  0  0  0  0  0  0  0
    2.9739   -0.2209    1.3384 C   0  0  2  0  0  0  0  0  0  0  0  0
    1.9959   -0.4007    0.1663 C   0  0  2  0  0  0  0  0  0  0  0  0
    2.2193    0.6507   -0.9342 C   0  0  2  0  0  0  0  0  0  0  0  0
    3.7251    0.8484   -1.1580 C   0  0  1  0  0  0  0  0  0  0  0  0
    4.9512   -0.8171   -0.1974 C   0  0  0  0  0  0  0  0  0  0  0  0
   -0.1987   -1.2074   -0.0796 C   0  0  0  0  0  0  0  0  0  0  0  0
   -1.5378   -1.0843    0.5350 C   0  0  0  0  0  0  0  0  0  0  0  0
   -4.9952   -1.2070   -0.4182 C   0  0  0  0  0  0  0  0  0  0  0  0
   -4.7664    0.2178   -0.9448 C   0  0  0  0  0  0  0  0  0  0  0  0
   -3.9607   -1.7056    0.5965 C   0  0  0  0  0  0  0  0  0  0  0  0
   -2.5704   -1.7740    0.0322 C   0  0  0  0  0  0  0  0  0  0  0  0
   -4.8697    1.3117    0.1229 C   0  0  1  0  0  0  0  0  0  0  0  0
   -4.7295    2.6967   -0.4959 C   0  0  0  0  0  0  0  0  0  0  0  0
    5.0706    0.2960    1.6856 H   0  0  0  0  0  0  0  0  0  0  0  0
    2.9878   -1.1329    1.9459 H   0  0  0  0  0  0  0  0  0  0  0  0
    2.2396   -1.3836   -0.2621 H   0  0  0  0  0  0  0  0  0  0  0  0
    1.7276    0.3158   -1.8543 H   0  0  0  0  0  0  0  0  0  0  0  0
    3.9340    1.5601   -1.9623 H   0  0  0  0  0  0  0  0  0  0  0  0
    6.0289   -0.6684   -0.3234 H   0  0  0  0  0  0  0  0  0  0  0  0
    4.7588   -1.8726    0.0127 H   0  0  0  0  0  0  0  0  0  0  0  0
    3.1416    0.9149    2.9207 H   0  0  0  0  0  0  0  0  0  0  0  0
    1.8194    2.5259   -1.2956 H   0  0  0  0  0  0  0  0  0  0  0  0
   -1.6598   -0.4260    1.3884 H   0  0  0  0  0  0  0  0  0  0  0  0
   -5.0065   -1.8900   -1.2779 H   0  0  0  0  0  0  0  0  0  0  0  0
   -5.9921   -1.2757    0.0339 H   0  0  0  0  0  0  0  0  0  0  0  0
   -3.7974    0.2826   -1.4532 H   0  0  0  0  0  0  0  0  0  0  0  0
   -5.5336    0.3999   -1.7092 H   0  0  0  0  0  0  0  0  0  0  0  0
   -4.2445   -2.7167    0.9140 H   0  0  0  0  0  0  0  0  0  0  0  0
   -3.9915   -1.0840    1.4987 H   0  0  0  0  0  0  0  0  0  0  0  0
   -2.4301   -2.4321   -0.8217 H   0  0  0  0  0  0  0  0  0  0  0  0
   -4.0936    1.1750    0.8830 H   0  0  0  0  0  0  0  0  0  0  0  0
   -3.7669    2.8094   -1.0038 H   0  0  0  0  0  0  0  0  0  0  0  0
   -4.8079    3.4702    0.2756 H   0  0  0  0  0  0  0  0  0  0  0  0
   -5.5330    2.8888   -1.2155 H   0  0  0  0  0  0  0  0  0  0  0  0
   -6.1716    1.9134    1.4472 H   0  0  0  0  0  0  0  0  0  0  0  0
  1  8  1  0  0  0  0
  1 12  1  0  0  0  0
  2 12  1  0  0  0  0
  2 13  1  0  0  0  0
  3 10  1  0  0  0  0
  3 14  1  0  0  0  0
  4  9  1  0  0  0  0
  4 29  1  0  0  0  0
  5 11  1  0  0  0  0
  5 30  1  0  0  0  0
  6 14  2  0  0  0  0
  7 20  1  0  0  0  0
  7 43  1  0  0  0  0
  8  9  1  0  0  0  0
  8 13  1  0  0  0  0
  8 22  1  0  0  0  0
  9 10  1  0  0  0  0
  9 23  1  0  0  0  0
 10 11  1  0  0  0  0
 10 24  1  0  0  0  0
 11 12  1  0  0  0  0
 11 25  1  0  0  0  0
 12 26  1  0  0  0  0
 13 27  1  0  0  0  0
 13 28  1  0  0  0  0
 14 15  1  0  0  0  0
 15 19  2  0  0  0  0
 15 31  1  0  0  0  0
 16 17  1  0  0  0  0
 16 18  1  0  0  0  0
 16 32  1  0  0  0  0
 16 33  1  0  0  0  0
 17 20  1  0  0  0  0
 17 34  1  0  0  0  0
 17 35  1  0  0  0  0
 18 19  1  0  0  0  0
 18 36  1  0  0  0  0
 18 37  1  0  0  0  0
 19 38  1  0  0  0  0
 20 21  1  0  0  0  0
 20 39  1  0  0  0  0
 21 40  1  0  0  0  0
 21 41  1  0  0  0  0
 21 42  1  0  0  0  0
M  END
> <PUBCHEM_COMPOUND_CID>
132969612

> <PUBCHEM_CONFORMER_RMSD>
1.4

> <PUBCHEM_CONFORMER_DIVERSEORDER>
1
9
23
58
6
46
37
36
7
34
12
52
49
2
10
42
38
30
16
19
44
20
51
39
18
15
24
55
11
60
56
3
29
33
14
45
17
40
26
22
27
8
5
57
35
28
13
41
53
21
25
4
31
59
48
32

> <PUBCHEM_MMFF94_PARTIAL_CHARGES>
23
1 -0.56
10 0.28
11 0.28
12 0.56
13 0.28
14 0.71
15 -0.14
18 0.14
19 -0.29
2 -0.56
20 0.28
29 0.4
3 -0.43
30 0.4
31 0.15
38 0.15
4 -0.68
43 0.4
5 -0.68
6 -0.57
7 -0.68
8 0.28
9 0.28

> <PUBCHEM_EFFECTIVE_ROTOR_COUNT>
8.2

> <PUBCHEM_PHARMACOPHORE_FEATURES>
11
1 1 acceptor
1 2 acceptor
1 4 acceptor
1 4 donor
1 5 acceptor
1 5 donor
1 6 acceptor
1 7 acceptor
1 7 donor
4 16 17 18 19 hydrophobe
8 1 2 8 9 10 11 12 13 rings

> <PUBCHEM_HEAVY_ATOM_COUNT>
21

> <PUBCHEM_ATOM_DEF_STEREO_COUNT>
1

> <PUBCHEM_ATOM_UDEF_STEREO_COUNT>
5

> <PUBCHEM_BOND_DEF_STEREO_COUNT>
1

> <PUBCHEM_BOND_UDEF_STEREO_COUNT>
0

> <PUBCHEM_ISOTOPIC_ATOM_COUNT>
0

> <PUBCHEM_COMPONENT_COUNT>
1

> <PUBCHEM_CACTVS_TAUTO_COUNT>
1

> <PUBCHEM_CONFORMER_ID>
07ECF48C00000001

> <PUBCHEM_MMFF94_ENERGY>
51.2854

> <PUBCHEM_FEATURE_SELFOVERLAP>
55.88

> <PUBCHEM_SHAPE_FINGERPRINT>
10447042 23 14620795990062930158
10670039 82 18334859394302554725
11370993 144 14274003378632789867
11552529 35 16734124520685356091
11595378 159 16950562134698222813
12107183 9 17826497882581970595
12403259 415 17917149502387843459
12596602 18 16587747538575728121
13177829 73 18408321060299070409
14251764 38 18338233898657649909
14573314 32 18273216395672041935
15183329 4 18335703823258628375
15788980 27 17703790336074847751
1601671 61 18334575732992135964
17844677 252 18261962962955149219
19078846 21 18187355567113528984
200 152 14045749239625052147
20645477 56 18343304756675753891
21033648 29 17988067989188428267
21503847 285 17894912970637649812
21623969 137 13406794419456737296
22061861 79 16773802484837354551
23198884 109 16702304521639842273
23557571 272 18270693051558340335
23559900 14 18343305851306838894
239999 70 10737282437967268066
32948 21 18344146981638241762
341906 21 18408595972797809601
437795 51 12613626540085908334
439807 62 13326270608320503469
5104073 3 17749667501587927880
543358 83 17894629283895115406
59682541 52 16844723098485839269
633830 44 18187080697723205782
90127 26 18335147539046919347

> <PUBCHEM_SHAPE_MULTIPOLES>
391.08
13.94
2.14
1.28
9.93
0.71
-0.27
4.27
0.25
2.98
0.22
-1.13
0.1
-0.1

> <PUBCHEM_SHAPE_SELFOVERLAP>
797.686

> <PUBCHEM_SHAPE_VOLUME>
223.9

> <PUBCHEM_COORDINATE_TYPE>
2
5
10

$$$$
