132942996
  -OEChem-03292013293D

 44 47  0     1  0  0  0  0  0999 V2000
   -3.4042   -0.2707   -0.3751 P   0  0  2  0  0  0  0  0  0  0  0  0
   -0.0523   -2.6946    0.8766 O   0  0  0  0  0  0  0  0  0  0  0  0
    0.5865   -1.0740   -1.8577 O   0  0  0  0  0  0  0  0  0  0  0  0
   -2.1384   -0.8923    0.4423 O   0  0  0  0  0  0  0  0  0  0  0  0
   -3.0666   -0.5506   -1.9413 O   0  0  0  0  0  0  0  0  0  0  0  0
   -3.2132    1.3298   -0.2192 O   0  0  0  0  0  0  0  0  0  0  0  0
   -4.7419   -0.7755    0.0823 O   0  0  0  0  0  0  0  0  0  0  0  0
    3.8198   -1.6107    0.6515 O   0  0  0  0  0  0  0  0  0  0  0  0
    4.8096    2.8542    0.0779 O   0  0  0  0  0  0  0  0  0  0  0  0
    2.2525   -0.2636   -0.4383 N   0  0  0  0  0  0  0  0  0  0  0  0
    4.3110    0.6130    0.3648 N   0  0  0  0  0  0  0  0  0  0  0  0
    0.3067   -1.3298    0.5125 C   0  0  2  0  0  0  0  0  0  0  0  0
   -0.8663   -0.5974   -0.1027 C   0  0  1  0  0  0  0  0  0  0  0  0
    1.3208   -1.3394   -0.6387 C   0  0  1  0  0  0  0  0  0  0  0  0
    0.7140   -1.0270    1.9683 C   0  0  0  0  0  0  0  0  0  0  0  0
   -0.7971   -1.1406   -1.5183 C   0  0  1  0  0  0  0  0  0  0  0  0
    0.1350   -2.4018    2.2790 C   0  0  0  0  0  0  0  0  0  0  0  0
   -1.7324   -0.3612   -2.4184 C   0  0  0  0  0  0  0  0  0  0  0  0
    3.4801   -0.5062    0.2221 C   0  0  0  0  0  0  0  0  0  0  0  0
    1.9461    1.0136   -0.8936 C   0  0  0  0  0  0  0  0  0  0  0  0
    2.7487    2.0706   -0.7507 C   0  0  0  0  0  0  0  0  0  0  0  0
   -3.7325    1.9313    0.9531 C   0  0  0  0  0  0  0  0  0  0  0  0
    4.0489    1.9028   -0.0707 C   0  0  0  0  0  0  0  0  0  0  0  0
   -2.7605    1.7099    2.1021 C   0  0  0  0  0  0  0  0  0  0  0  0
   -3.9742    3.4102    0.6922 C   0  0  0  0  0  0  0  0  0  0  0  0
   -0.7027    0.4846   -0.0585 H   0  0  0  0  0  0  0  0  0  0  0  0
    1.8447   -2.2970   -0.7317 H   0  0  0  0  0  0  0  0  0  0  0  0
    0.1845   -0.1933    2.4378 H   0  0  0  0  0  0  0  0  0  0  0  0
    1.7775   -0.9492    2.1947 H   0  0  0  0  0  0  0  0  0  0  0  0
   -1.1049   -2.1961   -1.5382 H   0  0  0  0  0  0  0  0  0  0  0  0
    0.8275   -3.1047    2.7498 H   0  0  0  0  0  0  0  0  0  0  0  0
   -0.8180   -2.3998    2.8162 H   0  0  0  0  0  0  0  0  0  0  0  0
   -1.4952    0.7077   -2.4362 H   0  0  0  0  0  0  0  0  0  0  0  0
   -1.6723   -0.7253   -3.4486 H   0  0  0  0  0  0  0  0  0  0  0  0
    0.9988    1.1631   -1.3966 H   0  0  0  0  0  0  0  0  0  0  0  0
    5.1979    0.4619    0.8372 H   0  0  0  0  0  0  0  0  0  0  0  0
    2.4764    3.0521   -1.1189 H   0  0  0  0  0  0  0  0  0  0  0  0
   -4.6979    1.4791    1.2057 H   0  0  0  0  0  0  0  0  0  0  0  0
   -3.0428    3.9144    0.4118 H   0  0  0  0  0  0  0  0  0  0  0  0
   -1.7490    2.0303    1.8298 H   0  0  0  0  0  0  0  0  0  0  0  0
   -3.0732    2.2600    2.9953 H   0  0  0  0  0  0  0  0  0  0  0  0
   -2.7009    0.6514    2.3710 H   0  0  0  0  0  0  0  0  0  0  0  0
   -4.3920    3.9086    1.5722 H   0  0  0  0  0  0  0  0  0  0  0  0
   -4.6670    3.5410   -0.1460 H   0  0  0  0  0  0  0  0  0  0  0  0
  1  4  1  0  0  0  0
  1  5  1  0  0  0  0
  1  6  1  0  0  0  0
  1  7  2  0  0  0  0
  2 12  1  0  0  0  0
  2 17  1  0  0  0  0
  3 14  1  0  0  0  0
  3 16  1  0  0  0  0
  4 13  1  0  0  0  0
  5 18  1  0  0  0  0
  6 22  1  0  0  0  0
  8 19  2  0  0  0  0
  9 23  2  0  0  0  0
 10 14  1  0  0  0  0
 10 19  1  0  0  0  0
 10 20  1  0  0  0  0
 11 19  1  0  0  0  0
 11 23  1  0  0  0  0
 11 36  1  0  0  0  0
 12 13  1  0  0  0  0
 12 14  1  0  0  0  0
 12 15  1  0  0  0  0
 13 16  1  0  0  0  0
 13 26  1  0  0  0  0
 14 27  1  0  0  0  0
 15 17  1  0  0  0  0
 15 28  1  0  0  0  0
 15 29  1  0  0  0  0
 16 18  1  0  0  0  0
 16 30  1  0  0  0  0
 17 31  1  0  0  0  0
 17 32  1  0  0  0  0
 18 33  1  0  0  0  0
 18 34  1  0  0  0  0
 20 21  2  0  0  0  0
 20 35  1  0  0  0  0
 21 23  1  0  0  0  0
 21 37  1  0  0  0  0
 22 24  1  0  0  0  0
 22 25  1  0  0  0  0
 22 38  1  0  0  0  0
 24 40  1  0  0  0  0
 24 41  1  0  0  0  0
 24 42  1  0  0  0  0
 25 39  1  0  0  0  0
 25 43  1  0  0  0  0
 25 44  1  0  0  0  0
M  END
> <PUBCHEM_COMPOUND_CID>
132942996

> <PUBCHEM_CONFORMER_RMSD>
0.8

> <PUBCHEM_CONFORMER_DIVERSEORDER>
1
16
10
13
9
2
15
8
6
14
11
12
5
7
4
3

> <PUBCHEM_MMFF94_PARTIAL_CHARGES>
25
1 1.51
10 -0.47
11 -0.49
12 0.26
13 0.28
14 0.58
16 0.28
17 0.26
18 0.28
19 0.69
2 -0.52
20 -0.04
21 -0.14
22 0.28
23 0.62
3 -0.56
35 0.15
36 0.37
37 0.15
4 -0.55
5 -0.55
6 -0.55
7 -0.7
8 -0.57
9 -0.57

> <PUBCHEM_EFFECTIVE_ROTOR_COUNT>
4.6

> <PUBCHEM_PHARMACOPHORE_FEATURES>
11
1 11 donor
1 2 acceptor
1 3 acceptor
1 7 acceptor
1 8 acceptor
1 9 acceptor
3 22 24 25 hydrophobe
4 2 12 15 17 rings
5 3 12 13 14 16 rings
6 1 4 5 13 16 18 rings
6 10 11 19 20 21 23 rings

> <PUBCHEM_HEAVY_ATOM_COUNT>
25

> <PUBCHEM_ATOM_DEF_STEREO_COUNT>
4

> <PUBCHEM_ATOM_UDEF_STEREO_COUNT>
1

> <PUBCHEM_BOND_DEF_STEREO_COUNT>
0

> <PUBCHEM_BOND_UDEF_STEREO_COUNT>
0

> <PUBCHEM_ISOTOPIC_ATOM_COUNT>
0

> <PUBCHEM_COMPONENT_COUNT>
1

> <PUBCHEM_CACTVS_TAUTO_COUNT>
3

> <PUBCHEM_CONFORMER_ID>
07EC8C9400000001

> <PUBCHEM_MMFF94_ENERGY>
64.5019

> <PUBCHEM_FEATURE_SELFOVERLAP>
55.971

> <PUBCHEM_SHAPE_FINGERPRINT>
10291535 26 17983011451630473416
10498660 4 17417523602123528489
10906281 52 18335144168637080970
1100329 8 16166892695307361542
11640471 11 18130510742742709561
12390115 104 17536326070123858140
12633257 1 17676488311168758560
12788726 201 17977652440378270978
12824470 246 10809640207142951805
13383661 66 11724155237023845473
13583140 156 17825116917958793529
13965767 371 17829341189845155661
13994607 96 18122919881994850461
14178342 30 17241633670650519179
14251751 93 18202002122974168961
14251757 17 16128653067782666384
14713325 29 17914903264203645110
14787075 74 18119247518033300935
14957384 54 18124032321980628509
15163728 17 17631754702009713964
15534591 1 18343865532541994255
15848702 105 18202566189370738937
15848702 68 17758114800548525397
18186145 218 18186517696514688798
19734167 9 17170146731352531857
20715895 44 17766280873619475873
21033648 29 17168133542499200324
21475661 188 18264216807052233793
21503847 285 18338239241432675772
21756936 100 18338248166707429060
21864079 5 18342462534072139461
23419403 2 16533126321811396215
23559900 14 13479687560996779186
2838139 119 18129656534679430928
3472631 163 18196937665543753097
392239 28 18117013263297793875
4340502 62 18041287617023709003
474 4 18408322176858692144
58260988 393 18337966644855103121
5895379 119 17702669826447232304
633830 44 18410292476079025798
7288768 16 18187087307725171992
81228 2 16880769736166292138
9981440 41 18198621219529415338

> <PUBCHEM_SHAPE_MULTIPOLES>
461.42
8.45
3.09
2
1.03
1.85
-0.02
6.83
0.75
0.04
1.2
-1.14
-0.81
-1.65

> <PUBCHEM_SHAPE_SELFOVERLAP>
974.49

> <PUBCHEM_SHAPE_VOLUME>
261.2

> <PUBCHEM_COORDINATE_TYPE>
2
5
10

$$$$
