REMARK  Name = 132992416
REMARK  6 active torsions:
REMARK  status: ('A' for Active; 'I' for Inactive)
REMARK    1  A    between atoms: C_4  and  C_21
REMARK    2  A    between atoms: C_5  and  C_16
REMARK    3  A    between atoms: C_13  and  O_19
REMARK    4  A    between atoms: C_16  and  O_17
REMARK    5  A    between atoms: C_21  and  C_23
REMARK    6  A    between atoms: C_23  and  O_24
REMARK                            x       y       z     vdW  Elec       q    Type
REMARK                         _______ _______ _______ _____ _____    ______ ____
ROOT
ATOM      1  O   UNL     1      -0.008   0.168  -1.409  0.00  0.00    -0.474 OA
ATOM      2  O   UNL     1       0.146  -0.665   2.038  0.00  0.00    -0.288 OA
ATOM      3  C   UNL     1       0.834  -0.236  -0.290  0.00  0.00    +0.201 C 
ATOM      4  C   UNL     1       1.918   0.823  -0.002  0.00  0.00    +0.065 C 
ATOM      5  C   UNL     1       1.604  -1.504  -0.729  0.00  0.00    +0.143 C 
ATOM      6  C   UNL     1       3.056   0.420  -0.936  0.00  0.00    +0.009 C 
ATOM      7  C   UNL     1       3.080  -1.095  -0.796  0.00  0.00    +0.016 C 
ATOM      8  C   UNL     1      -0.120  -0.405   0.881  0.00  0.00    +0.213 C 
ATOM      9  C   UNL     1      -1.449  -0.182   0.378  0.00  0.00    +0.075 C 
ATOM     10  C   UNL     1      -1.300   0.143  -0.954  0.00  0.00    +0.142 C 
ATOM     11  C   UNL     1      -2.675  -0.244   1.007  0.00  0.00    +0.043 C 
ATOM     12  C   UNL     1      -2.404   0.428  -1.733  0.00  0.00    +0.040 C 
ATOM     13  C   UNL     1      -3.799   0.040   0.230  0.00  0.00    +0.134 C 
ATOM     14  C   UNL     1      -3.665   0.373  -1.130  0.00  0.00    +0.040 C 
ENDROOT
BRANCH   5  16
ATOM     15  O   UNL     1       2.104  -2.933   1.155  0.00  0.00    -0.250 OA
ATOM     16  C   UNL     1       1.420  -2.687   0.173  0.00  0.00    +0.317 C 
BRANCH  16  17
ATOM     17  O   UNL     1       0.388  -3.456  -0.251  0.00  0.00    -0.480 OA
ATOM     18  H   UNL     1      -0.097  -3.210  -1.014  0.00  0.00    +0.295 HD
ENDBRANCH  16  17
ENDBRANCH   5  16
BRANCH  13  19
ATOM     19  O   UNL     1      -5.039  -0.006   0.793  0.00  0.00    -0.506 OA
ATOM     20  H   UNL     1      -5.135  -0.227   1.698  0.00  0.00    +0.292 HD
ENDBRANCH  13  19
BRANCH   4  21
ATOM     21  C   UNL     1       1.490   2.244  -0.172  0.00  0.00    -0.012 C 
ATOM     22  C   UNL     1       1.582   2.868  -1.357  0.00  0.00    -0.007 C 
BRANCH  21  23
ATOM     23  C   UNL     1       0.928   2.933   1.039  0.00  0.00    +0.159 C 
BRANCH  23  24
ATOM     24  O   UNL     1       1.912   2.972   2.063  0.00  0.00    -0.378 OA
ATOM     25  H   UNL     1       1.548   3.417   2.845  0.00  0.00    +0.211 HD
ENDBRANCH  23  24
ENDBRANCH  21  23
ENDBRANCH   4  21
TORSDOF 6
