REMARK  Name = 132990893
REMARK  4 active torsions:
REMARK  status: ('A' for Active; 'I' for Inactive)
REMARK    1  A    between atoms: N_2  and  O_15
REMARK    2  A    between atoms: C_5  and  N_12
REMARK    3  A    between atoms: C_7  and  C_18
REMARK    4  A    between atoms: C_18  and  O_19
REMARK                            x       y       z     vdW  Elec       q    Type
REMARK                         _______ _______ _______ _____ _____    ______ ____
ROOT
ATOM      1  O   UNL     1      -1.535   2.169   0.324  0.00  0.00    -0.264 OA
ATOM      2  N   UNL     1       0.645   1.509   0.070  0.00  0.00    -0.127 N 
ATOM      3  N   UNL     1       2.945   0.952  -0.081  0.00  0.00    -0.224 NA
ATOM      4  C   UNL     1       1.255  -0.801  -0.024  0.00  0.00    +0.051 A 
ATOM      5  C   UNL     1      -0.197  -1.159   0.046  0.00  0.00    +0.056 A 
ATOM      6  C   UNL     1       1.651   0.541  -0.015  0.00  0.00    +0.183 A 
ATOM      7  C   UNL     1      -1.106  -0.161   0.161  0.00  0.00    +0.147 A 
ATOM      8  C   UNL     1      -0.692   1.281   0.203  0.00  0.00    +0.301 A 
ATOM      9  C   UNL     1       2.292  -1.745  -0.096  0.00  0.00    +0.006 C 
ATOM     10  C   UNL     1       3.626  -1.348  -0.163  0.00  0.00    +0.021 C 
ATOM     11  C   UNL     1       3.898   0.003  -0.153  0.00  0.00    +0.101 C 
ENDROOT
BRANCH   5  12
ATOM     12  N   UNL     1      -0.510  -2.495  -0.015  0.00  0.00    -0.357 N 
ATOM     13  H   UNL     1       0.207  -3.165  -0.098  0.00  0.00    +0.142 HD
ATOM     14  H   UNL     1      -1.450  -2.782   0.025  0.00  0.00    +0.142 HD
ENDBRANCH   5  12
BRANCH   2  15
ATOM     15  O   UNL     1       1.061   2.849   0.031  0.00  0.00    -0.422 OA
ATOM     16  H   UNL     1       1.970   3.055  -0.059  0.00  0.00    +0.326 HD
ENDBRANCH   2  15
BRANCH   7  18
ATOM     17  O   UNL     1      -3.029  -1.155   1.126  0.00  0.00    -0.245 OA
ATOM     18  C   UNL     1      -2.549  -0.473   0.244  0.00  0.00    +0.347 C 
BRANCH  18  19
ATOM     19  O   UNL     1      -3.170   0.122  -0.800  0.00  0.00    -0.441 OA
ATOM     20  C   UNL     1      -4.585  -0.090  -0.859  0.00  0.00    +0.256 C 
ENDBRANCH  18  19
ENDBRANCH   7  18
TORSDOF 4
