REMARK  Name = 132965758
REMARK  2 active torsions:
REMARK  status: ('A' for Active; 'I' for Inactive)
REMARK    1  A    between atoms: C_12  and  O_24
REMARK    2  A    between atoms: C_19  and  O_26
REMARK                            x       y       z     vdW  Elec       q    Type
REMARK                         _______ _______ _______ _____ _____    ______ ____
ROOT
ATOM      1  O   UNL     1       2.627  -1.533   0.048  0.00  0.00    -0.479 OA
ATOM      2  O   UNL     1      -1.341   3.388  -0.002  0.00  0.00    -0.283 OA
ATOM      3  O   UNL     1      -4.481  -0.080  -0.027  0.00  0.00    -0.283 OA
ATOM      4  O   UNL     1      -3.874   2.526   0.013  0.00  0.00    -0.280 OA
ATOM      5  C   UNL     1       3.325   0.792  -0.009  0.00  0.00    +0.061 C 
ATOM      6  C   UNL     1       3.701  -0.643   0.448  0.00  0.00    +0.170 C 
ATOM      7  C   UNL     1       1.837   0.630   0.038  0.00  0.00    +0.048 A 
ATOM      8  C   UNL     1       1.514  -0.721   0.042  0.00  0.00    +0.137 A 
ATOM      9  C   UNL     1       3.863   1.843   0.965  0.00  0.00    +0.008 C 
ATOM     10  C   UNL     1       3.757   1.131  -1.443  0.00  0.00    +0.008 C 
ATOM     11  C   UNL     1       0.197  -1.185   0.018  0.00  0.00    +0.030 A 
ATOM     12  C   UNL     1       0.842   1.588   0.025  0.00  0.00    +0.136 A 
ATOM     13  C   UNL     1      -0.846  -0.224   0.011  0.00  0.00    +0.015 A 
ATOM     14  C   UNL     1       5.012  -1.191  -0.097  0.00  0.00    +0.048 C 
ATOM     15  C   UNL     1      -0.492   1.159   0.017  0.00  0.00    +0.076 A 
ATOM     16  C   UNL     1      -0.109  -2.560   0.009  0.00  0.00    -0.016 C 
ATOM     17  C   UNL     1      -2.179  -0.704  -0.005  0.00  0.00    +0.076 C 
ATOM     18  C   UNL     1      -1.552   2.187   0.005  0.00  0.00    +0.240 C 
ATOM     19  C   UNL     1      -2.469  -2.073  -0.015  0.00  0.00    +0.136 C 
ATOM     20  C   UNL     1      -1.431  -2.997  -0.008  0.00  0.00    +0.033 C 
ATOM     21  C   UNL     1      -3.307   0.248  -0.012  0.00  0.00    +0.240 C 
ATOM     22  C   UNL     1       0.936  -3.632   0.018  0.00  0.00    +0.031 C 
ATOM     23  C   UNL     1      -2.970   1.707   0.002  0.00  0.00    +0.273 C 
ENDROOT
BRANCH  12  24
ATOM     24  O   UNL     1       1.183   2.904  -0.006  0.00  0.00    -0.506 OA
ATOM     25  H   UNL     1       2.085   3.155   0.001  0.00  0.00    +0.292 HD
ENDBRANCH  12  24
BRANCH  19  26
ATOM     26  O   UNL     1      -3.742  -2.559  -0.031  0.00  0.00    -0.505 OA
ATOM     27  H   UNL     1      -4.469  -1.968  -0.036  0.00  0.00    +0.292 HD
ENDBRANCH  19  26
TORSDOF 2
