132918381
  -OEChem-03292013293D

 55 56  0     1  0  0  0  0  0999 V2000
    1.9255   -0.7923    0.1789 O   0  0  0  0  0  0  0  0  0  0  0  0
    2.4071   -4.4126   -0.0931 O   0  0  0  0  0  0  0  0  0  0  0  0
    3.3261    1.0253   -0.2445 O   0  0  0  0  0  0  0  0  0  0  0  0
    5.0987   -3.3993    0.1963 O   0  0  0  0  0  0  0  0  0  0  0  0
    5.3516   -0.7608   -1.0902 O   0  0  0  0  0  0  0  0  0  0  0  0
   -0.7107   -1.5693    0.2255 O   0  0  0  0  0  0  0  0  0  0  0  0
   -2.2246   -2.5608    1.6484 O   0  0  0  0  0  0  0  0  0  0  0  0
    2.3049    5.7785    1.8360 O   0  0  0  0  0  0  0  0  0  0  0  0
   -6.4896   -0.3969   -0.3123 O   0  0  0  0  0  0  0  0  0  0  0  0
   -5.5874    2.0932   -1.1571 O   0  0  0  0  0  0  0  0  0  0  0  0
    2.7288   -3.0767    0.2847 C   0  0  1  0  0  0  0  0  0  0  0  0
    4.0314   -2.6583   -0.3972 C   0  0  1  0  0  0  0  0  0  0  0  0
    1.5818   -2.1468   -0.1180 C   0  0  1  0  0  0  0  0  0  0  0  0
    4.2919   -1.1620   -0.2222 C   0  0  2  0  0  0  0  0  0  0  0  0
    3.0517   -0.3376   -0.5677 C   0  0  1  0  0  0  0  0  0  0  0  0
    0.2984   -2.4723    0.6396 C   0  0  0  0  0  0  0  0  0  0  0  0
    2.4493    1.9048   -0.9311 C   0  0  0  0  0  0  0  0  0  0  0  0
    2.7913    3.3094   -0.5477 C   0  0  0  0  0  0  0  0  0  0  0  0
   -1.9338   -1.7218    0.8101 C   0  0  0  0  0  0  0  0  0  0  0  0
    2.0023    4.2244    0.0481 C   0  0  0  0  0  0  0  0  0  0  0  0
   -2.8989   -0.7192    0.2925 C   0  0  0  0  0  0  0  0  0  0  0  0
    2.4265    5.6171    0.4286 C   0  0  0  0  0  0  0  0  0  0  0  0
    0.5811    3.8741    0.4096 C   0  0  0  0  0  0  0  0  0  0  0  0
   -4.2581   -1.0268    0.2298 C   0  0  0  0  0  0  0  0  0  0  0  0
   -2.4464    0.5302   -0.1316 C   0  0  0  0  0  0  0  0  0  0  0  0
   -5.1647   -0.0849   -0.2566 C   0  0  0  0  0  0  0  0  0  0  0  0
   -3.3529    1.4719   -0.6184 C   0  0  0  0  0  0  0  0  0  0  0  0
   -4.7121    1.1645   -0.6809 C   0  0  0  0  0  0  0  0  0  0  0  0
   -6.8691   -1.6951    0.1405 C   0  0  0  0  0  0  0  0  0  0  0  0
    2.8637   -3.0683    1.3733 H   0  0  0  0  0  0  0  0  0  0  0  0
    4.0226   -2.9329   -1.4585 H   0  0  0  0  0  0  0  0  0  0  0  0
    1.3695   -2.2249   -1.1930 H   0  0  0  0  0  0  0  0  0  0  0  0
    4.6225   -0.9468    0.8009 H   0  0  0  0  0  0  0  0  0  0  0  0
    2.8414   -0.4179   -1.6436 H   0  0  0  0  0  0  0  0  0  0  0  0
    0.4583   -2.3485    1.7177 H   0  0  0  0  0  0  0  0  0  0  0  0
   -0.0213   -3.5002    0.4347 H   0  0  0  0  0  0  0  0  0  0  0  0
    2.2715   -4.4281   -1.0559 H   0  0  0  0  0  0  0  0  0  0  0  0
    5.1436   -3.1632    1.1385 H   0  0  0  0  0  0  0  0  0  0  0  0
    5.0775   -0.9433   -2.0052 H   0  0  0  0  0  0  0  0  0  0  0  0
    1.4161    1.6370   -0.6979 H   0  0  0  0  0  0  0  0  0  0  0  0
    2.5942    1.7988   -2.0128 H   0  0  0  0  0  0  0  0  0  0  0  0
    3.8116    3.6084   -0.7852 H   0  0  0  0  0  0  0  0  0  0  0  0
    3.4680    5.8081    0.1501 H   0  0  0  0  0  0  0  0  0  0  0  0
    1.7944    6.3586   -0.0711 H   0  0  0  0  0  0  0  0  0  0  0  0
    0.5438    3.3977    1.3944 H   0  0  0  0  0  0  0  0  0  0  0  0
   -0.0382    4.7776    0.4498 H   0  0  0  0  0  0  0  0  0  0  0  0
    0.1013    3.2230   -0.3261 H   0  0  0  0  0  0  0  0  0  0  0  0
   -4.5537   -2.0141    0.5684 H   0  0  0  0  0  0  0  0  0  0  0  0
   -1.3948    0.8006   -0.0832 H   0  0  0  0  0  0  0  0  0  0  0  0
   -2.9869    2.4425   -0.9428 H   0  0  0  0  0  0  0  0  0  0  0  0
    2.5748    6.6895    2.0429 H   0  0  0  0  0  0  0  0  0  0  0  0
   -5.0955    2.8956   -1.4026 H   0  0  0  0  0  0  0  0  0  0  0  0
   -6.6525   -1.8309    1.2057 H   0  0  0  0  0  0  0  0  0  0  0  0
   -6.4296   -2.4838   -0.4797 H   0  0  0  0  0  0  0  0  0  0  0  0
   -7.9555   -1.7708    0.0262 H   0  0  0  0  0  0  0  0  0  0  0  0
  1 13  1  0  0  0  0
  1 15  1  0  0  0  0
  2 11  1  0  0  0  0
  2 37  1  0  0  0  0
  3 15  1  0  0  0  0
  3 17  1  0  0  0  0
  4 12  1  0  0  0  0
  4 38  1  0  0  0  0
  5 14  1  0  0  0  0
  5 39  1  0  0  0  0
  6 16  1  0  0  0  0
  6 19  1  0  0  0  0
  7 19  2  0  0  0  0
  8 22  1  0  0  0  0
  8 51  1  0  0  0  0
  9 26  1  0  0  0  0
  9 29  1  0  0  0  0
 10 28  1  0  0  0  0
 10 52  1  0  0  0  0
 11 12  1  0  0  0  0
 11 13  1  0  0  0  0
 11 30  1  0  0  0  0
 12 14  1  0  0  0  0
 12 31  1  0  0  0  0
 13 16  1  0  0  0  0
 13 32  1  0  0  0  0
 14 15  1  0  0  0  0
 14 33  1  0  0  0  0
 15 34  1  0  0  0  0
 16 35  1  0  0  0  0
 16 36  1  0  0  0  0
 17 18  1  0  0  0  0
 17 40  1  0  0  0  0
 17 41  1  0  0  0  0
 18 20  2  0  0  0  0
 18 42  1  0  0  0  0
 19 21  1  0  0  0  0
 20 22  1  0  0  0  0
 20 23  1  0  0  0  0
 21 24  2  0  0  0  0
 21 25  1  0  0  0  0
 22 43  1  0  0  0  0
 22 44  1  0  0  0  0
 23 45  1  0  0  0  0
 23 46  1  0  0  0  0
 23 47  1  0  0  0  0
 24 26  1  0  0  0  0
 24 48  1  0  0  0  0
 25 27  2  0  0  0  0
 25 49  1  0  0  0  0
 26 28  2  0  0  0  0
 27 28  1  0  0  0  0
 27 50  1  0  0  0  0
 29 53  1  0  0  0  0
 29 54  1  0  0  0  0
 29 55  1  0  0  0  0
M  END
> <PUBCHEM_COMPOUND_CID>
132918381

> <PUBCHEM_CONFORMER_RMSD>
1

> <PUBCHEM_CONFORMER_DIVERSEORDER>
2
87
69
73
91
22
28
89
81
40
98
66
93
53
9
41
26
72
27
82
86
95
43
88
34
65
67
57
21
6
92
55
61
46
79
18
59
80
78
39
38
83
7
32
44
16
12
58
20
97
63
30
25
90
47
51
84
24
71
64
96
36
11
62
5
77
13
29
56
19
35
85
60
68
23
54
52
15
70
50
1
48
14
45
33
37
4
75
49
17
31
74
76
42
8
94
10
3

> <PUBCHEM_MMFF94_PARTIAL_CHARGES>
38
1 -0.56
10 -0.53
11 0.28
12 0.28
13 0.28
14 0.28
15 0.56
16 0.28
17 0.42
18 -0.29
19 0.63
2 -0.68
20 -0.28
21 0.09
22 0.42
23 0.14
24 -0.15
25 -0.15
26 0.08
27 -0.15
28 0.08
29 0.28
3 -0.56
37 0.4
38 0.4
39 0.4
4 -0.68
42 0.15
48 0.15
49 0.15
5 -0.68
50 0.15
51 0.4
52 0.45
6 -0.43
7 -0.57
8 -0.68
9 -0.36

> <PUBCHEM_EFFECTIVE_ROTOR_COUNT>
10.2

> <PUBCHEM_PHARMACOPHORE_FEATURES>
16
1 1 acceptor
1 10 donor
1 2 acceptor
1 2 donor
1 23 hydrophobe
1 3 acceptor
1 4 acceptor
1 4 donor
1 5 acceptor
1 5 donor
1 7 acceptor
1 8 acceptor
1 8 donor
1 9 acceptor
6 1 11 12 13 14 15 rings
6 21 24 25 26 27 28 rings

> <PUBCHEM_HEAVY_ATOM_COUNT>
29

> <PUBCHEM_ATOM_DEF_STEREO_COUNT>
5

> <PUBCHEM_ATOM_UDEF_STEREO_COUNT>
0

> <PUBCHEM_BOND_DEF_STEREO_COUNT>
1

> <PUBCHEM_BOND_UDEF_STEREO_COUNT>
0

> <PUBCHEM_ISOTOPIC_ATOM_COUNT>
0

> <PUBCHEM_COMPONENT_COUNT>
1

> <PUBCHEM_CACTVS_TAUTO_COUNT>
5

> <PUBCHEM_CONFORMER_ID>
07EC2C6D00000002

> <PUBCHEM_MMFF94_ENERGY>
82.2251

> <PUBCHEM_FEATURE_SELFOVERLAP>
81.259

> <PUBCHEM_SHAPE_FINGERPRINT>
10190206 1 18121249527497945558
10256941 240 17331646529577494661
10439779 11 18410566310509416096
12166972 35 18272370858345302611
12788726 201 17902791860614520410
13402501 40 18260548917823660317
13533116 47 18337394941441925461
138480 1 18410575063557903860
14866123 147 16823336286970771282
15322535 138 17691123060248626120
15351339 4 17972309608219529241
16988056 13 18411973650954369124
1768 85 18265909119283314641
18681886 176 18339918225764539514
20567600 299 18410012169459812356
21049683 118 17313934351058010915
21133410 127 17823975847690171917
21344244 78 17826209832274658826
21860390 5 18341620291317625950
221357 26 18335139752471847079
23559900 14 18409724063085277547
3298306 158 18124318465075262293
4015057 19 18335424530574022019
57124632 79 18197211675323952200
5776283 40 18191882330080399548
653340 110 17690551997613257130
7399639 24 17687195591507483923
9777508 108 17259902348125082104
9981440 41 17832983132521270425

> <PUBCHEM_SHAPE_MULTIPOLES>
538.11
13.42
7.31
0.99
19.08
9.65
-0.2
-3.74
2.75
-12.1
-2.46
-0.04
0.51
2.09

> <PUBCHEM_SHAPE_SELFOVERLAP>
1111.414

> <PUBCHEM_SHAPE_VOLUME>
306.1

> <PUBCHEM_COORDINATE_TYPE>
2
5
10

$$$$
