REMARK  Name = 133077
REMARK  9 active torsions:
REMARK  status: ('A' for Active; 'I' for Inactive)
REMARK    1  A    between atoms: C_1  and  C_26
REMARK    2  A    between atoms: C_3  and  O_9
REMARK    3  A    between atoms: C_4  and  O_7
REMARK    4  A    between atoms: O_9  and  C_10
REMARK    5  A    between atoms: C_13  and  N_19
REMARK    6  A    between atoms: C_20  and  C_23
REMARK    7  A    between atoms: C_23  and  O_24
REMARK    8  A    between atoms: C_26  and  C_28
REMARK    9  A    between atoms: C_26  and  O_34
REMARK                            x       y       z     vdW  Elec       q    Type
REMARK                         _______ _______ _______ _____ _____    ______ ____
ROOT
ATOM      1  C   UNL     1      -3.040   0.592   0.735  0.00  0.00    +0.045 C 
ATOM      2  C   UNL     1      -1.880   1.076   0.168  0.00  0.00    +0.039 C 
ATOM      3  C   UNL     1      -1.935   2.258  -0.571  0.00  0.00    +0.145 C 
ATOM      4  C   UNL     1      -4.252   1.235   0.597  0.00  0.00    +0.132 C 
ATOM      5  C   UNL     1      -3.149   2.928  -0.727  0.00  0.00    +0.041 C 
ATOM      6  C   UNL     1      -4.307   2.416  -0.142  0.00  0.00    +0.040 C 
ENDROOT
BRANCH   4   7
ATOM      7  O   UNL     1      -5.393   0.748   1.161  0.00  0.00    -0.506 OA
ATOM      8  H   UNL     1      -5.368  -0.044   1.660  0.00  0.00    +0.292 HD
ENDBRANCH   4   7
BRANCH   3   9
ATOM      9  O   UNL     1      -0.804   2.757  -1.141  0.00  0.00    -0.454 OA
BRANCH   9  10
ATOM     10  C   UNL     1       0.374   2.054  -0.957  0.00  0.00    +0.137 C 
ATOM     11  C   UNL     1       0.727   1.073  -1.868  0.00  0.00    +0.014 C 
ATOM     12  C   UNL     1       1.173   2.348   0.135  0.00  0.00    +0.014 C 
ATOM     13  C   UNL     1       2.731   0.649  -0.588  0.00  0.00    +0.050 C 
ATOM     14  C   UNL     1       1.914   0.365  -1.682  0.00  0.00    +0.013 C 
ATOM     15  C   UNL     1       2.361   1.640   0.321  0.00  0.00    +0.013 C 
ATOM     16  C   UNL     1      -0.134   0.756  -3.046  0.00  0.00    +0.034 C 
ATOM     17  C   UNL     1       0.794   3.406   1.119  0.00  0.00    +0.034 C 
BRANCH  13  19
ATOM     18  O   UNL     1       4.838   0.852   1.575  0.00  0.00    -0.263 OA
ATOM     19  N   UNL     1       3.919  -0.059  -0.402  0.00  0.00    -0.275 N 
ATOM     20  C   UNL     1       4.850   0.087   0.624  0.00  0.00    +0.325 C 
ATOM     21  H   UNL     1       4.124  -0.745  -1.077  0.00  0.00    +0.155 HD
BRANCH  20  23
ATOM     22  O   UNL     1       6.122  -1.665  -0.428  0.00  0.00    -0.240 OA
ATOM     23  C   UNL     1       6.020  -0.868   0.483  0.00  0.00    +0.393 C 
BRANCH  23  24
ATOM     24  O   UNL     1       6.887  -0.691   1.492  0.00  0.00    -0.474 OA
ATOM     25  H   UNL     1       6.715  -0.045   2.149  0.00  0.00    +0.296 HD
ENDBRANCH  23  24
ENDBRANCH  20  23
ENDBRANCH  13  19
ENDBRANCH   9  10
ENDBRANCH   3   9
BRANCH   1  26
ATOM     26  C   UNL     1      -2.961  -0.701   1.540  0.00  0.00    +0.158 C 
BRANCH  26  28
ATOM     27  F   UNL     1      -0.984  -5.077  -1.381  0.00  0.00    -0.204 F 
ATOM     28  C   UNL     1      -2.436  -1.862   0.765  0.00  0.00    +0.009 C 
ATOM     29  C   UNL     1      -3.301  -2.625  -0.021  0.00  0.00    +0.001 C 
ATOM     30  C   UNL     1      -1.081  -2.186   0.825  0.00  0.00    +0.001 C 
ATOM     31  C   UNL     1      -2.810  -3.711  -0.745  0.00  0.00    +0.029 C 
ATOM     32  C   UNL     1      -0.590  -3.272   0.101  0.00  0.00    +0.029 C 
ATOM     33  C   UNL     1      -1.455  -4.035  -0.684  0.00  0.00    +0.140 C 
ENDBRANCH  26  28
BRANCH  26  34
ATOM     34  O   UNL     1      -2.198  -0.488   2.740  0.00  0.00    -0.375 OA
ATOM     35  H   UNL     1      -2.560   0.271   3.223  0.00  0.00    +0.211 HD
ENDBRANCH  26  34
ENDBRANCH   1  26
TORSDOF 9
