REMARK  Name = 133099
REMARK  7 active torsions:
REMARK  status: ('A' for Active; 'I' for Inactive)
REMARK    1  A    between atoms: C_2  and  C_12
REMARK    2  A    between atoms: C_5  and  O_8
REMARK    3  A    between atoms: C_7  and  O_10
REMARK    4  A    between atoms: C_12  and  CA_13
REMARK    5  A    between atoms: CA_13  and  N_14
REMARK    6  A    between atoms: CA_13  and  C_19
REMARK    7  A    between atoms: C_19  and  O_20
REMARK                            x       y       z     vdW  Elec       q    Type
REMARK                         _______ _______ _______ _____ _____    ______ ____
ROOT
ATOM      1  I   UNL     1       0.198   3.433  -0.228  0.00  0.00    -0.043 I 
ATOM      2  C   UNL     1       0.118   0.460   0.524  0.00  0.00    -0.015 C 
ATOM      3  C   UNL     1       0.616  -0.826   0.674  0.00  0.00    +0.036 C 
ATOM      4  C   UNL     1       0.906   1.480   0.017  0.00  0.00    +0.029 C 
ATOM      5  C   UNL     1       1.934  -1.097   0.307  0.00  0.00    +0.167 C 
ATOM      6  C   UNL     1       2.224   1.210  -0.351  0.00  0.00    +0.045 C 
ATOM      7  C   UNL     1       2.738  -0.079  -0.206  0.00  0.00    +0.168 C 
ENDROOT
BRANCH   5   8
ATOM      8  O   UNL     1       2.425  -2.359   0.454  0.00  0.00    -0.503 OA
ATOM      9  H   UNL     1       1.878  -3.037   0.799  0.00  0.00    +0.292 HD
ENDBRANCH   5   8
BRANCH   7  10
ATOM     10  O   UNL     1       4.027  -0.332  -0.567  0.00  0.00    -0.503 OA
ATOM     11  H   UNL     1       4.379  -1.195  -0.473  0.00  0.00    +0.292 HD
ENDBRANCH   7  10
BRANCH   2  12
ATOM     12  C   UNL     1      -1.317   0.693   0.939  0.00  0.00    +0.016 C 
BRANCH  12  13
ATOM     13  CA  UNL     1      -2.309   0.465  -0.210  0.00  0.00    +0.040 C 
BRANCH  13  14
ATOM     14  N   UNL     1      -3.569   1.150   0.086  0.00  0.00    +0.389 N 
ATOM     15  H1  UNL     1      -3.394   2.148   0.201  0.00  0.00    -0.088 HD
ATOM     16  H2  UNL     1      -3.966   0.774   0.947  0.00  0.00    -0.088 HD
ATOM     17  H3  UNL     1      -4.223   1.005  -0.682  0.00  0.00    -0.088 HD
ENDBRANCH  13  14
BRANCH  13  19
ATOM     18  OXT UNL     1      -3.508  -1.616   0.239  0.00  0.00    -0.253 OA
ATOM     19  C   UNL     1      -2.639  -1.006  -0.367  0.00  0.00    +0.293 C 
BRANCH  19  20
ATOM     20  O   UNL     1      -1.845  -1.575  -1.311  0.00  0.00    -0.482 OA
ATOM     21  H   UNL     1      -1.193  -1.061  -1.746  0.00  0.00    +0.295 HD
ENDBRANCH  19  20
ENDBRANCH  13  19
ENDBRANCH  12  13
ENDBRANCH   2  12
TORSDOF 7
