133051
  -OEChem-03292013323D

 58 58  0     1  0  0  0  0  0999 V2000
   -0.6600   -0.9718   -1.6887 O   0  0  0  0  0  0  0  0  0  0  0  0
    3.0105   -0.0467    0.2315 O   0  0  0  0  0  0  0  0  0  0  0  0
   -5.9213   -0.7719   -1.1081 O   0  0  0  0  0  0  0  0  0  0  0  0
    1.2508   -0.4088    1.6624 O   0  0  0  0  0  0  0  0  0  0  0  0
    0.9724    0.7023   -0.3560 N   0  0  0  0  0  0  0  0  0  0  0  0
   -4.9893   -3.4807   -0.5927 N   0  0  0  0  0  0  0  0  0  0  0  0
   -5.8981   -0.7661    1.2117 N   0  0  0  0  0  0  0  0  0  0  0  0
   -0.4407    0.9605   -0.2615 C   0  0  1  0  0  0  0  0  0  0  0  0
   -0.8644    2.1974   -1.0569 C   0  0  0  0  0  0  0  0  0  0  0  0
   -0.2615    3.5263   -0.5583 C   0  0  0  0  0  0  0  0  0  0  0  0
   -1.1526   -0.2766   -0.7998 C   0  0  0  0  0  0  0  0  0  0  0  0
   -2.4604   -0.6473   -0.1133 C   0  0  0  0  0  0  0  0  0  0  0  0
   -3.1345   -1.8912   -0.7002 C   0  0  0  0  0  0  0  0  0  0  0  0
   -0.6849    3.7731    0.8924 C   0  0  0  0  0  0  0  0  0  0  0  0
   -0.6752    4.7163   -1.4252 C   0  0  0  0  0  0  0  0  0  0  0  0
   -4.4214   -2.2889    0.0398 C   0  0  1  0  0  0  0  0  0  0  0  0
   -5.4951   -1.2076   -0.0401 C   0  0  0  0  0  0  0  0  0  0  0  0
    1.7012    0.0394    0.6131 C   0  0  0  0  0  0  0  0  0  0  0  0
   -6.8832    0.2754    1.3822 C   0  0  0  0  0  0  0  0  0  0  0  0
    3.8853   -0.7140    1.1480 C   0  0  0  0  0  0  0  0  0  0  0  0
   -6.2759    1.6500    1.1923 C   0  0  0  0  0  0  0  0  0  0  0  0
    5.2748   -0.7214    0.5816 C   0  0  0  0  0  0  0  0  0  0  0  0
    5.6916   -1.7767   -0.2299 C   0  0  0  0  0  0  0  0  0  0  0  0
    6.1496    0.3273    0.8659 C   0  0  0  0  0  0  0  0  0  0  0  0
    6.9832   -1.7836   -0.7567 C   0  0  0  0  0  0  0  0  0  0  0  0
    7.4412    0.3204    0.3390 C   0  0  0  0  0  0  0  0  0  0  0  0
    7.8579   -0.7351   -0.4723 C   0  0  0  0  0  0  0  0  0  0  0  0
   -0.7042    1.0498    0.7970 H   0  0  0  0  0  0  0  0  0  0  0  0
   -0.5839    2.0618   -2.1107 H   0  0  0  0  0  0  0  0  0  0  0  0
   -1.9599    2.2752   -1.0499 H   0  0  0  0  0  0  0  0  0  0  0  0
    0.8330    3.4588   -0.5915 H   0  0  0  0  0  0  0  0  0  0  0  0
   -2.2415   -0.8188    0.9467 H   0  0  0  0  0  0  0  0  0  0  0  0
   -3.1301    0.2155   -0.1932 H   0  0  0  0  0  0  0  0  0  0  0  0
   -3.3498   -1.7046   -1.7612 H   0  0  0  0  0  0  0  0  0  0  0  0
   -2.4245   -2.7286   -0.6726 H   0  0  0  0  0  0  0  0  0  0  0  0
   -0.2359    3.0454    1.5748 H   0  0  0  0  0  0  0  0  0  0  0  0
   -1.7735    3.7285    1.0054 H   0  0  0  0  0  0  0  0  0  0  0  0
   -0.3543    4.7627    1.2272 H   0  0  0  0  0  0  0  0  0  0  0  0
   -1.7616    4.8545   -1.4160 H   0  0  0  0  0  0  0  0  0  0  0  0
   -0.2111    5.6415   -1.0677 H   0  0  0  0  0  0  0  0  0  0  0  0
   -0.3621    4.5637   -2.4633 H   0  0  0  0  0  0  0  0  0  0  0  0
   -4.1801   -2.5245    1.0824 H   0  0  0  0  0  0  0  0  0  0  0  0
    1.4597    0.9797   -1.2030 H   0  0  0  0  0  0  0  0  0  0  0  0
   -5.7864   -3.8090   -0.0482 H   0  0  0  0  0  0  0  0  0  0  0  0
   -4.3054   -4.2364   -0.5756 H   0  0  0  0  0  0  0  0  0  0  0  0
   -5.4855   -1.1685    2.0478 H   0  0  0  0  0  0  0  0  0  0  0  0
   -7.2942    0.1771    2.3917 H   0  0  0  0  0  0  0  0  0  0  0  0
   -7.6938    0.1190    0.6625 H   0  0  0  0  0  0  0  0  0  0  0  0
    3.8736   -0.1957    2.1149 H   0  0  0  0  0  0  0  0  0  0  0  0
    3.5374   -1.7418    1.3102 H   0  0  0  0  0  0  0  0  0  0  0  0
   -5.4576    1.8174    1.9007 H   0  0  0  0  0  0  0  0  0  0  0  0
   -5.8698    1.7713    0.1828 H   0  0  0  0  0  0  0  0  0  0  0  0
   -7.0309    2.4261    1.3511 H   0  0  0  0  0  0  0  0  0  0  0  0
    5.0185   -2.5983   -0.4604 H   0  0  0  0  0  0  0  0  0  0  0  0
    5.8359    1.1562    1.4949 H   0  0  0  0  0  0  0  0  0  0  0  0
    7.3075   -2.6050   -1.3889 H   0  0  0  0  0  0  0  0  0  0  0  0
    8.1223    1.1371    0.5598 H   0  0  0  0  0  0  0  0  0  0  0  0
    8.8634   -0.7403   -0.8828 H   0  0  0  0  0  0  0  0  0  0  0  0
  1 11  2  0  0  0  0
  2 18  1  0  0  0  0
  2 20  1  0  0  0  0
  3 17  2  0  0  0  0
  4 18  2  0  0  0  0
  5  8  1  0  0  0  0
  5 18  1  0  0  0  0
  5 43  1  0  0  0  0
  6 16  1  0  0  0  0
  6 44  1  0  0  0  0
  6 45  1  0  0  0  0
  7 17  1  0  0  0  0
  7 19  1  0  0  0  0
  7 46  1  0  0  0  0
  8  9  1  0  0  0  0
  8 11  1  0  0  0  0
  8 28  1  0  0  0  0
  9 10  1  0  0  0  0
  9 29  1  0  0  0  0
  9 30  1  0  0  0  0
 10 14  1  0  0  0  0
 10 15  1  0  0  0  0
 10 31  1  0  0  0  0
 11 12  1  0  0  0  0
 12 13  1  0  0  0  0
 12 32  1  0  0  0  0
 12 33  1  0  0  0  0
 13 16  1  0  0  0  0
 13 34  1  0  0  0  0
 13 35  1  0  0  0  0
 14 36  1  0  0  0  0
 14 37  1  0  0  0  0
 14 38  1  0  0  0  0
 15 39  1  0  0  0  0
 15 40  1  0  0  0  0
 15 41  1  0  0  0  0
 16 17  1  0  0  0  0
 16 42  1  0  0  0  0
 19 21  1  0  0  0  0
 19 47  1  0  0  0  0
 19 48  1  0  0  0  0
 20 22  1  0  0  0  0
 20 49  1  0  0  0  0
 20 50  1  0  0  0  0
 21 51  1  0  0  0  0
 21 52  1  0  0  0  0
 21 53  1  0  0  0  0
 22 23  2  0  0  0  0
 22 24  1  0  0  0  0
 23 25  1  0  0  0  0
 23 54  1  0  0  0  0
 24 26  2  0  0  0  0
 24 55  1  0  0  0  0
 25 27  2  0  0  0  0
 25 56  1  0  0  0  0
 26 27  1  0  0  0  0
 26 57  1  0  0  0  0
 27 58  1  0  0  0  0
M  END
> <PUBCHEM_COMPOUND_CID>
133051

> <PUBCHEM_CONFORMER_RMSD>
1.2

> <PUBCHEM_CONFORMER_DIVERSEORDER>
1
47
73
28
11
80
27
37
53
61
55
23
36
34
10
75
20
62
7
56
60
67
32
52
64
14
49
74
21
26
33
57
40
50
4
46
72
6
18
30
31
65
70
71
69
43
68
25
8
44
35
17
24
76
45
9
15
13
29
41
78
63
22
39
54
2
19
66
59
77
16
48
38
12
58
5
3
79
51
42

> <PUBCHEM_MMFF94_PARTIAL_CHARGES>
30
1 -0.57
11 0.45
12 0.06
16 0.33
17 0.57
18 0.78
19 0.3
2 -0.43
20 0.42
22 -0.14
23 -0.15
24 -0.15
25 -0.15
26 -0.15
27 -0.15
3 -0.57
4 -0.57
43 0.37
44 0.36
45 0.36
46 0.37
5 -0.73
54 0.15
55 0.15
56 0.15
57 0.15
58 0.15
6 -0.99
7 -0.73
8 0.36

> <PUBCHEM_EFFECTIVE_ROTOR_COUNT>
14

> <PUBCHEM_PHARMACOPHORE_FEATURES>
9
1 1 acceptor
1 3 acceptor
1 4 acceptor
1 5 donor
1 6 cation
1 6 donor
1 7 donor
3 10 14 15 hydrophobe
6 22 23 24 25 26 27 rings

> <PUBCHEM_HEAVY_ATOM_COUNT>
27

> <PUBCHEM_ATOM_DEF_STEREO_COUNT>
1

> <PUBCHEM_ATOM_UDEF_STEREO_COUNT>
1

> <PUBCHEM_BOND_DEF_STEREO_COUNT>
0

> <PUBCHEM_BOND_UDEF_STEREO_COUNT>
0

> <PUBCHEM_ISOTOPIC_ATOM_COUNT>
0

> <PUBCHEM_COMPONENT_COUNT>
1

> <PUBCHEM_CACTVS_TAUTO_COUNT>
12

> <PUBCHEM_CONFORMER_ID>
000207BB00000001

> <PUBCHEM_MMFF94_ENERGY>
38.4689

> <PUBCHEM_FEATURE_SELFOVERLAP>
45.671

> <PUBCHEM_SHAPE_FINGERPRINT>
12107183 9 18411986871364223355
12516196 113 18335134336454757178
12788726 201 18114451263038180339
13590594 115 18333449863778552173
13673619 4 18131630089315292890
14394314 77 18408605859601963539
14674994 50 16878808104158197395
15131766 46 15910765155505355816
15444296 121 18261685822280779881
16087824 20 18190737545603581925
16992752 21 18337400413441257468
16994733 274 14418398958836666727
17492 89 17977663440306331031
18643901 69 18271534104801962606
20157964 124 12757142469039676946
20554085 129 11242242009457139516
21054139 6 9007059054872778265
21304253 13 18343020016811956257
21304303 172 18343864399256697265
22849341 161 18335708273388169745
255183 451 18120364613299534743
283562 15 18187640267832160354
2838139 119 12607406606822893683
3552219 110 17822305569019977676
437815 12 18338229461813469287
5219985 9 18260263070570346053
6371009 1 10735876179338141771
6394761 36 16988846059671882683

> <PUBCHEM_SHAPE_MULTIPOLES>
517.23
21.13
4.07
1.35
17.66
5.34
0.07
-13.34
4.22
-4.6
-1.56
-0.83
0.35
-0.46

> <PUBCHEM_SHAPE_SELFOVERLAP>
1030.045

> <PUBCHEM_SHAPE_VOLUME>
305.2

> <PUBCHEM_COORDINATE_TYPE>
2
5
10

$$$$
