133025
  -OEChem-03292013323D

 28 29  0     1  0  0  0  0  0999 V2000
    1.6697    0.0282    0.8612 O   0  0  0  0  0  0  0  0  0  0  0  0
    1.3039   -1.3691   -1.7935 O   0  0  0  0  0  0  0  0  0  0  0  0
    4.2538   -0.4771    1.8337 O   0  0  0  0  0  0  0  0  0  0  0  0
   -4.6641   -0.4181    0.2172 O   0  5  0  0  0  0  0  0  0  0  0  0
   -3.1942   -2.0508    0.3243 O   0  0  0  0  0  0  0  0  0  0  0  0
   -0.3685    0.9634    0.0725 N   0  0  0  0  0  0  0  0  0  0  0  0
   -3.4706   -0.8239    0.2362 N   0  3  0  0  0  0  0  0  0  0  0  0
    1.0931    1.0648    0.0497 C   0  0  2  0  0  0  0  0  0  0  0  0
    2.2918   -0.4323   -1.3751 C   0  0  1  0  0  0  0  0  0  0  0  0
    1.6956    0.9577   -1.3486 C   0  0  0  0  0  0  0  0  0  0  0  0
    2.6378   -0.6980    0.0816 C   0  0  1  0  0  0  0  0  0  0  0  0
    4.0255   -0.1966    0.4623 C   0  0  0  0  0  0  0  0  0  0  0  0
   -1.0843   -0.2056    0.1667 C   0  0  0  0  0  0  0  0  0  0  0  0
   -1.2414    2.0223    0.0020 C   0  0  0  0  0  0  0  0  0  0  0  0
   -2.4244    0.1127    0.1568 C   0  0  0  0  0  0  0  0  0  0  0  0
   -2.5237    1.5222    0.0528 C   0  0  0  0  0  0  0  0  0  0  0  0
    1.3401    2.0291    0.5091 H   0  0  0  0  0  0  0  0  0  0  0  0
    3.1428   -0.5179   -2.0571 H   0  0  0  0  0  0  0  0  0  0  0  0
    2.4989    1.6981   -1.4436 H   0  0  0  0  0  0  0  0  0  0  0  0
    0.9696    1.1389   -2.1477 H   0  0  0  0  0  0  0  0  0  0  0  0
    2.5332   -1.7549    0.3508 H   0  0  0  0  0  0  0  0  0  0  0  0
    4.1135    0.8868    0.3367 H   0  0  0  0  0  0  0  0  0  0  0  0
    4.8057   -0.6840   -0.1304 H   0  0  0  0  0  0  0  0  0  0  0  0
   -0.5829   -1.1622    0.2344 H   0  0  0  0  0  0  0  0  0  0  0  0
   -0.8789    3.0382   -0.0795 H   0  0  0  0  0  0  0  0  0  0  0  0
    1.7084   -2.2528   -1.7630 H   0  0  0  0  0  0  0  0  0  0  0  0
   -3.4255    2.1182    0.0170 H   0  0  0  0  0  0  0  0  0  0  0  0
    4.2160   -1.4420    1.9476 H   0  0  0  0  0  0  0  0  0  0  0  0
  1  8  1  0  0  0  0
  1 11  1  0  0  0  0
  2  9  1  0  0  0  0
  2 26  1  0  0  0  0
  3 12  1  0  0  0  0
  3 28  1  0  0  0  0
  4  7  1  0  0  0  0
  5  7  2  0  0  0  0
  6  8  1  0  0  0  0
  6 13  1  0  0  0  0
  6 14  1  0  0  0  0
  7 15  1  0  0  0  0
  8 10  1  0  0  0  0
  8 17  1  0  0  0  0
  9 10  1  0  0  0  0
  9 11  1  0  0  0  0
  9 18  1  0  0  0  0
 10 19  1  0  0  0  0
 10 20  1  0  0  0  0
 11 12  1  0  0  0  0
 11 21  1  0  0  0  0
 12 22  1  0  0  0  0
 12 23  1  0  0  0  0
 13 15  2  0  0  0  0
 13 24  1  0  0  0  0
 14 16  2  0  0  0  0
 14 25  1  0  0  0  0
 15 16  1  0  0  0  0
 16 27  1  0  0  0  0
M  CHG  2   4  -1   7   1
M  END
> <PUBCHEM_COMPOUND_CID>
133025

> <PUBCHEM_CONFORMER_RMSD>
0.6

> <PUBCHEM_CONFORMER_DIVERSEORDER>
1
6
15
13
7
9
11
10
8
3
2
12
5
4
14

> <PUBCHEM_MMFF94_PARTIAL_CHARGES>
20
1 -0.56
11 0.28
12 0.28
13 -0.3
14 -0.3
15 0.08
16 -0.15
2 -0.68
24 0.15
25 0.15
26 0.4
27 0.15
28 0.4
3 -0.68
4 -0.52
5 -0.52
6 0.05
7 0.96
8 0.54
9 0.28

> <PUBCHEM_EFFECTIVE_ROTOR_COUNT>
4

> <PUBCHEM_PHARMACOPHORE_FEATURES>
11
1 1 acceptor
1 2 acceptor
1 2 donor
1 3 acceptor
1 3 donor
1 4 acceptor
1 4 anion
1 5 acceptor
1 6 cation
5 1 8 9 10 11 rings
5 6 13 14 15 16 rings

> <PUBCHEM_HEAVY_ATOM_COUNT>
16

> <PUBCHEM_ATOM_DEF_STEREO_COUNT>
3

> <PUBCHEM_ATOM_UDEF_STEREO_COUNT>
0

> <PUBCHEM_BOND_DEF_STEREO_COUNT>
0

> <PUBCHEM_BOND_UDEF_STEREO_COUNT>
0

> <PUBCHEM_ISOTOPIC_ATOM_COUNT>
0

> <PUBCHEM_COMPONENT_COUNT>
1

> <PUBCHEM_CACTVS_TAUTO_COUNT>
1

> <PUBCHEM_CONFORMER_ID>
000207A100000001

> <PUBCHEM_MMFF94_ENERGY>
28.8284

> <PUBCHEM_FEATURE_SELFOVERLAP>
55.906

> <PUBCHEM_SHAPE_FINGERPRINT>
11132069 177 17988646323994544615
11769659 78 18040995154613241632
11806522 49 18040432226614711384
13134695 92 15430037660687407542
13296908 3 17846225392984295436
13581323 91 18411979152696166364
14115302 16 17313391157479104275
14178342 30 18197222451196047872
14252887 29 17917722296142575643
15219456 202 17703508779462012428
15375358 24 18131064905483148117
16945 1 18193568778315187085
18186145 218 13045939136075192333
19049666 15 17558276414362862664
19784866 240 17167860833439957843
200 152 16950280702344163089
20279233 1 18060138708931274797
204376 136 16773501261906919648
20645477 70 18269279126696290135
20715346 28 17703230607267809756
21061003 4 17131829871741750000
21069387 34 16950567657836170314
21501925 9 18411417319233957316
22079108 93 15338538553138416946
22646028 28 18040435494594148274
232386 152 18260548926571798138
23402539 116 18409439293504621551
23557571 272 18272095946115770380
23559900 14 18198347247955522662
2748010 2 17916033347445180564
3060560 45 14201391711827152170
458136 41 16702304564193876518
4990 188 12829207775889107705
568465 68 17632579387259396098
5902787 121 18337392750575853769
7364860 26 18198068168853846149
77492 1 17531258214128715468
81228 2 18197797530485610641

> <PUBCHEM_SHAPE_MULTIPOLES>
289.96
7.36
1.63
1.24
1.36
0.13
0.23
-2.68
-2.18
1.31
0.12
-1.59
-0.24
-0.04

> <PUBCHEM_SHAPE_SELFOVERLAP>
610.452

> <PUBCHEM_SHAPE_VOLUME>
164.6

> <PUBCHEM_COORDINATE_TYPE>
2
5
10

$$$$
