REMARK  Name = 133025
REMARK  5 active torsions:
REMARK  status: ('A' for Active; 'I' for Inactive)
REMARK    1  A    between atoms: C1*_2  and  N_6
REMARK    2  A    between atoms: C3*_3  and  O3*_14
REMARK    3  A    between atoms: C4*_5  and  C5*_16
REMARK    4  A    between atoms: C_9  and  N_13
REMARK    5  A    between atoms: C5*_16  and  O5*_17
REMARK                            x       y       z     vdW  Elec       q    Type
REMARK                         _______ _______ _______ _____ _____    ______ ____
ROOT
ATOM      1  O4* UNL     1       1.670   0.028   0.861  0.00  0.00    -0.335 OA
ATOM      2  C1* UNL     1       1.093   1.065   0.050  0.00  0.00    +0.199 C 
ATOM      3  C3* UNL     1       2.292  -0.432  -1.375  0.00  0.00    +0.144 C 
ATOM      4  C2* UNL     1       1.696   0.958  -1.349  0.00  0.00    +0.083 C 
ATOM      5  C4* UNL     1       2.638  -0.698   0.082  0.00  0.00    +0.173 C 
ENDROOT
BRANCH   2   6
ATOM      6  N   UNL     1      -0.368   0.963   0.072  0.00  0.00    -0.261 N 
ATOM      7  C   UNL     1      -1.084  -0.206   0.167  0.00  0.00    +0.092 C 
ATOM      8  C   UNL     1      -1.241   2.022   0.002  0.00  0.00    +0.069 C 
ATOM      9  C   UNL     1      -2.424   0.113   0.157  0.00  0.00    +0.159 C 
ATOM     10  C   UNL     1      -2.524   1.522   0.053  0.00  0.00    +0.042 C 
BRANCH   9  13
ATOM     11  O   UNL     1      -4.664  -0.418   0.217  0.00  0.00    -0.126 OA
ATOM     12  O   UNL     1      -3.194  -2.051   0.324  0.00  0.00    -0.126 OA
ATOM     13  N   UNL     1      -3.471  -0.824   0.236  0.00  0.00    +0.059 N 
ENDBRANCH   9  13
ENDBRANCH   2   6
BRANCH   3  14
ATOM     14  O3* UNL     1       1.304  -1.369  -1.794  0.00  0.00    -0.382 OA
ATOM     15  H3* UNL     1       1.077  -1.207  -2.723  0.00  0.00    +0.210 HD
ENDBRANCH   3  14
BRANCH   5  16
ATOM     16  C5* UNL     1       4.026  -0.197   0.462  0.00  0.00    +0.169 C 
BRANCH  16  17
ATOM     17  O5* UNL     1       4.254  -0.477   1.834  0.00  0.00    -0.379 OA
ATOM     18  H5* UNL     1       5.136  -0.161   2.086  0.00  0.00    +0.211 HD
ENDBRANCH  16  17
ENDBRANCH   5  16
TORSDOF 5
