REMARK  Name = 133064
REMARK  13 active torsions:
REMARK  status: ('A' for Active; 'I' for Inactive)
REMARK    1  A    between atoms: N_2  and  CA_24
REMARK    2  A    between atoms: C_3  and  CA_7
REMARK    3  A    between atoms: C_11  and  CA_12
REMARK    4  A    between atoms: CA_12  and  N_13
REMARK    5  A    between atoms: CA_12  and  CB_17
REMARK    6  A    between atoms: CB_17  and  CG_18
REMARK    7  A    between atoms: CA_24  and  C_26
REMARK    8  A    between atoms: CA_24  and  CB_29
REMARK    9  A    between atoms: C_26  and  O_27
REMARK   10  A    between atoms: CB_29  and  CG_30
REMARK   11  A    between atoms: CG_30  and  CD_31
REMARK   12  A    between atoms: CD_31  and  NE_32
REMARK   13  A    between atoms: NE_32  and  CZ_35
REMARK                            x       y       z     vdW  Elec       q    Type
REMARK                         _______ _______ _______ _____ _____    ______ ____
ROOT
ATOM      1  O   PHE A   1      -0.205  -1.263  -1.300  0.00  0.00    -0.273 OA
ATOM      2  N   ARG A   2       1.558  -2.020   0.018  0.00  0.00    -0.295 N 
ATOM      3  C   PHE A   1       0.227  -1.771  -0.269  0.00  0.00    +0.241 C 
ATOM      4  H   ARG A   2       1.782  -2.434   0.883  0.00  0.00    +0.150 HD
ENDROOT
BRANCH   3   7
ATOM      5  O   PHE A   1      -0.854   0.493   1.758  0.00  0.00    -0.277 OA
ATOM      6  N   PHE A   1      -1.859  -1.358   0.799  0.00  0.00    -0.275 N 
ATOM      7  CA  PHE A   1      -0.685  -2.221   0.833  0.00  0.00    +0.152 C 
ATOM      8  CB  PHE A   1      -1.227  -3.623   0.582  0.00  0.00    +0.031 C 
ATOM      9  CG  PHE A   1      -2.469  -3.376  -0.271  0.00  0.00    +0.024 C 
ATOM     10  CD  PHE A   1      -3.025  -2.075   0.289  0.00  0.00    +0.094 C 
ATOM     11  C   PHE A   1      -1.860  -0.081   1.337  0.00  0.00    +0.206 C 
BRANCH  11  12
ATOM     12  CA  PHE A   1      -3.202   0.607   1.376  0.00  0.00    +0.021 C 
BRANCH  12  13
ATOM     13  N   PHE A   1      -3.487   0.819   2.789  0.00  0.00    +0.390 N 
ATOM     14  C   ACE A   0      -3.984  -0.403   3.408  0.00  0.00    -0.105 C 
ATOM     15  H1  PHE A   1      -4.193   1.550   2.881  0.00  0.00    -0.084 HD
ATOM     16  H2  PHE A   1      -2.625   1.094   3.258  0.00  0.00    -0.084 HD
ENDBRANCH  12  13
BRANCH  12  17
ATOM     17  CB  PHE A   1      -3.164   1.933   0.616  0.00  0.00    +0.014 C 
BRANCH  17  18
ATOM     18  CG  PHE A   1      -2.804   1.760  -0.841  0.00  0.00    -0.024 C 
ATOM     19  CD1 PHE A   1      -1.468   1.804  -1.239  0.00  0.00    -0.004 C 
ATOM     20  CD2 PHE A   1      -3.808   1.556  -1.788  0.00  0.00    -0.004 C 
ATOM     21  CE1 PHE A   1      -1.135   1.645  -2.584  0.00  0.00    -0.000 C 
ATOM     22  CE2 PHE A   1      -3.475   1.397  -3.133  0.00  0.00    -0.000 C 
ATOM     23  CZ  PHE A   1      -2.139   1.441  -3.531  0.00  0.00    -0.000 C 
ENDBRANCH  17  18
ENDBRANCH  12  17
ENDBRANCH  11  12
ENDBRANCH   3   7
BRANCH   2  24
ATOM     24  CA  ARG A   2       2.635  -1.702  -0.891  0.00  0.00    +0.171 C 
BRANCH  24  26
ATOM     25  OXT ARG A   2       4.709  -2.857  -1.445  0.00  0.00    -0.248 OA
ATOM     26  C   ARG A   2       3.710  -2.762  -0.743  0.00  0.00    +0.332 C 
BRANCH  26  27
ATOM     27  O   ARG A   2       3.461  -3.595   0.301  0.00  0.00    -0.479 OA
ATOM     28  H   ARG A   2       2.683  -3.486   0.812  0.00  0.00    +0.295 HD
ENDBRANCH  26  27
ENDBRANCH  24  26
BRANCH  24  29
ATOM     29  CB  ARG A   2       3.180  -0.286  -0.680  0.00  0.00    +0.033 C 
BRANCH  29  30
ATOM     30  CG  ARG A   2       3.760  -0.036   0.717  0.00  0.00    +0.029 C 
BRANCH  30  31
ATOM     31  CD  ARG A   2       4.242   1.403   0.864  0.00  0.00    +0.129 C 
BRANCH  31  32
ATOM     32  NE  ARG A   2       3.113   2.309   0.648  0.00  0.00    -0.240 NA
BRANCH  32  35
ATOM     33  NH1 ARG A   2       4.553   4.188   1.053  0.00  0.00    -0.370 N 
ATOM     34  NH2 ARG A   2       2.347   4.495   0.570  0.00  0.00    -0.370 N 
ATOM     35  CZ  ARG A   2       3.355   3.578   0.757  0.00  0.00    +0.189 C 
ATOM     36 HH11 ARG A   2       5.357   3.643   1.211  0.00  0.00    +0.159 HD
ATOM     37 HH12 ARG A   2       4.606   5.170   1.107  0.00  0.00    +0.159 HD
ATOM     38 HH21 ARG A   2       1.437   4.188   0.352  0.00  0.00    +0.159 HD
ATOM     39 HH22 ARG A   2       2.535   5.457   0.653  0.00  0.00    +0.159 HD
ENDBRANCH  32  35
ENDBRANCH  31  32
ENDBRANCH  30  31
ENDBRANCH  29  30
ENDBRANCH  24  29
ENDBRANCH   2  24
TORSDOF 13
