133099
  -OEChem-03292013323D

 25 25  0     1  0  0  0  0  0999 V2000
    0.1977    3.4335   -0.2279 I   0  0  0  0  0  0  0  0  0  0  0  0
    2.4250   -2.3591    0.4538 O   0  0  0  0  0  0  0  0  0  0  0  0
   -1.8448   -1.5748   -1.3112 O   0  0  0  0  0  0  0  0  0  0  0  0
    4.0269   -0.3320   -0.5674 O   0  0  0  0  0  0  0  0  0  0  0  0
   -3.5082   -1.6163    0.2389 O   0  0  0  0  0  0  0  0  0  0  0  0
   -3.5686    1.1500    0.0864 N   0  0  0  0  0  0  0  0  0  0  0  0
   -1.3171    0.6933    0.9391 C   0  0  0  0  0  0  0  0  0  0  0  0
   -2.3090    0.4648   -0.2096 C   0  0  1  0  0  0  0  0  0  0  0  0
    0.1181    0.4597    0.5245 C   0  0  0  0  0  0  0  0  0  0  0  0
    0.6160   -0.8264    0.6743 C   0  0  0  0  0  0  0  0  0  0  0  0
    0.9062    1.4802    0.0165 C   0  0  0  0  0  0  0  0  0  0  0  0
    1.9339   -1.0970    0.3068 C   0  0  0  0  0  0  0  0  0  0  0  0
   -2.6385   -1.0063   -0.3671 C   0  0  0  0  0  0  0  0  0  0  0  0
    2.2243    1.2095   -0.3510 C   0  0  0  0  0  0  0  0  0  0  0  0
    2.7382   -0.0792   -0.2059 C   0  0  0  0  0  0  0  0  0  0  0  0
   -1.5558    0.0183    1.7748 H   0  0  0  0  0  0  0  0  0  0  0  0
   -1.4333    1.6886    1.3816 H   0  0  0  0  0  0  0  0  0  0  0  0
   -1.9366    0.8583   -1.1618 H   0  0  0  0  0  0  0  0  0  0  0  0
   -0.0075   -1.6206    1.0769 H   0  0  0  0  0  0  0  0  0  0  0  0
    2.8598    1.9961   -0.7518 H   0  0  0  0  0  0  0  0  0  0  0  0
   -3.9673    0.7928    0.9538 H   0  0  0  0  0  0  0  0  0  0  0  0
   -4.2489    0.9615   -0.6486 H   0  0  0  0  0  0  0  0  0  0  0  0
    1.7284   -2.9299    0.8214 H   0  0  0  0  0  0  0  0  0  0  0  0
   -2.0486   -2.5262   -1.4356 H   0  0  0  0  0  0  0  0  0  0  0  0
    4.4304    0.4881   -0.8999 H   0  0  0  0  0  0  0  0  0  0  0  0
  1 11  1  0  0  0  0
  2 12  1  0  0  0  0
  2 23  1  0  0  0  0
  3 13  1  0  0  0  0
  3 24  1  0  0  0  0
  4 15  1  0  0  0  0
  4 25  1  0  0  0  0
  5 13  2  0  0  0  0
  6  8  1  0  0  0  0
  6 21  1  0  0  0  0
  6 22  1  0  0  0  0
  7  8  1  0  0  0  0
  7  9  1  0  0  0  0
  7 16  1  0  0  0  0
  7 17  1  0  0  0  0
  8 13  1  0  0  0  0
  8 18  1  0  0  0  0
  9 10  2  0  0  0  0
  9 11  1  0  0  0  0
 10 12  1  0  0  0  0
 10 19  1  0  0  0  0
 11 14  2  0  0  0  0
 12 15  2  0  0  0  0
 14 15  1  0  0  0  0
 14 20  1  0  0  0  0
M  END
> <PUBCHEM_COMPOUND_CID>
133099

> <PUBCHEM_CONFORMER_RMSD>
0.6

> <PUBCHEM_CONFORMER_DIVERSEORDER>
1
5
12
15
4
7
11
6
16
8
2
10
13
14
9
3

> <PUBCHEM_MMFF94_PARTIAL_CHARGES>
22
1 -0.08
10 -0.15
11 0.08
12 0.08
13 0.66
14 -0.15
15 0.08
19 0.15
2 -0.53
20 0.15
21 0.36
22 0.36
23 0.45
24 0.5
25 0.45
3 -0.65
4 -0.53
5 -0.57
6 -0.99
7 0.14
8 0.33
9 -0.14

> <PUBCHEM_EFFECTIVE_ROTOR_COUNT>
3

> <PUBCHEM_PHARMACOPHORE_FEATURES>
9
1 1 hydrophobe
1 2 donor
1 3 acceptor
1 4 donor
1 5 acceptor
1 6 cation
1 6 donor
3 3 5 13 anion
6 9 10 11 12 14 15 rings

> <PUBCHEM_HEAVY_ATOM_COUNT>
15

> <PUBCHEM_ATOM_DEF_STEREO_COUNT>
1

> <PUBCHEM_ATOM_UDEF_STEREO_COUNT>
0

> <PUBCHEM_BOND_DEF_STEREO_COUNT>
0

> <PUBCHEM_BOND_UDEF_STEREO_COUNT>
0

> <PUBCHEM_ISOTOPIC_ATOM_COUNT>
0

> <PUBCHEM_COMPONENT_COUNT>
1

> <PUBCHEM_CACTVS_TAUTO_COUNT>
12

> <PUBCHEM_CONFORMER_ID>
000207EB00000001

> <PUBCHEM_MMFF94_ENERGY>
32.9278

> <PUBCHEM_FEATURE_SELFOVERLAP>
45.73

> <PUBCHEM_SHAPE_FINGERPRINT>
116883 192 17980198586926261220
12400797 292 18125721446159253420
12553582 1 18410289172990426281
13380535 76 17617654801419236360
14128692 85 18272932764542458384
14250199 8 18193832880518203837
15375462 189 18409736148753957611
15490181 8 17688866857908833216
15775835 57 18335144163307937687
16945 1 18193832875911792049
19422 9 17984994940673812491
20645477 70 18125434457104242743
20711985 365 17904759981806198128
21634736 98 17910672395220908750
221490 88 18119256300676841083
2255824 54 18193277622455700404
23402539 116 18408039603066627516
23419403 2 13963178098264354055
23552423 10 18196366138091741997
23557571 272 17913198764305116794
23559900 14 17917990552064316330
23598291 2 18271539692227438213
2748010 2 18340475746688712217
34934 24 18337104575329088856
58051976 378 17907014332714510229
6992083 37 18270697363267824665
7364860 26 18126283279500825145
7832392 63 18410854352369997529
81228 2 18117843196539504376
90525 40 18201721730408072031

> <PUBCHEM_SHAPE_MULTIPOLES>
292.17
5.41
3
0.88
1.23
2.31
0.05
-2.5
0.77
-0.39
0.19
0.15
-0.08
-0.47

> <PUBCHEM_SHAPE_SELFOVERLAP>
587.775

> <PUBCHEM_SHAPE_VOLUME>
174.7

> <PUBCHEM_COORDINATE_TYPE>
2
5
10

$$$$
