REMARK  Name = 133051
REMARK  13 active torsions:
REMARK  status: ('A' for Active; 'I' for Inactive)
REMARK    1  A    between atoms: C_1  and  N_3
REMARK    2  A    between atoms: C_1  and  C_15
REMARK    3  A    between atoms: C_1  and  C_29
REMARK    4  A    between atoms: C_4  and  O_6
REMARK    5  A    between atoms: O_6  and  C_7
REMARK    6  A    between atoms: C_7  and  C_8
REMARK    7  A    between atoms: C_15  and  C_16
REMARK    8  A    between atoms: C_16  and  C_17
REMARK    9  A    between atoms: C_17  and  C_18
REMARK   10  A    between atoms: C_18  and  C_21
REMARK   11  A    between atoms: C_18  and  N_25
REMARK   12  A    between atoms: N_20  and  C_23
REMARK   13  A    between atoms: C_29  and  C_30
REMARK                            x       y       z     vdW  Elec       q    Type
REMARK                         _______ _______ _______ _____ _____    ______ ____
ROOT
ATOM      1  C   UNL     1      -0.441   0.961  -0.262  0.00  0.00    +0.132 C 
ENDROOT
BRANCH   1   3
ATOM      2  O   UNL     1       1.251  -0.409   1.662  0.00  0.00    -0.226 OA
ATOM      3  N   UNL     1       0.972   0.702  -0.356  0.00  0.00    -0.266 N 
ATOM      4  C   UNL     1       1.701   0.039   0.613  0.00  0.00    +0.402 C 
ATOM      5  H   UNL     1       1.448   1.017  -1.159  0.00  0.00    +0.153 HD
BRANCH   4   6
ATOM      6  O   UNL     1       3.010  -0.047   0.232  0.00  0.00    -0.430 OA
BRANCH   6   7
ATOM      7  C   UNL     1       3.885  -0.714   1.148  0.00  0.00    +0.237 C 
BRANCH   7   8
ATOM      8  C   UNL     1       5.275  -0.721   0.582  0.00  0.00    +0.021 C 
ATOM      9  C   UNL     1       5.692  -1.777  -0.230  0.00  0.00    -0.001 C 
ATOM     10  C   UNL     1       6.150   0.327   0.866  0.00  0.00    -0.001 C 
ATOM     11  C   UNL     1       6.983  -1.784  -0.757  0.00  0.00    -0.000 C 
ATOM     12  C   UNL     1       7.441   0.320   0.339  0.00  0.00    -0.000 C 
ATOM     13  C   UNL     1       7.858  -0.735  -0.472  0.00  0.00    -0.000 C 
ENDBRANCH   7   8
ENDBRANCH   6   7
ENDBRANCH   4   6
ENDBRANCH   1   3
BRANCH   1  15
ATOM     14  O   UNL     1      -0.660  -0.972  -1.689  0.00  0.00    -0.294 OA
ATOM     15  C   UNL     1      -1.153  -0.277  -0.800  0.00  0.00    +0.168 C 
BRANCH  15  16
ATOM     16  C   UNL     1      -2.460  -0.647  -0.113  0.00  0.00    +0.065 C 
BRANCH  16  17
ATOM     17  C   UNL     1      -3.135  -1.891  -0.700  0.00  0.00    -0.005 C 
BRANCH  17  18
ATOM     18  C   UNL     1      -4.421  -2.289   0.040  0.00  0.00    +0.013 C 
BRANCH  18  21
ATOM     19  O   UNL     1      -5.921  -0.772  -1.108  0.00  0.00    -0.277 OA
ATOM     20  N   UNL     1      -5.898  -0.766   1.212  0.00  0.00    -0.306 N 
ATOM     21  C   UNL     1      -5.495  -1.208  -0.040  0.00  0.00    +0.202 C 
ATOM     22  H   UNL     1      -5.498  -1.177   2.012  0.00  0.00    +0.149 HD
BRANCH  20  23
ATOM     23  C   UNL     1      -6.883   0.275   1.382  0.00  0.00    +0.089 C 
ATOM     24  C   UNL     1      -6.276   1.650   1.192  0.00  0.00    +0.023 C 
ENDBRANCH  20  23
ENDBRANCH  18  21
BRANCH  18  25
ATOM     25  N   UNL     1      -4.989  -3.481  -0.593  0.00  0.00    +0.387 N 
ATOM     26  H   UNL     1      -4.307  -4.238  -0.565  0.00  0.00    -0.089 HD
ATOM     27  H   UNL     1      -5.226  -3.271  -1.563  0.00  0.00    -0.089 HD
ATOM     28  H   UNL     1      -5.831  -3.763  -0.091  0.00  0.00    -0.089 HD
ENDBRANCH  18  25
ENDBRANCH  17  18
ENDBRANCH  16  17
ENDBRANCH  15  16
ENDBRANCH   1  15
BRANCH   1  29
ATOM     29  C   UNL     1      -0.864   2.197  -1.057  0.00  0.00    +0.027 C 
BRANCH  29  30
ATOM     30  C   UNL     1      -0.262   3.526  -0.558  0.00  0.00    +0.002 C 
ATOM     31  C   UNL     1      -0.685   3.773   0.892  0.00  0.00    +0.000 C 
ATOM     32  C   UNL     1      -0.675   4.716  -1.425  0.00  0.00    +0.000 C 
ENDBRANCH  29  30
ENDBRANCH   1  29
TORSDOF 13
