REMARK  Name = 133065509
REMARK  9 active torsions:
REMARK  status: ('A' for Active; 'I' for Inactive)
REMARK    1  A    between atoms: N_1  and  C_6
REMARK    2  A    between atoms: N_1  and  C_17
REMARK    3  A    between atoms: N_5  and  C_11
REMARK    4  A    between atoms: C_17  and  C_19
REMARK    5  A    between atoms: C_19  and  O_23
REMARK    6  A    between atoms: C_20  and  O_25
REMARK    7  A    between atoms: C_21  and  O_27
REMARK    8  A    between atoms: C_22  and  C_29
REMARK    9  A    between atoms: C_29  and  O_30
REMARK                            x       y       z     vdW  Elec       q    Type
REMARK                         _______ _______ _______ _____ _____    ______ ____
ROOT
ATOM      1  N   UNL     1       0.797   1.325   1.478  0.00  0.00    -0.297 N 
ATOM      2  C   UNL     1       0.930   2.493   2.352  0.00  0.00    +0.113 C 
ENDROOT
BRANCH   1   6
ATOM      3  O   UNL     1      -1.034  -0.862   1.664  0.00  0.00    -0.264 OA
ATOM      4  N   UNL     1      -1.962   1.347  -0.842  0.00  0.00    -0.265 N 
ATOM      5  N   UNL     1      -2.237   0.191  -0.095  0.00  0.00    -0.213 N 
ATOM      6  C   UNL     1      -0.289   1.189   0.689  0.00  0.00    +0.120 A 
ATOM      7  C   UNL     1      -0.820   1.928  -0.297  0.00  0.00    +0.073 A 
ATOM      8  C   UNL     1      -1.198   0.009   0.824  0.00  0.00    +0.293 A 
ATOM      9  C   UNL     1      -0.271   3.207  -0.835  0.00  0.00    +0.053 C 
ATOM     10  C   UNL     1      -2.166   1.306  -2.287  0.00  0.00    +0.152 C 
BRANCH   5  11
ATOM     11  C   UNL     1      -3.505  -0.442  -0.076  0.00  0.00    +0.084 C 
ATOM     12  C   UNL     1      -3.636  -1.722   0.464  0.00  0.00    +0.019 C 
ATOM     13  C   UNL     1      -4.620   0.214  -0.596  0.00  0.00    +0.019 C 
ATOM     14  C   UNL     1      -4.884  -2.346   0.483  0.00  0.00    +0.002 C 
ATOM     15  C   UNL     1      -5.868  -0.410  -0.577  0.00  0.00    +0.002 C 
ATOM     16  C   UNL     1      -5.999  -1.690  -0.038  0.00  0.00    +0.000 C 
ENDBRANCH   5  11
ENDBRANCH   1   6
BRANCH   1  17
ATOM     17  C   UNL     1       1.734   0.252   1.680  0.00  0.00    +0.150 C 
BRANCH  17  19
ATOM     18  O   UNL     1       3.711  -0.802   0.782  0.00  0.00    -0.328 OA
ATOM     19  C   UNL     1       2.826   0.317   0.621  0.00  0.00    +0.230 C 
ATOM     20  C   UNL     1       2.326   0.212  -0.820  0.00  0.00    +0.193 C 
ATOM     21  C   UNL     1       3.542  -0.323  -1.557  0.00  0.00    +0.172 C 
ATOM     22  C   UNL     1       4.303  -1.117  -0.493  0.00  0.00    +0.176 C 
BRANCH  19  23
ATOM     23  O   UNL     1       3.548   1.543   0.759  0.00  0.00    -0.361 OA
ATOM     24  H   UNL     1       4.245   1.586   0.085  0.00  0.00    +0.213 HD
ENDBRANCH  19  23
BRANCH  20  25
ATOM     25  O   UNL     1       1.253  -0.714  -0.944  0.00  0.00    -0.378 OA
ATOM     26  H   UNL     1       0.476  -0.373  -0.474  0.00  0.00    +0.211 HD
ENDBRANCH  20  25
BRANCH  21  27
ATOM     27  O   UNL     1       4.340   0.779  -1.982  0.00  0.00    -0.379 OA
ATOM     28  H   UNL     1       3.860   1.284  -2.657  0.00  0.00    +0.211 HD
ENDBRANCH  21  27
BRANCH  22  29
ATOM     29  C   UNL     1       4.218  -2.623  -0.692  0.00  0.00    +0.169 C 
BRANCH  29  30
ATOM     30  O   UNL     1       4.960  -3.263   0.334  0.00  0.00    -0.379 OA
ATOM     31  H   UNL     1       4.912  -4.224   0.215  0.00  0.00    +0.211 HD
ENDBRANCH  29  30
ENDBRANCH  22  29
ENDBRANCH  17  19
ENDBRANCH   1  17
TORSDOF 9
