REMARK  Name = 133081
REMARK  8 active torsions:
REMARK  status: ('A' for Active; 'I' for Inactive)
REMARK    1  A    between atoms: C_1  and  C_3
REMARK    2  A    between atoms: C_1  and  C_19
REMARK    3  A    between atoms: C_8  and  C_12
REMARK    4  A    between atoms: C_12  and  S_13
REMARK    5  A    between atoms: S_13  and  N_16
REMARK    6  A    between atoms: C_19  and  C_20
REMARK    7  A    between atoms: C_20  and  N_21
REMARK    8  A    between atoms: C_30  and  O_34
REMARK                            x       y       z     vdW  Elec       q    Type
REMARK                         _______ _______ _______ _____ _____    ______ ____
ROOT
ATOM      1  C   UNL     1      -1.820   2.919  -0.158  0.00  0.00    +0.026 C 
ENDROOT
BRANCH   1   3
ATOM      2  N   UNL     1      -5.452   2.372  -0.218  0.00  0.00    -0.312 N 
ATOM      3  C   UNL     1      -3.233   2.421  -0.223  0.00  0.00    -0.006 C 
ATOM      4  C   UNL     1      -3.649   1.074  -0.416  0.00  0.00    +0.010 C 
ATOM      5  C   UNL     1      -5.045   1.071  -0.409  0.00  0.00    +0.048 C 
ATOM      6  C   UNL     1      -4.364   3.195  -0.104  0.00  0.00    +0.058 C 
ATOM      7  C   UNL     1      -2.969  -0.147  -0.597  0.00  0.00    -0.002 C 
ATOM      8  C   UNL     1      -3.709  -1.323  -0.764  0.00  0.00    +0.003 C 
ATOM      9  C   UNL     1      -5.799  -0.097  -0.575  0.00  0.00    +0.014 C 
ATOM     10  C   UNL     1      -5.103  -1.296  -0.753  0.00  0.00    -0.001 C 
ATOM     11  H   UNL     1      -6.390   2.668  -0.170  0.00  0.00    +0.152 HD
BRANCH   8  12
ATOM     12  C   UNL     1      -2.996  -2.620  -0.956  0.00  0.00    +0.195 C 
BRANCH  12  13
ATOM     13  S   UNL     1      -2.728  -3.331   0.636  0.00  0.00    +0.045 S 
ATOM     14  O   UNL     1      -1.825  -2.467   1.380  0.00  0.00    -0.157 OA
ATOM     15  O   UNL     1      -4.025  -3.684   1.192  0.00  0.00    -0.157 OA
BRANCH  13  16
ATOM     16  N   UNL     1      -1.917  -4.777   0.217  0.00  0.00    -0.182 NA
ATOM     17  C   UNL     1      -0.722  -4.703  -0.642  0.00  0.00    +0.110 C 
ATOM     18  H   UNL     1      -2.594  -5.371  -0.263  0.00  0.00    +0.148 HD
ENDBRANCH  13  16
ENDBRANCH  12  13
ENDBRANCH   8  12
ENDBRANCH   1   3
BRANCH   1  19
ATOM     19  C   UNL     1      -1.264   2.908   1.270  0.00  0.00    -0.018 C 
BRANCH  19  20
ATOM     20  C   UNL     1       0.188   3.383   1.301  0.00  0.00    -0.077 C 
BRANCH  20  21
ATOM     21  N   UNL     1       1.029   2.498   0.496  0.00  0.00    +0.389 N 
ATOM     22  N   UNL     1       3.367   0.981  -0.129  0.00  0.00    -0.295 N 
ATOM     23  N   UNL     1       4.868   0.343  -1.833  0.00  0.00    -0.206 NA
ATOM     24  N   UNL     1       6.603  -1.263  -1.369  0.00  0.00    -0.219 NA
ATOM     25  C   UNL     1       2.275   3.176   0.117  0.00  0.00    -0.055 C 
ATOM     26  C   UNL     1       1.336   1.267   1.235  0.00  0.00    -0.055 C 
ATOM     27  C   UNL     1       3.139   2.281  -0.773  0.00  0.00    +0.069 C 
ATOM     28  C   UNL     1       2.170   0.307   0.382  0.00  0.00    +0.069 C 
ATOM     29  C   UNL     1       4.464   0.221  -0.551  0.00  0.00    +0.169 C 
ATOM     30  C   UNL     1       5.071  -0.610   0.368  0.00  0.00    +0.189 C 
ATOM     31  C   UNL     1       6.146  -1.335  -0.101  0.00  0.00    +0.140 C 
ATOM     32  C   UNL     1       5.928  -0.417  -2.169  0.00  0.00    +0.200 C 
ATOM     33  H   UNL     1       0.516   2.255  -0.351  0.00  0.00    -0.080 HD
BRANCH  30  34
ATOM     34  O   UNL     1       4.658  -0.724   1.651  0.00  0.00    -0.467 OA
ATOM     35  C   UNL     1       5.380  -1.625   2.496  0.00  0.00    +0.253 C 
ENDBRANCH  30  34
ENDBRANCH  20  21
ENDBRANCH  19  20
ENDBRANCH   1  19
TORSDOF 8
