133003
  -OEChem-03292013323D

 34 35  0     1  0  0  0  0  0999 V2000
    5.3204    2.3120   -0.6248 Cl  0  0  0  0  0  0  0  0  0  0  0  0
   -3.0813    0.8403    0.7529 S   0  0  0  0  0  0  0  0  0  0  0  0
   -3.8158   -0.2953    1.3045 O   0  0  0  0  0  0  0  0  0  0  0  0
   -3.0465    2.0804    1.5239 O   0  0  0  0  0  0  0  0  0  0  0  0
   -0.8958   -3.1329   -0.1166 O   0  0  0  0  0  0  0  0  0  0  0  0
    4.0515    1.0122    1.3037 O   0  0  0  0  0  0  0  0  0  0  0  0
    2.7284   -0.7027   -0.3049 N   0  0  3  0  0  0  0  0  0  0  0  0
   -3.7036    1.1872   -0.8252 N   0  0  0  0  0  0  0  0  0  0  0  0
   -1.7816   -2.1043    0.1550 N   0  0  0  0  0  0  0  0  0  0  0  0
    0.4045   -2.6743   -0.2418 N   0  0  0  0  0  0  0  0  0  0  0  0
   -1.4433    0.3386    0.4455 C   0  0  0  0  0  0  0  0  0  0  0  0
    1.3810   -0.3976   -0.0672 C   0  0  0  0  0  0  0  0  0  0  0  0
   -1.0434   -0.9884    0.2029 C   0  0  0  0  0  0  0  0  0  0  0  0
    0.3460   -1.3506   -0.0493 C   0  0  0  0  0  0  0  0  0  0  0  0
   -0.3935    1.2748    0.4230 C   0  0  0  0  0  0  0  0  0  0  0  0
    0.9597    0.9220    0.1774 C   0  0  0  0  0  0  0  0  0  0  0  0
    3.6060    0.2618   -0.9476 C   0  0  0  0  0  0  0  0  0  0  0  0
    3.2749   -1.9957    0.0734 C   0  0  0  0  0  0  0  0  0  0  0  0
   -3.0194    2.2424   -1.6150 C   0  0  0  0  0  0  0  0  0  0  0  0
   -4.1077    0.0348   -1.6702 C   0  0  0  0  0  0  0  0  0  0  0  0
    4.2596    1.1352    0.1005 C   0  0  0  0  0  0  0  0  0  0  0  0
   -0.6073    2.3289    0.5960 H   0  0  0  0  0  0  0  0  0  0  0  0
    1.6726    1.7435    0.1874 H   0  0  0  0  0  0  0  0  0  0  0  0
    4.3940   -0.2620   -1.5020 H   0  0  0  0  0  0  0  0  0  0  0  0
    3.0599    0.8839   -1.6666 H   0  0  0  0  0  0  0  0  0  0  0  0
    4.3659   -1.9466    0.1670 H   0  0  0  0  0  0  0  0  0  0  0  0
    3.0484   -2.7506   -0.6862 H   0  0  0  0  0  0  0  0  0  0  0  0
    2.8927   -2.3259    1.0456 H   0  0  0  0  0  0  0  0  0  0  0  0
   -3.6985    2.6175   -2.3873 H   0  0  0  0  0  0  0  0  0  0  0  0
   -2.1198    1.8494   -2.0966 H   0  0  0  0  0  0  0  0  0  0  0  0
   -2.7548    3.0909   -0.9782 H   0  0  0  0  0  0  0  0  0  0  0  0
   -4.7286   -0.6622   -1.1014 H   0  0  0  0  0  0  0  0  0  0  0  0
   -3.2297   -0.4870   -2.0602 H   0  0  0  0  0  0  0  0  0  0  0  0
   -4.7099    0.3889   -2.5130 H   0  0  0  0  0  0  0  0  0  0  0  0
  1 21  1  0  0  0  0
  2  3  2  0  0  0  0
  2  4  2  0  0  0  0
  2  8  1  0  0  0  0
  2 11  1  0  0  0  0
  5  9  1  0  0  0  0
  5 10  1  0  0  0  0
  6 21  2  0  0  0  0
  7 12  1  0  0  0  0
  7 17  1  0  0  0  0
  7 18  1  0  0  0  0
  8 19  1  0  0  0  0
  8 20  1  0  0  0  0
  9 13  2  0  0  0  0
 10 14  2  0  0  0  0
 11 13  1  0  0  0  0
 11 15  2  0  0  0  0
 12 14  1  0  0  0  0
 12 16  2  0  0  0  0
 13 14  1  0  0  0  0
 15 16  1  0  0  0  0
 15 22  1  0  0  0  0
 16 23  1  0  0  0  0
 17 21  1  0  0  0  0
 17 24  1  0  0  0  0
 17 25  1  0  0  0  0
 18 26  1  0  0  0  0
 18 27  1  0  0  0  0
 18 28  1  0  0  0  0
 19 29  1  0  0  0  0
 19 30  1  0  0  0  0
 19 31  1  0  0  0  0
 20 32  1  0  0  0  0
 20 33  1  0  0  0  0
 20 34  1  0  0  0  0
M  END
> <PUBCHEM_COMPOUND_CID>
133003

> <PUBCHEM_CONFORMER_RMSD>
0.8

> <PUBCHEM_CONFORMER_DIVERSEORDER>
1
45
29
80
63
47
71
79
51
6
56
87
36
17
54
46
48
88
9
2
73
84
62
13
10
70
86
16
21
27
32
81
20
43
30
89
37
78
33
58
64
14
55
3
72
75
4
7
40
67
42
44
18
22
53
31
26
60
25
76
23
24
35
38
61
59
41
82
69
77
66
34
49
68
39
11
28
65
85
15
57
5
12
50
19
83
52
8
74

> <PUBCHEM_MMFF94_PARTIAL_CHARGES>
23
1 -0.21
10 -0.41
11 -0.01
12 0.1
13 0.29
14 0.29
15 -0.15
16 -0.15
17 0.43
18 0.37
19 0.36
2 1.45
20 0.36
21 0.72
22 0.15
23 0.15
3 -0.65
4 -0.65
5 0.24
6 -0.57
7 -0.84
8 -0.85
9 -0.41

> <PUBCHEM_EFFECTIVE_ROTOR_COUNT>
5

> <PUBCHEM_PHARMACOPHORE_FEATURES>
7
1 10 acceptor
1 3 acceptor
1 4 acceptor
1 7 cation
1 9 acceptor
5 5 9 10 13 14 rings
6 11 12 13 14 15 16 rings

> <PUBCHEM_HEAVY_ATOM_COUNT>
21

> <PUBCHEM_ATOM_DEF_STEREO_COUNT>
0

> <PUBCHEM_ATOM_UDEF_STEREO_COUNT>
0

> <PUBCHEM_BOND_DEF_STEREO_COUNT>
0

> <PUBCHEM_BOND_UDEF_STEREO_COUNT>
0

> <PUBCHEM_ISOTOPIC_ATOM_COUNT>
0

> <PUBCHEM_COMPONENT_COUNT>
1

> <PUBCHEM_CACTVS_TAUTO_COUNT>
1

> <PUBCHEM_CONFORMER_ID>
0002078B00000001

> <PUBCHEM_MMFF94_ENERGY>
55.4637

> <PUBCHEM_FEATURE_SELFOVERLAP>
35.716

> <PUBCHEM_SHAPE_FINGERPRINT>
10498660 4 18339930423951175116
11543360 7 15985098622062936808
11725454 13 17313925442979099789
121448 382 18342161285445487839
12173636 292 18271536328993478889
12403259 415 18262245417073542669
12403260 363 18267292132700855904
12403814 3 17968381250831339997
12670546 56 16588013602582097856
12892183 10 17022904549202338536
12969540 114 18410004429549034476
13140716 1 18338244760471465426
13583140 156 17095518526072965808
13675066 3 17749113283545507938
14251764 38 18116141169788284524
14289901 80 16660944204451667009
14790565 3 18270699570549069377
16945 1 18197500627690642107
1741750 31 18341898510793450106
18186145 218 18340495456472793396
204376 136 18410295804425225577
20602899 9 15482393144316182006
20645477 56 18338806718408279544
23227448 37 18264210390682168036
23402539 116 17845369943047103210
23493267 7 17532097090034733473
23557571 272 17986127416122727542
23559900 14 18272661138959726022
2748010 2 18339376200722504726
350125 39 18194691590419813409
5104073 3 18263094244355541001
633830 44 17986685778481461925

> <PUBCHEM_SHAPE_MULTIPOLES>
394.49
9.15
2.86
1.24
6.04
1.31
0.1
-6.04
1.19
0.36
0.35
-1.2
-0.63
0.13

> <PUBCHEM_SHAPE_SELFOVERLAP>
799.989

> <PUBCHEM_SHAPE_VOLUME>
232.4

> <PUBCHEM_COORDINATE_TYPE>
2
5
10

$$$$
