133000
  -OEChem-03292013323D

 58 61  0     0  0  0  0  0  0999 V2000
    0.7073   -3.2153   -0.5614 F   0  0  0  0  0  0  0  0  0  0  0  0
   -2.2372    0.6176   -3.2832 O   0  0  0  0  0  0  0  0  0  0  0  0
   -5.8419    1.7852    1.0437 O   0  0  0  0  0  0  0  0  0  0  0  0
   -5.0934    3.5128   -0.3034 O   0  0  0  0  0  0  0  0  0  0  0  0
   -2.2177   -0.5037   -1.2244 N   0  0  0  0  0  0  0  0  0  0  0  0
    3.3342    0.0109    2.5639 N   0  0  0  0  0  0  0  0  0  0  0  0
    2.8479    2.0707    1.7587 N   0  0  0  0  0  0  0  0  0  0  0  0
    2.4105    0.6717    3.2761 N   0  0  0  0  0  0  0  0  0  0  0  0
    2.0915    1.8966    2.8355 N   0  0  0  0  0  0  0  0  0  0  0  0
   -2.7121   -0.5753    0.0846 C   0  0  0  0  0  0  0  0  0  0  0  0
   -2.2350   -1.6687    0.9997 C   0  0  0  0  0  0  0  0  0  0  0  0
   -3.1157   -2.9087    0.8942 C   0  0  0  0  0  0  0  0  0  0  0  0
   -1.2446   -1.4993   -1.6697 C   0  0  0  0  0  0  0  0  0  0  0  0
    0.1673   -1.0630   -1.4042 C   0  0  0  0  0  0  0  0  0  0  0  0
   -2.6000   -4.0218    1.8069 C   0  0  0  0  0  0  0  0  0  0  0  0
   -3.6077    0.3293    0.5170 C   0  0  0  0  0  0  0  0  0  0  0  0
   -2.6293    0.4966   -2.1225 C   0  0  0  0  0  0  0  0  0  0  0  0
   -4.0683    1.3763   -0.3523 C   0  0  0  0  0  0  0  0  0  0  0  0
   -3.6237    1.4828   -1.6082 C   0  0  0  0  0  0  0  0  0  0  0  0
    1.0759   -1.9608   -0.8564 C   0  0  0  0  0  0  0  0  0  0  0  0
    0.5508    0.2374   -1.7103 C   0  0  0  0  0  0  0  0  0  0  0  0
    2.7798   -0.2490   -0.9153 C   0  0  0  0  0  0  0  0  0  0  0  0
   -3.4464   -5.2790    1.6856 C   0  0  0  0  0  0  0  0  0  0  0  0
    2.3869   -1.5524   -0.6112 C   0  0  0  0  0  0  0  0  0  0  0  0
    1.8618    0.6460   -1.4648 C   0  0  0  0  0  0  0  0  0  0  0  0
    4.1394    0.1752   -0.6609 C   0  0  0  0  0  0  0  0  0  0  0  0
   -5.0441    2.3652    0.1113 C   0  0  0  0  0  0  0  0  0  0  0  0
    4.5195    0.7398    0.5596 C   0  0  0  0  0  0  0  0  0  0  0  0
    5.0895    0.0098   -1.6719 C   0  0  0  0  0  0  0  0  0  0  0  0
    5.8406    1.1365    0.7672 C   0  0  0  0  0  0  0  0  0  0  0  0
    6.4105    0.4065   -1.4642 C   0  0  0  0  0  0  0  0  0  0  0  0
    3.5732    0.9284    1.6290 C   0  0  0  0  0  0  0  0  0  0  0  0
    6.7860    0.9699   -0.2448 C   0  0  0  0  0  0  0  0  0  0  0  0
   -6.8553    2.6317    1.5961 C   0  0  0  0  0  0  0  0  0  0  0  0
   -1.1792   -1.9102    0.8618 H   0  0  0  0  0  0  0  0  0  0  0  0
   -2.2824   -1.3066    2.0371 H   0  0  0  0  0  0  0  0  0  0  0  0
   -4.1460   -2.6588    1.1788 H   0  0  0  0  0  0  0  0  0  0  0  0
   -3.1593   -3.2757   -0.1374 H   0  0  0  0  0  0  0  0  0  0  0  0
   -1.4662   -2.4897   -1.2662 H   0  0  0  0  0  0  0  0  0  0  0  0
   -1.3434   -1.6172   -2.7574 H   0  0  0  0  0  0  0  0  0  0  0  0
   -2.6048   -3.6823    2.8493 H   0  0  0  0  0  0  0  0  0  0  0  0
   -1.5625   -4.2643    1.5485 H   0  0  0  0  0  0  0  0  0  0  0  0
   -3.9805    0.2806    1.5351 H   0  0  0  0  0  0  0  0  0  0  0  0
   -3.9516    2.2568   -2.2937 H   0  0  0  0  0  0  0  0  0  0  0  0
   -0.1163    0.9682   -2.1460 H   0  0  0  0  0  0  0  0  0  0  0  0
   -3.0608   -6.0608    2.3474 H   0  0  0  0  0  0  0  0  0  0  0  0
   -3.4325   -5.6641    0.6610 H   0  0  0  0  0  0  0  0  0  0  0  0
   -4.4862   -5.0801    1.9642 H   0  0  0  0  0  0  0  0  0  0  0  0
    3.0894   -2.2627   -0.1822 H   0  0  0  0  0  0  0  0  0  0  0  0
    2.1526    1.6651   -1.7090 H   0  0  0  0  0  0  0  0  0  0  0  0
    4.8169   -0.4273   -2.6299 H   0  0  0  0  0  0  0  0  0  0  0  0
    6.1516    1.5778    1.7114 H   0  0  0  0  0  0  0  0  0  0  0  0
    7.1469    0.2768   -2.2520 H   0  0  0  0  0  0  0  0  0  0  0  0
    7.8146    1.2788   -0.0833 H   0  0  0  0  0  0  0  0  0  0  0  0
   -6.3988    3.4860    2.1053 H   0  0  0  0  0  0  0  0  0  0  0  0
   -7.5368    2.9694    0.8095 H   0  0  0  0  0  0  0  0  0  0  0  0
   -7.4232    2.0498    2.3269 H   0  0  0  0  0  0  0  0  0  0  0  0
    1.9774    0.2680    4.0997 H   0  0  0  0  0  0  0  0  0  0  0  0
  1 20  1  0  0  0  0
  2 17  2  0  0  0  0
  3 27  1  0  0  0  0
  3 34  1  0  0  0  0
  4 27  2  0  0  0  0
  5 10  1  0  0  0  0
  5 13  1  0  0  0  0
  5 17  1  0  0  0  0
  6  8  1  0  0  0  0
  6 32  2  0  0  0  0
  7  9  2  0  0  0  0
  7 32  1  0  0  0  0
  8  9  1  0  0  0  0
  8 58  1  0  0  0  0
 10 11  1  0  0  0  0
 10 16  2  0  0  0  0
 11 12  1  0  0  0  0
 11 35  1  0  0  0  0
 11 36  1  0  0  0  0
 12 15  1  0  0  0  0
 12 37  1  0  0  0  0
 12 38  1  0  0  0  0
 13 14  1  0  0  0  0
 13 39  1  0  0  0  0
 13 40  1  0  0  0  0
 14 20  2  0  0  0  0
 14 21  1  0  0  0  0
 15 23  1  0  0  0  0
 15 41  1  0  0  0  0
 15 42  1  0  0  0  0
 16 18  1  0  0  0  0
 16 43  1  0  0  0  0
 17 19  1  0  0  0  0
 18 19  2  0  0  0  0
 18 27  1  0  0  0  0
 19 44  1  0  0  0  0
 20 24  1  0  0  0  0
 21 25  2  0  0  0  0
 21 45  1  0  0  0  0
 22 24  2  0  0  0  0
 22 25  1  0  0  0  0
 22 26  1  0  0  0  0
 23 46  1  0  0  0  0
 23 47  1  0  0  0  0
 23 48  1  0  0  0  0
 24 49  1  0  0  0  0
 25 50  1  0  0  0  0
 26 28  1  0  0  0  0
 26 29  2  0  0  0  0
 28 30  2  0  0  0  0
 28 32  1  0  0  0  0
 29 31  1  0  0  0  0
 29 51  1  0  0  0  0
 30 33  1  0  0  0  0
 30 52  1  0  0  0  0
 31 33  2  0  0  0  0
 31 53  1  0  0  0  0
 33 54  1  0  0  0  0
 34 55  1  0  0  0  0
 34 56  1  0  0  0  0
 34 57  1  0  0  0  0
M  END
> <PUBCHEM_COMPOUND_CID>
133000

> <PUBCHEM_CONFORMER_RMSD>
1

> <PUBCHEM_CONFORMER_DIVERSEORDER>
1
78
74
10
110
102
23
118
58
104
65
6
105
109
94
114
86
24
67
60
22
35
79
100
2
20
33
32
18
77
91
106
93
40
113
88
39
41
76
62
61
92
84
101
71
87
85
16
103
97
89
96
51
43
117
26
116
47
68
28
57
81
7
95
45
46
38
27
19
115
66
48
30
5
49
3
54
75
44
15
42
99
37
12
72
9
13
107
111
56
52
14
112
64
73
82
108
11
55
90
59
98
29
53
4
50
8
69
25
21
36
31
34
63
70
17
83
80

> <PUBCHEM_MMFF94_PARTIAL_CHARGES>
39
1 -0.19
10 -0.03
11 0.14
13 0.44
14 -0.14
16 -0.15
17 0.62
18 0.01
19 -0.14
2 -0.57
20 0.19
21 -0.15
24 -0.15
25 -0.15
27 0.71
28 0.05
29 -0.15
3 -0.43
30 -0.15
31 -0.15
32 0.46
33 -0.15
34 0.28
4 -0.57
43 0.15
44 0.15
45 0.15
49 0.15
5 -0.47
50 0.15
51 0.15
52 0.15
53 0.15
54 0.15
58 0.27
6 -0.71
7 -0.23
8 0.57
9 -0.42

> <PUBCHEM_EFFECTIVE_ROTOR_COUNT>
9

> <PUBCHEM_PHARMACOPHORE_FEATURES>
8
1 2 acceptor
1 23 hydrophobe
1 4 acceptor
3 6 7 32 cation
5 6 7 8 9 32 rings
6 14 20 21 22 24 25 rings
6 26 28 29 30 31 33 rings
6 5 10 16 17 18 19 rings

> <PUBCHEM_HEAVY_ATOM_COUNT>
34

> <PUBCHEM_ATOM_DEF_STEREO_COUNT>
0

> <PUBCHEM_ATOM_UDEF_STEREO_COUNT>
0

> <PUBCHEM_BOND_DEF_STEREO_COUNT>
0

> <PUBCHEM_BOND_UDEF_STEREO_COUNT>
0

> <PUBCHEM_ISOTOPIC_ATOM_COUNT>
0

> <PUBCHEM_COMPONENT_COUNT>
1

> <PUBCHEM_CACTVS_TAUTO_COUNT>
2

> <PUBCHEM_CONFORMER_ID>
0002078800000001

> <PUBCHEM_MMFF94_ENERGY>
90.0693

> <PUBCHEM_FEATURE_SELFOVERLAP>
40.597

> <PUBCHEM_SHAPE_FINGERPRINT>
10074138 170 18188218701660116371
11070050 100 18263924341696934987
11545043 162 18340488988563476714
11578080 2 18337401460654057339
12596602 18 16805891688539427229
12633257 1 17749391481325178005
13402501 40 17775003457822530616
13583140 156 17988369268418187054
13726171 33 18264501744279357664
13944108 23 17271174107245887593
14068700 675 17681279076890064163
14347329 18 18341607110305931096
14705955 166 18339648944468280643
15183329 4 15554452894923655396
16067690 210 18334562543333219368
21033648 29 18131062766747664456
21133410 62 17845386461987378729
21623969 137 13912326776470296888
22122407 14 17274553048321947929
22393880 68 17203029850999646597
24893992 56 17988641870419173249
3388396 114 13253932719609430218
508180 173 16773518746296997305
508706 21 18059560442797558300
57527295 17 17774707754399494550
6009941 240 18412833486743610818
6086070 43 17346307203226589310
7288768 16 18338238163733462351

> <PUBCHEM_SHAPE_MULTIPOLES>
649.92
14.94
4.11
2.8
5.39
5.64
-0.93
-11
-3.55
-9.7
-2.35
0.9
-0.68
1.69

> <PUBCHEM_SHAPE_SELFOVERLAP>
1414.714

> <PUBCHEM_SHAPE_VOLUME>
356.9

> <PUBCHEM_COORDINATE_TYPE>
2
5
10

$$$$
