133064
  -OEChem-03292013323D

 63 64  0     1  0  0  0  0  0999 V2000
   -0.8544    0.4933    1.7582 O   0  0  0  0  0  0  0  0  0  0  0  0
   -0.2050   -1.2629   -1.3001 O   0  0  0  0  0  0  0  0  0  0  0  0
    3.4610   -3.5950    0.3012 O   0  0  0  0  0  0  0  0  0  0  0  0
    4.7087   -2.8571   -1.4448 O   0  0  0  0  0  0  0  0  0  0  0  0
   -1.8585   -1.3580    0.7986 N   0  0  0  0  0  0  0  0  0  0  0  0
    1.5580   -2.0201    0.0180 N   0  0  0  0  0  0  0  0  0  0  0  0
   -3.4875    0.8185    2.7887 N   0  0  0  0  0  0  0  0  0  0  0  0
    3.1132    2.3088    0.6485 N   0  0  0  0  0  0  0  0  0  0  0  0
    4.5531    4.1884    1.0534 N   0  0  0  0  0  0  0  0  0  0  0  0
    2.3469    4.4947    0.5696 N   0  0  0  0  0  0  0  0  0  0  0  0
   -0.6848   -2.2207    0.8332 C   0  0  1  0  0  0  0  0  0  0  0  0
   -1.2274   -3.6230    0.5824 C   0  0  0  0  0  0  0  0  0  0  0  0
   -2.4689   -3.3757   -0.2709 C   0  0  0  0  0  0  0  0  0  0  0  0
   -3.0245   -2.0750    0.2889 C   0  0  0  0  0  0  0  0  0  0  0  0
   -1.8600   -0.0808    1.3374 C   0  0  0  0  0  0  0  0  0  0  0  0
    0.2267   -1.7712   -0.2687 C   0  0  0  0  0  0  0  0  0  0  0  0
   -3.2016    0.6065    1.3757 C   0  0  2  0  0  0  0  0  0  0  0  0
   -3.1643    1.9326    0.6163 C   0  0  0  0  0  0  0  0  0  0  0  0
    2.6353   -1.7017   -0.8908 C   0  0  1  0  0  0  0  0  0  0  0  0
    3.1799   -0.2861   -0.6805 C   0  0  0  0  0  0  0  0  0  0  0  0
   -2.8043    1.7603   -0.8410 C   0  0  0  0  0  0  0  0  0  0  0  0
    3.7604   -0.0365    0.7166 C   0  0  0  0  0  0  0  0  0  0  0  0
    3.7101   -2.7620   -0.7429 C   0  0  0  0  0  0  0  0  0  0  0  0
   -3.9837   -0.4026    3.4081 C   0  0  0  0  0  0  0  0  0  0  0  0
    4.2425    1.4026    0.8641 C   0  0  0  0  0  0  0  0  0  0  0  0
   -1.4681    1.8045   -1.2391 C   0  0  0  0  0  0  0  0  0  0  0  0
   -3.8078    1.5565   -1.7882 C   0  0  0  0  0  0  0  0  0  0  0  0
   -1.1355    1.6452   -2.5843 C   0  0  0  0  0  0  0  0  0  0  0  0
   -3.4751    1.3971   -3.1334 C   0  0  0  0  0  0  0  0  0  0  0  0
   -2.1389    1.4414   -3.5314 C   0  0  0  0  0  0  0  0  0  0  0  0
    3.3546    3.5781    0.7573 C   0  0  0  0  0  0  0  0  0  0  0  0
   -0.1895   -2.1320    1.8063 H   0  0  0  0  0  0  0  0  0  0  0  0
   -0.5139   -4.2913    0.0909 H   0  0  0  0  0  0  0  0  0  0  0  0
   -1.5279   -4.0798    1.5333 H   0  0  0  0  0  0  0  0  0  0  0  0
   -3.1901   -4.1963   -0.2203 H   0  0  0  0  0  0  0  0  0  0  0  0
   -2.1809   -3.2432   -1.3205 H   0  0  0  0  0  0  0  0  0  0  0  0
   -3.5375   -1.4935   -0.4820 H   0  0  0  0  0  0  0  0  0  0  0  0
   -3.7070   -2.2685    1.1223 H   0  0  0  0  0  0  0  0  0  0  0  0
   -4.0094    0.0218    0.9313 H   0  0  0  0  0  0  0  0  0  0  0  0
    1.7985   -2.4350    0.9140 H   0  0  0  0  0  0  0  0  0  0  0  0
   -4.1374    2.4374    0.6881 H   0  0  0  0  0  0  0  0  0  0  0  0
   -2.4447    2.6252    1.0753 H   0  0  0  0  0  0  0  0  0  0  0  0
    2.2443   -1.7908   -1.9117 H   0  0  0  0  0  0  0  0  0  0  0  0
   -4.2008    1.5411    2.8874 H   0  0  0  0  0  0  0  0  0  0  0  0
    3.9596   -0.0883   -1.4271 H   0  0  0  0  0  0  0  0  0  0  0  0
    2.3664    0.4226   -0.8783 H   0  0  0  0  0  0  0  0  0  0  0  0
    4.6002   -0.7145    0.9054 H   0  0  0  0  0  0  0  0  0  0  0  0
    2.9985   -0.2396    1.4786 H   0  0  0  0  0  0  0  0  0  0  0  0
   -4.2256   -0.1975    4.4561 H   0  0  0  0  0  0  0  0  0  0  0  0
   -4.8983   -0.7630    2.9256 H   0  0  0  0  0  0  0  0  0  0  0  0
   -3.2342   -1.1999    3.4074 H   0  0  0  0  0  0  0  0  0  0  0  0
    4.6518    1.5320    1.8732 H   0  0  0  0  0  0  0  0  0  0  0  0
    5.0384    1.5962    0.1348 H   0  0  0  0  0  0  0  0  0  0  0  0
   -0.6740    1.9736   -0.5174 H   0  0  0  0  0  0  0  0  0  0  0  0
   -4.8520    1.5171   -1.4897 H   0  0  0  0  0  0  0  0  0  0  0  0
   -0.0951    1.6811   -2.8940 H   0  0  0  0  0  0  0  0  0  0  0  0
   -4.2563    1.2374   -3.8708 H   0  0  0  0  0  0  0  0  0  0  0  0
    4.1655   -4.2694    0.4068 H   0  0  0  0  0  0  0  0  0  0  0  0
   -1.8798    1.3171   -4.5788 H   0  0  0  0  0  0  0  0  0  0  0  0
    4.6245    5.1985    1.1122 H   0  0  0  0  0  0  0  0  0  0  0  0
    5.4021    3.6605    1.2210 H   0  0  0  0  0  0  0  0  0  0  0  0
    2.5148    5.4916    0.6494 H   0  0  0  0  0  0  0  0  0  0  0  0
    1.4040    4.1970    0.3436 H   0  0  0  0  0  0  0  0  0  0  0  0
  1 15  2  0  0  0  0
  2 16  2  0  0  0  0
  3 23  1  0  0  0  0
  3 58  1  0  0  0  0
  4 23  2  0  0  0  0
  5 11  1  0  0  0  0
  5 14  1  0  0  0  0
  5 15  1  0  0  0  0
  6 16  1  0  0  0  0
  6 19  1  0  0  0  0
  6 40  1  0  0  0  0
  7 17  1  0  0  0  0
  7 24  1  0  0  0  0
  7 44  1  0  0  0  0
  8 25  1  0  0  0  0
  8 31  2  0  0  0  0
  9 31  1  0  0  0  0
  9 60  1  0  0  0  0
  9 61  1  0  0  0  0
 10 31  1  0  0  0  0
 10 62  1  0  0  0  0
 10 63  1  0  0  0  0
 11 12  1  0  0  0  0
 11 16  1  0  0  0  0
 11 32  1  0  0  0  0
 12 13  1  0  0  0  0
 12 33  1  0  0  0  0
 12 34  1  0  0  0  0
 13 14  1  0  0  0  0
 13 35  1  0  0  0  0
 13 36  1  0  0  0  0
 14 37  1  0  0  0  0
 14 38  1  0  0  0  0
 15 17  1  0  0  0  0
 17 18  1  0  0  0  0
 17 39  1  0  0  0  0
 18 21  1  0  0  0  0
 18 41  1  0  0  0  0
 18 42  1  0  0  0  0
 19 20  1  0  0  0  0
 19 23  1  0  0  0  0
 19 43  1  0  0  0  0
 20 22  1  0  0  0  0
 20 45  1  0  0  0  0
 20 46  1  0  0  0  0
 21 26  2  0  0  0  0
 21 27  1  0  0  0  0
 22 25  1  0  0  0  0
 22 47  1  0  0  0  0
 22 48  1  0  0  0  0
 24 49  1  0  0  0  0
 24 50  1  0  0  0  0
 24 51  1  0  0  0  0
 25 52  1  0  0  0  0
 25 53  1  0  0  0  0
 26 28  1  0  0  0  0
 26 54  1  0  0  0  0
 27 29  2  0  0  0  0
 27 55  1  0  0  0  0
 28 30  2  0  0  0  0
 28 56  1  0  0  0  0
 29 30  1  0  0  0  0
 29 57  1  0  0  0  0
 30 59  1  0  0  0  0
M  END
> <PUBCHEM_COMPOUND_CID>
133064

> <PUBCHEM_CONFORMER_RMSD>
1.2

> <PUBCHEM_CONFORMER_DIVERSEORDER>
1
4
19
45
29
44
31
47
54
12
10
22
40
55
52
37
56
27
59
3
17
43
25
21
38
28
50
48
13
23
20
39
36
34
53
49
35
15
32
8
11
9
42
24
41
7
2
58
18
33
30
46
14
5
16
6
51
26
57

> <PUBCHEM_MMFF94_PARTIAL_CHARGES>
39
1 -0.57
10 -0.85
11 0.36
14 0.3
15 0.57
16 0.57
17 0.33
18 0.14
19 0.36
2 -0.57
21 -0.14
23 0.66
24 0.27
25 0.25
26 -0.15
27 -0.15
28 -0.15
29 -0.15
3 -0.65
30 -0.15
31 0.55
4 -0.57
40 0.37
44 0.36
5 -0.66
54 0.15
55 0.15
56 0.15
57 0.15
58 0.5
59 0.15
6 -0.73
60 0.4
61 0.4
62 0.4
63 0.4
7 -0.9
8 -0.7
9 -0.85

> <PUBCHEM_EFFECTIVE_ROTOR_COUNT>
14

> <PUBCHEM_PHARMACOPHORE_FEATURES>
13
1 1 acceptor
1 10 donor
1 2 acceptor
1 3 acceptor
1 4 acceptor
1 6 donor
1 7 cation
1 7 donor
1 9 donor
3 3 4 23 anion
4 8 9 10 31 cation
5 5 11 12 13 14 rings
6 21 26 27 28 29 30 rings

> <PUBCHEM_HEAVY_ATOM_COUNT>
31

> <PUBCHEM_ATOM_DEF_STEREO_COUNT>
3

> <PUBCHEM_ATOM_UDEF_STEREO_COUNT>
0

> <PUBCHEM_BOND_DEF_STEREO_COUNT>
0

> <PUBCHEM_BOND_UDEF_STEREO_COUNT>
0

> <PUBCHEM_ISOTOPIC_ATOM_COUNT>
0

> <PUBCHEM_COMPONENT_COUNT>
1

> <PUBCHEM_CACTVS_TAUTO_COUNT>
4

> <PUBCHEM_CONFORMER_ID>
000207C800000001

> <PUBCHEM_MMFF94_ENERGY>
71.5038

> <PUBCHEM_FEATURE_SELFOVERLAP>
66.086

> <PUBCHEM_SHAPE_FINGERPRINT>
10670039 82 17831311858511979972
11578080 2 18408603677536712989
11582403 64 17171486963159727127
11595378 159 17167872962712476922
11725454 13 17532634747047087071
12156800 1 16894202457058839135
12422481 6 17968109667860904505
13583140 156 17895752894104758043
14289585 56 17340695098235962062
14840074 17 17103131737889286148
15324884 4 18041001713276541077
15840311 113 18269856314978416835
19309040 13 17345775064846511688
20771845 171 14296230495546853542
21033648 29 18115594729493164318
238 59 18195781038638826917
469060 322 17680705122918551173
5081480 168 17916320376648100268
5252454 2 18265075642013868780
59554788 62 18189905403445654435
6086070 43 18264470816198565058

> <PUBCHEM_SHAPE_MULTIPOLES>
584.6
9
5.39
2.96
7.59
0.71
-0.53
2.71
1.33
5.25
0.19
-4.32
1.67
4.32

> <PUBCHEM_SHAPE_SELFOVERLAP>
1202.473

> <PUBCHEM_SHAPE_VOLUME>
333.1

> <PUBCHEM_COORDINATE_TYPE>
2
5
10

$$$$
