REMARK  Name = 133076
REMARK  10 active torsions:
REMARK  status: ('A' for Active; 'I' for Inactive)
REMARK    1  A    between atoms: C_1  and  C_3
REMARK    2  A    between atoms: C_1  and  C_17
REMARK    3  A    between atoms: N_2  and  C_9
REMARK    4  A    between atoms: C_9  and  C_10
REMARK    5  A    between atoms: C_10  and  N_11
REMARK    6  A    between atoms: N_11  and  S_13
REMARK    7  A    between atoms: C_17  and  C_19
REMARK    8  A    between atoms: C_19  and  C_21
REMARK    9  A    between atoms: C_22  and  O_30
REMARK   10  A    between atoms: C_26  and  N_27
REMARK                            x       y       z     vdW  Elec       q    Type
REMARK                         _______ _______ _______ _____ _____    ______ ____
ROOT
ATOM      1  C   UNL     1       1.161  -3.114   0.426  0.00  0.00    +0.008 C 
ENDROOT
BRANCH   1   3
ATOM      2  N   UNL     1      -2.197  -0.413   0.729  0.00  0.00    +0.388 N 
ATOM      3  C   UNL     1       0.229  -1.944   0.122  0.00  0.00    -0.004 C 
ATOM      4  C   UNL     1      -1.172  -2.439  -0.255  0.00  0.00    -0.023 C 
ATOM      5  C   UNL     1       0.136  -0.989   1.317  0.00  0.00    -0.023 C 
ATOM      6  C   UNL     1      -2.137  -1.270  -0.463  0.00  0.00    -0.077 C 
ATOM      7  C   UNL     1      -0.873   0.132   1.057  0.00  0.00    -0.077 C 
ATOM      8  H   UNL     1      -2.504  -0.988   1.513  0.00  0.00    -0.080 HD
BRANCH   2   9
ATOM      9  C   UNL     1      -3.161   0.669   0.533  0.00  0.00    -0.058 C 
BRANCH   9  10
ATOM     10  C   UNL     1      -4.582   0.138   0.654  0.00  0.00    +0.068 C 
BRANCH  10  11
ATOM     11  N   UNL     1      -5.539   1.248   0.450  0.00  0.00    -0.185 NA
ATOM     12  H   UNL     1      -5.683   1.690   1.357  0.00  0.00    +0.148 HD
BRANCH  11  13
ATOM     13  S   UNL     1      -7.082   0.903  -0.188  0.00  0.00    +0.043 S 
ATOM     14  O   UNL     1      -6.951   0.307  -1.503  0.00  0.00    -0.157 OA
ATOM     15  O   UNL     1      -7.930   2.061   0.020  0.00  0.00    -0.157 OA
ATOM     16  C   UNL     1      -7.626  -0.362   0.936  0.00  0.00    +0.196 C 
ENDBRANCH  11  13
ENDBRANCH  10  11
ENDBRANCH   9  10
ENDBRANCH   2   9
ENDBRANCH   1   3
BRANCH   1  17
ATOM     17  C   UNL     1       2.583  -2.633   0.702  0.00  0.00    +0.069 C 
BRANCH  17  19
ATOM     18  O   UNL     1       3.285  -2.371  -1.589  0.00  0.00    -0.291 OA
ATOM     19  C   UNL     1       3.162  -1.864  -0.476  0.00  0.00    +0.176 C 
BRANCH  19  21
ATOM     20 CL   UNL     1       6.241   1.435   2.053  0.00  0.00    -0.081 Cl
ATOM     21  C   UNL     1       3.595  -0.451  -0.267  0.00  0.00    +0.070 C 
ATOM     22  C   UNL     1       3.016   0.589  -0.995  0.00  0.00    +0.143 C 
ATOM     23  C   UNL     1       4.591  -0.176   0.671  0.00  0.00    +0.019 C 
ATOM     24  C   UNL     1       3.433   1.903  -0.785  0.00  0.00    +0.052 C 
ATOM     25  C   UNL     1       5.007   1.138   0.881  0.00  0.00    +0.071 C 
ATOM     26  C   UNL     1       4.429   2.178   0.153  0.00  0.00    +0.055 C 
BRANCH  26  27
ATOM     27  N   UNL     1       4.830   3.520   0.344  0.00  0.00    -0.356 N 
ATOM     28  H   UNL     1       4.408   4.239  -0.180  0.00  0.00    +0.142 HD
ATOM     29  H   UNL     1       5.530   3.735   1.001  0.00  0.00    +0.142 HD
ENDBRANCH  26  27
BRANCH  22  30
ATOM     30  O   UNL     1       2.043   0.341  -1.915  0.00  0.00    -0.471 OA
ATOM     31  C   UNL     1       1.508   1.465  -2.612  0.00  0.00    +0.252 C 
ENDBRANCH  22  30
ENDBRANCH  19  21
ENDBRANCH  17  19
ENDBRANCH   1  17
TORSDOF 10
