REMARK  Name = 133003
REMARK  5 active torsions:
REMARK  status: ('A' for Active; 'I' for Inactive)
REMARK    1  A    between atoms: C_4  and  S_10
REMARK    2  A    between atoms: C_5  and  N_16
REMARK    3  A    between atoms: S_10  and  N_13
REMARK    4  A    between atoms: N_16  and  C_18
REMARK    5  A    between atoms: C_18  and  C_21
REMARK                            x       y       z     vdW  Elec       q    Type
REMARK                         _______ _______ _______ _____ _____    ______ ____
ROOT
ATOM      1  O   UNL     1      -0.896  -3.133  -0.117  0.00  0.00    -0.241 OA
ATOM      2  N   UNL     1      -1.782  -2.104   0.155  0.00  0.00    -0.047 NA
ATOM      3  N   UNL     1       0.405  -2.674  -0.242  0.00  0.00    -0.047 NA
ATOM      4  C   UNL     1      -1.443   0.339   0.446  0.00  0.00    +0.145 C 
ATOM      5  C   UNL     1       1.381  -0.398  -0.067  0.00  0.00    +0.071 C 
ATOM      6  C   UNL     1      -1.043  -0.988   0.203  0.00  0.00    +0.163 A 
ATOM      7  C   UNL     1       0.346  -1.351  -0.049  0.00  0.00    +0.158 A 
ATOM      8  C   UNL     1      -0.394   1.275   0.423  0.00  0.00    +0.023 C 
ATOM      9  C   UNL     1       0.960   0.922   0.177  0.00  0.00    +0.018 C 
ENDROOT
BRANCH   4  10
ATOM     10  S   UNL     1      -3.081   0.840   0.753  0.00  0.00    +0.065 S 
ATOM     11  O   UNL     1      -3.816  -0.295   1.304  0.00  0.00    -0.153 OA
ATOM     12  O   UNL     1      -3.046   2.080   1.524  0.00  0.00    -0.153 OA
BRANCH  10  13
ATOM     13  N   UNL     1      -3.704   1.187  -0.825  0.00  0.00    -0.153 NA
ATOM     14  C   UNL     1      -3.019   2.242  -1.615  0.00  0.00    +0.115 C 
ATOM     15  C   UNL     1      -4.108   0.035  -1.670  0.00  0.00    +0.115 C 
ENDBRANCH  10  13
ENDBRANCH   4  10
BRANCH   5  16
ATOM     16  N   UNL     1       2.728  -0.703  -0.305  0.00  0.00    -0.297 N 
ATOM     17  C   UNL     1       3.275  -1.996   0.073  0.00  0.00    +0.113 C 
BRANCH  16  18
ATOM     18  C   UNL     1       3.606   0.262  -0.948  0.00  0.00    +0.173 C 
BRANCH  18  21
ATOM     19 CL   UNL     1       5.320   2.312  -0.625  0.00  0.00    -0.041 Cl
ATOM     20  O   UNL     1       4.051   1.012   1.304  0.00  0.00    -0.277 OA
ATOM     21  C   UNL     1       4.260   1.135   0.101  0.00  0.00    +0.251 C 
ENDBRANCH  18  21
ENDBRANCH  16  18
ENDBRANCH   5  16
TORSDOF 5
