REMARK  Name = 1330
REMARK  6 active torsions:
REMARK  status: ('A' for Active; 'I' for Inactive)
REMARK    1  A    between atoms: N_3  and  C_24
REMARK    2  A    between atoms: N_4  and  C_27
REMARK    3  A    between atoms: C_11  and  C_14
REMARK    4  A    between atoms: C_17  and  S_20
REMARK    5  A    between atoms: C_24  and  C_25
REMARK    6  A    between atoms: C_27  and  C_28
REMARK                            x       y       z     vdW  Elec       q    Type
REMARK                         _______ _______ _______ _____ _____    ______ ____
ROOT
ATOM      1  O   UNL     1       4.895   1.200   0.640  0.00  0.00    -0.246 OA
ATOM      2  O   UNL     1       2.663  -2.885   0.022  0.00  0.00    -0.265 OA
ATOM      3  N   UNL     1       2.572   1.225   0.502  0.00  0.00    -0.269 N 
ATOM      4  N   UNL     1       3.807  -0.851   0.332  0.00  0.00    -0.248 N 
ATOM      5  N   UNL     1       0.154  -1.269   0.060  0.00  0.00    -0.310 N 
ATOM      6  N   UNL     1       0.134   0.945   0.320  0.00  0.00    -0.301 N 
ATOM      7  C   UNL     1       1.419   0.471   0.342  0.00  0.00    +0.132 A 
ATOM      8  C   UNL     1       1.459  -0.888   0.184  0.00  0.00    +0.133 A 
ATOM      9  C   UNL     1       3.835   0.580   0.502  0.00  0.00    +0.335 A 
ATOM     10  C   UNL     1       2.655  -1.665   0.165  0.00  0.00    +0.280 A 
ATOM     11  C   UNL     1      -0.606  -0.131   0.148  0.00  0.00    +0.169 C 
ATOM     12  H   UNL     1      -0.179  -2.187  -0.069  0.00  0.00    +0.149 HD
ATOM     13  H   UNL     1      -0.167   1.877   0.412  0.00  0.00    +0.150 HD
ENDROOT
BRANCH  11  14
ATOM     14  C   UNL     1      -2.045  -0.166   0.058  0.00  0.00    +0.014 C 
ATOM     15  C   UNL     1      -2.737   0.927  -0.464  0.00  0.00    +0.000 C 
ATOM     16  C   UNL     1      -2.744  -1.292   0.492  0.00  0.00    +0.000 C 
ATOM     17  C   UNL     1      -4.828  -0.232  -0.117  0.00  0.00    +0.112 C 
ATOM     18  C   UNL     1      -4.129   0.894  -0.551  0.00  0.00    +0.019 C 
ATOM     19  C   UNL     1      -4.136  -1.325   0.405  0.00  0.00    +0.019 C 
BRANCH  17  20
ATOM     20  S   UNL     1      -6.570  -0.275  -0.228  0.00  0.00    +0.042 S 
ATOM     21  O   UNL     1      -7.106   0.339   1.190  0.00  0.00    -0.065 OA
ATOM     22  O   UNL     1      -6.977   0.654  -1.273  0.00  0.00    -0.065 OA
ATOM     23  O   UNL     1      -6.958  -1.675  -0.289  0.00  0.00    -0.065 OA
ENDBRANCH  17  20
ENDBRANCH  11  14
BRANCH   3  24
ATOM     24  C   UNL     1       2.487   2.671   0.669  0.00  0.00    +0.112 C 
BRANCH  24  25
ATOM     25  C   UNL     1       2.542   3.365  -0.690  0.00  0.00    +0.025 C 
ATOM     26  C   UNL     1       2.477   4.878  -0.542  0.00  0.00    +0.002 C 
ENDBRANCH  24  25
ENDBRANCH   3  24
BRANCH   4  27
ATOM     27  C   UNL     1       5.096  -1.534   0.331  0.00  0.00    +0.114 C 
BRANCH  27  28
ATOM     28  C   UNL     1       5.652  -1.615  -1.089  0.00  0.00    +0.025 C 
ATOM     29  C   UNL     1       6.987  -2.343  -1.121  0.00  0.00    +0.002 C 
ENDBRANCH  27  28
ENDBRANCH   4  27
TORSDOF 6
