REMARK  Name = 133000
REMARK  9 active torsions:
REMARK  status: ('A' for Active; 'I' for Inactive)
REMARK    1  A    between atoms: C_2  and  C_20
REMARK    2  A    between atoms: C_5  and  C_8
REMARK    3  A    between atoms: C_9  and  C_18
REMARK    4  A    between atoms: C_20  and  N_22
REMARK    5  A    between atoms: C_23  and  C_32
REMARK    6  A    between atoms: C_26  and  C_29
REMARK    7  A    between atoms: C_29  and  O_30
REMARK    8  A    between atoms: C_32  and  C_33
REMARK    9  A    between atoms: C_33  and  C_34
REMARK                            x       y       z     vdW  Elec       q    Type
REMARK                         _______ _______ _______ _____ _____    ______ ____
ROOT
ATOM      1  F   UNL     1       0.707  -3.215  -0.561  0.00  0.00    -0.204 F 
ATOM      2  C   UNL     1       0.167  -1.063  -1.404  0.00  0.00    +0.025 C 
ATOM      3  C   UNL     1       1.076  -1.961  -0.856  0.00  0.00    +0.138 C 
ATOM      4  C   UNL     1       0.551   0.237  -1.710  0.00  0.00    -0.000 C 
ATOM      5  C   UNL     1       2.780  -0.249  -0.915  0.00  0.00    +0.003 C 
ATOM      6  C   UNL     1       2.387  -1.552  -0.611  0.00  0.00    +0.029 C 
ATOM      7  C   UNL     1       1.862   0.646  -1.465  0.00  0.00    -0.000 C 
ENDROOT
BRANCH   5   8
ATOM      8  C   UNL     1       4.139   0.175  -0.661  0.00  0.00    +0.010 C 
ATOM      9  C   UNL     1       4.519   0.740   0.560  0.00  0.00    +0.065 C 
ATOM     10  C   UNL     1       5.090   0.010  -1.672  0.00  0.00    +0.001 C 
ATOM     11  C   UNL     1       5.841   1.137   0.767  0.00  0.00    +0.010 C 
ATOM     12  C   UNL     1       6.410   0.406  -1.464  0.00  0.00    +0.000 C 
ATOM     13  C   UNL     1       6.786   0.970  -0.245  0.00  0.00    +0.001 C 
BRANCH   9  18
ATOM     14  N   UNL     1       3.334   0.011   2.564  0.00  0.00    -0.110 NA
ATOM     15  N   UNL     1       2.848   2.071   1.759  0.00  0.00    -0.087 NA
ATOM     16  N   UNL     1       2.410   0.672   3.276  0.00  0.00    -0.140 N 
ATOM     17  N   UNL     1       2.091   1.897   2.836  0.00  0.00    -0.022 NA
ATOM     18  C   UNL     1       3.573   0.928   1.629  0.00  0.00    +0.073 C 
ATOM     19  H   UNL     1       1.991   0.280   4.076  0.00  0.00    +0.197 HD
ENDBRANCH   9  18
ENDBRANCH   5   8
BRANCH   2  20
ATOM     20  C   UNL     1      -1.245  -1.499  -1.670  0.00  0.00    +0.127 C 
BRANCH  20  22
ATOM     21  O   UNL     1      -2.237   0.618  -3.283  0.00  0.00    -0.270 OA
ATOM     22  N   UNL     1      -2.218  -0.504  -1.224  0.00  0.00    -0.254 N 
ATOM     23  C   UNL     1      -2.712  -0.575   0.085  0.00  0.00    +0.032 C 
ATOM     24  C   UNL     1      -3.608   0.329   0.517  0.00  0.00    +0.017 C 
ATOM     25  C   UNL     1      -2.629   0.497  -2.123  0.00  0.00    +0.253 C 
ATOM     26  C   UNL     1      -4.068   1.376  -0.352  0.00  0.00    +0.081 C 
ATOM     27  C   UNL     1      -3.624   1.483  -1.608  0.00  0.00    +0.065 C 
BRANCH  26  29
ATOM     28  O   UNL     1      -5.093   3.513  -0.303  0.00  0.00    -0.245 OA
ATOM     29  C   UNL     1      -5.044   2.365   0.111  0.00  0.00    +0.342 C 
BRANCH  29  30
ATOM     30  O   UNL     1      -5.842   1.785   1.044  0.00  0.00    -0.441 OA
ATOM     31  C   UNL     1      -6.855   2.632   1.596  0.00  0.00    +0.256 C 
ENDBRANCH  29  30
ENDBRANCH  26  29
BRANCH  23  32
ATOM     32  C   UNL     1      -2.235  -1.669   1.000  0.00  0.00    +0.041 C 
BRANCH  32  33
ATOM     33  C   UNL     1      -3.116  -2.909   0.894  0.00  0.00    +0.006 C 
BRANCH  33  34
ATOM     34  C   UNL     1      -2.600  -4.022   1.807  0.00  0.00    +0.000 C 
ATOM     35  C   UNL     1      -3.446  -5.279   1.686  0.00  0.00    +0.000 C 
ENDBRANCH  33  34
ENDBRANCH  32  33
ENDBRANCH  23  32
ENDBRANCH  20  22
ENDBRANCH   2  20
TORSDOF 9
