REMARK  Name = 133117
REMARK  8 active torsions:
REMARK  status: ('A' for Active; 'I' for Inactive)
REMARK    1  A    between atoms: N_2  and  C_13
REMARK    2  A    between atoms: C_3  and  O_5
REMARK    3  A    between atoms: O_5  and  C_6
REMARK    4  A    between atoms: C_6  and  C_7
REMARK    5  A    between atoms: C_7  and  S_8
REMARK    6  A    between atoms: S_8  and  S_9
REMARK    7  A    between atoms: C_13  and  C_14
REMARK    8  A    between atoms: C_14  and  N_15
REMARK                            x       y       z     vdW  Elec       q    Type
REMARK                         _______ _______ _______ _____ _____    ______ ____
ROOT
ATOM      1  O   UNL     1       1.508  -1.760  -0.248  0.00  0.00    -0.226 OA
ATOM      2  N   UNL     1       1.741   0.538  -0.474  0.00  0.00    -0.273 N 
ATOM      3  C   UNL     1       1.043  -0.626  -0.210  0.00  0.00    +0.402 C 
ATOM      4  H   UNL     1       1.257   1.393  -0.410  0.00  0.00    +0.153 HD
ENDROOT
BRANCH   3   5
ATOM      5  O   UNL     1      -0.254  -0.330   0.103  0.00  0.00    -0.434 OA
BRANCH   5   6
ATOM      6  C   UNL     1      -1.096  -1.450   0.401  0.00  0.00    +0.223 C 
BRANCH   6   7
ATOM      7  C   UNL     1      -2.502  -0.973   0.729  0.00  0.00    +0.128 C 
BRANCH   7   8
ATOM      8  S   UNL     1      -3.235  -0.059  -0.662  0.00  0.00    +0.011 S 
BRANCH   8   9
ATOM      9  S   UNL     1      -5.125   0.450   0.088  0.00  0.00    +0.033 S 
ATOM     10  O   UNL     1      -4.923   1.371   1.190  0.00  0.00    -0.162 OA
ATOM     11  O   UNL     1      -5.867  -0.782   0.274  0.00  0.00    -0.162 OA
ATOM     12  C   UNL     1      -5.915   1.352  -1.218  0.00  0.00    +0.189 C 
ENDBRANCH   8   9
ENDBRANCH   7   8
ENDBRANCH   6   7
ENDBRANCH   5   6
ENDBRANCH   3   5
BRANCH   2  13
ATOM     13  C   UNL     1       3.132   0.576  -0.835  0.00  0.00    +0.070 C 
BRANCH  13  14
ATOM     14  C   UNL     1       4.019   0.689   0.397  0.00  0.00    -0.056 C 
BRANCH  14  15
ATOM     15  N   UNL     1       5.429   0.696   0.009  0.00  0.00    +0.385 N 
ATOM     16  C   UNL     1       5.762  -0.520  -0.732  0.00  0.00    -0.101 C 
ATOM     17  C   UNL     1       6.283   0.826   1.189  0.00  0.00    -0.101 C 
ATOM     18  H   UNL     1       5.593   1.499  -0.598  0.00  0.00    -0.080 HD
ENDBRANCH  14  15
ENDBRANCH  13  14
ENDBRANCH   2  13
TORSDOF 8
