133126529
  -OEChem-03292013293D

 64 67  0     1  0  0  0  0  0999 V2000
    4.0867    1.4645   -0.2576 O   0  0  0  0  0  0  0  0  0  0  0  0
    3.9772   -0.9785    1.6749 O   0  0  0  0  0  0  0  0  0  0  0  0
    1.3699   -0.5999   -1.6740 O   0  0  0  0  0  0  0  0  0  0  0  0
   -1.1472   -1.5529    1.7366 O   0  0  0  0  0  0  0  0  0  0  0  0
   -3.3393   -3.2523    0.8328 O   0  0  0  0  0  0  0  0  0  0  0  0
    3.0820    0.9215   -2.2616 O   0  0  0  0  0  0  0  0  0  0  0  0
   -4.0589    2.1648    0.0986 O   0  0  0  0  0  0  0  0  0  0  0  0
   -5.3327    3.4480   -1.3357 O   0  0  0  0  0  0  0  0  0  0  0  0
    1.6385    1.4667    0.2554 C   0  0  2  0  0  0  0  0  0  0  0  0
    3.0050    0.8663    0.4968 C   0  0  2  0  0  0  0  0  0  0  0  0
    2.3794    1.7840    1.5529 C   0  0  0  0  0  0  0  0  0  0  0  0
    0.4016    0.5826    0.2142 C   0  0  2  0  0  0  0  0  0  0  0  0
    3.1468   -0.6310    0.5667 C   0  0  2  0  0  0  0  0  0  0  0  0
    0.7559   -0.8290   -0.3900 C   0  0  2  0  0  0  0  0  0  0  0  0
    1.8326   -1.4616    0.5652 C   0  0  1  0  0  0  0  0  0  0  0  0
    1.9330    1.2348    2.8840 C   0  0  0  0  0  0  0  0  0  0  0  0
    2.9111    3.1973    1.6828 C   0  0  0  0  0  0  0  0  0  0  0  0
   -0.5561   -1.6218   -0.6882 C   0  0  2  0  0  0  0  0  0  0  0  0
   -0.7938    1.2889   -0.4043 C   0  0  0  0  0  0  0  0  0  0  0  0
   -1.6408   -1.5594    0.4055 C   0  0  2  0  0  0  0  0  0  0  0  0
    2.2142   -2.9225    0.2763 C   0  0  0  0  0  0  0  0  0  0  0  0
   -2.0859    0.9045   -0.3535 C   0  0  0  0  0  0  0  0  0  0  0  0
   -2.6287   -0.4026    0.2054 C   0  0  0  0  0  0  0  0  0  0  0  0
   -0.5038   -3.0800   -1.0522 C   0  0  0  0  0  0  0  0  0  0  0  0
   -2.3005   -2.9170    0.2827 C   0  0  0  0  0  0  0  0  0  0  0  0
    3.9960    1.4210   -1.6199 C   0  0  0  0  0  0  0  0  0  0  0  0
   -1.4901   -3.8280   -0.5479 C   0  0  0  0  0  0  0  0  0  0  0  0
   -3.1524    1.8073   -0.9235 C   0  0  0  0  0  0  0  0  0  0  0  0
    5.1910    2.0853   -2.2328 C   0  0  0  0  0  0  0  0  0  0  0  0
   -1.7969   -5.2595   -0.7485 C   0  0  0  0  0  0  0  0  0  0  0  0
   -5.1181    2.9941   -0.2201 C   0  0  0  0  0  0  0  0  0  0  0  0
   -5.9754    3.2643    0.9787 C   0  0  0  0  0  0  0  0  0  0  0  0
    1.5878    2.2600   -0.4854 H   0  0  0  0  0  0  0  0  0  0  0  0
    0.1004    0.4363    1.2565 H   0  0  0  0  0  0  0  0  0  0  0  0
    3.7110   -0.9504   -0.3197 H   0  0  0  0  0  0  0  0  0  0  0  0
    1.4298   -1.4784    1.5835 H   0  0  0  0  0  0  0  0  0  0  0  0
    2.7403    1.3300    3.6185 H   0  0  0  0  0  0  0  0  0  0  0  0
    3.8339    3.2009    2.2722 H   0  0  0  0  0  0  0  0  0  0  0  0
    2.1767    3.8340    2.1878 H   0  0  0  0  0  0  0  0  0  0  0  0
    1.6516    0.1828    2.8595 H   0  0  0  0  0  0  0  0  0  0  0  0
    3.1283    3.6567    0.7127 H   0  0  0  0  0  0  0  0  0  0  0  0
    1.0714    1.8007    3.2543 H   0  0  0  0  0  0  0  0  0  0  0  0
   -0.9697   -1.1882   -1.6146 H   0  0  0  0  0  0  0  0  0  0  0  0
   -0.5801    2.2503   -0.8693 H   0  0  0  0  0  0  0  0  0  0  0  0
    2.4766   -3.0759   -0.7746 H   0  0  0  0  0  0  0  0  0  0  0  0
    1.4065   -3.6048    0.5512 H   0  0  0  0  0  0  0  0  0  0  0  0
    3.0767   -3.2332    0.8767 H   0  0  0  0  0  0  0  0  0  0  0  0
    4.8154   -0.4953    1.5764 H   0  0  0  0  0  0  0  0  0  0  0  0
    1.6052   -1.4629   -2.0533 H   0  0  0  0  0  0  0  0  0  0  0  0
   -3.1463   -0.1806    1.1476 H   0  0  0  0  0  0  0  0  0  0  0  0
   -3.4029   -0.7474   -0.4949 H   0  0  0  0  0  0  0  0  0  0  0  0
    0.2272   -3.4729   -1.7474 H   0  0  0  0  0  0  0  0  0  0  0  0
   -1.9037   -1.5321    2.3472 H   0  0  0  0  0  0  0  0  0  0  0  0
   -3.6864    1.2819   -1.7247 H   0  0  0  0  0  0  0  0  0  0  0  0
   -2.7211    2.7196   -1.3527 H   0  0  0  0  0  0  0  0  0  0  0  0
    5.2284    3.1340   -1.9273 H   0  0  0  0  0  0  0  0  0  0  0  0
    5.1108    2.0418   -3.3227 H   0  0  0  0  0  0  0  0  0  0  0  0
    6.1014    1.5626   -1.9293 H   0  0  0  0  0  0  0  0  0  0  0  0
   -1.7740   -5.7934    0.2066 H   0  0  0  0  0  0  0  0  0  0  0  0
   -1.0715   -5.7340   -1.4172 H   0  0  0  0  0  0  0  0  0  0  0  0
   -2.7913   -5.3814   -1.1891 H   0  0  0  0  0  0  0  0  0  0  0  0
   -5.3819    3.7564    1.7530 H   0  0  0  0  0  0  0  0  0  0  0  0
   -6.3933    2.3262    1.3519 H   0  0  0  0  0  0  0  0  0  0  0  0
   -6.7985    3.9264    0.6954 H   0  0  0  0  0  0  0  0  0  0  0  0
  1 10  1  0  0  0  0
  1 26  1  0  0  0  0
  2 13  1  0  0  0  0
  2 48  1  0  0  0  0
  3 14  1  0  0  0  0
  3 49  1  0  0  0  0
  4 20  1  0  0  0  0
  4 53  1  0  0  0  0
  5 25  2  0  0  0  0
  6 26  2  0  0  0  0
  7 28  1  0  0  0  0
  7 31  1  0  0  0  0
  8 31  2  0  0  0  0
  9 10  1  0  0  0  0
  9 11  1  0  0  0  0
  9 12  1  0  0  0  0
  9 33  1  0  0  0  0
 10 11  1  0  0  0  0
 10 13  1  0  0  0  0
 11 16  1  0  0  0  0
 11 17  1  0  0  0  0
 12 14  1  0  0  0  0
 12 19  1  0  0  0  0
 12 34  1  0  0  0  0
 13 15  1  0  0  0  0
 13 35  1  0  0  0  0
 14 15  1  0  0  0  0
 14 18  1  0  0  0  0
 15 21  1  0  0  0  0
 15 36  1  0  0  0  0
 16 37  1  0  0  0  0
 16 40  1  0  0  0  0
 16 42  1  0  0  0  0
 17 38  1  0  0  0  0
 17 39  1  0  0  0  0
 17 41  1  0  0  0  0
 18 20  1  0  0  0  0
 18 24  1  0  0  0  0
 18 43  1  0  0  0  0
 19 22  2  0  0  0  0
 19 44  1  0  0  0  0
 20 23  1  0  0  0  0
 20 25  1  0  0  0  0
 21 45  1  0  0  0  0
 21 46  1  0  0  0  0
 21 47  1  0  0  0  0
 22 23  1  0  0  0  0
 22 28  1  0  0  0  0
 23 50  1  0  0  0  0
 23 51  1  0  0  0  0
 24 27  2  0  0  0  0
 24 52  1  0  0  0  0
 25 27  1  0  0  0  0
 26 29  1  0  0  0  0
 27 30  1  0  0  0  0
 28 54  1  0  0  0  0
 28 55  1  0  0  0  0
 29 56  1  0  0  0  0
 29 57  1  0  0  0  0
 29 58  1  0  0  0  0
 30 59  1  0  0  0  0
 30 60  1  0  0  0  0
 30 61  1  0  0  0  0
 31 32  1  0  0  0  0
 32 62  1  0  0  0  0
 32 63  1  0  0  0  0
 32 64  1  0  0  0  0
M  END
> <PUBCHEM_COMPOUND_CID>
133126529

> <PUBCHEM_CONFORMER_RMSD>
0.8

> <PUBCHEM_CONFORMER_DIVERSEORDER>
1
8
13
14
9
7
11
17
15
12
10
6
3
16
2
4
5

> <PUBCHEM_MMFF94_PARTIAL_CHARGES>
36
1 -0.3
10 0.05
11 -0.19
12 0.23
13 0.38
14 0.28
16 0.09
17 0.09
18 0.14
19 -0.29
2 -0.68
20 0.34
22 -0.28
23 0.14
24 -0.29
25 0.49
26 0.66
27 -0.12
28 0.42
29 0.06
3 -0.68
30 0.14
31 0.66
32 0.06
33 0.1
4 -0.68
44 0.15
48 0.4
49 0.4
5 -0.57
52 0.15
53 0.4
6 -0.57
7 -0.43
8 -0.57
9 -0.19

> <PUBCHEM_EFFECTIVE_ROTOR_COUNT>
5.8

> <PUBCHEM_PHARMACOPHORE_FEATURES>
13
1 2 acceptor
1 2 donor
1 3 acceptor
1 3 donor
1 4 acceptor
1 4 donor
1 5 acceptor
1 6 acceptor
1 8 acceptor
3 11 16 17 hydrophobe
5 18 20 24 25 27 rings
7 12 14 18 19 20 22 23 rings
7 9 10 11 12 13 14 15 rings

> <PUBCHEM_HEAVY_ATOM_COUNT>
32

> <PUBCHEM_ATOM_DEF_STEREO_COUNT>
8

> <PUBCHEM_ATOM_UDEF_STEREO_COUNT>
0

> <PUBCHEM_BOND_DEF_STEREO_COUNT>
0

> <PUBCHEM_BOND_UDEF_STEREO_COUNT>
0

> <PUBCHEM_ISOTOPIC_ATOM_COUNT>
0

> <PUBCHEM_COMPONENT_COUNT>
1

> <PUBCHEM_CACTVS_TAUTO_COUNT>
3

> <PUBCHEM_CONFORMER_ID>
07EF598100000001

> <PUBCHEM_MMFF94_ENERGY>
96.8894

> <PUBCHEM_FEATURE_SELFOVERLAP>
66.047

> <PUBCHEM_SHAPE_FINGERPRINT>
10165383 225 18126313967358315585
10675989 125 17985821523904440697
1100329 8 18267855082475475010
11578080 2 18263664933961270652
12160290 23 18116695495683888061
12553582 1 17757831512805640915
12788726 201 18044371854086717155
13140716 1 18337941329357725803
13224815 77 17767962396027681506
13540713 5 18113890607262095258
13692114 37 18268973368344057999
13726171 33 18266479744006657656
13944108 23 17688312283416465525
14114211 80 18269011829159509133
14178342 30 18192974127397856880
14223421 5 18126560361037273826
14790565 3 18410296870205284877
14955137 171 17835794206192562323
15219462 58 17983269789665593046
15238133 3 18341326700433507376
15664445 248 16754663612350574941
15961568 22 17187842563300190912
16728300 4 16597570312880498122
16945 1 17684640318490423698
1813 80 17475516552176751071
20642791 178 18260546719618302922
21033650 10 17974037182280108660
22182313 1 17773033283783866032
22907989 373 18192425501207626647
23558518 356 18189601907860309451
23559900 14 18268426833017261238
3178227 256 17975702688586741803
3380486 145 17905599262083363091
3380486 77 17906742405893444042
4058900 60 18122359986180148209
474 4 18127397974375932865
513532 50 16987988389537376556
5252454 2 18335140890464347565
57527573 199 17486454266496273384
653340 110 18340483465615218931
7808743 9 18261683648168056453
9658208 31 18271805752466225209
9777508 108 18341040904819559979

> <PUBCHEM_SHAPE_MULTIPOLES>
611.59
9.39
5.69
1.9
5.11
4.46
0.17
-11.79
-1.81
7.51
-0.38
-2.34
-1.11
0.01

> <PUBCHEM_SHAPE_SELFOVERLAP>
1304.954

> <PUBCHEM_SHAPE_VOLUME>
336.3

> <PUBCHEM_COORDINATE_TYPE>
2
5
10

$$$$
