133171
  -OEChem-03292013323D

 37 38  0     0  0  0  0  0  0999 V2000
    0.4111   -0.4076    2.3897 O   0  0  0  0  0  0  0  0  0  0  0  0
    0.4315   -0.3919   -2.4039 O   0  0  0  0  0  0  0  0  0  0  0  0
   -1.5227   -3.7855   -0.0265 O   0  0  0  0  0  0  0  0  0  0  0  0
   -0.5776   -2.0597    1.1547 N   0  0  0  0  0  0  0  0  0  0  0  0
   -0.5701   -2.0508   -1.1885 N   0  0  0  0  0  0  0  0  0  0  0  0
   -5.4329    2.4965    0.0038 N   0  0  0  0  0  0  0  0  0  0  0  0
    0.3117   -0.0643   -0.0065 C   0  0  0  0  0  0  0  0  0  0  0  0
   -0.6528    1.1110   -0.0064 C   0  0  0  0  0  0  0  0  0  0  0  0
   -2.1072    0.6419    0.0247 C   0  0  0  0  0  0  0  0  0  0  0  0
    1.7185    0.4648    0.0011 C   0  0  0  0  0  0  0  0  0  0  0  0
    0.0733   -0.8465    1.2883 C   0  0  0  0  0  0  0  0  0  0  0  0
    0.0837   -0.8376   -1.3084 C   0  0  0  0  0  0  0  0  0  0  0  0
   -3.0754    1.8264   -0.0091 C   0  0  0  0  0  0  0  0  0  0  0  0
    2.7847   -0.4224    0.0772 C   0  0  0  0  0  0  0  0  0  0  0  0
    1.9364    1.8350   -0.0677 C   0  0  0  0  0  0  0  0  0  0  0  0
   -4.5271    1.3551    0.0579 C   0  0  0  0  0  0  0  0  0  0  0  0
   -0.9365   -2.7015   -0.0205 C   0  0  0  0  0  0  0  0  0  0  0  0
    4.0904    0.0686    0.0847 C   0  0  0  0  0  0  0  0  0  0  0  0
    3.2420    2.3261   -0.0604 C   0  0  0  0  0  0  0  0  0  0  0  0
    4.3189    1.4428    0.0158 C   0  0  0  0  0  0  0  0  0  0  0  0
   -0.5486    1.7253   -0.9121 H   0  0  0  0  0  0  0  0  0  0  0  0
   -0.5137    1.7562    0.8728 H   0  0  0  0  0  0  0  0  0  0  0  0
   -2.3129    0.0652    0.9329 H   0  0  0  0  0  0  0  0  0  0  0  0
   -2.3337   -0.0007   -0.8325 H   0  0  0  0  0  0  0  0  0  0  0  0
   -2.9146    2.4042   -0.9281 H   0  0  0  0  0  0  0  0  0  0  0  0
   -2.8644    2.4961    0.8343 H   0  0  0  0  0  0  0  0  0  0  0  0
   -0.7915   -2.5520    2.0177 H   0  0  0  0  0  0  0  0  0  0  0  0
   -0.7781   -2.5367   -2.0565 H   0  0  0  0  0  0  0  0  0  0  0  0
    2.6242   -1.4959    0.1283 H   0  0  0  0  0  0  0  0  0  0  0  0
    1.1677    2.5944   -0.1333 H   0  0  0  0  0  0  0  0  0  0  0  0
   -4.7024    0.7962    0.9837 H   0  0  0  0  0  0  0  0  0  0  0  0
   -4.7458    0.6869   -0.7819 H   0  0  0  0  0  0  0  0  0  0  0  0
    4.9290   -0.6191    0.1432 H   0  0  0  0  0  0  0  0  0  0  0  0
    3.4219    3.3959   -0.1151 H   0  0  0  0  0  0  0  0  0  0  0  0
    5.3354    1.8251    0.0211 H   0  0  0  0  0  0  0  0  0  0  0  0
   -5.2578    3.1118    0.7973 H   0  0  0  0  0  0  0  0  0  0  0  0
   -6.3935    2.1704    0.1018 H   0  0  0  0  0  0  0  0  0  0  0  0
  1 11  2  0  0  0  0
  2 12  2  0  0  0  0
  3 17  2  0  0  0  0
  4 11  1  0  0  0  0
  4 17  1  0  0  0  0
  4 27  1  0  0  0  0
  5 12  1  0  0  0  0
  5 17  1  0  0  0  0
  5 28  1  0  0  0  0
  6 16  1  0  0  0  0
  6 36  1  0  0  0  0
  6 37  1  0  0  0  0
  7  8  1  0  0  0  0
  7 10  1  0  0  0  0
  7 11  1  0  0  0  0
  7 12  1  0  0  0  0
  8  9  1  0  0  0  0
  8 21  1  0  0  0  0
  8 22  1  0  0  0  0
  9 13  1  0  0  0  0
  9 23  1  0  0  0  0
  9 24  1  0  0  0  0
 10 14  2  0  0  0  0
 10 15  1  0  0  0  0
 13 16  1  0  0  0  0
 13 25  1  0  0  0  0
 13 26  1  0  0  0  0
 14 18  1  0  0  0  0
 14 29  1  0  0  0  0
 15 19  2  0  0  0  0
 15 30  1  0  0  0  0
 16 31  1  0  0  0  0
 16 32  1  0  0  0  0
 18 20  2  0  0  0  0
 18 33  1  0  0  0  0
 19 20  1  0  0  0  0
 19 34  1  0  0  0  0
 20 35  1  0  0  0  0
M  END
> <PUBCHEM_COMPOUND_CID>
133171

> <PUBCHEM_CONFORMER_RMSD>
0.8

> <PUBCHEM_CONFORMER_DIVERSEORDER>
1
5
4
3
2

> <PUBCHEM_MMFF94_PARTIAL_CHARGES>
26
1 -0.57
10 -0.14
11 0.57
12 0.57
14 -0.15
15 -0.15
16 0.27
17 0.69
18 -0.15
19 -0.15
2 -0.57
20 -0.15
27 0.37
28 0.37
29 0.15
3 -0.57
30 0.15
33 0.15
34 0.15
35 0.15
36 0.36
37 0.36
4 -0.49
5 -0.49
6 -0.99
7 0.27

> <PUBCHEM_EFFECTIVE_ROTOR_COUNT>
5.6

> <PUBCHEM_PHARMACOPHORE_FEATURES>
9
1 1 acceptor
1 2 acceptor
1 3 acceptor
1 4 donor
1 5 donor
1 6 cation
1 6 donor
6 10 14 15 18 19 20 rings
6 4 5 7 11 12 17 rings

> <PUBCHEM_HEAVY_ATOM_COUNT>
20

> <PUBCHEM_ATOM_DEF_STEREO_COUNT>
0

> <PUBCHEM_ATOM_UDEF_STEREO_COUNT>
0

> <PUBCHEM_BOND_DEF_STEREO_COUNT>
0

> <PUBCHEM_BOND_UDEF_STEREO_COUNT>
0

> <PUBCHEM_ISOTOPIC_ATOM_COUNT>
0

> <PUBCHEM_COMPONENT_COUNT>
1

> <PUBCHEM_CACTVS_TAUTO_COUNT>
5

> <PUBCHEM_CONFORMER_ID>
0002083300000001

> <PUBCHEM_MMFF94_ENERGY>
52.6207

> <PUBCHEM_FEATURE_SELFOVERLAP>
45.713

> <PUBCHEM_SHAPE_FINGERPRINT>
10863032 1 18339640156843697374
10922049 32 18410015407601506617
10948715 1 18411138034669260753
12532896 13 18261111893573304530
12592029 89 18267867185571586651
12788726 201 17975688703730348226
13140716 1 18339069510699668280
14178342 30 18192412277478296368
15906896 17 18270674397750398495
16945 1 17467076675594691482
200 152 17830725818665986646
20602899 9 15554451820490650732
21054139 6 18270665516643961557
21501502 16 18116709810915601440
21524375 3 18334014964829743129
23227448 37 18265334091476207380
23402539 116 18343576343809639133
23419403 2 17127098681997818343
23558518 356 17827637268506903888
23559900 14 18343862234893464288
298252 57 17632287960911980485
3060560 45 18265612087444609509
34934 24 18410289242507001384
427121 178 17677343710014768305
4340502 62 18335711490693207857
46194498 28 13110373768922518817
474 4 18341336578715993217
6138700 20 17980205188935093102
69090 78 18409165528015488048
7364860 26 17976821987134033777
7832392 63 18337949099550039520
81228 2 17753322372601406137
81539 233 18266457612108045333
8272917 22 18123469380690975117
9999458 23 18261957323530896100

> <PUBCHEM_SHAPE_MULTIPOLES>
379.04
7.15
3.21
1.33
3.64
2.11
-0.02
-7.65
0.14
2.53
-0.05
-0.09
0.6
-0.07

> <PUBCHEM_SHAPE_SELFOVERLAP>
804.29

> <PUBCHEM_SHAPE_VOLUME>
209.1

> <PUBCHEM_COORDINATE_TYPE>
2
5
10

$$$$
