REMARK  Name = 133109152
REMARK  9 active torsions:
REMARK  status: ('A' for Active; 'I' for Inactive)
REMARK    1  A    between atoms: C_6  and  C_28
REMARK    2  A    between atoms: C_7  and  O_20
REMARK    3  A    between atoms: C_10  and  O_22
REMARK    4  A    between atoms: C_13  and  O_24
REMARK    5  A    between atoms: C_19  and  O_26
REMARK    6  A    between atoms: C_28  and  C_30
REMARK    7  A    between atoms: C_30  and  C_31
REMARK    8  A    between atoms: C_31  and  C_33
REMARK    9  A    between atoms: C_33  and  O_34
REMARK                            x       y       z     vdW  Elec       q    Type
REMARK                         _______ _______ _______ _____ _____    ______ ____
ROOT
ATOM      1  C   UNL     1      -1.201   0.357  -0.412  0.00  0.00    +0.025 C 
ATOM      2  C   UNL     1      -0.173  -0.736  -0.812  0.00  0.00    +0.005 C 
ATOM      3  C   UNL     1       1.037  -0.809   0.144  0.00  0.00    +0.029 C 
ATOM      4  C   UNL     1       1.762   0.578   0.120  0.00  0.00    +0.005 C 
ATOM      5  C   UNL     1       3.051   0.601   1.025  0.00  0.00    +0.003 C 
ATOM      6  C   UNL     1      -2.275   0.112  -1.509  0.00  0.00    +0.002 C 
ATOM      7  C   UNL     1      -0.473   1.714  -0.501  0.00  0.00    +0.110 C 
ATOM      8  C   UNL     1       4.007  -0.558   0.587  0.00  0.00    +0.032 C 
ATOM      9  C   UNL     1       0.778   1.742   0.397  0.00  0.00    +0.029 C 
ATOM     10  C   UNL     1       2.003  -1.956  -0.215  0.00  0.00    +0.137 C 
ATOM     11  C   UNL     1      -1.037  -1.974  -1.030  0.00  0.00    +0.000 C 
ATOM     12  C   UNL     1      -2.340  -1.429  -1.633  0.00  0.00    +0.000 C 
ATOM     13  C   UNL     1       3.288  -1.922   0.618  0.00  0.00    +0.137 C 
ATOM     14  C   UNL     1       3.828   1.946   0.923  0.00  0.00    +0.003 C 
ATOM     15  C   UNL     1      -1.811   0.153   0.999  0.00  0.00    +0.002 C 
ATOM     16  C   UNL     1       4.674  -0.289  -0.789  0.00  0.00    +0.032 C 
ATOM     17  C   UNL     1       2.681   0.435   2.522  0.00  0.00    +0.000 C 
ATOM     18  C   UNL     1       4.442   2.204  -0.450  0.00  0.00    +0.029 C 
ATOM     19  C   UNL     1       5.369   1.069  -0.866  0.00  0.00    +0.111 C 
ENDROOT
BRANCH   7  20
ATOM     20  O   UNL     1      -1.313   2.793  -0.107  0.00  0.00    -0.384 OA
ATOM     21  H   UNL     1      -2.111   2.799  -0.658  0.00  0.00    +0.210 HD
ENDBRANCH   7  20
BRANCH  10  22
ATOM     22  O   UNL     1       1.359  -3.206   0.048  0.00  0.00    -0.382 OA
ATOM     23  H   UNL     1       0.538  -3.261  -0.466  0.00  0.00    +0.210 HD
ENDBRANCH  10  22
BRANCH  13  24
ATOM     24  O   UNL     1       4.171  -2.958   0.183  0.00  0.00    -0.382 OA
ATOM     25  H   UNL     1       4.984  -2.935   0.712  0.00  0.00    +0.210 HD
ENDBRANCH  13  24
BRANCH  19  26
ATOM     26  O   UNL     1       6.514   1.042  -0.015  0.00  0.00    -0.384 OA
ATOM     27  H   UNL     1       7.100   0.317  -0.285  0.00  0.00    +0.210 HD
ENDBRANCH  19  26
BRANCH   6  28
ATOM     28  C   UNL     1      -3.660   0.709  -1.294  0.00  0.00    +0.001 C 
ATOM     29  C   UNL     1      -4.378   0.864  -2.639  0.00  0.00    +0.000 C 
BRANCH  28  30
ATOM     30  C   UNL     1      -4.530  -0.135  -0.342  0.00  0.00    +0.012 C 
BRANCH  30  31
ATOM     31  C   UNL     1      -5.656   0.662   0.320  0.00  0.00    +0.109 C 
BRANCH  31  33
ATOM     32  O   UNL     1      -6.222  -1.355   1.563  0.00  0.00    -0.250 OA
ATOM     33  C   UNL     1      -6.441  -0.181   1.300  0.00  0.00    +0.314 C 
BRANCH  33  34
ATOM     34  O   UNL     1      -7.452   0.529   1.865  0.00  0.00    -0.480 OA
ATOM     35  H   UNL     1      -7.582   1.427   1.632  0.00  0.00    +0.295 HD
ENDBRANCH  33  34
ENDBRANCH  31  33
ENDBRANCH  30  31
ENDBRANCH  28  30
ENDBRANCH   6  28
TORSDOF 9
