REMARK  Name = 133151
REMARK  8 active torsions:
REMARK  status: ('A' for Active; 'I' for Inactive)
REMARK    1  A    between atoms: C_3  and  O_21
REMARK    2  A    between atoms: C_3  and  C_35
REMARK    3  A    between atoms: C_4  and  C_28
REMARK    4  A    between atoms: C_6  and  O_23
REMARK    5  A    between atoms: C_10  and  O_25
REMARK    6  A    between atoms: C_17  and  O_31
REMARK    7  A    between atoms: C_19  and  O_33
REMARK    8  A    between atoms: C_28  and  O_29
REMARK                            x       y       z     vdW  Elec       q    Type
REMARK                         _______ _______ _______ _____ _____    ______ ____
ROOT
ATOM      1  O   UNL     1       1.730  -2.629  -0.741  0.00  0.00    -0.287 OA
ATOM      2  O   UNL     1       2.500   2.498   0.547  0.00  0.00    -0.286 OA
ATOM      3  C   UNL     1      -4.150   0.293  -0.645  0.00  0.00    +0.105 C 
ATOM      4  C   UNL     1      -3.049  -0.775  -0.446  0.00  0.00    +0.146 C 
ATOM      5  C   UNL     1      -3.970   1.456   0.345  0.00  0.00    +0.062 C 
ATOM      6  C   UNL     1      -2.602   2.131   0.208  0.00  0.00    +0.138 C 
ATOM      7  C   UNL     1      -1.659  -0.186  -0.280  0.00  0.00    -0.008 C 
ATOM      8  C   UNL     1      -1.456   1.162   0.061  0.00  0.00    +0.035 C 
ATOM      9  C   UNL     1      -0.544  -1.030  -0.442  0.00  0.00    -0.000 C 
ATOM     10  C   UNL     1      -0.143   1.640   0.230  0.00  0.00    +0.135 C 
ATOM     11  C   UNL     1       0.757  -0.544  -0.270  0.00  0.00    +0.045 C 
ATOM     12  C   UNL     1       0.957   0.792   0.067  0.00  0.00    +0.076 C 
ATOM     13  C   UNL     1       1.907  -1.454  -0.446  0.00  0.00    +0.196 C 
ATOM     14  C   UNL     1       2.324   1.323   0.251  0.00  0.00    +0.202 C 
ATOM     15  C   UNL     1       3.475   0.415   0.075  0.00  0.00    +0.076 C 
ATOM     16  C   UNL     1       3.274  -0.926  -0.261  0.00  0.00    +0.048 C 
ATOM     17  C   UNL     1       4.776   0.904   0.247  0.00  0.00    +0.140 C 
ATOM     18  C   UNL     1       4.373  -1.777  -0.425  0.00  0.00    +0.040 C 
ATOM     19  C   UNL     1       5.668  -1.286  -0.252  0.00  0.00    +0.137 C 
ATOM     20  C   UNL     1       5.868   0.052   0.084  0.00  0.00    +0.073 C 
ENDROOT
BRANCH   3  21
ATOM     21  O   UNL     1      -4.027   0.781  -1.989  0.00  0.00    -0.386 OA
ATOM     22  H   UNL     1      -3.144   1.165  -2.114  0.00  0.00    +0.210 HD
ENDBRANCH   3  21
BRANCH   6  23
ATOM     23  O   UNL     1      -2.596   2.989  -0.933  0.00  0.00    -0.380 OA
ATOM     24  H   UNL     1      -3.326   3.624  -0.863  0.00  0.00    +0.211 HD
ENDBRANCH   6  23
BRANCH  10  25
ATOM     25  O   UNL     1       0.022   2.960   0.550  0.00  0.00    -0.506 OA
ATOM     26  H   UNL     1      -0.726   3.514   0.655  0.00  0.00    +0.292 HD
ENDBRANCH  10  25
BRANCH   4  28
ATOM     27  O   UNL     1      -3.526  -2.876   0.642  0.00  0.00    -0.250 OA
ATOM     28  C   UNL     1      -3.346  -1.669   0.728  0.00  0.00    +0.323 C 
BRANCH  28  29
ATOM     29  O   UNL     1      -3.379  -0.925   1.870  0.00  0.00    -0.444 OA
ATOM     30  C   UNL     1      -3.654  -1.654   3.071  0.00  0.00    +0.256 C 
ENDBRANCH  28  29
ENDBRANCH   4  28
BRANCH  17  31
ATOM     31  O   UNL     1       5.045   2.200   0.576  0.00  0.00    -0.505 OA
ATOM     32  H   UNL     1       4.343   2.808   0.696  0.00  0.00    +0.292 HD
ENDBRANCH  17  31
BRANCH  19  33
ATOM     33  O   UNL     1       6.736  -2.115  -0.409  0.00  0.00    -0.505 OA
ATOM     34  H   UNL     1       6.602  -3.014  -0.634  0.00  0.00    +0.292 HD
ENDBRANCH  19  33
BRANCH   3  35
ATOM     35  C   UNL     1      -5.565  -0.292  -0.533  0.00  0.00    +0.028 C 
ATOM     36  C   UNL     1      -5.748  -1.460  -1.479  0.00  0.00    +0.003 C 
ENDBRANCH   3  35
TORSDOF 8
