REMARK  Name = 133124956
REMARK  7 active torsions:
REMARK  status: ('A' for Active; 'I' for Inactive)
REMARK    1  A    between atoms: C_2  and  N_8
REMARK    2  A    between atoms: C_3  and  O_13
REMARK    3  A    between atoms: C_4  and  O_15
REMARK    4  A    between atoms: C_5  and  C_19
REMARK    5  A    between atoms: C_6  and  O_17
REMARK    6  A    between atoms: C_9  and  C_11
REMARK    7  A    between atoms: C_19  and  O_20
REMARK                            x       y       z     vdW  Elec       q    Type
REMARK                         _______ _______ _______ _____ _____    ______ ____
ROOT
ATOM      1  O   UNL     1      -1.911  -1.160   0.283  0.00  0.00    -0.327 OA
ATOM      2  C   UNL     1       0.359  -0.274   0.137  0.00  0.00    +0.158 C 
ATOM      3  C   UNL     1      -0.205   1.086  -0.287  0.00  0.00    +0.162 C 
ATOM      4  C   UNL     1      -1.662   1.248   0.155  0.00  0.00    +0.169 C 
ATOM      5  C   UNL     1      -2.493   0.029  -0.252  0.00  0.00    +0.176 C 
ATOM      6  C   UNL     1      -0.603  -1.411  -0.229  0.00  0.00    +0.253 C 
ENDROOT
BRANCH   2   8
ATOM      7  O   UNL     1       2.939   0.512   1.182  0.00  0.00    -0.275 OA
ATOM      8  N   UNL     1       1.654  -0.493  -0.472  0.00  0.00    -0.299 N 
ATOM      9  C   UNL     1       2.841  -0.077   0.109  0.00  0.00    +0.223 C 
ATOM     10  H   UNL     1       1.693  -0.959  -1.339  0.00  0.00    +0.150 HD
BRANCH   9  11
ATOM     11  C   UNL     1       4.037  -0.442  -0.750  0.00  0.00    +0.085 C 
ATOM     12  C   UNL     1       5.350   0.033  -0.155  0.00  0.00    +0.010 C 
ENDBRANCH   9  11
ENDBRANCH   2   8
BRANCH   3  13
ATOM     13  O   UNL     1       0.585   2.109   0.323  0.00  0.00    -0.380 OA
ATOM     14  H   UNL     1       1.509   2.011   0.047  0.00  0.00    +0.211 HD
ENDBRANCH   3  13
BRANCH   4  15
ATOM     15  O   UNL     1      -2.217   2.411  -0.455  0.00  0.00    -0.379 OA
ATOM     16  H   UNL     1      -1.696   3.189  -0.202  0.00  0.00    +0.211 HD
ENDBRANCH   4  15
BRANCH   6  17
ATOM     17  O   UNL     1      -0.122  -2.653   0.286  0.00  0.00    -0.359 OA
ATOM     18  H   UNL     1      -0.738  -3.363   0.048  0.00  0.00    +0.213 HD
ENDBRANCH   6  17
BRANCH   5  19
ATOM     19  C   UNL     1      -3.922   0.117   0.274  0.00  0.00    +0.169 C 
BRANCH  19  20
ATOM     20  O   UNL     1      -4.630  -1.034  -0.149  0.00  0.00    -0.379 OA
ATOM     21  H   UNL     1      -5.542  -0.991   0.179  0.00  0.00    +0.211 HD
ENDBRANCH  19  20
ENDBRANCH   5  19
TORSDOF 7
