REMARK  Name = 133109153
REMARK  6 active torsions:
REMARK  status: ('A' for Active; 'I' for Inactive)
REMARK    1  A    between atoms: C_7  and  C_13
REMARK    2  A    between atoms: C_13  and  C_14
REMARK    3  A    between atoms: C_14  and  C_15
REMARK    4  A    between atoms: C_15  and  C_16
REMARK    5  A    between atoms: C_16  and  C_18
REMARK    6  A    between atoms: C_18  and  O_19
REMARK                            x       y       z     vdW  Elec       q    Type
REMARK                         _______ _______ _______ _____ _____    ______ ____
ROOT
ATOM      1  S   UNL     1       2.431   1.721   0.727  0.00  0.00    +0.044 S 
ATOM      2  O   UNL     1       2.366   3.219   0.676  0.00  0.00    -0.256 OA
ATOM      3  O   UNL     1       2.791  -2.943   1.147  0.00  0.00    -0.253 OA
ATOM      4  N   UNL     1       1.440  -1.379   0.044  0.00  0.00    -0.288 N 
ATOM      5  N   UNL     1       3.670  -1.270  -0.236  0.00  0.00    -0.288 N 
ATOM      6  C   UNL     1       1.625  -0.274  -0.875  0.00  0.00    +0.104 C 
ATOM      7  C   UNL     1       1.100   1.069  -0.354  0.00  0.00    +0.099 C 
ATOM      8  C   UNL     1       3.158  -0.177  -1.037  0.00  0.00    +0.105 C 
ATOM      9  C   UNL     1       3.646   1.174  -0.524  0.00  0.00    +0.113 C 
ATOM     10  C   UNL     1       2.651  -1.978   0.409  0.00  0.00    +0.301 C 
ATOM     11  H   UNL     1       0.561  -1.675   0.374  0.00  0.00    +0.151 HD
ATOM     12  H   UNL     1       4.627  -1.489  -0.155  0.00  0.00    +0.151 HD
ENDROOT
BRANCH   7  13
ATOM     13  C   UNL     1      -0.228   1.017   0.381  0.00  0.00    +0.015 C 
BRANCH  13  14
ATOM     14  C   UNL     1      -1.383   0.489  -0.475  0.00  0.00    +0.002 C 
BRANCH  14  15
ATOM     15  C   UNL     1      -2.733   0.369   0.237  0.00  0.00    +0.012 C 
BRANCH  15  16
ATOM     16  C   UNL     1      -3.835  -0.217  -0.645  0.00  0.00    +0.109 C 
BRANCH  16  18
ATOM     17  O   UNL     1      -5.376   0.147   1.205  0.00  0.00    -0.250 OA
ATOM     18  C   UNL     1      -5.173  -0.233   0.060  0.00  0.00    +0.314 C 
BRANCH  18  19
ATOM     19  O   UNL     1      -6.150  -0.735  -0.740  0.00  0.00    -0.480 OA
ATOM     20  H   UNL     1      -5.945  -1.013  -1.611  0.00  0.00    +0.295 HD
ENDBRANCH  18  19
ENDBRANCH  16  18
ENDBRANCH  15  16
ENDBRANCH  14  15
ENDBRANCH  13  14
ENDBRANCH   7  13
TORSDOF 6
