REMARK  Name = 133125
REMARK  6 active torsions:
REMARK  status: ('A' for Active; 'I' for Inactive)
REMARK    1  A    between atoms: C_6  and  C_16
REMARK    2  A    between atoms: C_7  and  S_10
REMARK    3  A    between atoms: S_10  and  N_13
REMARK    4  A    between atoms: C_16  and  C_17
REMARK    5  A    between atoms: C_17  and  C_19
REMARK    6  A    between atoms: C_19  and  O_20
REMARK                            x       y       z     vdW  Elec       q    Type
REMARK                         _______ _______ _______ _____ _____    ______ ____
ROOT
ATOM      1  S   UNL     1       1.887  -1.196  -0.055  0.00  0.00    -0.011 S 
ATOM      2  O   UNL     1      -1.831   1.594   0.008  0.00  0.00    -0.275 OA
ATOM      3  N   UNL     1      -0.630  -0.431  -0.026  0.00  0.00    -0.263 N 
ATOM      4  N   UNL     1       2.494   1.294  -0.028  0.00  0.00    -0.119 NA
ATOM      5  N   UNL     1       1.111   1.246  -0.017  0.00  0.00    -0.124 NA
ATOM      6  C   UNL     1      -1.765   0.368  -0.008  0.00  0.00    +0.228 C 
ATOM      7  C   UNL     1       3.023   0.089  -0.048  0.00  0.00    +0.256 A 
ATOM      8  C   UNL     1       0.693   0.017  -0.030  0.00  0.00    +0.189 A 
ATOM      9  H   UNL     1      -0.771  -1.406  -0.038  0.00  0.00    +0.157 HD
ENDROOT
BRANCH   7  10
ATOM     10  S   UNL     1       4.717  -0.290  -0.066  0.00  0.00    +0.081 S 
ATOM     11  O   UNL     1       4.848  -1.609  -0.689  0.00  0.00    -0.151 OA
ATOM     12  O   UNL     1       5.380   0.867  -0.668  0.00  0.00    -0.151 OA
BRANCH  10  13
ATOM     13  N   UNL     1       5.287  -0.436   1.555  0.00  0.00    -0.202 NA
ATOM     14  H   UNL     1       6.283  -0.659   1.547  0.00  0.00    +0.144 HD
ATOM     15  H   UNL     1       4.776  -1.181   2.030  0.00  0.00    +0.144 HD
ENDBRANCH  10  13
ENDBRANCH   7  10
BRANCH   6  16
ATOM     16  C   UNL     1      -3.036  -0.466  -0.033  0.00  0.00    +0.097 C 
BRANCH  16  17
ATOM     17  C   UNL     1      -4.279   0.422  -0.013  0.00  0.00    +0.119 C 
BRANCH  17  19
ATOM     18  O   UNL     1      -5.677  -1.578  -0.029  0.00  0.00    -0.250 OA
ATOM     19  C   UNL     1      -5.575  -0.360   0.023  0.00  0.00    +0.314 C 
BRANCH  19  20
ATOM     20  O   UNL     1      -6.648   0.468   0.125  0.00  0.00    -0.480 OA
ATOM     21  H   UNL     1      -6.522   1.396   0.161  0.00  0.00    +0.295 HD
ENDBRANCH  19  20
ENDBRANCH  17  19
ENDBRANCH  16  17
ENDBRANCH   6  16
TORSDOF 6
