133121153
  -OEChem-03292013293D

 39 38  0     1  0  0  0  0  0999 V2000
    2.7103   -2.4148   -0.3575 O   0  0  0  0  0  0  0  0  0  0  0  0
   -0.2977   -1.3708    1.3150 O   0  0  0  0  0  0  0  0  0  0  0  0
    4.0732   -1.3169    1.0741 O   0  0  0  0  0  0  0  0  0  0  0  0
   -2.7028    1.3195   -0.4090 O   0  0  0  0  0  0  0  0  0  0  0  0
    0.8981   -0.4591   -0.4532 N   0  0  0  0  0  0  0  0  0  0  0  0
   -2.5982   -0.9859   -0.1410 N   0  0  0  0  0  0  0  0  0  0  0  0
   -5.3280    1.2867    0.4132 N   0  0  0  0  0  0  0  0  0  0  0  0
    2.7791    1.1089   -0.2494 C   0  0  0  0  0  0  0  0  0  0  0  0
    1.9035    2.3701   -0.4279 C   0  0  0  0  0  0  0  0  0  0  0  0
    2.0997   -0.1621    0.2823 C   0  0  2  0  0  0  0  0  0  0  0  0
    2.6518    3.5623   -1.0196 C   0  0  0  0  0  0  0  0  0  0  0  0
    1.3055    2.7653    0.9275 C   0  0  0  0  0  0  0  0  0  0  0  0
   -1.3677   -1.2085   -0.8536 C   0  0  1  0  0  0  0  0  0  0  0  0
   -0.2176   -1.0474    0.1317 C   0  0  0  0  0  0  0  0  0  0  0  0
    3.0515   -1.3423    0.3962 C   0  0  0  0  0  0  0  0  0  0  0  0
   -1.3430   -2.5860   -1.4973 C   0  0  0  0  0  0  0  0  0  0  0  0
   -3.1718    0.2701    0.0256 C   0  0  0  0  0  0  0  0  0  0  0  0
   -4.4460    0.2108    0.8429 C   0  0  0  0  0  0  0  0  0  0  0  0
    3.6312    1.3531    0.3996 H   0  0  0  0  0  0  0  0  0  0  0  0
    3.2211    0.8720   -1.2276 H   0  0  0  0  0  0  0  0  0  0  0  0
    1.0774    2.1356   -1.1104 H   0  0  0  0  0  0  0  0  0  0  0  0
    1.7903    0.0237    1.3191 H   0  0  0  0  0  0  0  0  0  0  0  0
    0.9038   -0.3018   -1.4569 H   0  0  0  0  0  0  0  0  0  0  0  0
    3.4797    3.8708   -0.3723 H   0  0  0  0  0  0  0  0  0  0  0  0
    3.0674    3.3068   -1.9999 H   0  0  0  0  0  0  0  0  0  0  0  0
    2.0883    2.9339    1.6749 H   0  0  0  0  0  0  0  0  0  0  0  0
    0.7225    3.6886    0.8378 H   0  0  0  0  0  0  0  0  0  0  0  0
    0.6260    1.9967    1.3080 H   0  0  0  0  0  0  0  0  0  0  0  0
    1.9840    4.4201   -1.1514 H   0  0  0  0  0  0  0  0  0  0  0  0
   -1.2863   -0.4437   -1.6353 H   0  0  0  0  0  0  0  0  0  0  0  0
   -1.4191   -3.3786   -0.7441 H   0  0  0  0  0  0  0  0  0  0  0  0
   -2.1791   -2.7068   -2.1942 H   0  0  0  0  0  0  0  0  0  0  0  0
   -0.4098   -2.7433   -2.0484 H   0  0  0  0  0  0  0  0  0  0  0  0
   -3.0221   -1.7817    0.3276 H   0  0  0  0  0  0  0  0  0  0  0  0
    3.3616   -3.1436   -0.2748 H   0  0  0  0  0  0  0  0  0  0  0  0
   -4.9502   -0.7496    0.6978 H   0  0  0  0  0  0  0  0  0  0  0  0
   -4.1899    0.3184    1.9014 H   0  0  0  0  0  0  0  0  0  0  0  0
   -4.8926    2.1867    0.6132 H   0  0  0  0  0  0  0  0  0  0  0  0
   -6.1843    1.2605    0.9655 H   0  0  0  0  0  0  0  0  0  0  0  0
  1 15  1  0  0  0  0
  1 35  1  0  0  0  0
  2 14  2  0  0  0  0
  3 15  2  0  0  0  0
  4 17  2  0  0  0  0
  5 10  1  0  0  0  0
  5 14  1  0  0  0  0
  5 23  1  0  0  0  0
  6 13  1  0  0  0  0
  6 17  1  0  0  0  0
  6 34  1  0  0  0  0
  7 18  1  0  0  0  0
  7 38  1  0  0  0  0
  7 39  1  0  0  0  0
  8  9  1  0  0  0  0
  8 10  1  0  0  0  0
  8 19  1  0  0  0  0
  8 20  1  0  0  0  0
  9 11  1  0  0  0  0
  9 12  1  0  0  0  0
  9 21  1  0  0  0  0
 10 15  1  0  0  0  0
 10 22  1  0  0  0  0
 11 24  1  0  0  0  0
 11 25  1  0  0  0  0
 11 29  1  0  0  0  0
 12 26  1  0  0  0  0
 12 27  1  0  0  0  0
 12 28  1  0  0  0  0
 13 14  1  0  0  0  0
 13 16  1  0  0  0  0
 13 30  1  0  0  0  0
 16 31  1  0  0  0  0
 16 32  1  0  0  0  0
 16 33  1  0  0  0  0
 17 18  1  0  0  0  0
 18 36  1  0  0  0  0
 18 37  1  0  0  0  0
M  END
> <PUBCHEM_COMPOUND_CID>
133121153

> <PUBCHEM_CONFORMER_RMSD>
0.8

> <PUBCHEM_CONFORMER_DIVERSEORDER>
1
161
114
136
116
51
147
139
70
111
157
100
90
115
68
36
126
113
159
22
52
127
164
105
134
121
131
21
162
102
97
80
38
57
140
9
88
151
129
86
39
78
128
137
117
85
58
160
119
12
163
156
73
89
27
107
94
67
150
53
60
56
7
28
25
152
72
4
165
149
103
20
83
17
29
18
145
98
41
101
62
132
146
61
49
32
96
135
81
122
31
5
45
66
143
30
42
26
11
108
40
138
125
24
82
95
8
123
47
130
69
44
87
153
106
43
92
23
50
64
19
112
15
99
37
141
124
75
155
48
6
158
35
109
79
33
154
63
91
13
166
14
144
133
148
142
110
2
3
76
104
55
120
65
118
77
71
16
10
59
54
93
74
34
84
46

> <PUBCHEM_MMFF94_PARTIAL_CHARGES>
18
1 -0.65
10 0.36
13 0.36
14 0.57
15 0.66
17 0.57
18 0.33
2 -0.57
23 0.37
3 -0.57
34 0.37
35 0.5
38 0.36
39 0.36
4 -0.57
5 -0.73
6 -0.73
7 -0.99

> <PUBCHEM_EFFECTIVE_ROTOR_COUNT>
9

> <PUBCHEM_PHARMACOPHORE_FEATURES>
10
1 1 acceptor
1 2 acceptor
1 3 acceptor
1 4 acceptor
1 5 donor
1 6 donor
1 7 cation
1 7 donor
3 1 3 15 anion
3 9 11 12 hydrophobe

> <PUBCHEM_HEAVY_ATOM_COUNT>
18

> <PUBCHEM_ATOM_DEF_STEREO_COUNT>
2

> <PUBCHEM_ATOM_UDEF_STEREO_COUNT>
0

> <PUBCHEM_BOND_DEF_STEREO_COUNT>
0

> <PUBCHEM_BOND_UDEF_STEREO_COUNT>
0

> <PUBCHEM_ISOTOPIC_ATOM_COUNT>
0

> <PUBCHEM_COMPONENT_COUNT>
1

> <PUBCHEM_CACTVS_TAUTO_COUNT>
4

> <PUBCHEM_CONFORMER_ID>
07EF448100000001

> <PUBCHEM_MMFF94_ENERGY>
28.9274

> <PUBCHEM_FEATURE_SELFOVERLAP>
50.807

> <PUBCHEM_SHAPE_FINGERPRINT>
10382601 240 17822845519782243836
11045977 3 17967543367753377507
12617007 42 18128836161206791854
13464514 151 18263935504427791244
13583140 156 17895465930850886647
14022347 108 18265061228178080338
15295992 7 18113629992556335531
15775835 57 18339650060933157221
17041 49 18336255782707237210
17980427 23 17773570858975024348
18785283 64 18115033020959650696
201361 129 18192151710070144468
20671657 1 18270398411668090784
21501502 16 18268141144376699614
21524375 3 18342173345982972535
22094290 62 18412541020048771263
23402539 116 17702650069655335279
23557571 272 16987428909426802922
23558518 356 18193264415415915363
23598291 2 18198896088435312478
312423 11 18268987768467542719
474 4 18116706511705439405
53777708 50 18267579302625431262
7364860 26 18339078293648864284
7615 1 18127393760453775022
7832392 63 18342453798250811268
81228 2 18121505644502319778
84936 182 17983010343449731368
9981440 41 17688578777393676240

> <PUBCHEM_SHAPE_MULTIPOLES>
332.01
7.86
3.56
1.11
7.55
1.58
0.05
2.79
-1.44
-3.07
0.82
-0.06
-0.18
-1.55

> <PUBCHEM_SHAPE_SELFOVERLAP>
638.143

> <PUBCHEM_SHAPE_VOLUME>
201.8

> <PUBCHEM_COORDINATE_TYPE>
2
5
10

$$$$
