REMARK  Name = 133177
REMARK  12 active torsions:
REMARK  status: ('A' for Active; 'I' for Inactive)
REMARK    1  A    between atoms: N_1  and  C_14
REMARK    2  A    between atoms: C_2  and  C_23
REMARK    3  A    between atoms: C_3  and  O_8
REMARK    4  A    between atoms: C_4  and  O_10
REMARK    5  A    between atoms: C_5  and  O_12
REMARK    6  A    between atoms: C_14  and  C_15
REMARK    7  A    between atoms: C_15  and  C_16
REMARK    8  A    between atoms: C_16  and  C_17
REMARK    9  A    between atoms: C_17  and  C_18
REMARK   10  A    between atoms: C_18  and  C_20
REMARK   11  A    between atoms: C_20  and  O_21
REMARK   12  A    between atoms: C_23  and  O_24
REMARK                            x       y       z     vdW  Elec       q    Type
REMARK                         _______ _______ _______ _____ _____    ______ ____
ROOT
ATOM      1  N   UNL     1      -1.016  -0.460   0.532  0.00  0.00    +0.393 N 
ATOM      2  C   UNL     1      -2.361  -0.988   0.209  0.00  0.00    +0.002 C 
ATOM      3  C   UNL     1      -3.107  -0.032  -0.753  0.00  0.00    +0.123 C 
ATOM      4  C   UNL     1      -3.157   1.402  -0.225  0.00  0.00    +0.160 C 
ATOM      5  C   UNL     1      -1.768   1.876   0.185  0.00  0.00    +0.119 C 
ATOM      6  C   UNL     1      -1.105   0.880   1.130  0.00  0.00    -0.045 C 
ATOM      7  H   UNL     1      -0.513  -0.412  -0.354  0.00  0.00    -0.079 HD
ENDROOT
BRANCH   3   8
ATOM      8  O   UNL     1      -4.449  -0.498  -0.910  0.00  0.00    -0.384 OA
ATOM      9  H   UNL     1      -4.439  -1.408  -1.245  0.00  0.00    +0.210 HD
ENDBRANCH   3   8
BRANCH   4  10
ATOM     10  O   UNL     1      -3.631   2.272  -1.254  0.00  0.00    -0.380 OA
ATOM     11  H   UNL     1      -4.517   1.990  -1.533  0.00  0.00    +0.211 HD
ENDBRANCH   4  10
BRANCH   5  12
ATOM     12  O   UNL     1      -1.875   3.127   0.862  0.00  0.00    -0.384 OA
ATOM     13  H   UNL     1      -2.296   3.777   0.277  0.00  0.00    +0.210 HD
ENDBRANCH   5  12
BRANCH   1  14
ATOM     14  C   UNL     1      -0.266  -1.338   1.435  0.00  0.00    -0.077 C 
BRANCH  14  15
ATOM     15  C   UNL     1       1.150  -0.800   1.637  0.00  0.00    -0.023 C 
BRANCH  15  16
ATOM     16  C   UNL     1       1.949  -0.695   0.333  0.00  0.00    -0.002 C 
BRANCH  16  17
ATOM     17  C   UNL     1       3.392  -0.230   0.540  0.00  0.00    +0.012 C 
BRANCH  17  18
ATOM     18  C   UNL     1       4.162  -0.212  -0.780  0.00  0.00    +0.109 C 
BRANCH  18  20
ATOM     19  O   UNL     1       6.125   0.481   0.482  0.00  0.00    -0.250 OA
ATOM     20  C   UNL     1       5.603   0.203  -0.588  0.00  0.00    +0.314 C 
BRANCH  20  21
ATOM     21  O   UNL     1       6.272   0.234  -1.770  0.00  0.00    -0.480 OA
ATOM     22  H   UNL     1       5.829   0.013  -2.566  0.00  0.00    +0.295 HD
ENDBRANCH  20  21
ENDBRANCH  18  20
ENDBRANCH  17  18
ENDBRANCH  16  17
ENDBRANCH  15  16
ENDBRANCH  14  15
ENDBRANCH   1  14
BRANCH   2  23
ATOM     23  C   UNL     1      -2.297  -2.388  -0.431  0.00  0.00    +0.119 C 
BRANCH  23  24
ATOM     24  O   UNL     1      -3.620  -2.836  -0.632  0.00  0.00    -0.384 OA
ATOM     25  H   UNL     1      -3.604  -3.718  -1.035  0.00  0.00    +0.210 HD
ENDBRANCH  23  24
ENDBRANCH   2  23
TORSDOF 12
