REMARK  Name = 133109084
REMARK  8 active torsions:
REMARK  status: ('A' for Active; 'I' for Inactive)
REMARK    1  A    between atoms: C_2  and  N_8
REMARK    2  A    between atoms: C_3  and  O_12
REMARK    3  A    between atoms: C_4  and  O_14
REMARK    4  A    between atoms: C_5  and  C_27
REMARK    5  A    between atoms: C_6  and  O_16
REMARK    6  A    between atoms: O_16  and  C_18
REMARK    7  A    between atoms: C_23  and  N_26
REMARK    8  A    between atoms: C_27  and  O_28
REMARK                            x       y       z     vdW  Elec       q    Type
REMARK                         _______ _______ _______ _____ _____    ______ ____
ROOT
ATOM      1  O   UNL     1       1.214   1.502   0.624  0.00  0.00    -0.317 OA
ATOM      2  C   UNL     1       2.288  -0.618   0.065  0.00  0.00    +0.172 C 
ATOM      3  C   UNL     1       3.390   0.143  -0.680  0.00  0.00    +0.164 C 
ATOM      4  C   UNL     1       3.495   1.591  -0.194  0.00  0.00    +0.169 C 
ATOM      5  C   UNL     1       2.119   2.261  -0.179  0.00  0.00    +0.177 C 
ATOM      6  C   UNL     1       0.986   0.192   0.106  0.00  0.00    +0.309 C 
ENDROOT
BRANCH   2   8
ATOM      7  O   UNL     1       2.636  -3.236   1.270  0.00  0.00    -0.275 OA
ATOM      8  N   UNL     1       2.061  -1.907  -0.553  0.00  0.00    -0.298 N 
ATOM      9  C   UNL     1       2.256  -3.106   0.109  0.00  0.00    +0.223 C 
ATOM     10  C   UNL     1       1.923  -4.292  -0.756  0.00  0.00    +0.095 C 
ATOM     11  H   UNL     1       1.752  -1.932  -1.487  0.00  0.00    +0.150 HD
ENDBRANCH   2   8
BRANCH   3  12
ATOM     12  O   UNL     1       4.632  -0.522  -0.443  0.00  0.00    -0.380 OA
ATOM     13  H   UNL     1       4.572  -1.440  -0.749  0.00  0.00    +0.211 HD
ENDBRANCH   3  12
BRANCH   4  14
ATOM     14  O   UNL     1       4.356   2.322  -1.063  0.00  0.00    -0.379 OA
ATOM     15  H   UNL     1       5.231   1.904  -1.078  0.00  0.00    +0.211 HD
ENDBRANCH   4  14
BRANCH   6  16
ATOM     16  O   UNL     1       0.013  -0.474   0.912  0.00  0.00    -0.450 OA
BRANCH  16  18
ATOM     17 CL   UNL     1      -1.517  -2.958   0.182  0.00  0.00    -0.079 Cl
ATOM     18  C   UNL     1      -1.298  -0.276   0.577  0.00  0.00    +0.152 C 
ATOM     19  C   UNL     1      -2.122  -1.343   0.219  0.00  0.00    +0.093 C 
ATOM     20  C   UNL     1      -1.807   1.022   0.598  0.00  0.00    +0.040 C 
ATOM     21  C   UNL     1      -3.455  -1.111  -0.119  0.00  0.00    +0.039 C 
ATOM     22  C   UNL     1      -3.141   1.254   0.260  0.00  0.00    +0.027 C 
ATOM     23  C   UNL     1      -3.965   0.187  -0.098  0.00  0.00    +0.144 C 
BRANCH  23  26
ATOM     24  O   UNL     1      -5.759   1.599  -0.419  0.00  0.00    -0.126 OA
ATOM     25  O   UNL     1      -6.047  -0.550  -0.762  0.00  0.00    -0.126 OA
ATOM     26  N   UNL     1      -5.322   0.424  -0.443  0.00  0.00    +0.058 N 
ENDBRANCH  23  26
ENDBRANCH  16  18
ENDBRANCH   6  16
BRANCH   5  27
ATOM     27  C   UNL     1       2.182   3.668   0.407  0.00  0.00    +0.169 C 
BRANCH  27  28
ATOM     28  O   UNL     1       0.882   4.227   0.379  0.00  0.00    -0.379 OA
ATOM     29  H   UNL     1       0.907   5.123   0.749  0.00  0.00    +0.211 HD
ENDBRANCH  27  28
ENDBRANCH   5  27
TORSDOF 8
