REMARK  Name = 133109174
REMARK  9 active torsions:
REMARK  status: ('A' for Active; 'I' for Inactive)
REMARK    1  A    between atoms: N_2  and  C_16
REMARK    2  A    between atoms: C_3  and  C_20
REMARK    3  A    between atoms: C_17  and  O_18
REMARK    4  A    between atoms: C_21  and  C_22
REMARK    5  A    between atoms: C_23  and  C_25
REMARK    6  A    between atoms: C_25  and  C_27
REMARK    7  A    between atoms: C_27  and  C_28
REMARK    8  A    between atoms: C_28  and  C_29
REMARK    9  A    between atoms: C_30  and  C_31
REMARK                            x       y       z     vdW  Elec       q    Type
REMARK                         _______ _______ _______ _____ _____    ______ ____
ROOT
ATOM      1  O   UNL     1      -0.266  -2.134  -2.055  0.00  0.00    -0.270 OA
ATOM      2  N   UNL     1      -1.704  -1.854  -0.252  0.00  0.00    -0.298 N 
ATOM      3  C   UNL     1      -0.463  -1.972  -0.855  0.00  0.00    +0.246 C 
ATOM      4  H   UNL     1      -1.746  -1.726   0.723  0.00  0.00    +0.150 HD
ENDROOT
BRANCH   2  16
ATOM      5  O   UNL     1      -5.359   1.815  -1.349  0.00  0.00    -0.343 OA
ATOM      6  O   UNL     1      -2.854   2.001   0.256  0.00  0.00    -0.343 OA
ATOM      7  O   UNL     1      -4.581  -1.254   0.563  0.00  0.00    -0.329 OA
ATOM      8  O   UNL     1      -5.407   3.835   1.264  0.00  0.00    -0.291 OA
ATOM      9  C   UNL     1      -4.215  -0.049  -0.159  0.00  0.00    +0.152 C 
ATOM     10  C   UNL     1      -3.365   0.769   0.783  0.00  0.00    +0.177 C 
ATOM     11  C   UNL     1      -5.503   0.613  -0.580  0.00  0.00    +0.177 C 
ATOM     12  C   UNL     1      -3.818   2.102   1.316  0.00  0.00    +0.204 C 
ATOM     13  C   UNL     1      -5.933   1.950  -0.039  0.00  0.00    +0.204 C 
ATOM     14  C   UNL     1      -3.416  -0.526  -1.387  0.00  0.00    +0.057 C 
ATOM     15  C   UNL     1      -5.082   2.719   0.883  0.00  0.00    +0.209 C 
ATOM     16  C   UNL     1      -2.938  -1.911  -0.998  0.00  0.00    +0.131 C 
ATOM     17  C   UNL     1      -4.109  -2.399  -0.161  0.00  0.00    +0.250 C 
BRANCH  17  18
ATOM     18  O   UNL     1      -3.738  -3.472   0.685  0.00  0.00    -0.359 OA
ATOM     19  H   UNL     1      -4.507  -3.757   1.203  0.00  0.00    +0.213 HD
ENDBRANCH  17  18
ENDBRANCH   2  16
BRANCH   3  20
ATOM     20  C   UNL     1       0.646  -1.884   0.138  0.00  0.00    +0.057 C 
ATOM     21  C   UNL     1       1.922  -1.978  -0.268  0.00  0.00    +0.000 C 
BRANCH  21  22
ATOM     22  C   UNL     1       3.113  -1.907   0.585  0.00  0.00    -0.026 C 
ATOM     23  C   UNL     1       4.327  -2.022   0.006  0.00  0.00    -0.031 C 
ATOM     24  C   UNL     1       2.898  -1.722   2.065  0.00  0.00    +0.031 C 
BRANCH  23  25
ATOM     25  C   UNL     1       5.693  -1.964   0.659  0.00  0.00    +0.022 C 
ATOM     26  C   UNL     1       6.400  -3.309   0.463  0.00  0.00    +0.005 C 
BRANCH  25  27
ATOM     27  C   UNL     1       6.492  -0.791   0.058  0.00  0.00    +0.009 C 
BRANCH  27  28
ATOM     28  C   UNL     1       5.807   0.567   0.246  0.00  0.00    +0.026 C 
BRANCH  28  29
ATOM     29  C   UNL     1       6.587   1.730  -0.375  0.00  0.00    -0.031 C 
ATOM     30  C   UNL     1       5.995   3.125  -0.145  0.00  0.00    -0.031 C 
BRANCH  30  31
ATOM     31  C   UNL     1       6.737   4.279  -0.823  0.00  0.00    +0.026 C 
ATOM     32  C   UNL     1       6.136   5.644  -0.525  0.00  0.00    +0.005 C 
ENDBRANCH  30  31
ENDBRANCH  28  29
ENDBRANCH  27  28
ENDBRANCH  25  27
ENDBRANCH  23  25
ENDBRANCH  21  22
ENDBRANCH   3  20
TORSDOF 9
