133177
  -OEChem-03292013323D

 42 42  0     1  0  0  0  0  0999 V2000
   -4.4495   -0.4976   -0.9103 O   0  0  0  0  0  0  0  0  0  0  0  0
   -3.6313    2.2718   -1.2544 O   0  0  0  0  0  0  0  0  0  0  0  0
   -1.8754    3.1273    0.8617 O   0  0  0  0  0  0  0  0  0  0  0  0
   -3.6200   -2.8363   -0.6322 O   0  0  0  0  0  0  0  0  0  0  0  0
    6.2722    0.2335   -1.7702 O   0  0  0  0  0  0  0  0  0  0  0  0
    6.1249    0.4806    0.4825 O   0  0  0  0  0  0  0  0  0  0  0  0
   -1.0158   -0.4599    0.5316 N   0  0  1  0  0  0  0  0  0  0  0  0
   -2.3615   -0.9880    0.2088 C   0  0  1  0  0  0  0  0  0  0  0  0
   -3.1069   -0.0318   -0.7527 C   0  0  2  0  0  0  0  0  0  0  0  0
   -3.1571    1.4024   -0.2246 C   0  0  1  0  0  0  0  0  0  0  0  0
   -1.7683    1.8760    0.1846 C   0  0  2  0  0  0  0  0  0  0  0  0
   -1.1046    0.8802    1.1296 C   0  0  0  0  0  0  0  0  0  0  0  0
   -0.2658   -1.3376    1.4353 C   0  0  0  0  0  0  0  0  0  0  0  0
   -2.2971   -2.3876   -0.4311 C   0  0  0  0  0  0  0  0  0  0  0  0
    1.1504   -0.7996    1.6365 C   0  0  0  0  0  0  0  0  0  0  0  0
    1.9489   -0.6946    0.3333 C   0  0  0  0  0  0  0  0  0  0  0  0
    3.3917   -0.2297    0.5401 C   0  0  0  0  0  0  0  0  0  0  0  0
    4.1625   -0.2123   -0.7803 C   0  0  0  0  0  0  0  0  0  0  0  0
    5.6027    0.2033   -0.5882 C   0  0  0  0  0  0  0  0  0  0  0  0
   -2.9550   -1.0730    1.1316 H   0  0  0  0  0  0  0  0  0  0  0  0
   -2.6472   -0.0465   -1.7489 H   0  0  0  0  0  0  0  0  0  0  0  0
   -3.8609    1.4967    0.6114 H   0  0  0  0  0  0  0  0  0  0  0  0
   -1.1482    2.0425   -0.7054 H   0  0  0  0  0  0  0  0  0  0  0  0
   -0.1239    1.3134    1.3426 H   0  0  0  0  0  0  0  0  0  0  0  0
   -1.6406    0.8541    2.0888 H   0  0  0  0  0  0  0  0  0  0  0  0
   -0.7686   -1.4402    2.4052 H   0  0  0  0  0  0  0  0  0  0  0  0
   -0.1515   -2.3419    1.0184 H   0  0  0  0  0  0  0  0  0  0  0  0
   -1.8137   -3.1334    0.2029 H   0  0  0  0  0  0  0  0  0  0  0  0
   -1.7805   -2.3666   -1.3963 H   0  0  0  0  0  0  0  0  0  0  0  0
    1.1868    0.1367    2.2009 H   0  0  0  0  0  0  0  0  0  0  0  0
    1.6723   -1.5188    2.2838 H   0  0  0  0  0  0  0  0  0  0  0  0
    1.4569    0.0040   -0.3538 H   0  0  0  0  0  0  0  0  0  0  0  0
    1.9543   -1.6742   -0.1614 H   0  0  0  0  0  0  0  0  0  0  0  0
   -4.8734   -0.4948   -0.0351 H   0  0  0  0  0  0  0  0  0  0  0  0
   -4.5036    1.9431   -1.5317 H   0  0  0  0  0  0  0  0  0  0  0  0
   -0.9747    3.4233    1.0783 H   0  0  0  0  0  0  0  0  0  0  0  0
    3.3972    0.7713    0.9889 H   0  0  0  0  0  0  0  0  0  0  0  0
    3.8937   -0.8974    1.2512 H   0  0  0  0  0  0  0  0  0  0  0  0
   -4.0496   -2.9001    0.2378 H   0  0  0  0  0  0  0  0  0  0  0  0
    4.1565   -1.2123   -1.2281 H   0  0  0  0  0  0  0  0  0  0  0  0
    3.6924    0.4932   -1.4743 H   0  0  0  0  0  0  0  0  0  0  0  0
    7.2085    0.5017   -1.6530 H   0  0  0  0  0  0  0  0  0  0  0  0
  1  9  1  0  0  0  0
  1 34  1  0  0  0  0
  2 10  1  0  0  0  0
  2 35  1  0  0  0  0
  3 11  1  0  0  0  0
  3 36  1  0  0  0  0
  4 14  1  0  0  0  0
  4 39  1  0  0  0  0
  5 19  1  0  0  0  0
  5 42  1  0  0  0  0
  6 19  2  0  0  0  0
  7  8  1  0  0  0  0
  7 12  1  0  0  0  0
  7 13  1  0  0  0  0
  8  9  1  0  0  0  0
  8 14  1  0  0  0  0
  8 20  1  0  0  0  0
  9 10  1  0  0  0  0
  9 21  1  0  0  0  0
 10 11  1  0  0  0  0
 10 22  1  0  0  0  0
 11 12  1  0  0  0  0
 11 23  1  0  0  0  0
 12 24  1  0  0  0  0
 12 25  1  0  0  0  0
 13 15  1  0  0  0  0
 13 26  1  0  0  0  0
 13 27  1  0  0  0  0
 14 28  1  0  0  0  0
 14 29  1  0  0  0  0
 15 16  1  0  0  0  0
 15 30  1  0  0  0  0
 15 31  1  0  0  0  0
 16 17  1  0  0  0  0
 16 32  1  0  0  0  0
 16 33  1  0  0  0  0
 17 18  1  0  0  0  0
 17 37  1  0  0  0  0
 17 38  1  0  0  0  0
 18 19  1  0  0  0  0
 18 40  1  0  0  0  0
 18 41  1  0  0  0  0
M  END
> <PUBCHEM_COMPOUND_CID>
133177

> <PUBCHEM_CONFORMER_RMSD>
0.8

> <PUBCHEM_CONFORMER_DIVERSEORDER>
1
49
91
2
76
23
32
87
88
48
4
60
69
98
44
92
51
81
97
13
36
14
21
95
54
78
85
29
8
26
66
89
64
17
80
84
50
10
53
37
96
94
74
5
40
79
11
77
24
34
22
31
67
3
65
56
25
38
30
90
39
9
82
68
75
16
57
6
33
55
18
28
43
45
7
59
93
71
47
83
15
73
61
20
58
35
27
41
62
52
99
86
42
19
70
63
46
72
12

> <PUBCHEM_MMFF94_PARTIAL_CHARGES>
21
1 -0.68
10 0.28
11 0.28
12 0.27
13 0.27
14 0.28
18 0.06
19 0.66
2 -0.68
3 -0.68
34 0.4
35 0.4
36 0.4
39 0.4
4 -0.68
42 0.5
5 -0.65
6 -0.57
7 -0.81
8 0.27
9 0.28

> <PUBCHEM_EFFECTIVE_ROTOR_COUNT>
8.2

> <PUBCHEM_PHARMACOPHORE_FEATURES>
14
1 1 acceptor
1 1 donor
1 2 acceptor
1 2 donor
1 3 acceptor
1 3 donor
1 4 acceptor
1 4 donor
1 5 acceptor
1 6 acceptor
1 7 cation
3 5 6 19 anion
4 15 16 17 18 hydrophobe
6 7 8 9 10 11 12 rings

> <PUBCHEM_HEAVY_ATOM_COUNT>
19

> <PUBCHEM_ATOM_DEF_STEREO_COUNT>
4

> <PUBCHEM_ATOM_UDEF_STEREO_COUNT>
0

> <PUBCHEM_BOND_DEF_STEREO_COUNT>
0

> <PUBCHEM_BOND_UDEF_STEREO_COUNT>
0

> <PUBCHEM_ISOTOPIC_ATOM_COUNT>
0

> <PUBCHEM_COMPONENT_COUNT>
1

> <PUBCHEM_CACTVS_TAUTO_COUNT>
1

> <PUBCHEM_CONFORMER_ID>
0002083900000001

> <PUBCHEM_MMFF94_ENERGY>
30.9997

> <PUBCHEM_FEATURE_SELFOVERLAP>
71.154

> <PUBCHEM_SHAPE_FINGERPRINT>
10498660 4 18338229380261968056
10871710 139 17967532329107606741
11089746 13 17894628193611797148
13675066 3 12684811122159841610
14123260 362 17749117681671140186
14251764 38 18337956804975037480
14420673 8 9366529022808585632
14790565 3 17911238322020033985
15183329 4 17894918378893343654
16994733 274 15213838494906328303
17870717 6 18131359591810741124
19489759 90 18408603674001264322
20300324 65 18410013247449059290
20871999 31 18341324557091735227
22620623 9 18059558222842889303
2297311 6 18342461482132231983
23402539 116 18334291002820858162
235170 7 17632585924885403572
23557571 272 18343023315098568710
23559900 14 18272358819731774664
23596394 208 17703793579408223942
2748010 2 17908950487598539723
3268164 11 18409729586450195350
351380 3 13326854427113099612
4028521 119 18335420140958825840
474 4 17240483589856338234
531348 171 18269001903853818598
57265010 4 8430320108652323730
633830 44 17313386674097951378

> <PUBCHEM_SHAPE_MULTIPOLES>
350.81
11.81
2.51
1.36
22.72
0.48
0.08
1.55
-6.06
-4.36
-0.06
0.56
-0.03
-0.58

> <PUBCHEM_SHAPE_SELFOVERLAP>
689.582

> <PUBCHEM_SHAPE_VOLUME>
208.8

> <PUBCHEM_COORDINATE_TYPE>
2
5
10

$$$$
