133109084
  -OEChem-03292013293D

 42 43  0     1  0  0  0  0  0999 V2000
   -1.5166   -2.9579    0.1822 Cl  0  0  0  0  0  0  0  0  0  0  0  0
    1.2145    1.5023    0.6244 O   0  0  0  0  0  0  0  0  0  0  0  0
    4.6324   -0.5216   -0.4427 O   0  0  0  0  0  0  0  0  0  0  0  0
    0.0134   -0.4737    0.9125 O   0  0  0  0  0  0  0  0  0  0  0  0
    4.3564    2.3223   -1.0627 O   0  0  0  0  0  0  0  0  0  0  0  0
    0.8816    4.2267    0.3787 O   0  0  0  0  0  0  0  0  0  0  0  0
    2.6358   -3.2364    1.2698 O   0  0  0  0  0  0  0  0  0  0  0  0
   -5.7593    1.5994   -0.4191 O   0  5  0  0  0  0  0  0  0  0  0  0
   -6.0466   -0.5496   -0.7624 O   0  0  0  0  0  0  0  0  0  0  0  0
    2.0605   -1.9075   -0.5526 N   0  0  0  0  0  0  0  0  0  0  0  0
   -5.3220    0.4236   -0.4431 N   0  3  0  0  0  0  0  0  0  0  0  0
    2.2877   -0.6179    0.0654 C   0  0  1  0  0  0  0  0  0  0  0  0
    3.3899    0.1427   -0.6800 C   0  0  1  0  0  0  0  0  0  0  0  0
    3.4950    1.5907   -0.1943 C   0  0  2  0  0  0  0  0  0  0  0  0
    2.1189    2.2607   -0.1789 C   0  0  2  0  0  0  0  0  0  0  0  0
    0.9859    0.1921    0.1065 C   0  0  2  0  0  0  0  0  0  0  0  0
    2.1822    3.6680    0.4068 C   0  0  0  0  0  0  0  0  0  0  0  0
    2.2561   -3.1058    0.1090 C   0  0  0  0  0  0  0  0  0  0  0  0
   -1.2979   -0.2760    0.5771 C   0  0  0  0  0  0  0  0  0  0  0  0
    1.9229   -4.2919   -0.7558 C   0  0  0  0  0  0  0  0  0  0  0  0
   -2.1221   -1.3428    0.2189 C   0  0  0  0  0  0  0  0  0  0  0  0
   -1.8073    1.0225    0.5977 C   0  0  0  0  0  0  0  0  0  0  0  0
   -3.4555   -1.1112   -0.1187 C   0  0  0  0  0  0  0  0  0  0  0  0
   -3.1408    1.2541    0.2598 C   0  0  0  0  0  0  0  0  0  0  0  0
   -3.9649    0.1872   -0.0983 C   0  0  0  0  0  0  0  0  0  0  0  0
    2.6167   -0.7907    1.0986 H   0  0  0  0  0  0  0  0  0  0  0  0
    3.2205    0.1160   -1.7634 H   0  0  0  0  0  0  0  0  0  0  0  0
    3.9435    1.6113    0.8063 H   0  0  0  0  0  0  0  0  0  0  0  0
    1.7056    2.3352   -1.1941 H   0  0  0  0  0  0  0  0  0  0  0  0
    0.5958    0.2837   -0.9189 H   0  0  0  0  0  0  0  0  0  0  0  0
    2.8527    4.3134   -0.1686 H   0  0  0  0  0  0  0  0  0  0  0  0
    2.5120    3.6417    1.4507 H   0  0  0  0  0  0  0  0  0  0  0  0
    1.7458   -1.9174   -1.5186 H   0  0  0  0  0  0  0  0  0  0  0  0
    4.8089   -0.5003    0.5133 H   0  0  0  0  0  0  0  0  0  0  0  0
    3.9628    2.3161   -1.9519 H   0  0  0  0  0  0  0  0  0  0  0  0
    0.9440    5.1189    0.7602 H   0  0  0  0  0  0  0  0  0  0  0  0
    1.5281   -5.0963   -0.1287 H   0  0  0  0  0  0  0  0  0  0  0  0
    1.1702   -4.0435   -1.5092 H   0  0  0  0  0  0  0  0  0  0  0  0
    2.8324   -4.6352   -1.2560 H   0  0  0  0  0  0  0  0  0  0  0  0
   -1.1978    1.8693    0.8952 H   0  0  0  0  0  0  0  0  0  0  0  0
   -4.0814   -1.9569   -0.3957 H   0  0  0  0  0  0  0  0  0  0  0  0
   -3.5045    2.2780    0.2916 H   0  0  0  0  0  0  0  0  0  0  0  0
  1 21  1  0  0  0  0
  2 15  1  0  0  0  0
  2 16  1  0  0  0  0
  3 13  1  0  0  0  0
  3 34  1  0  0  0  0
  4 16  1  0  0  0  0
  4 19  1  0  0  0  0
  5 14  1  0  0  0  0
  5 35  1  0  0  0  0
  6 17  1  0  0  0  0
  6 36  1  0  0  0  0
  7 18  2  0  0  0  0
  8 11  1  0  0  0  0
  9 11  2  0  0  0  0
 10 12  1  0  0  0  0
 10 18  1  0  0  0  0
 10 33  1  0  0  0  0
 11 25  1  0  0  0  0
 12 13  1  0  0  0  0
 12 16  1  0  0  0  0
 12 26  1  0  0  0  0
 13 14  1  0  0  0  0
 13 27  1  0  0  0  0
 14 15  1  0  0  0  0
 14 28  1  0  0  0  0
 15 17  1  0  0  0  0
 15 29  1  0  0  0  0
 16 30  1  0  0  0  0
 17 31  1  0  0  0  0
 17 32  1  0  0  0  0
 18 20  1  0  0  0  0
 19 21  2  0  0  0  0
 19 22  1  0  0  0  0
 20 37  1  0  0  0  0
 20 38  1  0  0  0  0
 20 39  1  0  0  0  0
 21 23  1  0  0  0  0
 22 24  2  0  0  0  0
 22 40  1  0  0  0  0
 23 25  2  0  0  0  0
 23 41  1  0  0  0  0
 24 25  1  0  0  0  0
 24 42  1  0  0  0  0
M  CHG  2   8  -1  11   1
M  END
> <PUBCHEM_COMPOUND_CID>
133109084

> <PUBCHEM_CONFORMER_RMSD>
0.8

> <PUBCHEM_CONFORMER_DIVERSEORDER>
1
98
97
74
56
53
103
64
49
38
70
79
18
31
27
24
42
10
85
88
92
73
14
87
68
91
7
65
69
13
30
71
33
83
62
47
59
32
52
76
58
96
89
101
20
86
78
90
21
54
100
84
75
55
48
19
81
16
8
11
102
39
61
77
34
43
66
9
93
99
22
4
36
44
46
41
3
104
15
23
5
29
82
25
57
72
26
50
95
60
37
105
28
51
63
35
94
6
45
67
40
12
2
17
80

> <PUBCHEM_MMFF94_PARTIAL_CHARGES>
32
1 -0.18
10 -0.73
11 0.91
12 0.3
13 0.28
14 0.28
15 0.28
16 0.56
17 0.28
18 0.57
19 0.08
2 -0.56
20 0.06
21 0.18
22 -0.15
23 -0.15
24 -0.15
25 0.13
3 -0.68
33 0.37
34 0.4
35 0.4
36 0.4
4 -0.36
40 0.15
41 0.15
42 0.15
5 -0.68
6 -0.68
7 -0.57
8 -0.52
9 -0.52

> <PUBCHEM_EFFECTIVE_ROTOR_COUNT>
7.2

> <PUBCHEM_PHARMACOPHORE_FEATURES>
15
1 10 donor
1 2 acceptor
1 3 acceptor
1 3 donor
1 4 acceptor
1 5 acceptor
1 5 donor
1 6 acceptor
1 6 donor
1 7 acceptor
1 8 acceptor
1 8 anion
1 9 acceptor
6 19 21 22 23 24 25 rings
6 2 12 13 14 15 16 rings

> <PUBCHEM_HEAVY_ATOM_COUNT>
25

> <PUBCHEM_ATOM_DEF_STEREO_COUNT>
5

> <PUBCHEM_ATOM_UDEF_STEREO_COUNT>
0

> <PUBCHEM_BOND_DEF_STEREO_COUNT>
0

> <PUBCHEM_BOND_UDEF_STEREO_COUNT>
0

> <PUBCHEM_ISOTOPIC_ATOM_COUNT>
0

> <PUBCHEM_COMPONENT_COUNT>
1

> <PUBCHEM_CACTVS_TAUTO_COUNT>
2

> <PUBCHEM_CONFORMER_ID>
07EF155C00000001

> <PUBCHEM_MMFF94_ENERGY>
72.8266

> <PUBCHEM_FEATURE_SELFOVERLAP>
76.265

> <PUBCHEM_SHAPE_FINGERPRINT>
10411042 1 17978510832288783170
10693767 8 18130796599309308318
11370993 70 18267020755023504988
116883 192 17835804093159434382
12173636 292 17977662344550866663
12553582 1 18051150098379900138
12730499 353 18335429001555452971
12788726 201 17703236113737669465
13004483 165 17903340525597126602
13140716 1 18195254531609129744
13583140 156 18335430088409272427
138480 1 18195247715491294886
14866123 147 16682317310526737123
18335252 114 18121769536242409349
18681886 176 18342733053246693618
19591789 44 11781558436848271338
19930381 70 18338234852108013519
20645477 70 18410012096255944711
21285901 2 17822289041948509741
221357 26 18410008819523134197
22289505 5 18335697196182366397
22393880 68 18269280217269986238
2255824 54 18411982498581139616
23227448 37 18267584791914895351
23558518 356 17471284523905986656
23559900 14 18412820291765392075
3004659 81 18264488386376808659
3060560 45 18412266177087128308
4280585 95 17912100352163459438
495365 180 18270672194463882592
543358 83 18340491075500649819
59755656 215 18339651040792434078
67856867 119 18410565180532116458
7364860 26 18410575072068554906
9709674 26 18267870669032773419
9981440 41 18122052380400382689

> <PUBCHEM_SHAPE_MULTIPOLES>
459.44
9.87
4.87
0.85
12.44
1.19
0.04
-2.89
-2.97
-5.3
0.18
-0.21
0.16
-0.15

> <PUBCHEM_SHAPE_SELFOVERLAP>
951.554

> <PUBCHEM_SHAPE_VOLUME>
261.9

> <PUBCHEM_COORDINATE_TYPE>
2
5
10

$$$$
