REMARK  Name = 133126644
REMARK  8 active torsions:
REMARK  status: ('A' for Active; 'I' for Inactive)
REMARK    1  A    between atoms: C_3  and  O_25
REMARK    2  A    between atoms: C_6  and  O_21
REMARK    3  A    between atoms: C_13  and  O_23
REMARK    4  A    between atoms: C_15  and  C_35
REMARK    5  A    between atoms: O_25  and  C_27
REMARK    6  A    between atoms: C_27  and  C_28
REMARK    7  A    between atoms: C_28  and  C_29
REMARK    8  A    between atoms: C_35  and  O_36
REMARK                            x       y       z     vdW  Elec       q    Type
REMARK                         _______ _______ _______ _____ _____    ______ ____
ROOT
ATOM      1  O   UNL     1       5.971   1.522   1.308  0.00  0.00    -0.294 OA
ATOM      2  C   UNL     1       0.055  -1.486  -0.380  0.00  0.00    +0.046 C 
ATOM      3  C   UNL     1      -0.985  -0.569   0.213  0.00  0.00    +0.136 C 
ATOM      4  C   UNL     1      -0.869  -2.013   0.710  0.00  0.00    +0.037 C 
ATOM      5  C   UNL     1       1.493  -1.033  -0.176  0.00  0.00    +0.050 C 
ATOM      6  C   UNL     1       1.609   0.451  -0.685  0.00  0.00    +0.095 C 
ATOM      7  C   UNL     1      -0.448   0.630   0.942  0.00  0.00    +0.042 C 
ATOM      8  C   UNL     1       0.616   1.397   0.109  0.00  0.00    +0.029 C 
ATOM      9  C   UNL     1      -1.928  -3.002   0.270  0.00  0.00    +0.004 C 
ATOM     10  C   UNL     1      -0.351  -2.321   2.093  0.00  0.00    +0.004 C 
ATOM     11  C   UNL     1       3.095   0.926  -0.700  0.00  0.00    +0.057 C 
ATOM     12  C   UNL     1       2.506  -2.002  -0.746  0.00  0.00    -0.030 C 
ATOM     13  C   UNL     1       3.970   0.420   0.465  0.00  0.00    +0.145 C 
ATOM     14  C   UNL     1      -0.099   2.436  -0.772  0.00  0.00    +0.003 C 
ATOM     15  C   UNL     1       3.843  -1.981  -0.567  0.00  0.00    -0.017 C 
ATOM     16  C   UNL     1       4.657  -0.914   0.154  0.00  0.00    +0.058 C 
ATOM     17  C   UNL     1       3.386   2.405  -0.731  0.00  0.00    +0.013 C 
ATOM     18  C   UNL     1       4.941   1.565   0.652  0.00  0.00    +0.174 C 
ATOM     19  C   UNL     1       4.446   2.787  -0.011  0.00  0.00    +0.060 C 
ATOM     20  C   UNL     1       5.077   4.116   0.125  0.00  0.00    +0.008 C 
ENDROOT
BRANCH   6  21
ATOM     21  O   UNL     1       1.196   0.415  -2.071  0.00  0.00    -0.386 OA
ATOM     22  H   UNL     1       0.272   0.124  -2.125  0.00  0.00    +0.210 HD
ENDBRANCH   6  21
BRANCH  13  23
ATOM     23  O   UNL     1       3.320   0.348   1.727  0.00  0.00    -0.379 OA
ATOM     24  H   UNL     1       2.665  -0.367   1.713  0.00  0.00    +0.211 HD
ENDBRANCH  13  23
BRANCH   3  25
ATOM     25  O   UNL     1      -2.103  -0.263  -0.642  0.00  0.00    -0.456 OA
BRANCH  25  27
ATOM     26  O   UNL     1      -3.557  -0.271   1.145  0.00  0.00    -0.250 OA
ATOM     27  C   UNL     1      -3.336  -0.141  -0.051  0.00  0.00    +0.321 C 
BRANCH  27  28
ATOM     28  C   UNL     1      -4.369   0.177  -1.106  0.00  0.00    +0.136 C 
BRANCH  28  29
ATOM     29  C   UNL     1      -5.751   0.366  -0.536  0.00  0.00    -0.011 C 
ATOM     30  C   UNL     1      -6.610  -0.726  -0.413  0.00  0.00    -0.004 C 
ATOM     31  C   UNL     1      -6.171   1.633  -0.133  0.00  0.00    -0.004 C 
ATOM     32  C   UNL     1      -7.890  -0.550   0.114  0.00  0.00    -0.000 C 
ATOM     33  C   UNL     1      -7.451   1.809   0.394  0.00  0.00    -0.000 C 
ATOM     34  C   UNL     1      -8.310   0.717   0.517  0.00  0.00    -0.000 C 
ENDBRANCH  28  29
ENDBRANCH  27  28
ENDBRANCH  25  27
ENDBRANCH   3  25
BRANCH  15  35
ATOM     35  C   UNL     1       4.684  -3.098  -1.135  0.00  0.00    +0.159 C 
BRANCH  35  36
ATOM     36  O   UNL     1       5.366  -3.752  -0.085  0.00  0.00    -0.378 OA
ATOM     37  H   UNL     1       5.907  -4.470  -0.449  0.00  0.00    +0.211 HD
ENDBRANCH  35  36
ENDBRANCH  15  35
TORSDOF 8
