133124956
  -OEChem-03292013293D

 33 33  0     1  0  0  0  0  0999 V2000
   -1.9112   -1.1602    0.2835 O   0  0  0  0  0  0  0  0  0  0  0  0
    0.5845    2.1090    0.3233 O   0  0  0  0  0  0  0  0  0  0  0  0
   -2.2175    2.4106   -0.4550 O   0  0  0  0  0  0  0  0  0  0  0  0
   -0.1216   -2.6528    0.2860 O   0  0  0  0  0  0  0  0  0  0  0  0
   -4.6298   -1.0340   -0.1487 O   0  0  0  0  0  0  0  0  0  0  0  0
    2.9394    0.5122    1.1820 O   0  0  0  0  0  0  0  0  0  0  0  0
    1.6542   -0.4931   -0.4721 N   0  0  0  0  0  0  0  0  0  0  0  0
    0.3589   -0.2743    0.1368 C   0  0  1  0  0  0  0  0  0  0  0  0
   -0.2052    1.0864   -0.2868 C   0  0  1  0  0  0  0  0  0  0  0  0
   -1.6622    1.2482    0.1546 C   0  0  2  0  0  0  0  0  0  0  0  0
   -2.4927    0.0286   -0.2524 C   0  0  2  0  0  0  0  0  0  0  0  0
   -0.6031   -1.4113   -0.2293 C   0  0  2  0  0  0  0  0  0  0  0  0
   -3.9219    0.1170    0.2740 C   0  0  0  0  0  0  0  0  0  0  0  0
    2.8408   -0.0769    0.1091 C   0  0  0  0  0  0  0  0  0  0  0  0
    4.0372   -0.4423   -0.7502 C   0  0  0  0  0  0  0  0  0  0  0  0
    5.3502    0.0328   -0.1548 C   0  0  0  0  0  0  0  0  0  0  0  0
    0.5083   -0.2771    1.2251 H   0  0  0  0  0  0  0  0  0  0  0  0
   -0.1175    1.2257   -1.3712 H   0  0  0  0  0  0  0  0  0  0  0  0
   -1.7032    1.3959    1.2406 H   0  0  0  0  0  0  0  0  0  0  0  0
   -2.5397   -0.0685   -1.3458 H   0  0  0  0  0  0  0  0  0  0  0  0
   -0.6642   -1.5191   -1.3205 H   0  0  0  0  0  0  0  0  0  0  0  0
    1.6817   -0.9218   -1.3931 H   0  0  0  0  0  0  0  0  0  0  0  0
   -4.4368    1.0040   -0.1073 H   0  0  0  0  0  0  0  0  0  0  0  0
   -3.9342    0.1335    1.3689 H   0  0  0  0  0  0  0  0  0  0  0  0
    0.5134    2.0109    1.2881 H   0  0  0  0  0  0  0  0  0  0  0  0
   -2.1919    2.2860   -1.4191 H   0  0  0  0  0  0  0  0  0  0  0  0
   -0.4839   -3.3564   -0.2788 H   0  0  0  0  0  0  0  0  0  0  0  0
    4.0594   -1.5316   -0.8682 H   0  0  0  0  0  0  0  0  0  0  0  0
    3.9027    0.0038   -1.7423 H   0  0  0  0  0  0  0  0  0  0  0  0
   -5.5343   -0.9590    0.2002 H   0  0  0  0  0  0  0  0  0  0  0  0
    5.3572    1.1214   -0.0370 H   0  0  0  0  0  0  0  0  0  0  0  0
    5.5185   -0.4123    0.8314 H   0  0  0  0  0  0  0  0  0  0  0  0
    6.1862   -0.2467   -0.8033 H   0  0  0  0  0  0  0  0  0  0  0  0
  1 11  1  0  0  0  0
  1 12  1  0  0  0  0
  2  9  1  0  0  0  0
  2 25  1  0  0  0  0
  3 10  1  0  0  0  0
  3 26  1  0  0  0  0
  4 12  1  0  0  0  0
  4 27  1  0  0  0  0
  5 13  1  0  0  0  0
  5 30  1  0  0  0  0
  6 14  2  0  0  0  0
  7  8  1  0  0  0  0
  7 14  1  0  0  0  0
  7 22  1  0  0  0  0
  8  9  1  0  0  0  0
  8 12  1  0  0  0  0
  8 17  1  0  0  0  0
  9 10  1  0  0  0  0
  9 18  1  0  0  0  0
 10 11  1  0  0  0  0
 10 19  1  0  0  0  0
 11 13  1  0  0  0  0
 11 20  1  0  0  0  0
 12 21  1  0  0  0  0
 13 23  1  0  0  0  0
 13 24  1  0  0  0  0
 14 15  1  0  0  0  0
 15 16  1  0  0  0  0
 15 28  1  0  0  0  0
 15 29  1  0  0  0  0
 16 31  1  0  0  0  0
 16 32  1  0  0  0  0
 16 33  1  0  0  0  0
M  END
> <PUBCHEM_COMPOUND_CID>
133124956

> <PUBCHEM_CONFORMER_RMSD>
0.6

> <PUBCHEM_CONFORMER_DIVERSEORDER>
1
22
48
39
47
27
9
30
45
15
43
7
21
20
24
36
14
25
31
49
46
17
13
11
51
16
5
23
50
53
37
3
19
18
34
40
29
54
10
2
12
35
38
42
33
28
44
52
41
55
32
4
26
6
8

> <PUBCHEM_MMFF94_PARTIAL_CHARGES>
20
1 -0.56
10 0.28
11 0.28
12 0.56
13 0.28
14 0.57
15 0.06
2 -0.68
22 0.37
25 0.4
26 0.4
27 0.4
3 -0.68
30 0.4
4 -0.68
5 -0.68
6 -0.57
7 -0.73
8 0.3
9 0.28

> <PUBCHEM_EFFECTIVE_ROTOR_COUNT>
5.2

> <PUBCHEM_PHARMACOPHORE_FEATURES>
13
1 1 acceptor
1 16 hydrophobe
1 2 acceptor
1 2 donor
1 3 acceptor
1 3 donor
1 4 acceptor
1 4 donor
1 5 acceptor
1 5 donor
1 6 acceptor
1 7 donor
6 1 8 9 10 11 12 rings

> <PUBCHEM_HEAVY_ATOM_COUNT>
16

> <PUBCHEM_ATOM_DEF_STEREO_COUNT>
5

> <PUBCHEM_ATOM_UDEF_STEREO_COUNT>
0

> <PUBCHEM_BOND_DEF_STEREO_COUNT>
0

> <PUBCHEM_BOND_UDEF_STEREO_COUNT>
0

> <PUBCHEM_ISOTOPIC_ATOM_COUNT>
0

> <PUBCHEM_COMPONENT_COUNT>
1

> <PUBCHEM_CACTVS_TAUTO_COUNT>
2

> <PUBCHEM_CONFORMER_ID>
07EF535C00000001

> <PUBCHEM_MMFF94_ENERGY>
28.2415

> <PUBCHEM_FEATURE_SELFOVERLAP>
66.033

> <PUBCHEM_SHAPE_FINGERPRINT>
108231 29 18272087210030964889
11132069 177 18343295993976768115
11680986 33 18122064475012476273
12032990 46 18342178860055985068
12236239 1 17530964679305629342
13140716 1 18265624371372816643
13862211 1 18410570712713990879
14115302 16 17968948603015424766
14911166 2 18409163333571978047
14993402 34 18187365441085009068
15042514 8 18336551637008238187
15196674 1 18338518517412673526
16945 1 18408879642418392751
17804303 29 18412265064179096929
18186145 218 17917423203394425488
193761 8 17689436413816925935
20028762 73 18056765562336160239
20510252 161 18342740672038615800
20645476 183 17530684333351845562
20645477 56 18411981390801382528
20871999 31 18409730634190412492
21029758 11 18343300379244275057
21029758 27 18187091679959622581
21501502 16 18120088377797536531
23175994 123 17275391997580285944
2334 1 17905327678041301351
23366157 5 17608095269249014426
23402539 116 18413384345609902063
23532345 42 18410846685784562256
23557571 272 18271818899988768676
23559900 14 18199468775933960326
2748010 2 18122065295614876487
3286 77 17274538845007524649
366044 4 18409168813597209459
43471831 8 18262234400482837762
474 4 16879083025938077316
69090 78 17917706920128150718
7364860 26 18198061589396484832

> <PUBCHEM_SHAPE_MULTIPOLES>
289.08
8.25
1.96
0.75
5.35
0.07
0.04
-0.62
-0.46
-1.22
0.03
0.32
0.05
0.3

> <PUBCHEM_SHAPE_SELFOVERLAP>
573.585

> <PUBCHEM_SHAPE_VOLUME>
169.8

> <PUBCHEM_COORDINATE_TYPE>
2
5
10

$$$$
