133125
  -OEChem-03292013323D

 25 25  0     0  0  0  0  0  0999 V2000
    4.7169   -0.2896   -0.0659 S   0  0  0  0  0  0  0  0  0  0  0  0
    1.8872   -1.1957   -0.0554 S   0  0  0  0  0  0  0  0  0  0  0  0
   -1.8305    1.5938    0.0079 O   0  0  0  0  0  0  0  0  0  0  0  0
    4.8481   -1.6086   -0.6890 O   0  0  0  0  0  0  0  0  0  0  0  0
    5.3802    0.8673   -0.6685 O   0  0  0  0  0  0  0  0  0  0  0  0
   -6.6482    0.4679    0.1247 O   0  0  0  0  0  0  0  0  0  0  0  0
   -5.6770   -1.5777   -0.0287 O   0  0  0  0  0  0  0  0  0  0  0  0
   -0.6301   -0.4315   -0.0264 N   0  0  0  0  0  0  0  0  0  0  0  0
    2.4939    1.2939   -0.0277 N   0  0  0  0  0  0  0  0  0  0  0  0
    1.1108    1.2458   -0.0169 N   0  0  0  0  0  0  0  0  0  0  0  0
    5.2874   -0.4362    1.5554 N   0  0  0  0  0  0  0  0  0  0  0  0
   -3.0362   -0.4656   -0.0334 C   0  0  0  0  0  0  0  0  0  0  0  0
   -4.2791    0.4216   -0.0132 C   0  0  0  0  0  0  0  0  0  0  0  0
   -1.7646    0.3682   -0.0083 C   0  0  0  0  0  0  0  0  0  0  0  0
    3.0235    0.0894   -0.0478 C   0  0  0  0  0  0  0  0  0  0  0  0
    0.6926    0.0171   -0.0298 C   0  0  0  0  0  0  0  0  0  0  0  0
   -5.5749   -0.3602    0.0229 C   0  0  0  0  0  0  0  0  0  0  0  0
   -3.0312   -1.0901   -0.9346 H   0  0  0  0  0  0  0  0  0  0  0  0
   -3.0334   -1.1339    0.8359 H   0  0  0  0  0  0  0  0  0  0  0  0
   -4.2968    1.0587   -0.9053 H   0  0  0  0  0  0  0  0  0  0  0  0
   -4.2573    1.0664    0.8736 H   0  0  0  0  0  0  0  0  0  0  0  0
   -0.7398   -1.4423   -0.0406 H   0  0  0  0  0  0  0  0  0  0  0  0
    5.3088    0.4281    2.1119 H   0  0  0  0  0  0  0  0  0  0  0  0
    4.9373   -1.2405    2.0917 H   0  0  0  0  0  0  0  0  0  0  0  0
   -7.4928   -0.0305    0.1498 H   0  0  0  0  0  0  0  0  0  0  0  0
  1  4  2  0  0  0  0
  1  5  2  0  0  0  0
  1 11  1  0  0  0  0
  1 15  1  0  0  0  0
  2 15  1  0  0  0  0
  2 16  1  0  0  0  0
  3 14  2  0  0  0  0
  6 17  1  0  0  0  0
  6 25  1  0  0  0  0
  7 17  2  0  0  0  0
  8 14  1  0  0  0  0
  8 16  1  0  0  0  0
  8 22  1  0  0  0  0
  9 10  1  0  0  0  0
  9 15  2  0  0  0  0
 10 16  2  0  0  0  0
 11 23  1  0  0  0  0
 11 24  1  0  0  0  0
 12 13  1  0  0  0  0
 12 14  1  0  0  0  0
 12 18  1  0  0  0  0
 12 19  1  0  0  0  0
 13 17  1  0  0  0  0
 13 20  1  0  0  0  0
 13 21  1  0  0  0  0
M  END
> <PUBCHEM_COMPOUND_CID>
133125

> <PUBCHEM_CONFORMER_RMSD>
0.8

> <PUBCHEM_CONFORMER_DIVERSEORDER>
1
27
20
38
15
31
29
21
4
34
33
19
37
2
30
39
16
11
25
24
14
36
26
32
23
18
8
13
9
40
22
5
17
10
28
35
3
7
12
6

> <PUBCHEM_MMFF94_PARTIAL_CHARGES>
21
1 1.5
10 -0.34
11 -0.98
12 0.06
13 0.06
14 0.57
15 0.32
16 0.44
17 0.66
2 -0.08
22 0.37
23 0.42
24 0.42
25 0.5
3 -0.57
4 -0.65
5 -0.65
6 -0.65
7 -0.57
8 -0.49
9 -0.34

> <PUBCHEM_EFFECTIVE_ROTOR_COUNT>
6

> <PUBCHEM_PHARMACOPHORE_FEATURES>
10
1 11 donor
1 3 acceptor
1 4 acceptor
1 5 acceptor
1 6 acceptor
1 7 acceptor
1 8 donor
1 9 acceptor
3 6 7 17 anion
5 2 9 10 15 16 rings

> <PUBCHEM_HEAVY_ATOM_COUNT>
17

> <PUBCHEM_ATOM_DEF_STEREO_COUNT>
0

> <PUBCHEM_ATOM_UDEF_STEREO_COUNT>
0

> <PUBCHEM_BOND_DEF_STEREO_COUNT>
0

> <PUBCHEM_BOND_UDEF_STEREO_COUNT>
0

> <PUBCHEM_ISOTOPIC_ATOM_COUNT>
0

> <PUBCHEM_COMPONENT_COUNT>
1

> <PUBCHEM_CACTVS_TAUTO_COUNT>
3

> <PUBCHEM_CONFORMER_ID>
0002080500000001

> <PUBCHEM_MMFF94_ENERGY>
18.2788

> <PUBCHEM_FEATURE_SELFOVERLAP>
50.825

> <PUBCHEM_SHAPE_FINGERPRINT>
11287383 113 18408042930880298255
12236239 1 18060139834281148099
13533116 47 16630251316505103430
13862211 1 18334289872806590091
14123238 8 18131634482296644662
1420 363 18187089455503945963
14251718 22 18114183046778473287
14251752 14 17531237323792799445
14251764 18 18260827112189051176
17834072 33 18410856581130476469
17834076 25 15068341216044375537
187816 3 16370727028596414297
200 152 18273496771421766433
20645477 70 18339364072188541694
21267235 1 18412271622551817007
220451 1 17060340738089552735
23035841 295 18259704502316925595
23402539 116 18410851071325661295
23557571 272 18200602401395257277
23559900 14 18336824294875448057
26918003 58 18407760348408641419
3004659 81 18259707787776970406
4214541 1 18411419484599139957
42788 4 18408041810120628909
4463277 17 18410857663837041165
465052 167 18201725046202036990
5104073 3 18339080509656739563
542803 24 13840265883765220631
57483677 66 18342737425233198455
59682541 35 18200584904452504074

> <PUBCHEM_SHAPE_MULTIPOLES>
308.28
15.51
1.33
0.75
11.13
0.05
0.16
2.64
0.59
-0.22
-0.11
-0.88
0.08
-0.09

> <PUBCHEM_SHAPE_SELFOVERLAP>
601.565

> <PUBCHEM_SHAPE_VOLUME>
186

> <PUBCHEM_COORDINATE_TYPE>
2
5
10

$$$$
