REMARK  Name = 133189
REMARK  13 active torsions:
REMARK  status: ('A' for Active; 'I' for Inactive)
REMARK    1  A    between atoms: N_2  and  CA_24
REMARK    2  A    between atoms: C_3  and  CA_7
REMARK    3  A    between atoms: C_11  and  CA_12
REMARK    4  A    between atoms: CA_12  and  N_13
REMARK    5  A    between atoms: CA_12  and  CB_17
REMARK    6  A    between atoms: CB_17  and  CG_18
REMARK    7  A    between atoms: CA_24  and  C_26
REMARK    8  A    between atoms: CA_24  and  CB_29
REMARK    9  A    between atoms: C_26  and  O_27
REMARK   10  A    between atoms: CB_29  and  CG_30
REMARK   11  A    between atoms: CG_30  and  CD_31
REMARK   12  A    between atoms: CD_31  and  NE_32
REMARK   13  A    between atoms: NE_32  and  CZ_35
REMARK                            x       y       z     vdW  Elec       q    Type
REMARK                         _______ _______ _______ _____ _____    ______ ____
ROOT
ATOM      1  O   PRO A   2       0.438  -2.184  -1.710  0.00  0.00    -0.273 OA
ATOM      2  N   ARG A   3       1.656  -1.904   0.254  0.00  0.00    -0.295 N 
ATOM      3  C   PRO A   2       0.502  -1.929  -0.510  0.00  0.00    +0.241 C 
ATOM      4  H   ARG A   3       1.579  -1.685   1.211  0.00  0.00    +0.150 HD
ENDROOT
BRANCH   3   7
ATOM      5  O   PHE A   1      -0.674   1.070  -0.691  0.00  0.00    -0.277 OA
ATOM      6  N   PRO A   2      -1.690  -1.007  -0.597  0.00  0.00    -0.275 N 
ATOM      7  CA  PRO A   2      -0.722  -1.625   0.300  0.00  0.00    +0.152 C 
ATOM      8  CB  PRO A   2      -1.406  -2.897   0.790  0.00  0.00    +0.031 C 
ATOM      9  CG  PRO A   2      -2.330  -3.271  -0.366  0.00  0.00    +0.024 C 
ATOM     10  CD  PRO A   2      -2.788  -1.922  -0.898  0.00  0.00    +0.094 C 
ATOM     11  C   PHE A   1      -1.619   0.328  -0.963  0.00  0.00    +0.206 C 
BRANCH  11  12
ATOM     12  CA  PHE A   1      -2.793   0.848  -1.752  0.00  0.00    +0.018 C 
BRANCH  12  13
ATOM     13  N   PHE A   1      -2.251   1.212  -3.055  0.00  0.00    +0.388 N 
ATOM     14  H1  PHE A   1      -1.833   0.389  -3.491  0.00  0.00    -0.089 HD
ATOM     15  H2  PHE A   1      -1.540   1.933  -2.938  0.00  0.00    -0.089 HD
ATOM     16  H3  PHE A   1      -3.001   1.566  -3.648  0.00  0.00    -0.089 HD
ENDBRANCH  12  13
BRANCH  12  17
ATOM     17  CB  PHE A   1      -3.432   2.053  -1.061  0.00  0.00    +0.013 C 
BRANCH  17  18
ATOM     18  CG  PHE A   1      -4.352   1.657   0.070  0.00  0.00    -0.024 C 
ATOM     19  CD1 PHE A   1      -5.705   1.424  -0.181  0.00  0.00    -0.004 C 
ATOM     20  CD2 PHE A   1      -3.849   1.522   1.364  0.00  0.00    -0.004 C 
ATOM     21  CE1 PHE A   1      -6.554   1.058   0.863  0.00  0.00    -0.000 C 
ATOM     22  CE2 PHE A   1      -4.699   1.156   2.408  0.00  0.00    -0.000 C 
ATOM     23  CZ  PHE A   1      -6.052   0.924   2.157  0.00  0.00    -0.000 C 
ENDBRANCH  17  18
ENDBRANCH  12  17
ENDBRANCH  11  12
ENDBRANCH   3   7
BRANCH   2  24
ATOM     24  CA  ARG A   3       2.967  -2.185  -0.285  0.00  0.00    +0.171 C 
BRANCH  24  26
ATOM     25  OXT ARG A   3       4.893  -3.370   0.623  0.00  0.00    -0.248 OA
ATOM     26  C   ARG A   3       3.778  -2.891   0.785  0.00  0.00    +0.332 C 
BRANCH  26  27
ATOM     27  O   ARG A   3       3.137  -2.904   1.983  0.00  0.00    -0.479 OA
ATOM     28  H   ARG A   3       2.284  -2.525   2.061  0.00  0.00    +0.295 HD
ENDBRANCH  26  27
ENDBRANCH  24  26
BRANCH  24  29
ATOM     29  CB  ARG A   3       3.665  -0.928  -0.812  0.00  0.00    +0.033 C 
BRANCH  29  30
ATOM     30  CG  ARG A   3       3.902   0.152   0.249  0.00  0.00    +0.029 C 
BRANCH  30  31
ATOM     31  CD  ARG A   3       4.560   1.386  -0.357  0.00  0.00    +0.129 C 
BRANCH  31  32
ATOM     32  NE  ARG A   3       4.760   2.386   0.693  0.00  0.00    -0.240 NA
BRANCH  32  35
ATOM     33  NH1 ARG A   3       5.776   3.858  -0.911  0.00  0.00    -0.370 N 
ATOM     34  NH2 ARG A   3       5.553   4.486   1.269  0.00  0.00    -0.370 N 
ATOM     35  CZ  ARG A   3       5.330   3.496   0.341  0.00  0.00    +0.189 C 
ATOM     36 HH11 ARG A   3       5.676   3.236  -1.668  0.00  0.00    +0.159 HD
ATOM     37 HH12 ARG A   3       6.196   4.738  -1.049  0.00  0.00    +0.159 HD
ATOM     38 HH21 ARG A   3       5.280   4.354   2.205  0.00  0.00    +0.159 HD
ATOM     39 HH22 ARG A   3       5.987   5.327   0.997  0.00  0.00    +0.159 HD
ENDBRANCH  32  35
ENDBRANCH  31  32
ENDBRANCH  30  31
ENDBRANCH  29  30
ENDBRANCH  24  29
ENDBRANCH   2  24
TORSDOF 13
