REMARK  Name = 133126529
REMARK  8 active torsions:
REMARK  status: ('A' for Active; 'I' for Inactive)
REMARK    1  A    between atoms: C_3  and  O_27
REMARK    2  A    between atoms: C_6  and  O_21
REMARK    3  A    between atoms: C_7  and  O_23
REMARK    4  A    between atoms: C_13  and  O_25
REMARK    5  A    between atoms: C_15  and  C_31
REMARK    6  A    between atoms: O_27  and  C_29
REMARK    7  A    between atoms: C_31  and  O_32
REMARK    8  A    between atoms: O_32  and  C_34
REMARK                            x       y       z     vdW  Elec       q    Type
REMARK                         _______ _______ _______ _____ _____    ______ ____
ROOT
ATOM      1  O   UNL     1      -3.339  -3.252   0.833  0.00  0.00    -0.289 OA
ATOM      2  C   UNL     1       1.639   1.467   0.255  0.00  0.00    +0.049 C 
ATOM      3  C   UNL     1       3.005   0.866   0.497  0.00  0.00    +0.161 C 
ATOM      4  C   UNL     1       2.379   1.784   1.553  0.00  0.00    +0.040 C 
ATOM      5  C   UNL     1       0.402   0.583   0.214  0.00  0.00    +0.050 C 
ATOM      6  C   UNL     1       3.147  -0.631   0.567  0.00  0.00    +0.149 C 
ATOM      7  C   UNL     1       0.756  -0.829  -0.390  0.00  0.00    +0.101 C 
ATOM      8  C   UNL     1       1.833  -1.462   0.565  0.00  0.00    +0.056 C 
ATOM      9  C   UNL     1       1.933   1.235   2.884  0.00  0.00    +0.004 C 
ATOM     10  C   UNL     1       2.911   3.197   1.683  0.00  0.00    +0.004 C 
ATOM     11  C   UNL     1      -0.556  -1.622  -0.688  0.00  0.00    +0.079 C 
ATOM     12  C   UNL     1      -0.794   1.289  -0.404  0.00  0.00    -0.029 C 
ATOM     13  C   UNL     1      -1.641  -1.559   0.406  0.00  0.00    +0.152 C 
ATOM     14  C   UNL     1       2.214  -2.922   0.276  0.00  0.00    +0.005 C 
ATOM     15  C   UNL     1      -2.086   0.904  -0.353  0.00  0.00    -0.002 C 
ATOM     16  C   UNL     1      -2.629  -0.403   0.205  0.00  0.00    +0.060 C 
ATOM     17  C   UNL     1      -0.504  -3.080  -1.052  0.00  0.00    -0.023 C 
ATOM     18  C   UNL     1      -2.300  -2.917   0.283  0.00  0.00    +0.193 C 
ATOM     19  C   UNL     1      -1.490  -3.828  -0.548  0.00  0.00    +0.011 C 
ATOM     20  C   UNL     1      -1.797  -5.260  -0.749  0.00  0.00    +0.034 C 
ENDROOT
BRANCH   6  21
ATOM     21  O   UNL     1       3.977  -0.979   1.675  0.00  0.00    -0.381 OA
ATOM     22  H   UNL     1       4.788  -0.446   1.651  0.00  0.00    +0.210 HD
ENDBRANCH   6  21
BRANCH   7  23
ATOM     23  O   UNL     1       1.370  -0.600  -1.674  0.00  0.00    -0.386 OA
ATOM     24  H   UNL     1       2.197  -0.107  -1.554  0.00  0.00    +0.210 HD
ENDBRANCH   7  23
BRANCH  13  25
ATOM     25  O   UNL     1      -1.147  -1.553   1.737  0.00  0.00    -0.379 OA
ATOM     26  H   UNL     1      -0.701  -0.710   1.912  0.00  0.00    +0.211 HD
ENDBRANCH  13  25
BRANCH   3  27
ATOM     27  O   UNL     1       4.087   1.464  -0.258  0.00  0.00    -0.453 OA
BRANCH  27  29
ATOM     28  O   UNL     1       3.082   0.921  -2.262  0.00  0.00    -0.250 OA
ATOM     29  C   UNL     1       3.996   1.421  -1.620  0.00  0.00    +0.317 C 
ATOM     30  C   UNL     1       5.191   2.085  -2.233  0.00  0.00    +0.121 C 
ENDBRANCH  27  29
ENDBRANCH   3  27
BRANCH  15  31
ATOM     31  C   UNL     1      -3.152   1.807  -0.923  0.00  0.00    +0.231 C 
BRANCH  31  32
ATOM     32  O   UNL     1      -4.059   2.165   0.099  0.00  0.00    -0.444 OA
BRANCH  32  34
ATOM     33  O   UNL     1      -5.333   3.448  -1.336  0.00  0.00    -0.250 OA
ATOM     34  C   UNL     1      -5.118   2.994  -0.220  0.00  0.00    +0.318 C 
ATOM     35  C   UNL     1      -5.975   3.264   0.979  0.00  0.00    +0.121 C 
ENDBRANCH  32  34
ENDBRANCH  31  32
ENDBRANCH  15  31
TORSDOF 8
