REMARK  Name = 133109216
REMARK  8 active torsions:
REMARK  status: ('A' for Active; 'I' for Inactive)
REMARK    1  A    between atoms: N_1  and  C_14
REMARK    2  A    between atoms: N_1  and  O_26
REMARK    3  A    between atoms: C_5  and  O_20
REMARK    4  A    between atoms: C_9  and  O_22
REMARK    5  A    between atoms: C_19  and  O_24
REMARK    6  A    between atoms: O_26  and  C_27
REMARK    7  A    between atoms: C_27  and  C_29
REMARK    8  A    between atoms: C_29  and  O_30
REMARK                            x       y       z     vdW  Elec       q    Type
REMARK                         _______ _______ _______ _____ _____    ______ ____
ROOT
ATOM      1  C   UNL     1       3.148   0.235  -0.690  0.00  0.00    +0.027 C 
ATOM      2  C   UNL     1       2.008  -0.463   0.117  0.00  0.00    +0.005 C 
ATOM      3  C   UNL     1       1.508   0.375   1.321  0.00  0.00    +0.006 C 
ATOM      4  C   UNL     1       4.394  -0.636  -0.407  0.00  0.00    +0.137 C 
ATOM      5  C   UNL     1       1.089   1.814   0.919  0.00  0.00    +0.022 C 
ATOM      6  C   UNL     1       3.388   1.685  -0.227  0.00  0.00    +0.003 C 
ATOM      7  C   UNL     1       2.585  -1.828   0.555  0.00  0.00    +0.032 C 
ATOM      8  C   UNL     1       3.830  -2.046  -0.290  0.00  0.00    +0.137 C 
ATOM      9  C   UNL     1       2.077   2.454  -0.087  0.00  0.00    +0.004 C 
ATOM     10  C   UNL     1       2.784   0.232  -2.195  0.00  0.00    +0.002 C 
ATOM     11  C   UNL     1       0.382  -0.308   2.097  0.00  0.00    +0.025 C 
ATOM     12  C   UNL     1      -0.365   1.940   0.469  0.00  0.00    -0.025 C 
ATOM     13  C   UNL     1      -0.864  -0.371   1.252  0.00  0.00    +0.125 C 
ATOM     14  C   UNL     1      -1.294   0.892   0.610  0.00  0.00    -0.005 C 
ATOM     15  C   UNL     1      -0.826   3.163  -0.053  0.00  0.00    -0.001 C 
ATOM     16  C   UNL     1      -2.623   1.054   0.195  0.00  0.00    +0.033 C 
ATOM     17  C   UNL     1      -2.149   3.322  -0.469  0.00  0.00    +0.036 C 
ATOM     18  C   UNL     1      -3.044   2.266  -0.350  0.00  0.00    +0.133 C 
ENDROOT
BRANCH   4  19
ATOM     19  O   UNL     1       5.394  -0.545  -1.407  0.00  0.00    -0.382 OA
ATOM     20  H   UNL     1       5.726   0.365  -1.450  0.00  0.00    +0.210 HD
ENDBRANCH   4  19
BRANCH   8  21
ATOM     21  O   UNL     1       4.735  -2.911   0.373  0.00  0.00    -0.382 OA
ATOM     22  H   UNL     1       5.523  -3.039  -0.178  0.00  0.00    +0.210 HD
ENDBRANCH   8  21
BRANCH  18  23
ATOM     23  O   UNL     1      -4.335   2.419  -0.754  0.00  0.00    -0.506 OA
ATOM     24  H   UNL     1      -4.939   1.707  -0.674  0.00  0.00    +0.292 HD
ENDBRANCH  18  23
BRANCH  13  25
ATOM     25  N   UNL     1      -1.481  -1.503   1.142  0.00  0.00    -0.080 NA
BRANCH  25  26
ATOM     26  O   UNL     1      -2.601  -1.314   0.324  0.00  0.00    -0.254 OA
BRANCH  26  27
ATOM     27  C   UNL     1      -3.272  -2.559   0.208  0.00  0.00    +0.277 C 
BRANCH  27  29
ATOM     28  O   UNL     1      -4.866  -1.365  -1.183  0.00  0.00    -0.247 OA
ATOM     29  C   UNL     1      -4.486  -2.404  -0.665  0.00  0.00    +0.347 C 
BRANCH  29  30
ATOM     30  O   UNL     1      -5.117  -3.597  -0.806  0.00  0.00    -0.478 OA
ATOM     31  H   UNL     1      -4.777  -4.360  -0.383  0.00  0.00    +0.295 HD
ENDBRANCH  29  30
ENDBRANCH  27  29
ENDBRANCH  26  27
ENDBRANCH  25  26
ENDBRANCH  13  25
TORSDOF 8
