133109174
  -OEChem-03292013293D

 63 66  0     1  0  0  0  0  0999 V2000
   -5.3588    1.8153   -1.3490 O   0  0  0  0  0  0  0  0  0  0  0  0
   -2.8543    2.0007    0.2560 O   0  0  0  0  0  0  0  0  0  0  0  0
   -4.5811   -1.2543    0.5625 O   0  0  0  0  0  0  0  0  0  0  0  0
   -5.4068    3.8350    1.2639 O   0  0  0  0  0  0  0  0  0  0  0  0
   -3.7376   -3.4722    0.6853 O   0  0  0  0  0  0  0  0  0  0  0  0
   -0.2664   -2.1339   -2.0546 O   0  0  0  0  0  0  0  0  0  0  0  0
   -1.7043   -1.8540   -0.2519 N   0  0  0  0  0  0  0  0  0  0  0  0
   -4.2154   -0.0487   -0.1587 C   0  0  0  0  0  0  0  0  0  0  0  0
   -3.3646    0.7686    0.7827 C   0  0  2  0  0  0  0  0  0  0  0  0
   -5.5027    0.6131   -0.5798 C   0  0  1  0  0  0  0  0  0  0  0  0
   -3.8184    2.1016    1.3162 C   0  0  2  0  0  0  0  0  0  0  0  0
   -5.9334    1.9495   -0.0389 C   0  0  1  0  0  0  0  0  0  0  0  0
   -3.4159   -0.5265   -1.3872 C   0  0  0  0  0  0  0  0  0  0  0  0
   -5.0823    2.7187    0.8828 C   0  0  0  0  0  0  0  0  0  0  0  0
   -2.9385   -1.9105   -0.9979 C   0  0  2  0  0  0  0  0  0  0  0  0
   -4.1095   -2.3990   -0.1612 C   0  0  2  0  0  0  0  0  0  0  0  0
   -0.4632   -1.9722   -0.8546 C   0  0  0  0  0  0  0  0  0  0  0  0
    0.6463   -1.8837    0.1380 C   0  0  0  0  0  0  0  0  0  0  0  0
    1.9221   -1.9782   -0.2681 C   0  0  0  0  0  0  0  0  0  0  0  0
    3.1126   -1.9074    0.5851 C   0  0  0  0  0  0  0  0  0  0  0  0
    5.6926   -1.9640    0.6587 C   0  0  2  0  0  0  0  0  0  0  0  0
    4.3271   -2.0222    0.0060 C   0  0  0  0  0  0  0  0  0  0  0  0
    6.4925   -0.7907    0.0583 C   0  0  0  0  0  0  0  0  0  0  0  0
    5.8066    0.5671    0.2460 C   0  0  0  0  0  0  0  0  0  0  0  0
    6.5873    1.7303   -0.3752 C   0  0  0  0  0  0  0  0  0  0  0  0
    2.8977   -1.7216    2.0646 C   0  0  0  0  0  0  0  0  0  0  0  0
    6.3997   -3.3092    0.4634 C   0  0  0  0  0  0  0  0  0  0  0  0
    5.9954    3.1248   -0.1448 C   0  0  0  0  0  0  0  0  0  0  0  0
    6.7370    4.2792   -0.8228 C   0  0  0  0  0  0  0  0  0  0  0  0
    6.1364    5.6441   -0.5247 C   0  0  0  0  0  0  0  0  0  0  0  0
   -6.2622   -0.0848   -0.9096 H   0  0  0  0  0  0  0  0  0  0  0  0
   -2.6945    0.1831    1.3978 H   0  0  0  0  0  0  0  0  0  0  0  0
   -6.9993    2.1363    0.0206 H   0  0  0  0  0  0  0  0  0  0  0  0
   -3.4532    2.3902    2.2950 H   0  0  0  0  0  0  0  0  0  0  0  0
   -2.6069    0.1548   -1.6715 H   0  0  0  0  0  0  0  0  0  0  0  0
   -4.0788   -0.6196   -2.2579 H   0  0  0  0  0  0  0  0  0  0  0  0
   -2.7789   -2.5527   -1.8705 H   0  0  0  0  0  0  0  0  0  0  0  0
   -4.9239   -2.7336   -0.8158 H   0  0  0  0  0  0  0  0  0  0  0  0
   -1.7632   -1.7157    0.7527 H   0  0  0  0  0  0  0  0  0  0  0  0
   -4.5475   -3.9676    0.8946 H   0  0  0  0  0  0  0  0  0  0  0  0
    0.3807   -1.7401    1.1795 H   0  0  0  0  0  0  0  0  0  0  0  0
    2.1205   -2.1202   -1.3296 H   0  0  0  0  0  0  0  0  0  0  0  0
    5.6183   -1.7919    1.7356 H   0  0  0  0  0  0  0  0  0  0  0  0
    7.4841   -0.7585    0.5273 H   0  0  0  0  0  0  0  0  0  0  0  0
    6.6615   -0.9640   -1.0128 H   0  0  0  0  0  0  0  0  0  0  0  0
    4.3686   -2.1657   -1.0753 H   0  0  0  0  0  0  0  0  0  0  0  0
    4.8066    0.5608   -0.2017 H   0  0  0  0  0  0  0  0  0  0  0  0
    5.6739    0.7563    1.3183 H   0  0  0  0  0  0  0  0  0  0  0  0
    7.6113    1.7204    0.0190 H   0  0  0  0  0  0  0  0  0  0  0  0
    6.6706    1.5583   -1.4557 H   0  0  0  0  0  0  0  0  0  0  0  0
    2.2918   -2.5397    2.4702 H   0  0  0  0  0  0  0  0  0  0  0  0
    2.3839   -0.7737    2.2603 H   0  0  0  0  0  0  0  0  0  0  0  0
    3.8198   -1.7036    2.6474 H   0  0  0  0  0  0  0  0  0  0  0  0
    6.5423   -3.5387   -0.5987 H   0  0  0  0  0  0  0  0  0  0  0  0
    5.8228   -4.1252    0.9127 H   0  0  0  0  0  0  0  0  0  0  0  0
    7.3866   -3.2956    0.9381 H   0  0  0  0  0  0  0  0  0  0  0  0
    4.9547    3.1249   -0.4931 H   0  0  0  0  0  0  0  0  0  0  0  0
    5.9589    3.3122    0.9358 H   0  0  0  0  0  0  0  0  0  0  0  0
    7.7843    4.2751   -0.4983 H   0  0  0  0  0  0  0  0  0  0  0  0
    6.7399    4.1195   -1.9074 H   0  0  0  0  0  0  0  0  0  0  0  0
    6.7041    6.4290   -1.0340 H   0  0  0  0  0  0  0  0  0  0  0  0
    6.1543    5.8523    0.5497 H   0  0  0  0  0  0  0  0  0  0  0  0
    5.0982    5.6966   -0.8675 H   0  0  0  0  0  0  0  0  0  0  0  0
  1 10  1  0  0  0  0
  1 12  1  0  0  0  0
  2  9  1  0  0  0  0
  2 11  1  0  0  0  0
  3  8  1  0  0  0  0
  3 16  1  0  0  0  0
  4 14  2  0  0  0  0
  5 16  1  0  0  0  0
  5 40  1  0  0  0  0
  6 17  2  0  0  0  0
  7 15  1  0  0  0  0
  7 17  1  0  0  0  0
  7 39  1  0  0  0  0
  8  9  1  0  0  0  0
  8 10  1  0  0  0  0
  8 13  1  0  0  0  0
  9 11  1  0  0  0  0
  9 32  1  0  0  0  0
 10 12  1  0  0  0  0
 10 31  1  0  0  0  0
 11 14  1  0  0  0  0
 11 34  1  0  0  0  0
 12 14  1  0  0  0  0
 12 33  1  0  0  0  0
 13 15  1  0  0  0  0
 13 35  1  0  0  0  0
 13 36  1  0  0  0  0
 15 16  1  0  0  0  0
 15 37  1  0  0  0  0
 16 38  1  0  0  0  0
 17 18  1  0  0  0  0
 18 19  2  0  0  0  0
 18 41  1  0  0  0  0
 19 20  1  0  0  0  0
 19 42  1  0  0  0  0
 20 22  2  0  0  0  0
 20 26  1  0  0  0  0
 21 22  1  0  0  0  0
 21 23  1  0  0  0  0
 21 27  1  0  0  0  0
 21 43  1  0  0  0  0
 22 46  1  0  0  0  0
 23 24  1  0  0  0  0
 23 44  1  0  0  0  0
 23 45  1  0  0  0  0
 24 25  1  0  0  0  0
 24 47  1  0  0  0  0
 24 48  1  0  0  0  0
 25 28  1  0  0  0  0
 25 49  1  0  0  0  0
 25 50  1  0  0  0  0
 26 51  1  0  0  0  0
 26 52  1  0  0  0  0
 26 53  1  0  0  0  0
 27 54  1  0  0  0  0
 27 55  1  0  0  0  0
 27 56  1  0  0  0  0
 28 29  1  0  0  0  0
 28 57  1  0  0  0  0
 28 58  1  0  0  0  0
 29 30  1  0  0  0  0
 29 59  1  0  0  0  0
 29 60  1  0  0  0  0
 30 61  1  0  0  0  0
 30 62  1  0  0  0  0
 30 63  1  0  0  0  0
M  END
> <PUBCHEM_COMPOUND_CID>
133109174

> <PUBCHEM_CONFORMER_RMSD>
1.2

> <PUBCHEM_CONFORMER_DIVERSEORDER>
1
28
45
142
126
119
121
53
102
130
55
42
141
26
66
25
94
71
69
48
80
99
22
13
47
109
44
5
46
34
68
95
60
74
108
70
118
105
79
38
76
136
33
110
103
20
21
39
73
31
96
134
43
7
89
104
4
85
114
127
117
82
83
24
98
58
15
67
106
107
72
84
14
37
97
27
129
90
35
125
139
56
115
93
57
2
86
30
51
40
116
112
88
59
52
131
143
113
111
36
132
18
122
23
32
101
78
3
63
140
92
8
65
41
29
61
64
128
138
100
75
17
62
124
9
54
77
16
135
12
19
123
49
81
137
6
120
11
87
133
50
91
10

> <PUBCHEM_MMFF94_PARTIAL_CHARGES>
31
1 -0.3
10 -0.05
11 0.05
12 0.05
14 0.57
15 0.3
16 0.56
17 0.62
18 -0.14
19 -0.15
2 -0.3
20 -0.14
21 0.14
22 -0.29
26 0.14
3 -0.56
31 0.1
32 0.1
33 0.1
34 0.1
39 0.37
4 -0.57
40 0.4
41 0.15
42 0.15
46 0.15
5 -0.68
6 -0.57
7 -0.73
8 0.47
9 -0.05

> <PUBCHEM_EFFECTIVE_ROTOR_COUNT>
11.2

> <PUBCHEM_PHARMACOPHORE_FEATURES>
13
1 1 acceptor
1 2 acceptor
1 26 hydrophobe
1 27 hydrophobe
1 3 acceptor
1 30 hydrophobe
1 4 acceptor
1 5 acceptor
1 5 donor
1 6 acceptor
1 7 donor
5 3 8 13 15 16 rings
8 1 2 8 9 10 11 12 14 rings

> <PUBCHEM_HEAVY_ATOM_COUNT>
30

> <PUBCHEM_ATOM_DEF_STEREO_COUNT>
5

> <PUBCHEM_ATOM_UDEF_STEREO_COUNT>
2

> <PUBCHEM_BOND_DEF_STEREO_COUNT>
2

> <PUBCHEM_BOND_UDEF_STEREO_COUNT>
0

> <PUBCHEM_ISOTOPIC_ATOM_COUNT>
0

> <PUBCHEM_COMPONENT_COUNT>
1

> <PUBCHEM_CACTVS_TAUTO_COUNT>
10

> <PUBCHEM_CONFORMER_ID>
07EF15B600000001

> <PUBCHEM_MMFF94_ENERGY>
45.8162

> <PUBCHEM_FEATURE_SELFOVERLAP>
66.018

> <PUBCHEM_SHAPE_FINGERPRINT>
100830 2 18271821098516749816
10883706 163 18264205803599476221
11101153 10 18339640156574847591
12596602 18 18259983768879210122
14202776 33 17987232420492021086
14790565 3 18411419523174873782
15001296 14 18409166606611682244
15183329 4 15051726474436777246
15513586 35 18262790890741622917
16110190 28 18410576145657462925
19302320 297 18268436724495528528
20058555 10 18338517542676948764
20691028 202 18341326708622404896
21033648 29 17488157358193958930
21585482 111 18261390075117851268
22122407 14 18409454700106369346
393628 194 18055070961387936713
4144715 1 18409176519138271474
44555599 121 18412544276261774666
5104073 3 17967809457936460818
5364581 5 18334577996445337835
6036956 94 18411986836599478673
6328613 192 18411979139885195562
6673363 416 17691413323229162484
6677587 24 15768925944068365352
99344 41 18410292549758790056

> <PUBCHEM_SHAPE_MULTIPOLES>
577.19
21.91
6.24
1.3
18.76
7.86
0.04
17.77
0.24
9.39
-0.08
-0.74
-0.13
-4.02

> <PUBCHEM_SHAPE_SELFOVERLAP>
1188.256

> <PUBCHEM_SHAPE_VOLUME>
329.5

> <PUBCHEM_COORDINATE_TYPE>
2
5
10

$$$$
