REMARK  Name = 133121153
REMARK  9 active torsions:
REMARK  status: ('A' for Active; 'I' for Inactive)
REMARK    1  A    between atoms: N_2  and  CA_16
REMARK    2  A    between atoms: C_3  and  CA_5
REMARK    3  A    between atoms: CA_5  and  N_8
REMARK    4  A    between atoms: C_9  and  CA_11
REMARK    5  A    between atoms: CA_11  and  N_12
REMARK    6  A    between atoms: CA_16  and  C_18
REMARK    7  A    between atoms: CA_16  and  CB_21
REMARK    8  A    between atoms: C_18  and  O_19
REMARK    9  A    between atoms: CB_21  and  CG_22
REMARK                            x       y       z     vdW  Elec       q    Type
REMARK                         _______ _______ _______ _____ _____    ______ ____
ROOT
ATOM      1  O   ALA A   2      -0.298  -1.371   1.315  0.00  0.00    -0.273 OA
ATOM      2  N   LEU A   3       0.898  -0.459  -0.453  0.00  0.00    -0.295 N 
ATOM      3  C   ALA A   2      -0.218  -1.047   0.132  0.00  0.00    +0.241 C 
ATOM      4  H   LEU A   3       0.865  -0.236  -1.412  0.00  0.00    +0.150 HD
ENDROOT
BRANCH   3   5
ATOM      5  CA  ALA A   2      -1.368  -1.208  -0.854  0.00  0.00    +0.149 C 
ATOM      6  CB  ALA A   2      -1.343  -2.586  -1.497  0.00  0.00    +0.031 C 
BRANCH   5   8
ATOM      7  O   GLY A   1      -2.703   1.319  -0.409  0.00  0.00    -0.277 OA
ATOM      8  N   ALA A   2      -2.598  -0.986  -0.141  0.00  0.00    -0.300 N 
ATOM      9  C   GLY A   1      -3.172   0.270   0.026  0.00  0.00    +0.201 C 
ATOM     10  H   ALA A   2      -3.058  -1.764   0.249  0.00  0.00    +0.150 HD
BRANCH   9  11
ATOM     11  CA  GLY A   1      -4.446   0.211   0.843  0.00  0.00    +0.001 C 
BRANCH  11  12
ATOM     12  N   GLY A   1      -5.328   1.287   0.413  0.00  0.00    +0.386 N 
ATOM     13  H1  GLY A   1      -6.190   1.257   0.957  0.00  0.00    -0.089 HD
ATOM     14  H2  GLY A   1      -5.546   1.173  -0.577  0.00  0.00    -0.089 HD
ATOM     15  H3  GLY A   1      -4.865   2.184   0.558  0.00  0.00    -0.089 HD
ENDBRANCH  11  12
ENDBRANCH   9  11
ENDBRANCH   5   8
ENDBRANCH   3   5
BRANCH   2  16
ATOM     16  CA  LEU A   3       2.100  -0.162   0.282  0.00  0.00    +0.171 C 
BRANCH  16  18
ATOM     17  OXT LEU A   3       4.073  -1.317   1.074  0.00  0.00    -0.248 OA
ATOM     18  C   LEU A   3       3.051  -1.342   0.396  0.00  0.00    +0.332 C 
BRANCH  18  19
ATOM     19  O   LEU A   3       2.710  -2.415  -0.357  0.00  0.00    -0.479 OA
ATOM     20  H   LEU A   3       1.922  -2.400  -0.864  0.00  0.00    +0.295 HD
ENDBRANCH  18  19
ENDBRANCH  16  18
BRANCH  16  21
ATOM     21  CB  LEU A   3       2.779   1.109  -0.249  0.00  0.00    +0.031 C 
BRANCH  21  22
ATOM     22  CG  LEU A   3       1.903   2.370  -0.428  0.00  0.00    +0.002 C 
ATOM     23  CD1 LEU A   3       2.652   3.562  -1.020  0.00  0.00    +0.000 C 
ATOM     24  CD2 LEU A   3       1.306   2.765   0.927  0.00  0.00    +0.000 C 
ENDBRANCH  21  22
ENDBRANCH  16  21
ENDBRANCH   2  16
TORSDOF 9
