133109152
  -OEChem-03292013293D

 70 73  0     1  0  0  0  0  0999 V2000
   -1.3133    2.7928   -0.1070 O   0  0  0  0  0  0  0  0  0  0  0  0
    1.3590   -3.2061    0.0476 O   0  0  0  0  0  0  0  0  0  0  0  0
    4.1709   -2.9585    0.1826 O   0  0  0  0  0  0  0  0  0  0  0  0
    6.5144    1.0419   -0.0155 O   0  0  0  0  0  0  0  0  0  0  0  0
   -7.4525    0.5291    1.8652 O   0  0  0  0  0  0  0  0  0  0  0  0
   -6.2216   -1.3552    1.5625 O   0  0  0  0  0  0  0  0  0  0  0  0
   -1.2009    0.3567   -0.4125 C   0  0  2  0  0  0  0  0  0  0  0  0
   -0.1732   -0.7355   -0.8116 C   0  0  1  0  0  0  0  0  0  0  0  0
    1.0368   -0.8086    0.1438 C   0  0  2  0  0  0  0  0  0  0  0  0
    1.7617    0.5778    0.1203 C   0  0  2  0  0  0  0  0  0  0  0  0
    3.0506    0.6010    1.0253 C   0  0  1  0  0  0  0  0  0  0  0  0
   -2.2749    0.1119   -1.5094 C   0  0  1  0  0  0  0  0  0  0  0  0
   -0.4730    1.7139   -0.5007 C   0  0  2  0  0  0  0  0  0  0  0  0
    4.0067   -0.5578    0.5867 C   0  0  1  0  0  0  0  0  0  0  0  0
    0.7776    1.7416    0.3967 C   0  0  0  0  0  0  0  0  0  0  0  0
    2.0027   -1.9560   -0.2151 C   0  0  1  0  0  0  0  0  0  0  0  0
   -1.0367   -1.9736   -1.0302 C   0  0  0  0  0  0  0  0  0  0  0  0
   -2.3396   -1.4288   -1.6325 C   0  0  0  0  0  0  0  0  0  0  0  0
    3.2882   -1.9216    0.6184 C   0  0  1  0  0  0  0  0  0  0  0  0
    3.8278    1.9455    0.9235 C   0  0  0  0  0  0  0  0  0  0  0  0
   -1.8111    0.1533    0.9991 C   0  0  0  0  0  0  0  0  0  0  0  0
    4.6743   -0.2893   -0.7886 C   0  0  0  0  0  0  0  0  0  0  0  0
   -3.6605    0.7094   -1.2939 C   0  0  2  0  0  0  0  0  0  0  0  0
    2.6809    0.4349    2.5221 C   0  0  0  0  0  0  0  0  0  0  0  0
    4.4419    2.2040   -0.4499 C   0  0  0  0  0  0  0  0  0  0  0  0
    5.3690    1.0685   -0.8658 C   0  0  1  0  0  0  0  0  0  0  0  0
   -4.5301   -0.1354   -0.3420 C   0  0  0  0  0  0  0  0  0  0  0  0
   -4.3779    0.8635   -2.6391 C   0  0  0  0  0  0  0  0  0  0  0  0
   -5.6556    0.6616    0.3204 C   0  0  0  0  0  0  0  0  0  0  0  0
   -6.4414   -0.1810    1.2996 C   0  0  0  0  0  0  0  0  0  0  0  0
    0.2341   -0.4788   -1.8042 H   0  0  0  0  0  0  0  0  0  0  0  0
    0.6500   -1.0038    1.1505 H   0  0  0  0  0  0  0  0  0  0  0  0
    2.0900    0.7264   -0.9173 H   0  0  0  0  0  0  0  0  0  0  0  0
   -1.8669    0.5056   -2.4523 H   0  0  0  0  0  0  0  0  0  0  0  0
   -0.1702    1.9044   -1.5381 H   0  0  0  0  0  0  0  0  0  0  0  0
    4.8325   -0.6169    1.3112 H   0  0  0  0  0  0  0  0  0  0  0  0
    0.4819    1.7673    1.4504 H   0  0  0  0  0  0  0  0  0  0  0  0
    1.2779    2.7013    0.2221 H   0  0  0  0  0  0  0  0  0  0  0  0
    2.2406   -1.9479   -1.2844 H   0  0  0  0  0  0  0  0  0  0  0  0
   -1.2422   -2.4927   -0.0877 H   0  0  0  0  0  0  0  0  0  0  0  0
   -0.5640   -2.6906   -1.7093 H   0  0  0  0  0  0  0  0  0  0  0  0
   -2.4009   -1.6992   -2.6941 H   0  0  0  0  0  0  0  0  0  0  0  0
   -3.1717   -1.9381   -1.1467 H   0  0  0  0  0  0  0  0  0  0  0  0
    3.0420   -2.1782    1.6557 H   0  0  0  0  0  0  0  0  0  0  0  0
    4.6387    1.9465    1.6656 H   0  0  0  0  0  0  0  0  0  0  0  0
    3.1899    2.7922    1.1995 H   0  0  0  0  0  0  0  0  0  0  0  0
   -2.1717   -0.8638    1.1682 H   0  0  0  0  0  0  0  0  0  0  0  0
   -1.0609    0.3039    1.7819 H   0  0  0  0  0  0  0  0  0  0  0  0
   -2.6003    0.8780    1.2191 H   0  0  0  0  0  0  0  0  0  0  0  0
    5.4138   -1.0757   -0.9843 H   0  0  0  0  0  0  0  0  0  0  0  0
    3.9324   -0.3515   -1.5921 H   0  0  0  0  0  0  0  0  0  0  0  0
   -3.5462    1.7172   -0.8784 H   0  0  0  0  0  0  0  0  0  0  0  0
    2.0670   -0.4475    2.7170 H   0  0  0  0  0  0  0  0  0  0  0  0
    2.1315    1.3043    2.8983 H   0  0  0  0  0  0  0  0  0  0  0  0
    3.5838    0.3395    3.1371 H   0  0  0  0  0  0  0  0  0  0  0  0
    3.6548    2.3424   -1.1988 H   0  0  0  0  0  0  0  0  0  0  0  0
    5.0100    3.1409   -0.4027 H   0  0  0  0  0  0  0  0  0  0  0  0
    5.7274    1.2470   -1.8857 H   0  0  0  0  0  0  0  0  0  0  0  0
   -0.8094    3.6168   -0.2190 H   0  0  0  0  0  0  0  0  0  0  0  0
    1.1188   -3.2302    0.9896 H   0  0  0  0  0  0  0  0  0  0  0  0
   -3.9859   -0.6431    0.4470 H   0  0  0  0  0  0  0  0  0  0  0  0
   -5.0136   -0.9424   -0.9116 H   0  0  0  0  0  0  0  0  0  0  0  0
   -4.5304   -0.1039   -3.1295 H   0  0  0  0  0  0  0  0  0  0  0  0
   -3.7968    1.4966   -3.3186 H   0  0  0  0  0  0  0  0  0  0  0  0
   -5.3569    1.3371   -2.5160 H   0  0  0  0  0  0  0  0  0  0  0  0
    4.9596   -2.9289    0.7508 H   0  0  0  0  0  0  0  0  0  0  0  0
    7.1007    0.3341   -0.3330 H   0  0  0  0  0  0  0  0  0  0  0  0
   -5.2329    1.5080    0.8729 H   0  0  0  0  0  0  0  0  0  0  0  0
   -6.3518    1.0386   -0.4355 H   0  0  0  0  0  0  0  0  0  0  0  0
   -7.9690   -0.0125    2.4993 H   0  0  0  0  0  0  0  0  0  0  0  0
  1 13  1  0  0  0  0
  1 59  1  0  0  0  0
  2 16  1  0  0  0  0
  2 60  1  0  0  0  0
  3 19  1  0  0  0  0
  3 66  1  0  0  0  0
  4 26  1  0  0  0  0
  4 67  1  0  0  0  0
  5 30  1  0  0  0  0
  5 70  1  0  0  0  0
  6 30  2  0  0  0  0
  7  8  1  0  0  0  0
  7 12  1  0  0  0  0
  7 13  1  0  0  0  0
  7 21  1  0  0  0  0
  8  9  1  0  0  0  0
  8 17  1  0  0  0  0
  8 31  1  0  0  0  0
  9 10  1  0  0  0  0
  9 16  1  0  0  0  0
  9 32  1  0  0  0  0
 10 11  1  0  0  0  0
 10 15  1  0  0  0  0
 10 33  1  0  0  0  0
 11 14  1  0  0  0  0
 11 20  1  0  0  0  0
 11 24  1  0  0  0  0
 12 18  1  0  0  0  0
 12 23  1  0  0  0  0
 12 34  1  0  0  0  0
 13 15  1  0  0  0  0
 13 35  1  0  0  0  0
 14 19  1  0  0  0  0
 14 22  1  0  0  0  0
 14 36  1  0  0  0  0
 15 37  1  0  0  0  0
 15 38  1  0  0  0  0
 16 19  1  0  0  0  0
 16 39  1  0  0  0  0
 17 18  1  0  0  0  0
 17 40  1  0  0  0  0
 17 41  1  0  0  0  0
 18 42  1  0  0  0  0
 18 43  1  0  0  0  0
 19 44  1  0  0  0  0
 20 25  1  0  0  0  0
 20 45  1  0  0  0  0
 20 46  1  0  0  0  0
 21 47  1  0  0  0  0
 21 48  1  0  0  0  0
 21 49  1  0  0  0  0
 22 26  1  0  0  0  0
 22 50  1  0  0  0  0
 22 51  1  0  0  0  0
 23 27  1  0  0  0  0
 23 28  1  0  0  0  0
 23 52  1  0  0  0  0
 24 53  1  0  0  0  0
 24 54  1  0  0  0  0
 24 55  1  0  0  0  0
 25 26  1  0  0  0  0
 25 56  1  0  0  0  0
 25 57  1  0  0  0  0
 26 58  1  0  0  0  0
 27 29  1  0  0  0  0
 27 61  1  0  0  0  0
 27 62  1  0  0  0  0
 28 63  1  0  0  0  0
 28 64  1  0  0  0  0
 28 65  1  0  0  0  0
 29 30  1  0  0  0  0
 29 68  1  0  0  0  0
 29 69  1  0  0  0  0
M  END
> <PUBCHEM_COMPOUND_CID>
133109152

> <PUBCHEM_CONFORMER_RMSD>
0.8

> <PUBCHEM_CONFORMER_DIVERSEORDER>
1
38
55
18
58
57
64
50
60
43
14
65
52
26
48
40
63
35
66
30
42
36
56
47
62
20
37
11
31
25
24
61
34
2
49
39
59
7
17
41
51
32
28
46
22
10
12
53
3
13
21
19
8
29
4
44
54
9
27
23
33
45
15
5
6
16

> <PUBCHEM_MMFF94_PARTIAL_CHARGES>
17
1 -0.68
13 0.28
16 0.28
19 0.28
2 -0.68
26 0.28
29 0.06
3 -0.68
30 0.66
4 -0.68
5 -0.65
59 0.4
6 -0.57
60 0.4
66 0.4
67 0.4
70 0.5

> <PUBCHEM_EFFECTIVE_ROTOR_COUNT>
6.2

> <PUBCHEM_PHARMACOPHORE_FEATURES>
16
1 1 acceptor
1 1 donor
1 2 acceptor
1 2 donor
1 28 hydrophobe
1 3 acceptor
1 3 donor
1 4 acceptor
1 4 donor
1 5 acceptor
1 6 acceptor
3 5 6 30 anion
5 7 8 12 17 18 rings
6 11 14 20 22 25 26 rings
6 7 8 9 10 13 15 rings
6 9 10 11 14 16 19 rings

> <PUBCHEM_HEAVY_ATOM_COUNT>
30

> <PUBCHEM_ATOM_DEF_STEREO_COUNT>
7

> <PUBCHEM_ATOM_UDEF_STEREO_COUNT>
5

> <PUBCHEM_BOND_DEF_STEREO_COUNT>
0

> <PUBCHEM_BOND_UDEF_STEREO_COUNT>
0

> <PUBCHEM_ISOTOPIC_ATOM_COUNT>
0

> <PUBCHEM_COMPONENT_COUNT>
1

> <PUBCHEM_CACTVS_TAUTO_COUNT>
1

> <PUBCHEM_CONFORMER_ID>
07EF15A000000001

> <PUBCHEM_MMFF94_ENERGY>
113.6586

> <PUBCHEM_FEATURE_SELFOVERLAP>
81.388

> <PUBCHEM_SHAPE_FINGERPRINT>
10165383 225 18410300241986512708
10498660 4 18338784724144657012
10674148 151 17346610673063105868
11796584 16 13902189304984416980
12236239 1 17489588978662964117
12422481 6 18129944460654425785
12553582 1 18341315769335608980
12616971 3 17917702470842517391
12730499 353 18333452041152300394
12788726 201 17275110479321690833
13140716 1 18125141969303766808
13224815 77 18410001157311325806
13583140 156 16444443793711272535
13726171 33 17975137849186021752
13782708 43 17023460828887446370
14114211 68 18189920706999764438
14617045 38 18412547621751141436
14790565 3 18267304416038914388
14840074 17 18272653454704200717
14955137 171 18336836393587655485
15081414 286 18411697690499278564
15142383 8 14261355739244058496
15183329 4 12535356670974865423
15219462 58 16228020168628817496
15238133 3 16200145478563514627
15297060 5 18270682082158735338
15475509 8 17131287795466679948
15537594 2 18271801332754681639
18608769 82 18334579091588281882
19319366 153 18409158905740881262
20739085 24 18341620274169430461
21267235 1 18339646625460454390
21315759 148 17530964644729710583
21315764 119 14548746100959234029
21623969 137 18333171669644483835
21781051 124 18114192943043058722
21859007 373 12319463125590457123
23559900 14 18268126705266648430
25222932 49 17023176171328861131
3009799 131 9655585084604549933
3178227 256 18337671906677231658
34797466 226 16877954840179867237
350125 39 18270957934606718960
4325135 7 16298386893907601389
4340502 62 17095242536022271114
5104073 3 18189047612456075665
59755656 520 18060702818752830127
6086070 43 17059754656202514881
633830 44 17773581896867252820
7226269 152 16343709833289623873
8988823 20 13190345698763963678

> <PUBCHEM_SHAPE_MULTIPOLES>
582.17
14.5
2.54
1.78
13.75
1.01
0.11
-2.52
4.08
-2.55
-0.11
2.23
-0.19
0.1

> <PUBCHEM_SHAPE_SELFOVERLAP>
1222.218

> <PUBCHEM_SHAPE_VOLUME>
325.1

> <PUBCHEM_COORDINATE_TYPE>
2
5
10

$$$$
