REMARK  Name = 133135
REMARK  5 active torsions:
REMARK  status: ('A' for Active; 'I' for Inactive)
REMARK    1  A    between atoms: N_2  and  C1*_17
REMARK    2  A    between atoms: C2*_16  and  O2*_20
REMARK    3  A    between atoms: C3*_18  and  O3*_22
REMARK    4  A    between atoms: C4*_19  and  C5*_24
REMARK    5  A    between atoms: C5*_24  and  O5*_25
REMARK                            x       y       z     vdW  Elec       q    Type
REMARK                         _______ _______ _______ _____ _____    ______ ____
ROOT
ATOM      1  O   UNL     1      -3.179  -2.664   0.447  0.00  0.00    -0.267 OA
ATOM      2  N   UNL     1       0.748  -0.540  -0.103  0.00  0.00    -0.236 N 
ATOM      3  N   UNL     1      -0.256  -2.495   0.301  0.00  0.00    -0.240 NA
ATOM      4  N   UNL     1      -1.174   0.911  -0.299  0.00  0.00    -0.320 NA
ATOM      5  N   UNL     1      -3.229  -0.336   0.014  0.00  0.00    -0.184 N 
ATOM      6  N   UNL     1      -3.140   2.058  -0.436  0.00  0.00    -0.170 NA
ATOM      7  C   UNL     1      -0.592  -0.288  -0.098  0.00  0.00    +0.221 C 
ATOM      8  C   UNL     1       0.901  -1.882   0.142  0.00  0.00    +0.224 C 
ATOM      9  C   UNL     1      -1.179  -1.502   0.151  0.00  0.00    +0.177 C 
ATOM     10  C   UNL     1      -2.613  -1.599   0.225  0.00  0.00    +0.283 C 
ATOM     11  C   UNL     1      -2.480   0.862  -0.239  0.00  0.00    +0.156 C 
ATOM     12  C   UNL     1      -4.612  -0.259   0.054  0.00  0.00    +0.138 C 
ATOM     13  C   UNL     1      -5.274   0.884  -0.133  0.00  0.00    +0.018 C 
ATOM     14  C   UNL     1      -4.430   2.058  -0.385  0.00  0.00    +0.109 C 
ENDROOT
BRANCH   2  17
ATOM     15  O4* UNL     1       2.921  -0.229  -1.005  0.00  0.00    -0.333 OA
ATOM     16  C2* UNL     1       2.407   1.012   0.946  0.00  0.00    +0.187 C 
ATOM     17  C1* UNL     1       1.826   0.420  -0.329  0.00  0.00    +0.226 C 
ATOM     18  C3* UNL     1       3.800   1.402   0.491  0.00  0.00    +0.171 C 
ATOM     19  C4* UNL     1       4.165   0.260  -0.452  0.00  0.00    +0.175 C 
BRANCH  16  20
ATOM     20  O2* UNL     1       1.649   2.110   1.411  0.00  0.00    -0.378 OA
ATOM     21  H2* UNL     1       0.772   1.803   1.687  0.00  0.00    +0.211 HD
ENDBRANCH  16  20
BRANCH  18  22
ATOM     22  O3* UNL     1       3.732   2.615  -0.260  0.00  0.00    -0.379 OA
ATOM     23  H3* UNL     1       3.500   3.348   0.331  0.00  0.00    +0.211 HD
ENDBRANCH  18  22
BRANCH  19  24
ATOM     24  C5* UNL     1       4.862  -0.894   0.255  0.00  0.00    +0.169 C 
BRANCH  24  25
ATOM     25  O5* UNL     1       5.149  -1.903  -0.697  0.00  0.00    -0.379 OA
ATOM     26  H5* UNL     1       5.593  -2.645  -0.258  0.00  0.00    +0.211 HD
ENDBRANCH  24  25
ENDBRANCH  19  24
ENDBRANCH   2  17
TORSDOF 5
