133126644
  -OEChem-03292013293D

 68 72  0     1  0  0  0  0  0999 V2000
   -2.1035   -0.2634   -0.6418 O   0  0  0  0  0  0  0  0  0  0  0  0
    1.1960    0.4147   -2.0708 O   0  0  0  0  0  0  0  0  0  0  0  0
    3.3196    0.3483    1.7269 O   0  0  0  0  0  0  0  0  0  0  0  0
    5.9708    1.5222    1.3083 O   0  0  0  0  0  0  0  0  0  0  0  0
   -3.5567   -0.2711    1.1452 O   0  0  0  0  0  0  0  0  0  0  0  0
    5.3659   -3.7516   -0.0851 O   0  0  0  0  0  0  0  0  0  0  0  0
    0.0552   -1.4857   -0.3797 C   0  0  2  0  0  0  0  0  0  0  0  0
   -0.9852   -0.5694    0.2131 C   0  0  2  0  0  0  0  0  0  0  0  0
   -0.8688   -2.0129    0.7096 C   0  0  0  0  0  0  0  0  0  0  0  0
    1.4926   -1.0327   -0.1756 C   0  0  2  0  0  0  0  0  0  0  0  0
    1.6089    0.4513   -0.6853 C   0  0  2  0  0  0  0  0  0  0  0  0
   -0.4477    0.6305    0.9422 C   0  0  0  0  0  0  0  0  0  0  0  0
    0.6164    1.3972    0.1088 C   0  0  2  0  0  0  0  0  0  0  0  0
   -1.9278   -3.0023    0.2699 C   0  0  0  0  0  0  0  0  0  0  0  0
   -0.3514   -2.3212    2.0929 C   0  0  0  0  0  0  0  0  0  0  0  0
    3.0952    0.9265   -0.7001 C   0  0  2  0  0  0  0  0  0  0  0  0
    2.5061   -2.0018   -0.7460 C   0  0  0  0  0  0  0  0  0  0  0  0
    3.9698    0.4199    0.4649 C   0  0  2  0  0  0  0  0  0  0  0  0
   -0.0992    2.4363   -0.7716 C   0  0  0  0  0  0  0  0  0  0  0  0
    3.8431   -1.9811   -0.5668 C   0  0  0  0  0  0  0  0  0  0  0  0
    4.6566   -0.9141    0.1536 C   0  0  0  0  0  0  0  0  0  0  0  0
    3.3861    2.4050   -0.7314 C   0  0  0  0  0  0  0  0  0  0  0  0
    4.9407    1.5646    0.6522 C   0  0  0  0  0  0  0  0  0  0  0  0
   -3.3362   -0.1406   -0.0510 C   0  0  0  0  0  0  0  0  0  0  0  0
    4.4456    2.7871   -0.0107 C   0  0  0  0  0  0  0  0  0  0  0  0
    4.6844   -3.0976   -1.1350 C   0  0  0  0  0  0  0  0  0  0  0  0
   -4.3690    0.1767   -1.1056 C   0  0  0  0  0  0  0  0  0  0  0  0
    5.0769    4.1163    0.1249 C   0  0  0  0  0  0  0  0  0  0  0  0
   -5.7512    0.3660   -0.5363 C   0  0  0  0  0  0  0  0  0  0  0  0
   -6.6104   -0.7259   -0.4129 C   0  0  0  0  0  0  0  0  0  0  0  0
   -6.1714    1.6332   -0.1328 C   0  0  0  0  0  0  0  0  0  0  0  0
   -7.8901   -0.5504    0.1140 C   0  0  0  0  0  0  0  0  0  0  0  0
   -7.4509    1.8088    0.3941 C   0  0  0  0  0  0  0  0  0  0  0  0
   -8.3103    0.7170    0.5175 C   0  0  0  0  0  0  0  0  0  0  0  0
   -0.1213   -1.8244   -1.3971 H   0  0  0  0  0  0  0  0  0  0  0  0
    1.6790   -1.0438    0.8997 H   0  0  0  0  0  0  0  0  0  0  0  0
    0.0151    0.3377    1.8897 H   0  0  0  0  0  0  0  0  0  0  0  0
   -1.2643    1.3028    1.2320 H   0  0  0  0  0  0  0  0  0  0  0  0
    1.1999    1.9611    0.8486 H   0  0  0  0  0  0  0  0  0  0  0  0
    0.0707   -3.3318    2.1168 H   0  0  0  0  0  0  0  0  0  0  0  0
   -2.2665   -2.8323   -0.7574 H   0  0  0  0  0  0  0  0  0  0  0  0
   -1.5280   -4.0214    0.3120 H   0  0  0  0  0  0  0  0  0  0  0  0
   -2.7989   -2.9536    0.9311 H   0  0  0  0  0  0  0  0  0  0  0  0
    0.4233   -1.6430    2.4531 H   0  0  0  0  0  0  0  0  0  0  0  0
   -1.1750   -2.2823    2.8142 H   0  0  0  0  0  0  0  0  0  0  0  0
    3.5435    0.5767   -1.6447 H   0  0  0  0  0  0  0  0  0  0  0  0
    2.0842   -2.8375   -1.3029 H   0  0  0  0  0  0  0  0  0  0  0  0
   -0.7949    1.9639   -1.4723 H   0  0  0  0  0  0  0  0  0  0  0  0
    0.6089    3.0310   -1.3531 H   0  0  0  0  0  0  0  0  0  0  0  0
   -0.6756    3.1324   -0.1522 H   0  0  0  0  0  0  0  0  0  0  0  0
    1.7649   -0.2114   -2.5493 H   0  0  0  0  0  0  0  0  0  0  0  0
    5.0503   -1.3541    1.0791 H   0  0  0  0  0  0  0  0  0  0  0  0
    5.5293   -0.6979   -0.4791 H   0  0  0  0  0  0  0  0  0  0  0  0
    2.8461    3.0880   -1.3730 H   0  0  0  0  0  0  0  0  0  0  0  0
    3.9597    0.0326    2.3874 H   0  0  0  0  0  0  0  0  0  0  0  0
    5.4187   -2.6940   -1.8406 H   0  0  0  0  0  0  0  0  0  0  0  0
    4.0818   -3.8411   -1.6675 H   0  0  0  0  0  0  0  0  0  0  0  0
   -4.3810   -0.6397   -1.8375 H   0  0  0  0  0  0  0  0  0  0  0  0
   -4.0617    1.0884   -1.6319 H   0  0  0  0  0  0  0  0  0  0  0  0
    4.5540    4.8700   -0.4725 H   0  0  0  0  0  0  0  0  0  0  0  0
    6.1181    4.0833   -0.2104 H   0  0  0  0  0  0  0  0  0  0  0  0
    5.0601    4.4430    1.1693 H   0  0  0  0  0  0  0  0  0  0  0  0
    5.9135   -4.4477   -0.4863 H   0  0  0  0  0  0  0  0  0  0  0  0
   -6.2936   -1.7185   -0.7217 H   0  0  0  0  0  0  0  0  0  0  0  0
   -5.5104    2.4912   -0.2219 H   0  0  0  0  0  0  0  0  0  0  0  0
   -8.5590   -1.4005    0.2107 H   0  0  0  0  0  0  0  0  0  0  0  0
   -7.7780    2.7955    0.7089 H   0  0  0  0  0  0  0  0  0  0  0  0
   -9.3064    0.8537    0.9281 H   0  0  0  0  0  0  0  0  0  0  0  0
  1  8  1  0  0  0  0
  1 24  1  0  0  0  0
  2 11  1  0  0  0  0
  2 51  1  0  0  0  0
  3 18  1  0  0  0  0
  3 55  1  0  0  0  0
  4 23  2  0  0  0  0
  5 24  2  0  0  0  0
  6 26  1  0  0  0  0
  6 63  1  0  0  0  0
  7  8  1  0  0  0  0
  7  9  1  0  0  0  0
  7 10  1  0  0  0  0
  7 35  1  0  0  0  0
  8  9  1  0  0  0  0
  8 12  1  0  0  0  0
  9 14  1  0  0  0  0
  9 15  1  0  0  0  0
 10 11  1  0  0  0  0
 10 17  1  0  0  0  0
 10 36  1  0  0  0  0
 11 13  1  0  0  0  0
 11 16  1  0  0  0  0
 12 13  1  0  0  0  0
 12 37  1  0  0  0  0
 12 38  1  0  0  0  0
 13 19  1  0  0  0  0
 13 39  1  0  0  0  0
 14 41  1  0  0  0  0
 14 42  1  0  0  0  0
 14 43  1  0  0  0  0
 15 40  1  0  0  0  0
 15 44  1  0  0  0  0
 15 45  1  0  0  0  0
 16 18  1  0  0  0  0
 16 22  1  0  0  0  0
 16 46  1  0  0  0  0
 17 20  2  0  0  0  0
 17 47  1  0  0  0  0
 18 21  1  0  0  0  0
 18 23  1  0  0  0  0
 19 48  1  0  0  0  0
 19 49  1  0  0  0  0
 19 50  1  0  0  0  0
 20 21  1  0  0  0  0
 20 26  1  0  0  0  0
 21 52  1  0  0  0  0
 21 53  1  0  0  0  0
 22 25  2  0  0  0  0
 22 54  1  0  0  0  0
 23 25  1  0  0  0  0
 24 27  1  0  0  0  0
 25 28  1  0  0  0  0
 26 56  1  0  0  0  0
 26 57  1  0  0  0  0
 27 29  1  0  0  0  0
 27 58  1  0  0  0  0
 27 59  1  0  0  0  0
 28 60  1  0  0  0  0
 28 61  1  0  0  0  0
 28 62  1  0  0  0  0
 29 30  2  0  0  0  0
 29 31  1  0  0  0  0
 30 32  1  0  0  0  0
 30 64  1  0  0  0  0
 31 33  2  0  0  0  0
 31 65  1  0  0  0  0
 32 34  2  0  0  0  0
 32 66  1  0  0  0  0
 33 34  1  0  0  0  0
 33 67  1  0  0  0  0
 34 68  1  0  0  0  0
M  END
> <PUBCHEM_COMPOUND_CID>
133126644

> <PUBCHEM_CONFORMER_RMSD>
0.8

> <PUBCHEM_CONFORMER_DIVERSEORDER>
1
49
30
19
13
45
10
27
29
20
52
11
44
38
18
33
48
17
24
43
21
4
35
6
2
54
47
23
41
5
25
50
28
12
51
34
31
9
56
22
32
26
37
55
7
14
16
42
3
46
39
8
53
15
36
40

> <PUBCHEM_MMFF94_PARTIAL_CHARGES>
43
1 -0.3
10 0.23
11 0.28
12 0.09
14 0.09
15 0.09
16 0.14
17 -0.29
18 0.34
2 -0.68
20 -0.28
21 0.14
22 -0.29
23 0.49
24 0.66
25 -0.12
26 0.42
27 0.2
28 0.14
29 -0.14
3 -0.68
30 -0.15
31 -0.15
32 -0.15
33 -0.15
34 -0.15
35 0.1
4 -0.57
47 0.15
5 -0.57
51 0.4
54 0.15
55 0.4
6 -0.68
63 0.4
64 0.15
65 0.15
66 0.15
67 0.15
68 0.15
7 -0.19
8 0.05
9 -0.19

> <PUBCHEM_EFFECTIVE_ROTOR_COUNT>
5.8

> <PUBCHEM_PHARMACOPHORE_FEATURES>
13
1 2 acceptor
1 2 donor
1 3 acceptor
1 3 donor
1 4 acceptor
1 5 acceptor
1 6 acceptor
1 6 donor
3 9 14 15 hydrophobe
5 16 18 22 23 25 rings
6 29 30 31 32 33 34 rings
7 10 11 16 17 18 20 21 rings
7 7 8 9 10 11 12 13 rings

> <PUBCHEM_HEAVY_ATOM_COUNT>
34

> <PUBCHEM_ATOM_DEF_STEREO_COUNT>
7

> <PUBCHEM_ATOM_UDEF_STEREO_COUNT>
0

> <PUBCHEM_BOND_DEF_STEREO_COUNT>
0

> <PUBCHEM_BOND_UDEF_STEREO_COUNT>
0

> <PUBCHEM_ISOTOPIC_ATOM_COUNT>
0

> <PUBCHEM_COMPONENT_COUNT>
1

> <PUBCHEM_CACTVS_TAUTO_COUNT>
6

> <PUBCHEM_CONFORMER_ID>
07EF59F400000001

> <PUBCHEM_MMFF94_ENERGY>
99.3428

> <PUBCHEM_FEATURE_SELFOVERLAP>
66.007

> <PUBCHEM_SHAPE_FINGERPRINT>
10050765 1 18339643450894580007
10411042 1 18124034521420972854
10906281 52 18188493613372709156
12107698 1 18270963414937444686
12166972 35 18334300829690246445
12236239 1 18060136523330906887
12741549 16 17487606430840261154
13533116 47 18273213080168136410
13540713 4 18191044463106509338
13692114 37 17603592967392923243
13782708 43 17967817133227374731
13811026 1 18410292532119302811
14068700 675 17914899734479051322
14725015 67 18263361378932977634
14790565 3 18338798919064499401
14849402 71 18338799052404288089
15183329 4 16128656349839222265
15840311 113 18410294675730146021
16664035 1 18265896857300091634
20157964 124 18341895199072770084
20511986 3 17845922004973514903
20715895 44 18410854373702006568
21033648 29 17894920666912998203
21130935 74 18412266138696725259
21521721 280 18411422821799187907
21641784 216 15625954122881531043
21781051 124 16516264958695731739
21859007 373 17604413112302646837
22149856 69 18263946409945459011
22311459 1 18267026059340706174
22956985 138 14998225234660158179
23081809 10 17703783722442182813
23559900 14 18411138026807852574
24771293 8 18335977683385398229
249057 25 17560529395719784003
255183 451 17986965042473441734
2747138 104 17531541923443377561
3178227 256 18187091689451611457
335352 9 18409452488388064062
3633792 109 18343308032912523832
397830 11 18261403295010831155
4073 2 18335422430414070355
4093350 32 17561084696288796324
4340502 62 18260264166040084127
465052 167 7781521420973701361
5104073 3 17968653934004533259
57527293 21 17460300269980423704
6086070 43 16916784149350084490
70251023 43 18197784301975737226

> <PUBCHEM_SHAPE_MULTIPOLES>
664.49
18.6
3.77
1.24
35.93
0.13
0.19
-6.75
1.04
-7.02
-0.05
-0.53
0.26
1.09

> <PUBCHEM_SHAPE_SELFOVERLAP>
1437.618

> <PUBCHEM_SHAPE_VOLUME>
360.8

> <PUBCHEM_COORDINATE_TYPE>
2
5
10

$$$$
