REMARK  Name = 133109148
REMARK  9 active torsions:
REMARK  status: ('A' for Active; 'I' for Inactive)
REMARK    1  A    between atoms: C_6  and  C_24
REMARK    2  A    between atoms: C_7  and  O_20
REMARK    3  A    between atoms: C_19  and  O_22
REMARK    4  A    between atoms: C_24  and  C_26
REMARK    5  A    between atoms: C_26  and  C_27
REMARK    6  A    between atoms: C_27  and  C_30
REMARK    7  A    between atoms: N_29  and  C_32
REMARK    8  A    between atoms: C_32  and  C_34
REMARK    9  A    between atoms: C_34  and  O_35
REMARK                            x       y       z     vdW  Elec       q    Type
REMARK                         _______ _______ _______ _____ _____    ______ ____
ROOT
ATOM      1  C   UNL     1       0.063   0.453   0.230  0.00  0.00    +0.025 C 
ATOM      2  C   UNL     1       0.839  -0.572  -0.632  0.00  0.00    +0.002 C 
ATOM      3  C   UNL     1       2.079  -1.132   0.075  0.00  0.00    +0.000 C 
ATOM      4  C   UNL     1       3.040   0.050   0.427  0.00  0.00    +0.002 C 
ATOM      5  C   UNL     1       4.364  -0.452   1.117  0.00  0.00    +0.000 C 
ATOM      6  C   UNL     1      -1.115   0.736  -0.739  0.00  0.00    +0.002 C 
ATOM      7  C   UNL     1       0.995   1.645   0.530  0.00  0.00    +0.110 C 
ATOM      8  C   UNL     1       2.302   1.178   1.205  0.00  0.00    +0.029 C 
ATOM      9  C   UNL     1       5.045  -1.534   0.212  0.00  0.00    +0.002 C 
ATOM     10  C   UNL     1      -0.242  -1.544  -1.099  0.00  0.00    +0.000 C 
ATOM     11  C   UNL     1       2.784  -2.186  -0.789  0.00  0.00    +0.000 C 
ATOM     12  C   UNL     1      -1.491  -0.663  -1.280  0.00  0.00    +0.000 C 
ATOM     13  C   UNL     1       4.083  -2.675  -0.157  0.00  0.00    +0.000 C 
ATOM     14  C   UNL     1       5.384   0.700   1.359  0.00  0.00    +0.002 C 
ATOM     15  C   UNL     1      -0.457  -0.131   1.571  0.00  0.00    +0.002 C 
ATOM     16  C   UNL     1       5.674  -0.934  -1.063  0.00  0.00    +0.029 C 
ATOM     17  C   UNL     1       4.069  -1.062   2.512  0.00  0.00    +0.000 C 
ATOM     18  C   UNL     1       5.968   1.288   0.081  0.00  0.00    +0.029 C 
ATOM     19  C   UNL     1       6.637   0.207  -0.758  0.00  0.00    +0.111 C 
ENDROOT
BRANCH   7  20
ATOM     20  O   UNL     1       1.327   2.336  -0.675  0.00  0.00    -0.384 OA
ATOM     21  H   UNL     1       0.514   2.636  -1.110  0.00  0.00    +0.210 HD
ENDBRANCH   7  20
BRANCH  19  22
ATOM     22  O   UNL     1       7.084   0.766  -1.990  0.00  0.00    -0.384 OA
ATOM     23  H   UNL     1       7.509   0.076  -2.522  0.00  0.00    +0.210 HD
ENDBRANCH  19  22
BRANCH   6  24
ATOM     24  C   UNL     1      -2.305   1.486  -0.157  0.00  0.00    +0.001 C 
ATOM     25  C   UNL     1      -1.850   2.834   0.410  0.00  0.00    +0.000 C 
BRANCH  24  26
ATOM     26  C   UNL     1      -3.405   1.649  -1.226  0.00  0.00    +0.010 C 
BRANCH  26  27
ATOM     27  C   UNL     1      -4.775   2.009  -0.651  0.00  0.00    +0.085 C 
BRANCH  27  30
ATOM     28  O   UNL     1      -5.605   1.101   1.435  0.00  0.00    -0.275 OA
ATOM     29  N   UNL     1      -5.480  -0.280  -0.430  0.00  0.00    -0.295 N 
ATOM     30  C   UNL     1      -5.328   0.919   0.253  0.00  0.00    +0.223 C 
ATOM     31  H   UNL     1      -5.225  -0.314  -1.380  0.00  0.00    +0.150 HD
BRANCH  29  32
ATOM     32  C   UNL     1      -5.995  -1.480   0.188  0.00  0.00    +0.200 C 
BRANCH  32  34
ATOM     33  O   UNL     1      -8.127  -2.539   0.545  0.00  0.00    -0.248 OA
ATOM     34  C   UNL     1      -7.493  -1.600   0.079  0.00  0.00    +0.334 C 
BRANCH  34  35
ATOM     35  O   UNL     1      -8.071  -0.571  -0.583  0.00  0.00    -0.479 OA
ATOM     36  H   UNL     1      -7.543   0.125  -0.921  0.00  0.00    +0.295 HD
ENDBRANCH  34  35
ENDBRANCH  32  34
ENDBRANCH  29  32
ENDBRANCH  27  30
ENDBRANCH  26  27
ENDBRANCH  24  26
ENDBRANCH   6  24
TORSDOF 9
