REMARK  Name = 133126693
REMARK  5 active torsions:
REMARK  status: ('A' for Active; 'I' for Inactive)
REMARK    1  A    between atoms: C_5  and  O_21
REMARK    2  A    between atoms: C_8  and  O_23
REMARK    3  A    between atoms: C_9  and  O_25
REMARK    4  A    between atoms: C_10  and  O_27
REMARK    5  A    between atoms: C_18  and  C_29
REMARK                            x       y       z     vdW  Elec       q    Type
REMARK                         _______ _______ _______ _____ _____    ______ ____
ROOT
ATOM      1  O   UNL     1      -2.468  -0.965  -0.194  0.00  0.00    -0.354 OA
ATOM      2  O   UNL     1      -1.057   2.688   1.112  0.00  0.00    -0.293 OA
ATOM      3  C   UNL     1       1.038   0.636   0.474  0.00  0.00    +0.058 C 
ATOM      4  C   UNL     1       1.787  -0.458  -0.419  0.00  0.00    +0.034 C 
ATOM      5  C   UNL     1      -0.526   0.520   0.142  0.00  0.00    +0.166 C 
ATOM      6  C   UNL     1       3.368  -0.397  -0.421  0.00  0.00    +0.003 C 
ATOM      7  C   UNL     1      -1.133  -0.904   0.367  0.00  0.00    +0.148 C 
ATOM      8  C   UNL     1       1.196  -1.888  -0.279  0.00  0.00    +0.140 C 
ATOM      9  C   UNL     1       1.650   2.047   0.107  0.00  0.00    +0.113 C 
ATOM     10  C   UNL     1      -0.329  -1.923  -0.486  0.00  0.00    +0.164 C 
ATOM     11  C   UNL     1       3.821   1.051  -0.733  0.00  0.00    +0.003 C 
ATOM     12  C   UNL     1       3.182   2.097   0.169  0.00  0.00    +0.029 C 
ATOM     13  C   UNL     1       1.248   0.460   2.000  0.00  0.00    +0.005 C 
ATOM     14  C   UNL     1      -1.442   1.566   0.786  0.00  0.00    +0.180 C 
ATOM     15  C   UNL     1      -1.266  -1.394   1.825  0.00  0.00    +0.035 C 
ATOM     16  C   UNL     1       3.930  -1.284  -1.564  0.00  0.00    +0.000 C 
ATOM     17  C   UNL     1       4.055  -0.879   0.871  0.00  0.00    +0.000 C 
ATOM     18  C   UNL     1      -3.388   0.102   0.059  0.00  0.00    +0.118 C 
ATOM     19  C   UNL     1      -2.886   1.180   1.024  0.00  0.00    +0.098 C 
ATOM     20  C   UNL     1      -4.656  -0.546   0.629  0.00  0.00    +0.035 C 
ENDROOT
BRANCH   5  21
ATOM     21  O   UNL     1      -0.726   0.808  -1.259  0.00  0.00    -0.377 OA
ATOM     22  H   UNL     1      -0.190   0.202  -1.794  0.00  0.00    +0.211 HD
ENDBRANCH   5  21
BRANCH   8  23
ATOM     23  O   UNL     1       1.549  -2.481   0.961  0.00  0.00    -0.382 OA
ATOM     24  H   UNL     1       2.512  -2.449   1.072  0.00  0.00    +0.210 HD
ENDBRANCH   8  23
BRANCH   9  25
ATOM     25  O   UNL     1       1.268   2.458  -1.205  0.00  0.00    -0.384 OA
ATOM     26  H   UNL     1       0.301   2.439  -1.281  0.00  0.00    +0.210 HD
ENDBRANCH   9  25
BRANCH  10  27
ATOM     27  O   UNL     1      -0.813  -3.248  -0.253  0.00  0.00    -0.380 OA
ATOM     28  H   UNL     1      -1.774  -3.269  -0.384  0.00  0.00    +0.211 HD
ENDBRANCH  10  27
BRANCH  18  29
ATOM     29  C   UNL     1      -3.746   0.703  -1.275  0.00  0.00    +0.001 C 
ATOM     30  C   UNL     1      -3.655   0.051  -2.439  0.00  0.00    -0.003 C 
ENDBRANCH  18  29
TORSDOF 5
