REMARK  Name = 133171
REMARK  6 active torsions:
REMARK  status: ('A' for Active; 'I' for Inactive)
REMARK    1  A    between atoms: C_6  and  C_12
REMARK    2  A    between atoms: C_6  and  C_18
REMARK    3  A    between atoms: C_18  and  C_19
REMARK    4  A    between atoms: C_19  and  C_20
REMARK    5  A    between atoms: C_20  and  C_21
REMARK    6  A    between atoms: C_21  and  N_22
REMARK                            x       y       z     vdW  Elec       q    Type
REMARK                         _______ _______ _______ _____ _____    ______ ____
ROOT
ATOM      1  O   UNL     1       0.411  -0.408   2.390  0.00  0.00    -0.274 OA
ATOM      2  O   UNL     1       0.431  -0.392  -2.404  0.00  0.00    -0.274 OA
ATOM      3  O   UNL     1      -1.523  -3.785  -0.026  0.00  0.00    -0.252 OA
ATOM      4  N   UNL     1      -0.578  -2.060   1.155  0.00  0.00    -0.239 N 
ATOM      5  N   UNL     1      -0.570  -2.051  -1.188  0.00  0.00    -0.239 N 
ATOM      6  C   UNL     1       0.312  -0.064  -0.006  0.00  0.00    +0.157 C 
ATOM      7  C   UNL     1       0.073  -0.847   1.288  0.00  0.00    +0.240 C 
ATOM      8  C   UNL     1       0.084  -0.838  -1.308  0.00  0.00    +0.240 C 
ATOM      9  C   UNL     1      -0.936  -2.701  -0.021  0.00  0.00    +0.312 C 
ATOM     10  H   UNL     1      -0.813  -2.521   1.992  0.00  0.00    +0.159 HD
ATOM     11  H   UNL     1      -0.802  -2.505  -2.031  0.00  0.00    +0.159 HD
ENDROOT
BRANCH   6  12
ATOM     12  C   UNL     1       1.718   0.465   0.001  0.00  0.00    -0.006 C 
ATOM     13  C   UNL     1       2.785  -0.422   0.077  0.00  0.00    -0.003 C 
ATOM     14  C   UNL     1       1.936   1.835  -0.068  0.00  0.00    -0.003 C 
ATOM     15  C   UNL     1       4.090   0.069   0.085  0.00  0.00    -0.000 C 
ATOM     16  C   UNL     1       3.242   2.326  -0.060  0.00  0.00    -0.000 C 
ATOM     17  C   UNL     1       4.319   1.443   0.016  0.00  0.00    -0.000 C 
ENDBRANCH   6  12
BRANCH   6  18
ATOM     18  C   UNL     1      -0.653   1.111  -0.006  0.00  0.00    +0.021 C 
BRANCH  18  19
ATOM     19  C   UNL     1      -2.107   0.642   0.025  0.00  0.00    -0.001 C 
BRANCH  19  20
ATOM     20  C   UNL     1      -3.075   1.826  -0.009  0.00  0.00    -0.024 C 
BRANCH  20  21
ATOM     21  C   UNL     1      -4.527   1.355   0.058  0.00  0.00    -0.086 C 
BRANCH  21  22
ATOM     22  N   UNL     1      -5.433   2.497   0.004  0.00  0.00    +0.380 N 
ATOM     23  H   UNL     1      -6.397   2.168   0.049  0.00  0.00    -0.089 HD
ATOM     24  H   UNL     1      -5.288   3.005  -0.869  0.00  0.00    -0.089 HD
ATOM     25  H   UNL     1      -5.247   3.116   0.793  0.00  0.00    -0.089 HD
ENDBRANCH  21  22
ENDBRANCH  20  21
ENDBRANCH  19  20
ENDBRANCH  18  19
ENDBRANCH   6  18
TORSDOF 6
