REMARK  Name = 133259
REMARK  6 active torsions:
REMARK  status: ('A' for Active; 'I' for Inactive)
REMARK    1  A    between atoms: C_5  and  N_17
REMARK    2  A    between atoms: C_14  and  C_27
REMARK    3  A    between atoms: C_18  and  C_20
REMARK    4  A    between atoms: C_20  and  C_22
REMARK    5  A    between atoms: C_22  and  C_24
REMARK    6  A    between atoms: C_27  and  O_28
REMARK                            x       y       z     vdW  Elec       q    Type
REMARK                         _______ _______ _______ _____ _____    ______ ____
ROOT
ATOM      1  O   UNL     1       5.570   0.966   0.484  0.00  0.00    -0.269 OA
ATOM      2  N   UNL     1       3.251   0.844   0.203  0.00  0.00    -0.218 N 
ATOM      3  N   UNL     1       1.919   2.814   0.428  0.00  0.00    -0.252 NA
ATOM      4  N   UNL     1       2.250  -1.259  -0.303  0.00  0.00    -0.228 NA
ATOM      5  C   UNL     1      -1.570   0.600  -0.358  0.00  0.00    +0.046 C 
ATOM      6  C   UNL     1       0.831   0.678  -0.088  0.00  0.00    +0.047 C 
ATOM      7  C   UNL     1      -0.336  -0.050  -0.348  0.00  0.00    +0.018 C 
ATOM      8  C   UNL     1       0.771   2.054   0.163  0.00  0.00    +0.063 C 
ATOM      9  C   UNL     1       2.156   0.015  -0.071  0.00  0.00    +0.140 C 
ATOM     10  C   UNL     1      -1.640   1.969  -0.110  0.00  0.00    -0.005 C 
ATOM     11  C   UNL     1      -0.475   2.692   0.149  0.00  0.00    +0.073 C 
ATOM     12  C   UNL     1       3.054   2.196   0.435  0.00  0.00    +0.227 C 
ATOM     13  C   UNL     1       4.548   0.326   0.247  0.00  0.00    +0.263 C 
ATOM     14  C   UNL     1       4.635  -1.131  -0.024  0.00  0.00    +0.148 C 
ATOM     15  C   UNL     1       3.505  -1.801  -0.273  0.00  0.00    +0.111 C 
ENDROOT
BRANCH   5  17
ATOM     16  O   UNL     1      -4.421   1.513  -0.500  0.00  0.00    -0.275 OA
ATOM     17  N   UNL     1      -2.736  -0.121  -0.618  0.00  0.00    -0.284 N 
ATOM     18  C   UNL     1      -4.057   0.352  -0.672  0.00  0.00    +0.226 C 
ATOM     19  H   UNL     1      -2.618  -1.084  -0.785  0.00  0.00    +0.155 HD
BRANCH  18  20
ATOM     20  C   UNL     1      -5.063  -0.766  -0.989  0.00  0.00    +0.077 C 
ATOM     21  C   UNL     1      -6.209  -0.230  -1.850  0.00  0.00    +0.010 C 
BRANCH  20  22
ATOM     22  C   UNL     1      -5.532  -1.474   0.315  0.00  0.00    +0.009 C 
ATOM     23  C   UNL     1      -6.491  -2.640   0.039  0.00  0.00    +0.000 C 
BRANCH  22  24
ATOM     24  C   UNL     1      -6.151  -0.457   1.298  0.00  0.00    +0.000 C 
ATOM     25  C   UNL     1      -6.578  -1.075   2.623  0.00  0.00    +0.000 C 
ENDBRANCH  22  24
ENDBRANCH  20  22
ENDBRANCH  18  20
ENDBRANCH   5  17
BRANCH  14  27
ATOM     26  O   UNL     1       5.973  -3.060   0.275  0.00  0.00    -0.245 OA
ATOM     27  C   UNL     1       5.895  -1.878  -0.032  0.00  0.00    +0.344 C 
BRANCH  27  28
ATOM     28  O   UNL     1       6.901  -1.075  -0.422  0.00  0.00    -0.477 OA
ATOM     29  H   UNL     1       6.730  -0.179  -0.636  0.00  0.00    +0.295 HD
ENDBRANCH  27  28
ENDBRANCH  14  27
TORSDOF 6
