REMARK  Name = 133220
REMARK  8 active torsions:
REMARK  status: ('A' for Active; 'I' for Inactive)
REMARK    1  A    between atoms: S_1  and  S_2
REMARK    2  A    between atoms: S_1  and  C_12
REMARK    3  A    between atoms: S_2  and  C_4
REMARK    4  A    between atoms: C_5  and  N_11
REMARK    5  A    between atoms: C_12  and  C_13
REMARK    6  A    between atoms: C_13  and  N_14
REMARK    7  A    between atoms: C_13  and  C_19
REMARK    8  A    between atoms: C_19  and  O_20
REMARK                            x       y       z     vdW  Elec       q    Type
REMARK                         _______ _______ _______ _____ _____    ______ ____
ROOT
ATOM      1  S   UNK     1      -1.103   1.842  -0.098  0.00  0.00    -0.078 S 
ENDROOT
BRANCH   1   2
ATOM      2  S   UNK     1      -0.029   0.718   1.246  0.00  0.00    -0.034 S 
BRANCH   2   4
ATOM      3  N   UNK     1       2.157   1.884   0.295  0.00  0.00    -0.235 NA
ATOM      4  C   UNK     1       1.582   0.671   0.482  0.00  0.00    +0.139 C 
ATOM      5  C   UNK     1       2.182  -0.527   0.116  0.00  0.00    +0.167 C 
ATOM      6  C   UNK     1       3.440  -0.478  -0.475  0.00  0.00    +0.028 C 
ATOM      7  C   UNK     1       4.057   0.751  -0.682  0.00  0.00    +0.022 C 
ATOM      8  C   UNK     1       3.380   1.892  -0.282  0.00  0.00    +0.100 C 
BRANCH   5  11
ATOM      9  O   UNK     1       2.175  -2.828  -0.042  0.00  0.00    -0.126 OA
ATOM     10  O   UNK     1       0.432  -1.836   0.852  0.00  0.00    -0.126 OA
ATOM     11  N   UNK     1       1.566  -1.792   0.318  0.00  0.00    +0.060 N 
ENDBRANCH   5  11
ENDBRANCH   2   4
ENDBRANCH   1   2
BRANCH   1  12
ATOM     12  C   UNK     1      -1.749   0.552  -1.210  0.00  0.00    +0.058 C 
BRANCH  12  13
ATOM     13  C   UNK     1      -2.624  -0.459  -0.467  0.00  0.00    +0.048 C 
BRANCH  13  14
ATOM     14  N   UNK     1      -3.140  -1.459  -1.403  0.00  0.00    +0.389 N 
ATOM     15  H   UNK     1      -2.360  -1.920  -1.872  0.00  0.00    -0.088 HD
ATOM     16  H   UNK     1      -3.732  -1.003  -2.096  0.00  0.00    -0.088 HD
ATOM     17  H   UNK     1      -3.687  -2.153  -0.892  0.00  0.00    -0.088 HD
ENDBRANCH  13  14
BRANCH  13  19
ATOM     18  O   UNK     1      -4.650   0.860  -0.401  0.00  0.00    -0.253 OA
ATOM     19  C   UNK     1      -3.816   0.197   0.204  0.00  0.00    +0.294 C 
BRANCH  19  20
ATOM     20  O   UNK     1      -3.859   0.011   1.548  0.00  0.00    -0.482 OA
ATOM     21  H   UNK     1      -3.200  -0.504   1.971  0.00  0.00    +0.295 HD
ENDBRANCH  19  20
ENDBRANCH  13  19
ENDBRANCH  12  13
ENDBRANCH   1  12
TORSDOF 8
