133220
  -OEChem-03292013323D

 26 26  0     1  0  0  0  0  0999 V2000
   -1.1028    1.8418   -0.0983 S   0  0  0  0  0  0  0  0  0  0  0  0
   -0.0292    0.7180    1.2455 S   0  0  0  0  0  0  0  0  0  0  0  0
   -3.8589    0.0111    1.5480 O   0  0  0  0  0  0  0  0  0  0  0  0
   -4.6500    0.8604   -0.4010 O   0  0  0  0  0  0  0  0  0  0  0  0
    2.1749   -2.8277   -0.0416 O   0  5  0  0  0  0  0  0  0  0  0  0
    0.4319   -1.8360    0.8517 O   0  0  0  0  0  0  0  0  0  0  0  0
   -3.1399   -1.4594   -1.4028 N   0  0  0  0  0  0  0  0  0  0  0  0
    2.1572    1.8838    0.2946 N   0  0  0  0  0  0  0  0  0  0  0  0
    1.5659   -1.7923    0.3184 N   0  3  0  0  0  0  0  0  0  0  0  0
   -2.6239   -0.4588   -0.4666 C   0  0  1  0  0  0  0  0  0  0  0  0
   -1.7494    0.5523   -1.2104 C   0  0  0  0  0  0  0  0  0  0  0  0
   -3.8163    0.1967    0.2045 C   0  0  0  0  0  0  0  0  0  0  0  0
    1.5823    0.6714    0.4821 C   0  0  0  0  0  0  0  0  0  0  0  0
    2.1819   -0.5270    0.1155 C   0  0  0  0  0  0  0  0  0  0  0  0
    3.4396   -0.4777   -0.4754 C   0  0  0  0  0  0  0  0  0  0  0  0
    4.0569    0.7512   -0.6818 C   0  0  0  0  0  0  0  0  0  0  0  0
    3.3798    1.8922   -0.2824 C   0  0  0  0  0  0  0  0  0  0  0  0
   -2.0521   -1.0036    0.2889 H   0  0  0  0  0  0  0  0  0  0  0  0
   -0.9073    0.0591   -1.7095 H   0  0  0  0  0  0  0  0  0  0  0  0
   -2.3282    1.0644   -1.9880 H   0  0  0  0  0  0  0  0  0  0  0  0
   -3.6411   -2.1833   -0.8887 H   0  0  0  0  0  0  0  0  0  0  0  0
   -2.3617   -1.9280   -1.8655 H   0  0  0  0  0  0  0  0  0  0  0  0
    3.9715   -1.3719   -0.7891 H   0  0  0  0  0  0  0  0  0  0  0  0
    5.0369    0.8143   -1.1407 H   0  0  0  0  0  0  0  0  0  0  0  0
    3.8177    2.8752   -0.4212 H   0  0  0  0  0  0  0  0  0  0  0  0
   -4.6306    0.4595    1.9552 H   0  0  0  0  0  0  0  0  0  0  0  0
  1  2  1  0  0  0  0
  1 11  1  0  0  0  0
  2 13  1  0  0  0  0
  3 12  1  0  0  0  0
  3 26  1  0  0  0  0
  4 12  2  0  0  0  0
  5  9  1  0  0  0  0
  6  9  2  0  0  0  0
  7 10  1  0  0  0  0
  7 21  1  0  0  0  0
  7 22  1  0  0  0  0
  8 13  1  0  0  0  0
  8 17  2  0  0  0  0
  9 14  1  0  0  0  0
 10 11  1  0  0  0  0
 10 12  1  0  0  0  0
 10 18  1  0  0  0  0
 11 19  1  0  0  0  0
 11 20  1  0  0  0  0
 13 14  2  0  0  0  0
 14 15  1  0  0  0  0
 15 16  2  0  0  0  0
 15 23  1  0  0  0  0
 16 17  1  0  0  0  0
 16 24  1  0  0  0  0
 17 25  1  0  0  0  0
M  CHG  2   5  -1   9   1
M  END
> <PUBCHEM_COMPOUND_CID>
133220

> <PUBCHEM_CONFORMER_RMSD>
0.8

> <PUBCHEM_CONFORMER_DIVERSEORDER>
1
55
9
12
32
23
44
46
38
66
67
48
30
5
69
19
24
92
47
42
86
21
79
37
41
43
71
2
11
90
61
39
35
40
25
54
72
60
13
7
77
73
93
94
33
70
16
84
82
57
26
83
52
10
17
20
22
87
15
80
49
3
18
68
63
74
62
58
27
34
36
75
31
29
91
88
76
51
64
14
8
28
45
89
50
65
6
56
59
85
95
4
78
81
53

> <PUBCHEM_MMFF94_PARTIAL_CHARGES>
23
1 -0.23
10 0.33
11 0.23
12 0.66
13 0.41
14 0.13
15 -0.15
16 -0.15
17 0.16
2 -0.1
21 0.36
22 0.36
23 0.15
24 0.15
25 0.15
26 0.5
3 -0.65
4 -0.57
5 -0.52
6 -0.52
7 -0.99
8 -0.62
9 0.91

> <PUBCHEM_EFFECTIVE_ROTOR_COUNT>
6

> <PUBCHEM_PHARMACOPHORE_FEATURES>
10
1 3 acceptor
1 4 acceptor
1 5 acceptor
1 5 anion
1 6 acceptor
1 7 cation
1 7 donor
1 8 acceptor
3 3 4 12 anion
6 8 13 14 15 16 17 rings

> <PUBCHEM_HEAVY_ATOM_COUNT>
17

> <PUBCHEM_ATOM_DEF_STEREO_COUNT>
1

> <PUBCHEM_ATOM_UDEF_STEREO_COUNT>
0

> <PUBCHEM_BOND_DEF_STEREO_COUNT>
0

> <PUBCHEM_BOND_UDEF_STEREO_COUNT>
0

> <PUBCHEM_ISOTOPIC_ATOM_COUNT>
0

> <PUBCHEM_COMPONENT_COUNT>
1

> <PUBCHEM_CACTVS_TAUTO_COUNT>
1

> <PUBCHEM_CONFORMER_ID>
0002086400000001

> <PUBCHEM_MMFF94_ENERGY>
38.0008

> <PUBCHEM_FEATURE_SELFOVERLAP>
50.888

> <PUBCHEM_SHAPE_FINGERPRINT>
10751810 167 17132120168855365345
11471102 20 18410855456007462712
124424 183 12103850055108902180
12596599 1 17845947306647123519
13221675 6 18202282493901165261
14251745 187 18052809535934420706
15375358 24 17748821917422781157
15375462 189 18272933812651557339
15775835 57 18412826901725276839
15848700 24 9511193936411512136
16752209 62 17130986460972597433
17834072 33 18341889723638288367
18186145 218 18411978100439949340
18522851 12 18273493477123984095
19422 9 17917712456467381293
20645477 70 18338791222134633903
21634736 98 18268151946668030262
221490 88 18262526870802328642
23402539 116 18337102462653624084
23402655 69 18413111653925941220
23557571 272 16950860166731641977
23598291 2 18054801576173588312
25 1 18335702771318571370
2748010 2 17977961390571075090
2871803 45 18410011009571014892
3060560 45 18408322211672260804
3323516 105 18408045104139083272
351380 180 10087641481658702401
58051976 378 18410572877366601372

> <PUBCHEM_SHAPE_MULTIPOLES>
319.13
8.03
2.23
1.14
4.28
0.95
0.08
-0.99
-1.3
-1.52
0.01
0.75
0.04
-0.38

> <PUBCHEM_SHAPE_SELFOVERLAP>
629.329

> <PUBCHEM_SHAPE_VOLUME>
192.6

> <PUBCHEM_COORDINATE_TYPE>
2
5
10

$$$$
