133201
  -OEChem-03292013323D

 26 26  0     1  0  0  0  0  0999 V2000
    3.0609    1.8526   -0.2571 Cl  0  0  0  0  0  0  0  0  0  0  0  0
    2.2508   -1.2550    0.1257 S   0  0  0  0  0  0  0  0  0  0  0  0
   -2.9478   -0.2927    1.5166 O   0  0  0  0  0  0  0  0  0  0  0  0
    3.4814   -0.6300    0.6010 O   0  0  0  0  0  0  0  0  0  0  0  0
    1.6216   -2.3239    0.8935 O   0  0  0  0  0  0  0  0  0  0  0  0
   -4.5539   -1.0942   -0.7371 N   0  0  0  0  0  0  0  0  0  0  0  0
    2.5441   -1.8365   -1.4654 N   0  0  0  0  0  0  0  0  0  0  0  0
   -2.7155    0.2742    0.2201 C   0  0  1  0  0  0  0  0  0  0  0  0
   -1.2778    0.6525    0.1042 C   0  0  0  0  0  0  0  0  0  0  0  0
    1.0541    0.0233    0.0488 C   0  0  0  0  0  0  0  0  0  0  0  0
   -0.2904   -0.3313    0.1587 C   0  0  0  0  0  0  0  0  0  0  0  0
   -3.1426   -0.7369   -0.8625 C   0  0  0  0  0  0  0  0  0  0  0  0
   -0.9204    1.9909   -0.0603 C   0  0  0  0  0  0  0  0  0  0  0  0
    1.4115    1.3615   -0.1158 C   0  0  0  0  0  0  0  0  0  0  0  0
    0.4241    2.3453   -0.1704 C   0  0  0  0  0  0  0  0  0  0  0  0
   -3.3490    1.1674    0.1490 H   0  0  0  0  0  0  0  0  0  0  0  0
   -0.5781   -1.3706    0.2890 H   0  0  0  0  0  0  0  0  0  0  0  0
   -2.5723   -1.6678   -0.7767 H   0  0  0  0  0  0  0  0  0  0  0  0
   -2.9585   -0.3238   -1.8610 H   0  0  0  0  0  0  0  0  0  0  0  0
   -1.6776    2.7692   -0.1050 H   0  0  0  0  0  0  0  0  0  0  0  0
    0.6853    3.3929   -0.2983 H   0  0  0  0  0  0  0  0  0  0  0  0
   -3.8847   -0.5505    1.5556 H   0  0  0  0  0  0  0  0  0  0  0  0
   -4.8140   -1.7153   -1.5022 H   0  0  0  0  0  0  0  0  0  0  0  0
   -5.1277   -0.2582   -0.8396 H   0  0  0  0  0  0  0  0  0  0  0  0
    2.1962   -2.7751   -1.6964 H   0  0  0  0  0  0  0  0  0  0  0  0
    3.4522   -1.6121   -1.8899 H   0  0  0  0  0  0  0  0  0  0  0  0
  1 14  1  0  0  0  0
  2  4  2  0  0  0  0
  2  5  2  0  0  0  0
  2  7  1  0  0  0  0
  2 10  1  0  0  0  0
  3  8  1  0  0  0  0
  3 22  1  0  0  0  0
  6 12  1  0  0  0  0
  6 23  1  0  0  0  0
  6 24  1  0  0  0  0
  7 25  1  0  0  0  0
  7 26  1  0  0  0  0
  8  9  1  0  0  0  0
  8 12  1  0  0  0  0
  8 16  1  0  0  0  0
  9 11  2  0  0  0  0
  9 13  1  0  0  0  0
 10 11  1  0  0  0  0
 10 14  2  0  0  0  0
 11 17  1  0  0  0  0
 12 18  1  0  0  0  0
 12 19  1  0  0  0  0
 13 15  2  0  0  0  0
 13 20  1  0  0  0  0
 14 15  1  0  0  0  0
 15 21  1  0  0  0  0
M  END
> <PUBCHEM_COMPOUND_CID>
133201

> <PUBCHEM_CONFORMER_RMSD>
0.6

> <PUBCHEM_CONFORMER_DIVERSEORDER>
1
20
17
11
12
6
2
16
8
13
19
5
14
9
3
7
18
4
10
15

> <PUBCHEM_MMFF94_PARTIAL_CHARGES>
23
1 -0.18
10 -0.01
11 -0.15
12 0.27
13 -0.15
14 0.18
15 -0.15
17 0.15
2 1.45
20 0.15
21 0.15
22 0.4
23 0.36
24 0.36
25 0.42
26 0.42
3 -0.68
4 -0.65
5 -0.65
6 -0.99
7 -0.98
8 0.42
9 -0.14

> <PUBCHEM_EFFECTIVE_ROTOR_COUNT>
3

> <PUBCHEM_PHARMACOPHORE_FEATURES>
8
1 3 acceptor
1 3 donor
1 4 acceptor
1 5 acceptor
1 6 cation
1 6 donor
1 7 donor
6 9 10 11 13 14 15 rings

> <PUBCHEM_HEAVY_ATOM_COUNT>
15

> <PUBCHEM_ATOM_DEF_STEREO_COUNT>
0

> <PUBCHEM_ATOM_UDEF_STEREO_COUNT>
1

> <PUBCHEM_BOND_DEF_STEREO_COUNT>
0

> <PUBCHEM_BOND_UDEF_STEREO_COUNT>
0

> <PUBCHEM_ISOTOPIC_ATOM_COUNT>
0

> <PUBCHEM_COMPONENT_COUNT>
1

> <PUBCHEM_CACTVS_TAUTO_COUNT>
1

> <PUBCHEM_CONFORMER_ID>
0002085100000001

> <PUBCHEM_MMFF94_ENERGY>
22.3629

> <PUBCHEM_FEATURE_SELFOVERLAP>
40.615

> <PUBCHEM_SHAPE_FINGERPRINT>
11206711 2 18042691597959854436
11471102 20 18334852870141749653
116883 192 18268424638341779325
11806522 49 18411132550259754894
12553582 1 18264497195512910587
13083527 12 18190996011632417776
13380535 76 18265051521403616264
14251717 144 18337666511617227310
14252887 29 18273217482209246282
14576447 43 18055341698871632287
15757776 16 18338791311991265356
161256 15 18410301276614818668
16945 1 18334862714159208920
200 152 18341039783521878661
20201158 50 18186799179785798595
20279233 1 17676204710425666907
20645477 70 18411976984043832295
20671657 53 18334569110252785655
20871998 22 18270684164516370998
21501502 16 18409731716300800160
21501925 9 18411127043816405872
2334 1 18408890611506910584
23388829 49 18412256220851938416
23402539 116 18265324028657833586
23419403 2 14862214645392347905
23552423 10 18261961738942256244
23598291 2 18200887205424873901
2748010 2 18336543811561682364
449060 23 18271251508221453006
581208 293 18410570729814420552
6338986 31 18192415403650043523
7364860 26 18272366533429448576
81228 2 17975135335896631616
81539 233 18042967756152304340

> <PUBCHEM_SHAPE_MULTIPOLES>
286.84
6.1
2.43
0.99
4.34
0.29
0.01
-2.25
0.7
-1.77
0.18
0.21
-0.41
-0.3

> <PUBCHEM_SHAPE_SELFOVERLAP>
571.192

> <PUBCHEM_SHAPE_VOLUME>
171.4

> <PUBCHEM_COORDINATE_TYPE>
2
5
10

$$$$
