REMARK  Name = 133212
REMARK  11 active torsions:
REMARK  status: ('A' for Active; 'I' for Inactive)
REMARK    1  A    between atoms: N_1  and  C_21
REMARK    2  A    between atoms: CA_8  and  C_17
REMARK    3  A    between atoms: C_10  and  O_14
REMARK    4  A    between atoms: C_17  and  O_18
REMARK    5  A    between atoms: C_21  and  C_22
REMARK    6  A    between atoms: C_22  and  C_23
REMARK    7  A    between atoms: C_23  and  C_24
REMARK    8  A    between atoms: C_24  and  CA_25
REMARK    9  A    between atoms: CA_25  and  N_26
REMARK   10  A    between atoms: CA_25  and  C_31
REMARK   11  A    between atoms: C_31  and  O_32
REMARK                            x       y       z     vdW  Elec       q    Type
REMARK                         _______ _______ _______ _____ _____    ______ ____
ROOT
ATOM      1  CA  UNL     1      -6.431  -0.135  -0.743  0.00  0.00    +0.036 C 
ENDROOT
BRANCH   1   2
ATOM      2  N   UNL     1      -6.973   1.196  -0.468  0.00  0.00    +0.389 N 
ATOM      3  H1  UNL     1      -6.892   1.775  -1.304  0.00  0.00    -0.088 HD
ATOM      4  H2  UNL     1      -6.450   1.625   0.295  0.00  0.00    -0.088 HD
ATOM      5  H3  UNL     1      -7.955   1.115  -0.204  0.00  0.00    -0.088 HD
ENDBRANCH   1   2
BRANCH   1   7
ATOM      6  OXT UNL     1      -6.967  -0.560   1.601  0.00  0.00    -0.253 OA
ATOM      7  C   UNL     1      -6.567  -0.969   0.519  0.00  0.00    +0.293 C 
BRANCH   7   8
ATOM      8  O   UNL     1      -6.190  -2.260   0.318  0.00  0.00    -0.482 OA
ATOM      9  H   UNL     1      -5.890  -2.535  -0.526  0.00  0.00    +0.295 HD
ENDBRANCH   7   8
ENDBRANCH   1   7
BRANCH   1  10
ATOM     10  C   UNL     1      -4.984  -0.091  -1.258  0.00  0.00    -0.011 C 
BRANCH  10  11
ATOM     11  C   UNL     1      -3.955   0.440  -0.248  0.00  0.00    +0.008 C 
BRANCH  11  12
ATOM     12  C   UNL     1      -2.530   0.398  -0.802  0.00  0.00    +0.087 C 
BRANCH  12  14
ATOM     13  O   UNL     1      -1.747   1.327   1.296  0.00  0.00    -0.274 OA
ATOM     14  C   UNL     1      -1.484   0.925   0.166  0.00  0.00    +0.238 C 
BRANCH  14  15
ATOM     15  N   UNL     1      -0.205   0.870  -0.374  0.00  0.00    -0.234 NA
ATOM     16  H1  UNL     1      -0.093   0.531  -1.292  0.00  0.00    +0.173 HD
ENDBRANCH  14  15
ENDBRANCH  12  14
ENDBRANCH  11  12
ENDBRANCH  10  11
ENDBRANCH   1  10
TORSDOF 8
REMARK  Name = 133212
REMARK  11 active torsions:
REMARK  status: ('A' for Active; 'I' for Inactive)
REMARK    1  A    between atoms: N_1  and  C_21
REMARK    2  A    between atoms: CA_8  and  C_17
REMARK    3  A    between atoms: C_10  and  O_14
REMARK    4  A    between atoms: C_17  and  O_18
REMARK    5  A    between atoms: C_21  and  C_22
REMARK    6  A    between atoms: C_22  and  C_23
REMARK    7  A    between atoms: C_23  and  C_24
REMARK    8  A    between atoms: C_24  and  CA_25
REMARK    9  A    between atoms: CA_25  and  N_26
REMARK   10  A    between atoms: CA_25  and  C_31
REMARK   11  A    between atoms: C_31  and  O_32
REMARK                            x       y       z     vdW  Elec       q    Type
REMARK                         _______ _______ _______ _____ _____    ______ ____
ROOT
ATOM      1  S   UNL     1       1.419  -1.494   0.570  0.00  0.00    -0.118 S 
ATOM      2  O   UNL     1       2.403   2.483  -1.409  0.00  0.00    -0.275 OA
ATOM      3  N   UNL     1       2.907   0.654  -0.025  0.00  0.00    -0.262 N 
ATOM      4  C   UNL     1       1.925   0.212   0.953  0.00  0.00    +0.129 C 
ATOM      5  CA  UNL     1       4.168   0.045  -0.354  0.00  0.00    +0.201 C 
ATOM      6  CA  UNL     1       0.991   1.299   0.373  0.00  0.00    +0.127 C 
ATOM      7  C   UNL     1       4.010  -1.470  -0.602  0.00  0.00    +0.125 C 
ATOM      8  C   UNL     1       2.183   1.669  -0.543  0.00  0.00    +0.225 C 
ATOM      9  C   UNL     1       3.115  -2.170   0.448  0.00  0.00    +0.088 C 
ATOM     10  C   UNL     1       3.489  -1.715  -2.029  0.00  0.00    +0.033 C 
ENDROOT
BRANCH   7  11
ATOM     11  O   UNL     1       5.313  -2.066  -0.539  0.00  0.00    -0.384 OA
ATOM     12  H   UNL     1       5.685  -1.936   0.348  0.00  0.00    +0.210 HD
ENDBRANCH   7  11
BRANCH   5  14
ATOM     13  OXT UNL     1       4.706   0.470   1.966  0.00  0.00    -0.248 OA
ATOM     14  C   UNL     1       5.066   0.377   0.802  0.00  0.00    +0.335 C 
BRANCH  14  15
ATOM     15  O   UNL     1       6.340   0.566   0.379  0.00  0.00    -0.479 OA
ATOM     16  H   UNL     1       6.549   0.480  -0.530  0.00  0.00    +0.295 HD
ENDBRANCH  14  15
ENDBRANCH   5  14
TORSDOF 3
