REMARK  Name = 133266
REMARK  3 active torsions:
REMARK  status: ('A' for Active; 'I' for Inactive)
REMARK    1  A    between atoms: N_2  and  S_11
REMARK    2  A    between atoms: C_3  and  N_7
REMARK    3  A    between atoms: C_3  and  O_15
REMARK                            x       y       z     vdW  Elec       q    Type
REMARK                         _______ _______ _______ _____ _____    ______ ____
ROOT
ATOM      1  O   UNL     1      -0.355  -0.668   1.774  0.00  0.00    -0.269 OA
ATOM      2  N   UNL     1      -1.206   0.061  -0.321  0.00  0.00    -0.150 N 
ATOM      3  C   UNL     1       0.793   0.713  -0.110  0.00  0.00    +0.244 C 
ATOM      4  C   UNL     1      -0.419   1.132  -0.970  0.00  0.00    +0.175 C 
ATOM      5  C   UNL     1      -0.248  -0.122   0.701  0.00  0.00    +0.289 C 
ENDROOT
BRANCH   3   7
ATOM      6  O   UNL     1       2.625  -1.210   1.035  0.00  0.00    -0.275 OA
ATOM      7  N   UNL     1       1.754  -0.139  -0.831  0.00  0.00    -0.278 N 
ATOM      8  C   UNL     1       2.591  -1.032  -0.181  0.00  0.00    +0.225 C 
ATOM      9  C   UNL     1       3.500  -1.789  -1.113  0.00  0.00    +0.095 C 
ATOM     10  H   UNL     1       1.805  -0.071  -1.811  0.00  0.00    +0.152 HD
ENDBRANCH   3   7
BRANCH   2  11
ATOM     11  S   UNL     1      -2.870  -0.160  -0.212  0.00  0.00    +0.096 S 
ATOM     12  O   UNL     1      -3.047  -1.736   0.198  0.00  0.00    -0.050 OA
ATOM     13  O   UNL     1      -3.464   0.001  -1.537  0.00  0.00    -0.050 OA
ATOM     14  O   UNL     1      -3.390   0.629   0.900  0.00  0.00    -0.050 OA
ENDBRANCH   2  11
BRANCH   3  15
ATOM     15  O   UNL     1       1.388   1.759   0.670  0.00  0.00    -0.330 OA
ATOM     16  C   UNL     1       2.348   2.562  -0.004  0.00  0.00    +0.176 C 
ENDBRANCH   3  15
TORSDOF 3
