REMARK  Name = 133201
REMARK  6 active torsions:
REMARK  status: ('A' for Active; 'I' for Inactive)
REMARK    1  A    between atoms: C_2  and  C_14
REMARK    2  A    between atoms: C_3  and  S_8
REMARK    3  A    between atoms: S_8  and  N_11
REMARK    4  A    between atoms: C_14  and  O_15
REMARK    5  A    between atoms: C_14  and  C_17
REMARK    6  A    between atoms: C_17  and  N_18
REMARK                            x       y       z     vdW  Elec       q    Type
REMARK                         _______ _______ _______ _____ _____    ______ ____
ROOT
ATOM      1 CL   UNL     1       3.061   1.853  -0.257  0.00  0.00    -0.081 Cl
ATOM      2  C   UNL     1      -1.278   0.652   0.104  0.00  0.00    +0.004 C 
ATOM      3  C   UNL     1       1.054   0.023   0.049  0.00  0.00    +0.132 C 
ATOM      4  C   UNL     1      -0.290  -0.331   0.159  0.00  0.00    +0.019 C 
ATOM      5  C   UNL     1      -0.920   1.991  -0.060  0.00  0.00    -0.001 C 
ATOM      6  C   UNL     1       1.411   1.361  -0.116  0.00  0.00    +0.076 C 
ATOM      7  C   UNL     1       0.424   2.345  -0.170  0.00  0.00    +0.012 C 
ENDROOT
BRANCH   3   8
ATOM      8  S   UNL     1       2.251  -1.255   0.126  0.00  0.00    +0.058 S 
ATOM      9  O   UNL     1       3.481  -0.630   0.601  0.00  0.00    -0.153 OA
ATOM     10  O   UNL     1       1.622  -2.324   0.893  0.00  0.00    -0.153 OA
BRANCH   8  11
ATOM     11  N   UNL     1       2.544  -1.837  -1.465  0.00  0.00    -0.203 NA
ATOM     12  H   UNL     1       3.240  -2.582  -1.432  0.00  0.00    +0.144 HD
ATOM     13  H   UNL     1       2.890  -1.074  -2.048  0.00  0.00    +0.144 HD
ENDBRANCH   8  11
ENDBRANCH   3   8
BRANCH   2  14
ATOM     14  C   UNL     1      -2.716   0.274   0.220  0.00  0.00    +0.111 C 
BRANCH  14  15
ATOM     15  O   UNL     1      -2.948  -0.293   1.517  0.00  0.00    -0.382 OA
ATOM     16  H   UNL     1      -2.680   0.342   2.200  0.00  0.00    +0.211 HD
ENDBRANCH  14  15
BRANCH  14  17
ATOM     17  C   UNL     1      -3.143  -0.737  -0.863  0.00  0.00    -0.052 C 
BRANCH  17  18
ATOM     18  N   UNL     1      -4.554  -1.094  -0.737  0.00  0.00    +0.382 N 
ATOM     19  H   UNL     1      -4.802  -1.763  -1.467  0.00  0.00    -0.089 HD
ATOM     20  H   UNL     1      -5.127  -0.256  -0.835  0.00  0.00    -0.089 HD
ATOM     21  H   UNL     1      -4.718  -1.513   0.178  0.00  0.00    -0.089 HD
ENDBRANCH  17  18
ENDBRANCH  14  17
ENDBRANCH   2  14
TORSDOF 6
