REMARK  Name = 13337891
REMARK  6 active torsions:
REMARK  status: ('A' for Active; 'I' for Inactive)
REMARK    1  A    between atoms: N_4  and  C_17
REMARK    2  A    between atoms: C_7  and  C_10
REMARK    3  A    between atoms: C_11  and  C_14
REMARK    4  A    between atoms: C_14  and  O_15
REMARK    5  A    between atoms: C_17  and  C_19
REMARK    6  A    between atoms: C_19  and  O_20
REMARK                            x       y       z     vdW  Elec       q    Type
REMARK                         _______ _______ _______ _____ _____    ______ ____
ROOT
ATOM      1  S   UNL     1      -0.043  -1.071  -0.436  0.00  0.00    -0.060 S 
ATOM      2  S   UNL     1       2.405  -2.777  -0.816  0.00  0.00    -0.027 S 
ATOM      3  O   UNL     1       1.822   2.255  -0.310  0.00  0.00    -0.269 OA
ATOM      4  N   UNL     1       2.311  -0.030  -0.565  0.00  0.00    -0.233 N 
ATOM      5  C   UNL     1       0.076   0.634  -0.294  0.00  0.00    +0.088 C 
ATOM      6  C   UNL     1       1.486   1.081  -0.387  0.00  0.00    +0.260 C 
ATOM      7  C   UNL     1      -0.949   1.470  -0.122  0.00  0.00    +0.049 C 
ATOM      8  C   UNL     1       1.697  -1.276  -0.618  0.00  0.00    +0.122 C 
ENDROOT
BRANCH   7  10
ATOM      9  O   UNL     1      -2.675  -0.117   0.507  0.00  0.00    -0.455 OA
ATOM     10  C   UNL     1      -2.323   1.069  -0.029  0.00  0.00    +0.146 C 
ATOM     11  C   UNL     1      -4.031  -0.169   0.438  0.00  0.00    +0.152 C 
ATOM     12  C   UNL     1      -3.408   1.784  -0.442  0.00  0.00    +0.040 C 
ATOM     13  C   UNL     1      -4.530   0.976  -0.138  0.00  0.00    +0.039 C 
BRANCH  11  14
ATOM     14  C   UNL     1      -4.662  -1.387   0.966  0.00  0.00    +0.202 C 
BRANCH  14  15
ATOM     15  O   UNL     1      -4.787  -2.367  -0.067  0.00  0.00    -0.375 OA
ATOM     16  H   UNL     1      -5.204  -3.165   0.293  0.00  0.00    +0.211 HD
ENDBRANCH  14  15
ENDBRANCH  11  14
ENDBRANCH   7  10
BRANCH   4  17
ATOM     17  C   UNL     1       3.759   0.110  -0.692  0.00  0.00    +0.209 C 
BRANCH  17  19
ATOM     18  O   UNL     1       3.850   0.381   1.702  0.00  0.00    -0.248 OA
ATOM     19  C   UNL     1       4.387   0.005   0.668  0.00  0.00    +0.335 C 
BRANCH  19  20
ATOM     20  O   UNL     1       5.616  -0.571   0.634  0.00  0.00    -0.479 OA
ATOM     21  H   UNL     1       5.984  -0.842  -0.184  0.00  0.00    +0.295 HD
ENDBRANCH  19  20
ENDBRANCH  17  19
ENDBRANCH   4  17
TORSDOF 6
