REMARK  Name = 133373
REMARK  10 active torsions:
REMARK  status: ('A' for Active; 'I' for Inactive)
REMARK    1  A    between atoms: C_1  and  C_4
REMARK    2  A    between atoms: C_1  and  N_17
REMARK    3  A    between atoms: C_1  and  C_27
REMARK    4  A    between atoms: N_3  and  C_7
REMARK    5  A    between atoms: C_18  and  C_20
REMARK    6  A    between atoms: C_20  and  C_21
REMARK    7  A    between atoms: C_21  and  C_22
REMARK    8  A    between atoms: C_22  and  C_24
REMARK    9  A    between atoms: C_24  and  O_25
REMARK   10  A    between atoms: C_27  and  C_28
REMARK                            x       y       z     vdW  Elec       q    Type
REMARK                         _______ _______ _______ _____ _____    ______ ____
ROOT
ATOM      1  C   UNL     1      -0.726  -0.039  -0.434  0.00  0.00    +0.153 C 
ENDROOT
BRANCH   1   4
ATOM      2  O   UNL     1       0.818   1.303  -1.711  0.00  0.00    -0.273 OA
ATOM      3  N   UNL     1       1.657  -0.149  -0.070  0.00  0.00    -0.283 N 
ATOM      4  C   UNL     1       0.665   0.450  -0.841  0.00  0.00    +0.244 C 
ATOM      5  H   UNL     1       1.350  -0.788   0.614  0.00  0.00    +0.155 HD
BRANCH   3   7
ATOM      6  N   UNL     1       7.169   0.667  -0.427  0.00  0.00    -0.244 NA
ATOM      7  C   UNL     1       3.055   0.051  -0.153  0.00  0.00    +0.050 C 
ATOM      8  C   UNL     1       3.913  -0.635   0.702  0.00  0.00    +0.016 C 
ATOM      9  C   UNL     1       5.303  -0.439   0.622  0.00  0.00    +0.019 C 
ATOM     10  C   UNL     1       3.581   0.934  -1.088  0.00  0.00    +0.016 C 
ATOM     11  C   UNL     1       5.843   0.456  -0.325  0.00  0.00    +0.081 C 
ATOM     12  C   UNL     1       4.962   1.129  -1.167  0.00  0.00    +0.020 C 
ATOM     13  C   UNL     1       6.189  -1.117   1.470  0.00  0.00    +0.003 C 
ATOM     14  C   UNL     1       7.556  -0.901   1.367  0.00  0.00    +0.021 C 
ATOM     15  C   UNL     1       7.990  -0.007   0.410  0.00  0.00    +0.099 C 
ENDBRANCH   3   7
ENDBRANCH   1   4
BRANCH   1  17
ATOM     16  O   UNL     1      -1.240   1.897   1.622  0.00  0.00    -0.275 OA
ATOM     17  N   UNL     1      -1.610   1.099  -0.525  0.00  0.00    -0.298 N 
ATOM     18  C   UNL     1      -1.792   1.982   0.529  0.00  0.00    +0.223 C 
ATOM     19  H   UNL     1      -2.100   1.253  -1.365  0.00  0.00    +0.150 HD
BRANCH  18  20
ATOM     20  C   UNL     1      -2.794   3.071   0.182  0.00  0.00    +0.086 C 
BRANCH  20  21
ATOM     21  C   UNL     1      -4.182   2.540  -0.170  0.00  0.00    +0.021 C 
BRANCH  21  22
ATOM     22  C   UNL     1      -4.807   1.740   0.976  0.00  0.00    +0.110 C 
BRANCH  22  24
ATOM     23  O   UNL     1      -6.734   1.368  -0.466  0.00  0.00    -0.250 OA
ATOM     24  C   UNL     1      -6.178   1.215   0.613  0.00  0.00    +0.314 C 
BRANCH  24  25
ATOM     25  O   UNL     1      -6.737   0.533   1.646  0.00  0.00    -0.480 OA
ATOM     26  H   UNL     1      -6.271   0.442   2.454  0.00  0.00    +0.295 HD
ENDBRANCH  24  25
ENDBRANCH  22  24
ENDBRANCH  21  22
ENDBRANCH  20  21
ENDBRANCH  18  20
ENDBRANCH   1  17
BRANCH   1  27
ATOM     27  C   UNL     1      -1.215  -1.172  -1.344  0.00  0.00    +0.055 C 
BRANCH  27  28
ATOM     28  C   UNL     1      -2.375  -1.947  -0.769  0.00  0.00    -0.020 C 
ATOM     29  C   UNL     1      -2.139  -3.065   0.031  0.00  0.00    -0.004 C 
ATOM     30  C   UNL     1      -3.684  -1.544  -1.036  0.00  0.00    -0.004 C 
ATOM     31  C   UNL     1      -3.212  -3.781   0.563  0.00  0.00    -0.000 C 
ATOM     32  C   UNL     1      -4.756  -2.259  -0.504  0.00  0.00    -0.000 C 
ATOM     33  C   UNL     1      -4.520  -3.378   0.295  0.00  0.00    -0.000 C 
ENDBRANCH  27  28
ENDBRANCH   1  27
TORSDOF 10
