133357
  -OEChem-03292013323D

 38 41  0     1  0  0  0  0  0999 V2000
   -0.8366    1.3192   -0.6050 S   0  0  0  0  0  0  0  0  0  0  0  0
   -2.5541   -1.3415   -2.0307 S   0  0  0  0  0  0  0  0  0  0  0  0
   -6.7497    1.0430    1.6072 O   0  0  0  0  0  0  0  0  0  0  0  0
   -4.9216    1.6869    0.4220 O   0  0  0  0  0  0  0  0  0  0  0  0
    1.3687    0.0360   -0.1075 N   0  0  0  0  0  0  0  0  0  0  0  0
   -0.6522   -1.2878   -0.2046 N   0  0  0  0  0  0  0  0  0  0  0  0
   -2.8991   -0.9602    0.5027 N   0  0  0  0  0  0  0  0  0  0  0  0
    1.7846    1.4395   -0.1003 C   0  0  1  0  0  0  0  0  0  0  0  0
    3.1582    1.5851   -0.7536 C   0  0  0  0  0  0  0  0  0  0  0  0
    2.2732   -0.9827    0.4148 C   0  0  0  0  0  0  0  0  0  0  0  0
    0.7178    2.2261   -0.8701 C   0  0  0  0  0  0  0  0  0  0  0  0
    4.1560    0.6426   -0.1379 C   0  0  0  0  0  0  0  0  0  0  0  0
    3.7292   -0.5832    0.3990 C   0  0  0  0  0  0  0  0  0  0  0  0
    0.0174   -0.1876   -0.2724 C   0  0  0  0  0  0  0  0  0  0  0  0
    5.5215    0.9586   -0.1519 C   0  0  0  0  0  0  0  0  0  0  0  0
    4.6806   -1.4648    0.9338 C   0  0  0  0  0  0  0  0  0  0  0  0
    6.4563    0.0744    0.3849 C   0  0  0  0  0  0  0  0  0  0  0  0
    6.0360   -1.1361    0.9289 C   0  0  0  0  0  0  0  0  0  0  0  0
   -2.0358   -1.1758   -0.4265 C   0  0  0  0  0  0  0  0  0  0  0  0
   -4.1412   -0.9147   -0.0997 C   0  0  0  0  0  0  0  0  0  0  0  0
   -4.1555   -1.0997   -1.4662 C   0  0  0  0  0  0  0  0  0  0  0  0
   -5.3246   -0.6769    0.7505 C   0  0  0  0  0  0  0  0  0  0  0  0
   -5.6290    0.7996    0.8825 C   0  0  0  0  0  0  0  0  0  0  0  0
    1.8207    1.7876    0.9414 H   0  0  0  0  0  0  0  0  0  0  0  0
    3.4976    2.6227   -0.6484 H   0  0  0  0  0  0  0  0  0  0  0  0
    3.1057    1.3587   -1.8264 H   0  0  0  0  0  0  0  0  0  0  0  0
    2.1601   -1.8980   -0.1787 H   0  0  0  0  0  0  0  0  0  0  0  0
    1.9848   -1.2068    1.4491 H   0  0  0  0  0  0  0  0  0  0  0  0
    0.6396    3.2588   -0.5187 H   0  0  0  0  0  0  0  0  0  0  0  0
    0.9171    2.2377   -1.9468 H   0  0  0  0  0  0  0  0  0  0  0  0
    5.8637    1.8966   -0.5819 H   0  0  0  0  0  0  0  0  0  0  0  0
    4.3674   -2.4166    1.3563 H   0  0  0  0  0  0  0  0  0  0  0  0
    7.5122    0.3285    0.3749 H   0  0  0  0  0  0  0  0  0  0  0  0
    6.7634   -1.8265    1.3455 H   0  0  0  0  0  0  0  0  0  0  0  0
   -4.9997   -1.1041   -2.1412 H   0  0  0  0  0  0  0  0  0  0  0  0
   -5.1527   -1.0809    1.7542 H   0  0  0  0  0  0  0  0  0  0  0  0
   -6.2036   -1.1724    0.3231 H   0  0  0  0  0  0  0  0  0  0  0  0
   -6.9230    2.0039    1.7017 H   0  0  0  0  0  0  0  0  0  0  0  0
  1 11  1  0  0  0  0
  1 14  1  0  0  0  0
  2 19  1  0  0  0  0
  2 21  1  0  0  0  0
  3 23  1  0  0  0  0
  3 38  1  0  0  0  0
  4 23  2  0  0  0  0
  5  8  1  0  0  0  0
  5 10  1  0  0  0  0
  5 14  1  0  0  0  0
  6 14  2  3  0  0  0
  6 19  1  0  0  0  0
  7 19  2  0  0  0  0
  7 20  1  0  0  0  0
  8  9  1  0  0  0  0
  8 11  1  0  0  0  0
  8 24  1  0  0  0  0
  9 12  1  0  0  0  0
  9 25  1  0  0  0  0
  9 26  1  0  0  0  0
 10 13  1  0  0  0  0
 10 27  1  0  0  0  0
 10 28  1  0  0  0  0
 11 29  1  0  0  0  0
 11 30  1  0  0  0  0
 12 13  1  0  0  0  0
 12 15  2  0  0  0  0
 13 16  2  0  0  0  0
 15 17  1  0  0  0  0
 15 31  1  0  0  0  0
 16 18  1  0  0  0  0
 16 32  1  0  0  0  0
 17 18  2  0  0  0  0
 17 33  1  0  0  0  0
 18 34  1  0  0  0  0
 20 21  2  0  0  0  0
 20 22  1  0  0  0  0
 21 35  1  0  0  0  0
 22 23  1  0  0  0  0
 22 36  1  0  0  0  0
 22 37  1  0  0  0  0
M  END
> <PUBCHEM_COMPOUND_CID>
133357

> <PUBCHEM_CONFORMER_RMSD>
0.6

> <PUBCHEM_CONFORMER_DIVERSEORDER>
1
37
21
11
19
31
42
32
8
24
7
40
23
20
3
30
27
39
41
38
22
16
36
9
17
34
15
25
18
4
26
13
5
33
10
29
28
12
14
2
35
6

> <PUBCHEM_MMFF94_PARTIAL_CHARGES>
29
1 -0.37
10 0.51
11 0.23
12 -0.14
13 -0.14
14 0.64
15 -0.15
16 -0.15
17 -0.15
18 -0.15
19 0.5
2 -0.08
20 0.05
21 -0.11
22 0.24
23 0.66
3 -0.65
31 0.15
32 0.15
33 0.15
34 0.15
35 0.15
38 0.5
4 -0.57
5 -0.79
6 -0.58
7 -0.57
8 0.37
9 0.14

> <PUBCHEM_EFFECTIVE_ROTOR_COUNT>
3.8

> <PUBCHEM_PHARMACOPHORE_FEATURES>
9
1 3 acceptor
1 4 acceptor
3 3 4 23 anion
3 5 6 14 cation
3 6 7 19 cation
5 1 5 8 11 14 rings
5 2 7 19 20 21 rings
6 12 13 15 16 17 18 rings
6 5 8 9 10 12 13 rings

> <PUBCHEM_HEAVY_ATOM_COUNT>
23

> <PUBCHEM_ATOM_DEF_STEREO_COUNT>
1

> <PUBCHEM_ATOM_UDEF_STEREO_COUNT>
0

> <PUBCHEM_BOND_DEF_STEREO_COUNT>
0

> <PUBCHEM_BOND_UDEF_STEREO_COUNT>
1

> <PUBCHEM_ISOTOPIC_ATOM_COUNT>
0

> <PUBCHEM_COMPONENT_COUNT>
1

> <PUBCHEM_CACTVS_TAUTO_COUNT>
1

> <PUBCHEM_CONFORMER_ID>
000208ED00000001

> <PUBCHEM_MMFF94_ENERGY>
59.7007

> <PUBCHEM_FEATURE_SELFOVERLAP>
45.892

> <PUBCHEM_SHAPE_FINGERPRINT>
105312 117 16702304538482186165
10763959 59 14045740430873897706
10906281 52 18337122236719848262
11089746 13 17632852040615919225
12107183 9 18410858741979178297
12236239 1 18272369801952145914
12422481 6 18270400486289918615
12596602 18 17417805201691103610
12616971 3 18410291445165308740
13073987 5 18196371635401876635
13167372 99 18412827971425458136
13590594 115 18259702285402579957
13782708 43 16225758631833778058
14251764 18 18411702106152484747
14251764 30 15791735213220666665
14294032 229 17417813912654795961
14341114 176 17894630357573759438
14466204 15 18202005400086918185
14849402 71 18189906489782872853
15081414 286 17895191177355823620
15142383 8 18040992908335010989
15183329 4 18410005542072047662
15461852 350 17203602714613014165
15475509 8 18270700696352038892
15527383 91 18408885148318780296
1601671 61 18273215300544850820
1813 80 17895203177208916964
19141452 34 18343298206201872166
19489759 90 16272207513797995479
200 152 18336536188400394238
20511986 3 18201427086692152376
21033648 29 17168967015225654933
21130935 74 18343297094116929498
21236236 1 18335695005833421997
21267235 1 18260266314336258322
21315763 178 18343294886450517470
21403212 168 18410012092841484249
21421861 104 18262230002916420194
21521721 280 17095530625665413808
21591340 7 18343021070080906409
21623969 137 17530687593253070682
21641784 216 17748833986555470140
21792961 116 17168410576943976094
22950370 63 18260545653917540430
2297311 6 14706926237809622215
2303208 19 16298383548165105178
23081809 10 18341327889907021534
23402539 116 18202559600817021284
23522609 53 18264230121598811284
23845131 108 17473822823323984984
24771293 8 18198049478263969576
300161 21 16845573110472233622
350125 39 18408885135787637580
4463277 17 18408322198729219388
46194498 28 15791730832665456614
5104073 3 18337951310856362730
5207 217 10592036960179898285
5385378 56 17631749153634725287
542803 24 18272650168658612566
6328613 192 18272089439266853416
7226269 152 17560803221349119321
7495541 125 13623531281374673902

> <PUBCHEM_SHAPE_MULTIPOLES>
454.35
16.25
1.92
1.27
1.43
0.58
0.29
-0.44
-6.49
0
0.23
1.69
-0.2
-2.18

> <PUBCHEM_SHAPE_SELFOVERLAP>
968.024

> <PUBCHEM_SHAPE_VOLUME>
254.6

> <PUBCHEM_COORDINATE_TYPE>
2
5
10

$$$$
