REMARK  Name = 133359
REMARK  3 active torsions:
REMARK  status: ('A' for Active; 'I' for Inactive)
REMARK    1  A    between atoms: C_3  and  N_12
REMARK    2  A    between atoms: C_4  and  S_16
REMARK    3  A    between atoms: C_9  and  O_20
REMARK                            x       y       z     vdW  Elec       q    Type
REMARK                         _______ _______ _______ _____ _____    ______ ____
ROOT
ATOM      1  C   UNL     1       0.452  -0.127   0.252  0.00  0.00    +0.017 C 
ATOM      2  C   UNL     1      -0.377  -1.237  -0.035  0.00  0.00    +0.003 C 
ATOM      3  C   UNL     1       1.843  -0.308   0.323  0.00  0.00    +0.084 C 
ATOM      4  C   UNL     1      -2.333   0.203   0.102  0.00  0.00    +0.112 C 
ATOM      5  C   UNL     1      -1.768  -1.055  -0.106  0.00  0.00    +0.019 C 
ATOM      6  C   UNL     1      -0.133   1.133   0.458  0.00  0.00    +0.003 C 
ATOM      7  C   UNL     1       0.209  -2.497  -0.241  0.00  0.00    +0.003 C 
ATOM      8  C   UNL     1      -1.517   1.295   0.384  0.00  0.00    +0.019 C 
ATOM      9  C   UNL     1       2.408  -1.567   0.116  0.00  0.00    +0.147 C 
ATOM     10  C   UNL     1       1.593  -2.659  -0.167  0.00  0.00    +0.038 C 
ENDROOT
BRANCH   3  12
ATOM     11  O   UNL     1       3.209   1.638  -1.524  0.00  0.00    -0.275 OA
ATOM     12  N   UNL     1       2.701   0.765   0.605  0.00  0.00    -0.282 N 
ATOM     13  C   UNL     1       3.309   1.637  -0.301  0.00  0.00    +0.227 C 
ATOM     14  C   UNL     1       4.161   2.662   0.405  0.00  0.00    +0.095 C 
ATOM     15  H   UNL     1       2.898   0.923   1.556  0.00  0.00    +0.155 HD
ENDBRANCH   3  12
BRANCH   4  16
ATOM     16  S   UNL     1      -4.064   0.408   0.009  0.00  0.00    +0.042 S 
ATOM     17  O   UNL     1      -4.371   0.768  -1.556  0.00  0.00    -0.065 OA
ATOM     18  O   UNL     1      -4.685  -0.880   0.278  0.00  0.00    -0.065 OA
ATOM     19  O   UNL     1      -4.397   1.574   0.814  0.00  0.00    -0.065 OA
ENDBRANCH   4  16
BRANCH   9  20
ATOM     20  O   UNL     1       3.757  -1.754   0.184  0.00  0.00    -0.504 OA
ATOM     21  H   UNL     1       4.322  -1.030   0.373  0.00  0.00    +0.292 HD
ENDBRANCH   9  20
TORSDOF 3
