REMARK  Name = 133352
REMARK  8 active torsions:
REMARK  status: ('A' for Active; 'I' for Inactive)
REMARK    1  A    between atoms: C_5  and  C_9
REMARK    2  A    between atoms: C_6  and  C_25
REMARK    3  A    between atoms: C_7  and  C_31
REMARK    4  A    between atoms: N_8  and  C_15
REMARK    5  A    between atoms: C_25  and  C_26
REMARK    6  A    between atoms: C_26  and  C_28
REMARK    7  A    between atoms: C_28  and  O_29
REMARK    8  A    between atoms: C_31  and  N_32
REMARK                            x       y       z     vdW  Elec       q    Type
REMARK                         _______ _______ _______ _____ _____    ______ ____
ROOT
ATOM      1  O   UNL     1       3.018   0.050   1.679  0.00  0.00    -0.272 OA
ATOM      2  O   UNL     1       2.344  -3.240  -0.378  0.00  0.00    -0.274 OA
ATOM      3  O   UNL     1       3.659  -0.026  -2.196  0.00  0.00    -0.276 OA
ATOM      4  N   UNL     1       2.524  -0.923  -0.378  0.00  0.00    -0.178 N 
ATOM      5  C   UNL     1       2.714   0.159   0.490  0.00  0.00    +0.255 C 
ATOM      6  C   UNL     1       2.056  -2.149   0.117  0.00  0.00    +0.238 C 
ATOM      7  C   UNL     1       2.800  -0.786  -1.744  0.00  0.00    +0.215 C 
ENDROOT
BRANCH   5   9
ATOM      8  N   UNL     1       1.299   2.114   0.686  0.00  0.00    -0.301 N 
ATOM      9  C   UNL     1       2.381   1.500  -0.085  0.00  0.00    +0.151 C 
ATOM     10  C   UNL     1       3.557   2.462   0.094  0.00  0.00    +0.031 C 
ATOM     11  C   UNL     1       3.308   3.081   1.461  0.00  0.00    +0.024 C 
ATOM     12  C   UNL     1       1.789   3.215   1.516  0.00  0.00    +0.091 C 
BRANCH   8  15
ATOM     13  O   UNL     1      -2.278   0.360  -1.972  0.00  0.00    -0.421 OA
ATOM     14  O   UNL     1      -3.972  -0.481  -3.258  0.00  0.00    -0.244 OA
ATOM     15  C   UNL     1      -0.041   1.807   0.546  0.00  0.00    +0.051 C 
ATOM     16  C   UNL     1      -0.507   1.237  -0.634  0.00  0.00    +0.052 C 
ATOM     17  C   UNL     1      -0.930   2.068   1.587  0.00  0.00    +0.015 C 
ATOM     18  C   UNL     1      -1.865   0.936  -0.754  0.00  0.00    +0.150 C 
ATOM     19  C   UNL     1      -2.778   1.186   0.272  0.00  0.00    +0.031 C 
ATOM     20  C   UNL     1      -2.288   1.760   1.452  0.00  0.00    +0.004 C 
ATOM     21  C   UNL     1      -4.189   0.836   0.059  0.00  0.00    -0.012 C 
ATOM     22  C   UNL     1      -4.553   0.290  -1.110  0.00  0.00    +0.078 C 
ATOM     23  C   UNL     1      -3.602   0.019  -2.201  0.00  0.00    +0.346 C 
ATOM     24  C   UNL     1      -5.195   1.093   1.142  0.00  0.00    +0.031 C 
ENDBRANCH   8  15
ENDBRANCH   5   9
BRANCH   6  25
ATOM     25  C   UNL     1       1.029  -2.025   1.239  0.00  0.00    +0.098 C 
BRANCH  25  26
ATOM     26  C   UNL     1       0.042  -3.186   1.261  0.00  0.00    +0.119 C 
BRANCH  26  28
ATOM     27  O   UNL     1      -1.010  -2.052   3.118  0.00  0.00    -0.250 OA
ATOM     28  C   UNL     1      -1.020  -2.973   2.312  0.00  0.00    +0.314 C 
BRANCH  28  29
ATOM     29  O   UNL     1      -1.981  -3.930   2.284  0.00  0.00    -0.480 OA
ATOM     30  H   UNL     1      -1.942  -4.614   1.646  0.00  0.00    +0.295 HD
ENDBRANCH  28  29
ENDBRANCH  26  28
ENDBRANCH  25  26
ENDBRANCH   6  25
BRANCH   7  31
ATOM     31  C   UNL     1       1.880  -1.560  -2.670  0.00  0.00    +0.002 C 
BRANCH  31  32
ATOM     32  N   UNL     1       1.809  -0.844  -3.934  0.00  0.00    +0.386 N 
ATOM     33  H   UNL     1       1.195  -1.346  -4.576  0.00  0.00    -0.089 HD
ATOM     34  H   UNL     1       2.743  -0.776  -4.340  0.00  0.00    -0.089 HD
ATOM     35  H   UNL     1       1.440   0.094  -3.774  0.00  0.00    -0.089 HD
ENDBRANCH  31  32
ENDBRANCH   7  31
TORSDOF 8
