REMARK  Name = 133308
REMARK  6 active torsions:
REMARK  status: ('A' for Active; 'I' for Inactive)
REMARK    1  A    between atoms: C_2  and  O_3
REMARK    2  A    between atoms: C_2  and  C_12
REMARK    3  A    between atoms: O_3  and  C_4
REMARK    4  A    between atoms: C_4  and  N_7
REMARK    5  A    between atoms: C_12  and  C_13
REMARK    6  A    between atoms: C_13  and  N_16
REMARK                            x       y       z     vdW  Elec       q    Type
REMARK                         _______ _______ _______ _____ _____    ______ ____
ROOT
ATOM      1  O   UNL     1       0.688  -3.019   1.046  0.00  0.00    -0.250 OA
ATOM      2  C   UNL     1       0.746  -2.207   0.134  0.00  0.00    +0.320 C 
ENDROOT
BRANCH   2   3
ATOM      3  O   UNL     1      -0.212  -1.284  -0.178  0.00  0.00    -0.426 OA
BRANCH   3   4
ATOM      4  C   UNL     1      -1.371  -1.295   0.659  0.00  0.00    +0.317 C 
BRANCH   4   7
ATOM      5  O   UNL     1      -1.507   1.550   1.536  0.00  0.00    -0.269 OA
ATOM      6  O   UNL     1      -3.574  -1.381  -1.351  0.00  0.00    -0.269 OA
ATOM      7  N   UNL     1      -2.254  -0.250   0.229  0.00  0.00    -0.184 N 
ATOM      8  C   UNL     1      -2.235   1.045   0.699  0.00  0.00    +0.258 C 
ATOM      9  C   UNL     1      -3.247  -0.393  -0.715  0.00  0.00    +0.258 C 
ATOM     10  C   UNL     1      -3.301   1.770  -0.011  0.00  0.00    +0.063 C 
ATOM     11  C   UNL     1      -3.899   0.919  -0.847  0.00  0.00    +0.063 C 
ENDBRANCH   4   7
ENDBRANCH   3   4
ENDBRANCH   2   3
BRANCH   2  12
ATOM     12  C   UNL     1       1.891  -2.073  -0.848  0.00  0.00    +0.132 C 
BRANCH  12  13
ATOM     13  C   UNL     1       2.991  -1.142  -0.355  0.00  0.00    +0.113 C 
BRANCH  13  16
ATOM     14  O   UNL     1       2.912   1.161  -2.244  0.00  0.00    -0.269 OA
ATOM     15  O   UNL     1       1.809   0.085   2.094  0.00  0.00    -0.269 OA
ATOM     16  N   UNL     1       2.510   0.197  -0.143  0.00  0.00    -0.222 N 
ATOM     17  C   UNL     1       2.517   1.194  -1.091  0.00  0.00    +0.255 C 
ATOM     18  C   UNL     1       1.978   0.665   1.035  0.00  0.00    +0.255 C 
ATOM     19  C   UNL     1       1.938   2.386  -0.453  0.00  0.00    +0.063 C 
ATOM     20  C   UNL     1       1.619   2.073   0.804  0.00  0.00    +0.063 C 
ENDBRANCH  13  16
ENDBRANCH  12  13
ENDBRANCH   2  12
TORSDOF 6
