REMARK  Name = 133334
REMARK  3 active torsions:
REMARK  status: ('A' for Active; 'I' for Inactive)
REMARK    1  A    between atoms: C_2  and  C_18
REMARK    2  A    between atoms: C_5  and  C_14
REMARK    3  A    between atoms: C_21  and  N_24
REMARK                            x       y       z     vdW  Elec       q    Type
REMARK                         _______ _______ _______ _____ _____    ______ ____
ROOT
ATOM      1  N   UNL     1       0.170  -0.658   0.011  0.00  0.00    -0.401 NA
ATOM      2  C   UNL     1      -1.029  -1.279   0.026  0.00  0.00    +0.131 C 
ATOM      3  C   UNL     1      -0.053  -3.443  -0.065  0.00  0.00    -0.034 C 
ATOM      4  C   UNL     1      -1.196  -2.652  -0.010  0.00  0.00    +0.024 C 
ATOM      5  C   UNL     1       1.258  -1.459  -0.042  0.00  0.00    +0.167 C 
ATOM      6  C   UNL     1       1.201  -2.843  -0.082  0.00  0.00    +0.086 C 
ATOM      7  C   UNL     1      -0.172  -4.929  -0.105  0.00  0.00    +0.027 C 
ENDROOT
BRANCH   5  14
ATOM      8  O   UNL     1       3.583  -1.454  -0.084  0.00  0.00    -0.267 OA
ATOM      9  N   UNL     1       2.490   0.623  -0.015  0.00  0.00    -0.220 N 
ATOM     10  N   UNL     1       3.417   2.840   0.047  0.00  0.00    -0.095 NA
ATOM     11  N   UNL     1       4.834   1.075  -0.016  0.00  0.00    -0.072 NA
ATOM     12  N   UNL     1       4.713   3.181   0.048  0.00  0.00    -0.139 N 
ATOM     13  N   UNL     1       5.589   2.167   0.011  0.00  0.00    -0.020 NA
ATOM     14  C   UNL     1       2.541  -0.778  -0.057  0.00  0.00    +0.283 C 
ATOM     15  C   UNL     1       3.561   1.527   0.007  0.00  0.00    +0.132 C 
ATOM     16  H   UNL     1       1.590   1.021   0.002  0.00  0.00    +0.167 HD
ATOM     17  H   UNL     1       5.005   4.121   0.073  0.00  0.00    +0.197 HD
ENDBRANCH   5  14
BRANCH   2  18
ATOM     18  C   UNL     1      -2.172  -0.394   0.084  0.00  0.00    +0.030 C 
ATOM     19  C   UNL     1      -2.690  -0.002   1.318  0.00  0.00    +0.004 C 
ATOM     20  C   UNL     1      -2.757   0.068  -1.096  0.00  0.00    +0.004 C 
ATOM     21  C   UNL     1      -4.377   1.311   0.194  0.00  0.00    +0.045 C 
ATOM     22  C   UNL     1      -3.792   0.850   1.373  0.00  0.00    +0.014 C 
ATOM     23  C   UNL     1      -3.859   0.920  -1.041  0.00  0.00    +0.014 C 
BRANCH  21  24
ATOM     24  N   UNL     1      -5.492   2.174   0.250  0.00  0.00    -0.331 N 
ATOM     25  C   UNL     1      -5.766   3.155  -0.754  0.00  0.00    +0.109 C 
ATOM     26  H   UNL     1      -6.108   2.098   1.014  0.00  0.00    +0.147 HD
ENDBRANCH  21  24
ENDBRANCH   2  18
TORSDOF 3
