REMARK  Name = 133379
REMARK  7 active torsions:
REMARK  status: ('A' for Active; 'I' for Inactive)
REMARK    1  A    between atoms: C_1  and  C_9
REMARK    2  A    between atoms: C_2  and  N_21
REMARK    3  A    between atoms: C_4  and  O_32
REMARK    4  A    between atoms: C_12  and  C_17
REMARK    5  A    between atoms: C_17  and  O_18
REMARK    6  A    between atoms: C_22  and  C_25
REMARK    7  A    between atoms: C_26  and  O_30
REMARK                            x       y       z     vdW  Elec       q    Type
REMARK                         _______ _______ _______ _____ _____    ______ ____
ROOT
ATOM      1  C   UNL     1       0.148  -2.433  -0.179  0.00  0.00    +0.083 C 
ATOM      2  C   UNL     1      -1.173  -1.974  -0.241  0.00  0.00    +0.090 C 
ATOM      3  C   UNL     1       0.399  -3.809  -0.240  0.00  0.00    +0.007 C 
ATOM      4  C   UNL     1      -2.228  -2.878  -0.363  0.00  0.00    +0.147 C 
ATOM      5  C   UNL     1      -0.656  -4.713  -0.362  0.00  0.00    +0.003 C 
ATOM      6  C   UNL     1      -1.970  -4.247  -0.424  0.00  0.00    +0.038 C 
ENDROOT
BRANCH   1   9
ATOM      7  O   UNL     1       2.338  -2.028   0.610  0.00  0.00    -0.425 OA
ATOM      8  N   UNL     1       1.376  -0.293  -0.486  0.00  0.00    -0.368 NA
ATOM      9  C   UNL     1       1.257  -1.529  -0.053  0.00  0.00    +0.283 C 
ATOM     10  C   UNL     1       2.639   0.065  -0.079  0.00  0.00    +0.161 C 
ATOM     11  C   UNL     1       3.231  -0.995   0.592  0.00  0.00    +0.174 C 
ATOM     12  C   UNL     1       3.360   1.257  -0.234  0.00  0.00    +0.176 C 
ATOM     13  C   UNL     1       4.509  -0.973   1.136  0.00  0.00    +0.040 C 
ATOM     14  C   UNL     1       4.655   1.318   0.302  0.00  0.00    -0.008 C 
ATOM     15  C   UNL     1       5.215   0.224   0.973  0.00  0.00    -0.000 C 
BRANCH  12  17
ATOM     16  O   UNL     1       1.659   2.438  -1.432  0.00  0.00    -0.249 OA
ATOM     17  C   UNL     1       2.788   2.396  -0.927  0.00  0.00    +0.324 C 
BRANCH  17  18
ATOM     18  O   UNL     1       3.637   3.460  -0.975  0.00  0.00    -0.480 OA
ATOM     19  H   UNL     1       4.487   3.400  -0.584  0.00  0.00    +0.295 HD
ENDBRANCH  17  18
ENDBRANCH  12  17
ENDBRANCH   1   9
BRANCH   2  21
ATOM     20  O   UNL     1      -3.539  -0.552   0.888  0.00  0.00    -0.268 OA
ATOM     21  N   UNL     1      -1.449  -0.602  -0.181  0.00  0.00    -0.277 N 
ATOM     22  C   UNL     1      -2.577  -0.002   0.362  0.00  0.00    +0.270 C 
ATOM     23  H   UNL     1      -0.771   0.000  -0.564  0.00  0.00    +0.155 HD
BRANCH  22  25
ATOM     24  N   UNL     1      -1.351   2.023   0.362  0.00  0.00    -0.236 NA
ATOM     25  C   UNL     1      -2.575   1.484   0.307  0.00  0.00    +0.168 C 
ATOM     26  C   UNL     1      -3.760   2.164   0.211  0.00  0.00    +0.156 C 
ATOM     27  C   UNL     1      -3.683   3.551   0.165  0.00  0.00    +0.040 C 
ATOM     28  C   UNL     1      -2.442   4.176   0.217  0.00  0.00    +0.024 C 
ATOM     29  C   UNL     1      -1.316   3.374   0.315  0.00  0.00    +0.099 C 
BRANCH  26  30
ATOM     30  O   UNL     1      -4.968   1.546   0.161  0.00  0.00    -0.504 OA
ATOM     31  H   UNL     1      -5.017   0.611   0.192  0.00  0.00    +0.292 HD
ENDBRANCH  26  30
ENDBRANCH  22  25
ENDBRANCH   2  21
BRANCH   4  32
ATOM     32  O   UNL     1      -3.520  -2.447  -0.424  0.00  0.00    -0.504 OA
ATOM     33  H   UNL     1      -3.711  -1.531  -0.384  0.00  0.00    +0.292 HD
ENDBRANCH   4  32
TORSDOF 7
