REMARK  Name = 133339
REMARK  9 active torsions:
REMARK  status: ('A' for Active; 'I' for Inactive)
REMARK    1  A    between atoms: C_2  and  C_16
REMARK    2  A    between atoms: C_3  and  C_9
REMARK    3  A    between atoms: C_9  and  C_10
REMARK    4  A    between atoms: C_10  and  C_11
REMARK    5  A    between atoms: C_11  and  C_13
REMARK    6  A    between atoms: C_13  and  O_14
REMARK    7  A    between atoms: C_16  and  C_17
REMARK    8  A    between atoms: C_17  and  C_19
REMARK    9  A    between atoms: C_19  and  O_20
REMARK                            x       y       z     vdW  Elec       q    Type
REMARK                         _______ _______ _______ _____ _____    ______ ____
ROOT
ATOM      1  N   UNL     1      -1.307  -2.500  -0.291  0.00  0.00    -0.315 N 
ATOM      2  C   UNL     1      -1.466  -0.327  -0.720  0.00  0.00    -0.003 C 
ATOM      3  C   UNL     1      -0.246  -0.600  -0.105  0.00  0.00    +0.041 C 
ATOM      4  C   UNL     1      -0.146  -1.926   0.157  0.00  0.00    +0.028 C 
ATOM      5  C   UNL     1      -2.119  -1.535  -0.828  0.00  0.00    +0.057 C 
ATOM      6  C   UNL     1       0.911  -2.744   0.785  0.00  0.00    +0.047 C 
ATOM      7  H   UNL     1      -1.524  -3.459  -0.236  0.00  0.00    +0.152 HD
ENDROOT
BRANCH   3   9
ATOM      8  O   UNL     1       0.527   1.543   0.490  0.00  0.00    -0.291 OA
ATOM      9  C   UNL     1       0.811   0.374   0.227  0.00  0.00    +0.174 C 
BRANCH   9  10
ATOM     10  C   UNL     1       2.268  -0.089   0.237  0.00  0.00    +0.081 C 
BRANCH  10  11
ATOM     11  C   UNL     1       3.262   1.022  -0.105  0.00  0.00    +0.117 C 
BRANCH  11  13
ATOM     12  O   UNL     1       5.071  -0.579   0.217  0.00  0.00    -0.250 OA
ATOM     13  C   UNL     1       4.700   0.556  -0.048  0.00  0.00    +0.314 C 
BRANCH  13  14
ATOM     14  O   UNL     1       5.560   1.567  -0.339  0.00  0.00    -0.480 OA
ATOM     15  H   UNL     1       5.229   2.422  -0.536  0.00  0.00    +0.295 HD
ENDBRANCH  13  14
ENDBRANCH  11  13
ENDBRANCH  10  11
ENDBRANCH   9  10
ENDBRANCH   3   9
BRANCH   2  16
ATOM     16  C   UNL     1      -1.983   0.979  -1.177  0.00  0.00    +0.039 C 
BRANCH  16  17
ATOM     17  C   UNL     1      -2.796   1.752  -0.118  0.00  0.00    +0.114 C 
BRANCH  17  19
ATOM     18  O   UNL     1      -4.953   0.650  -0.395  0.00  0.00    -0.250 OA
ATOM     19  C   UNL     1      -4.041   1.019   0.333  0.00  0.00    +0.314 C 
BRANCH  19  20
ATOM     20  O   UNL     1      -4.052   0.838   1.679  0.00  0.00    -0.480 OA
ATOM     21  H   UNL     1      -3.331   1.137   2.198  0.00  0.00    +0.295 HD
ENDBRANCH  19  20
ENDBRANCH  17  19
ENDBRANCH  16  17
ENDBRANCH   2  16
TORSDOF 9
