133383
  -OEChem-03292013323D

 33 32  0     1  0  0  0  0  0999 V2000
   -2.0390    0.7209    1.7742 O   0  0  0  0  0  0  0  0  0  0  0  0
    2.2685    2.8885    0.2580 O   0  0  0  0  0  0  0  0  0  0  0  0
    0.8363    2.6785   -1.4898 O   0  0  0  0  0  0  0  0  0  0  0  0
    3.0910   -2.6138   -1.0151 O   0  0  0  0  0  0  0  0  0  0  0  0
    2.9203   -2.2539    1.2185 O   0  0  0  0  0  0  0  0  0  0  0  0
   -0.7594    0.9836   -0.1453 N   0  0  0  0  0  0  0  0  0  0  0  0
    0.4786    1.3359    0.5103 C   0  0  1  0  0  0  0  0  0  0  0  0
   -3.2616   -1.0997   -0.6822 C   0  0  0  0  0  0  0  0  0  0  0  0
   -3.0810    0.3975   -0.3899 C   0  0  0  0  0  0  0  0  0  0  0  0
    1.3323    0.1112    0.8611 C   0  0  0  0  0  0  0  0  0  0  0  0
   -1.9260    0.7030    0.5515 C   0  0  0  0  0  0  0  0  0  0  0  0
    1.8154   -0.7292   -0.3278 C   0  0  0  0  0  0  0  0  0  0  0  0
   -3.4638   -1.8993    0.6075 C   0  0  0  0  0  0  0  0  0  0  0  0
   -2.0442   -1.6378   -1.4367 C   0  0  0  0  0  0  0  0  0  0  0  0
    1.1899    2.3465   -0.3658 C   0  0  0  0  0  0  0  0  0  0  0  0
    2.6427   -1.9320    0.0716 C   0  0  0  0  0  0  0  0  0  0  0  0
    0.2160    1.8572    1.4398 H   0  0  0  0  0  0  0  0  0  0  0  0
   -4.1490   -1.2195   -1.3156 H   0  0  0  0  0  0  0  0  0  0  0  0
   -2.9563    0.9541   -1.3270 H   0  0  0  0  0  0  0  0  0  0  0  0
   -3.9910    0.7937    0.0783 H   0  0  0  0  0  0  0  0  0  0  0  0
    2.2102    0.4390    1.4332 H   0  0  0  0  0  0  0  0  0  0  0  0
    0.7589   -0.5386    1.5356 H   0  0  0  0  0  0  0  0  0  0  0  0
   -0.7607    0.9253   -1.1597 H   0  0  0  0  0  0  0  0  0  0  0  0
    2.4389   -0.1070   -0.9801 H   0  0  0  0  0  0  0  0  0  0  0  0
    0.9633   -1.0909   -0.9082 H   0  0  0  0  0  0  0  0  0  0  0  0
   -3.6980   -2.9435    0.3729 H   0  0  0  0  0  0  0  0  0  0  0  0
   -4.2984   -1.4945    1.1893 H   0  0  0  0  0  0  0  0  0  0  0  0
   -2.5708   -1.8990    1.2409 H   0  0  0  0  0  0  0  0  0  0  0  0
   -2.2479   -2.6507   -1.8019 H   0  0  0  0  0  0  0  0  0  0  0  0
   -1.8050   -1.0169   -2.3060 H   0  0  0  0  0  0  0  0  0  0  0  0
   -1.1641   -1.7024   -0.7928 H   0  0  0  0  0  0  0  0  0  0  0  0
    2.7190    3.5546   -0.3039 H   0  0  0  0  0  0  0  0  0  0  0  0
    3.6427   -3.3841   -0.7610 H   0  0  0  0  0  0  0  0  0  0  0  0
  1 11  2  0  0  0  0
  2 15  1  0  0  0  0
  2 32  1  0  0  0  0
  3 15  2  0  0  0  0
  4 16  1  0  0  0  0
  4 33  1  0  0  0  0
  5 16  2  0  0  0  0
  6  7  1  0  0  0  0
  6 11  1  0  0  0  0
  6 23  1  0  0  0  0
  7 10  1  0  0  0  0
  7 15  1  0  0  0  0
  7 17  1  0  0  0  0
  8  9  1  0  0  0  0
  8 13  1  0  0  0  0
  8 14  1  0  0  0  0
  8 18  1  0  0  0  0
  9 11  1  0  0  0  0
  9 19  1  0  0  0  0
  9 20  1  0  0  0  0
 10 12  1  0  0  0  0
 10 21  1  0  0  0  0
 10 22  1  0  0  0  0
 12 16  1  0  0  0  0
 12 24  1  0  0  0  0
 12 25  1  0  0  0  0
 13 26  1  0  0  0  0
 13 27  1  0  0  0  0
 13 28  1  0  0  0  0
 14 29  1  0  0  0  0
 14 30  1  0  0  0  0
 14 31  1  0  0  0  0
M  END
> <PUBCHEM_COMPOUND_CID>
133383

> <PUBCHEM_CONFORMER_RMSD>
0.8

> <PUBCHEM_CONFORMER_DIVERSEORDER>
1
49
61
66
40
60
48
65
10
20
15
13
35
79
63
26
52
46
58
22
5
59
11
50
18
31
7
30
64
28
23
32
62
43
37
76
16
39
74
73
69
24
29
55
72
12
75
36
27
70
4
14
17
53
51
44
38
67
9
68
56
78
45
21
71
34
42
54
8
3
47
25
6
41
77
33
2
57
19

> <PUBCHEM_MMFF94_PARTIAL_CHARGES>
15
1 -0.57
11 0.57
12 0.06
15 0.66
16 0.66
2 -0.65
23 0.37
3 -0.57
32 0.5
33 0.5
4 -0.65
5 -0.57
6 -0.73
7 0.36
9 0.06

> <PUBCHEM_EFFECTIVE_ROTOR_COUNT>
8

> <PUBCHEM_PHARMACOPHORE_FEATURES>
9
1 1 acceptor
1 2 acceptor
1 3 acceptor
1 4 acceptor
1 5 acceptor
1 6 donor
3 2 3 15 anion
3 4 5 16 anion
3 8 13 14 hydrophobe

> <PUBCHEM_HEAVY_ATOM_COUNT>
16

> <PUBCHEM_ATOM_DEF_STEREO_COUNT>
1

> <PUBCHEM_ATOM_UDEF_STEREO_COUNT>
0

> <PUBCHEM_BOND_DEF_STEREO_COUNT>
0

> <PUBCHEM_BOND_UDEF_STEREO_COUNT>
0

> <PUBCHEM_ISOTOPIC_ATOM_COUNT>
0

> <PUBCHEM_COMPONENT_COUNT>
1

> <PUBCHEM_CACTVS_TAUTO_COUNT>
2

> <PUBCHEM_CONFORMER_ID>
0002090700000001

> <PUBCHEM_MMFF94_ENERGY>
20.8502

> <PUBCHEM_FEATURE_SELFOVERLAP>
45.79

> <PUBCHEM_SHAPE_FINGERPRINT>
12553582 1 18192999214180747218
12841375 5 18267602358009694222
13931106 250 17615386087944789302
15279307 12 17983862464902943167
15279308 51 18413107230267732425
20361792 2 18262800653218078090
20645477 70 18265039396959255935
20671657 53 18261943077298779779
23532345 88 18338223985798706279
23557571 272 18052805963260017898
23598288 3 17393335303863011226
23598291 2 18340220600056581577
23728640 28 16965178818470527618
6992083 37 18055926398138604761
7364860 26 18341047531479441200
81228 2 17980475659651138258

> <PUBCHEM_SHAPE_MULTIPOLES>
294.94
5.75
3.39
1.3
2.5
0.13
-0.03
-3.68
-0.03
-3.44
0.62
0.24
-0.06
-0.51

> <PUBCHEM_SHAPE_SELFOVERLAP>
567.941

> <PUBCHEM_SHAPE_VOLUME>
178.5

> <PUBCHEM_COORDINATE_TYPE>
2
5
10

$$$$
