REMARK  Name = 133315
REMARK  4 active torsions:
REMARK  status: ('A' for Active; 'I' for Inactive)
REMARK    1  A    between atoms: S_1  and  N_5
REMARK    2  A    between atoms: S_1  and  C_13
REMARK    3  A    between atoms: C_9  and  O_11
REMARK    4  A    between atoms: C_16  and  N_20
REMARK                            x       y       z     vdW  Elec       q    Type
REMARK                         _______ _______ _______ _____ _____    ______ ____
ROOT
ATOM      1  S   UNL     1       1.031  -2.137  -0.318  0.00  0.00    +0.075 S 
ATOM      2  O   UNL     1       1.085  -3.383   0.436  0.00  0.00    -0.150 OA
ATOM      3  O   UNL     1       1.247  -2.161  -1.759  0.00  0.00    -0.150 OA
ENDROOT
BRANCH   1   5
ATOM      4  S   UNL     1       3.329   1.701  -1.909  0.00  0.00    +0.121 S 
ATOM      5  N   UNL     1       2.101  -1.010   0.390  0.00  0.00    -0.195 N 
ATOM      6  N   UNL     1       2.430   0.326  -1.564  0.00  0.00    -0.170 NA
ATOM      7  N   UNL     1       4.037   1.981  -0.415  0.00  0.00    -0.153 NA
ATOM      8  C   UNL     1       2.687   0.090  -0.281  0.00  0.00    +0.211 A 
ATOM      9  C   UNL     1       3.572   0.999   0.360  0.00  0.00    +0.267 A 
ATOM     10  H   UNL     1       2.328  -1.136   1.339  0.00  0.00    +0.175 HD
BRANCH   9  11
ATOM     11  O   UNL     1       3.984   0.974   1.638  0.00  0.00    -0.454 OA
ATOM     12  C   UNL     1       4.887   2.003   2.068  0.00  0.00    +0.254 C 
ENDBRANCH   9  11
ENDBRANCH   1   5
BRANCH   1  13
ATOM     13  C   UNL     1      -0.513  -1.382  -0.013  0.00  0.00    +0.125 C 
ATOM     14  C   UNL     1      -1.052  -0.494  -0.944  0.00  0.00    +0.021 C 
ATOM     15  C   UNL     1      -1.209  -1.667   1.162  0.00  0.00    +0.021 C 
ATOM     16  C   UNL     1      -2.981  -0.176   0.474  0.00  0.00    +0.050 C 
ATOM     17  C   UNL     1      -2.286   0.109  -0.701  0.00  0.00    +0.016 C 
ATOM     18  C   UNL     1      -2.443  -1.064   1.405  0.00  0.00    +0.016 C 
BRANCH  16  20
ATOM     19  O   UNL     1      -4.564   1.777  -1.184  0.00  0.00    -0.275 OA
ATOM     20  N   UNL     1      -4.216   0.426   0.717  0.00  0.00    -0.284 N 
ATOM     21  C   UNL     1      -4.910   1.335  -0.093  0.00  0.00    +0.227 C 
ATOM     22  C   UNL     1      -6.218   1.753   0.529  0.00  0.00    +0.095 C 
ATOM     23  H   UNL     1      -4.654   0.182   1.564  0.00  0.00    +0.155 HD
ENDBRANCH  16  20
ENDBRANCH   1  13
TORSDOF 4
