REMARK  Name = 133314
REMARK  6 active torsions:
REMARK  status: ('A' for Active; 'I' for Inactive)
REMARK    1  A    between atoms: C_19  and  C_25
REMARK    2  A    between atoms: C_22  and  O_28
REMARK    3  A    between atoms: C_23  and  O_32
REMARK    4  A    between atoms: C_25  and  O_26
REMARK    5  A    between atoms: O_28  and  C_30
REMARK    6  A    between atoms: O_32  and  C_34
REMARK                            x       y       z     vdW  Elec       q    Type
REMARK                         _______ _______ _______ _____ _____    ______ ____
ROOT
ATOM      1  O   UNL     1       0.000   0.803   2.301  0.00  0.00    -0.440 OA
ATOM      2  O   UNL     1      -0.001  -2.448  -0.158  0.00  0.00    -0.454 OA
ATOM      3  O   UNL     1      -0.002   2.881   3.321  0.00  0.00    -0.245 OA
ATOM      4  C   UNL     1       0.000   0.258   0.943  0.00  0.00    +0.198 C 
ATOM      5  C   UNL     1       0.001   1.505   0.119  0.00  0.00    +0.028 C 
ATOM      6  C   UNL     1       1.258  -0.568   0.766  0.00  0.00    +0.056 C 
ATOM      7  C   UNL     1      -1.259  -0.567   0.765  0.00  0.00    +0.056 C 
ATOM      8  C   UNL     1       0.001   2.613   0.946  0.00  0.00    +0.076 C 
ATOM      9  C   UNL     1       1.180  -1.852   0.214  0.00  0.00    +0.148 C 
ATOM     10  C   UNL     1      -1.182  -1.851   0.214  0.00  0.00    +0.148 C 
ATOM     11  C   UNL     1       0.000   2.174   2.333  0.00  0.00    +0.342 C 
ATOM     12  C   UNL     1       0.001   1.663  -1.258  0.00  0.00    +0.000 C 
ATOM     13  C   UNL     1       2.526  -0.069   1.113  0.00  0.00    +0.006 C 
ATOM     14  C   UNL     1      -2.526  -0.066   1.112  0.00  0.00    +0.006 C 
ATOM     15  C   UNL     1       0.002   3.908   0.462  0.00  0.00    +0.013 C 
ATOM     16  C   UNL     1       2.335  -2.613   0.004  0.00  0.00    +0.075 C 
ATOM     17  C   UNL     1      -2.337  -2.612   0.005  0.00  0.00    +0.075 C 
ATOM     18  C   UNL     1       0.002   2.961  -1.778  0.00  0.00    +0.006 C 
ATOM     19  C   UNL     1       0.002   4.076  -0.923  0.00  0.00    +0.076 C 
ATOM     20  C   UNL     1       3.678  -0.831   0.911  0.00  0.00    +0.038 C 
ATOM     21  C   UNL     1      -3.679  -0.828   0.910  0.00  0.00    +0.038 C 
ATOM     22  C   UNL     1       3.582  -2.102   0.355  0.00  0.00    +0.151 C 
ATOM     23  C   UNL     1      -3.584  -2.100   0.355  0.00  0.00    +0.151 C 
ENDROOT
BRANCH  19  25
ATOM     24  O   UNL     1       0.005   5.685  -2.694  0.00  0.00    -0.245 OA
ATOM     25  C   UNL     1       0.004   5.416  -1.488  0.00  0.00    +0.338 C 
BRANCH  25  26
ATOM     26  O   UNL     1       0.002   6.384  -0.531  0.00  0.00    -0.477 OA
ATOM     27  H   UNL     1       0.001   6.147   0.375  0.00  0.00    +0.295 HD
ENDBRANCH  25  26
ENDBRANCH  19  25
BRANCH  22  28
ATOM     28  O   UNL     1       4.704  -2.845   0.154  0.00  0.00    -0.424 OA
BRANCH  28  30
ATOM     29  O   UNL     1       4.896  -1.905  -1.982  0.00  0.00    -0.250 OA
ATOM     30  C   UNL     1       5.301  -2.655  -1.103  0.00  0.00    +0.322 C 
ATOM     31  C   UNL     1       6.525  -3.514  -1.226  0.00  0.00    +0.122 C 
ENDBRANCH  28  30
ENDBRANCH  22  28
BRANCH  23  32
ATOM     32  O   UNL     1      -4.707  -2.841   0.153  0.00  0.00    -0.424 OA
BRANCH  32  34
ATOM     33  O   UNL     1      -4.897  -1.900  -1.982  0.00  0.00    -0.250 OA
ATOM     34  C   UNL     1      -5.303  -2.651  -1.105  0.00  0.00    +0.322 C 
ATOM     35  C   UNL     1      -6.527  -3.509  -1.229  0.00  0.00    +0.122 C 
ENDBRANCH  32  34
ENDBRANCH  23  32
TORSDOF 6
