REMARK  Name = 133357
REMARK  4 active torsions:
REMARK  status: ('A' for Active; 'I' for Inactive)
REMARK    1  A    between atoms: N_3  and  C_17
REMARK    2  A    between atoms: C_18  and  C_20
REMARK    3  A    between atoms: C_20  and  C_22
REMARK    4  A    between atoms: C_22  and  O_23
REMARK                            x       y       z     vdW  Elec       q    Type
REMARK                         _______ _______ _______ _____ _____    ______ ____
ROOT
ATOM      1  S   UNL     1      -0.837   1.319  -0.605  0.00  0.00    -0.078 S 
ATOM      2  N   UNL     1       1.369   0.036  -0.107  0.00  0.00    -0.285 N 
ATOM      3  N   UNL     1      -0.652  -1.288  -0.205  0.00  0.00    -0.190 NA
ATOM      4  C   UNL     1       1.785   1.440  -0.100  0.00  0.00    +0.090 C 
ATOM      5  C   UNL     1       3.158   1.585  -0.754  0.00  0.00    +0.047 C 
ATOM      6  C   UNL     1       2.273  -0.983   0.415  0.00  0.00    +0.119 C 
ATOM      7  C   UNL     1       0.718   2.226  -0.870  0.00  0.00    +0.085 C 
ATOM      8  C   UNL     1       4.156   0.643  -0.138  0.00  0.00    -0.023 C 
ATOM      9  C   UNL     1       3.729  -0.583   0.399  0.00  0.00    -0.006 C 
ATOM     10  C   UNL     1       0.017  -0.188  -0.272  0.00  0.00    +0.162 C 
ATOM     11  C   UNL     1       5.521   0.959  -0.152  0.00  0.00    -0.004 C 
ATOM     12  C   UNL     1       4.681  -1.465   0.934  0.00  0.00    -0.003 C 
ATOM     13  C   UNL     1       6.456   0.074   0.385  0.00  0.00    -0.000 C 
ATOM     14  C   UNL     1       6.036  -1.136   0.929  0.00  0.00    -0.000 C 
ENDROOT
BRANCH   3  17
ATOM     15  S   UNL     1      -2.554  -1.341  -2.031  0.00  0.00    -0.055 S 
ATOM     16  N   UNL     1      -2.899  -0.960   0.503  0.00  0.00    -0.384 NA
ATOM     17  C   UNL     1      -2.036  -1.176  -0.426  0.00  0.00    +0.242 C 
ATOM     18  C   UNL     1      -4.141  -0.915  -0.100  0.00  0.00    +0.112 C 
ATOM     19  C   UNL     1      -4.155  -1.100  -1.466  0.00  0.00    +0.121 C 
BRANCH  18  20
ATOM     20  C   UNL     1      -5.325  -0.677   0.750  0.00  0.00    +0.164 C 
BRANCH  20  22
ATOM     21  O   UNL     1      -4.922   1.687   0.422  0.00  0.00    -0.250 OA
ATOM     22  C   UNL     1      -5.629   0.800   0.882  0.00  0.00    +0.321 C 
BRANCH  22  23
ATOM     23  O   UNL     1      -6.750   1.043   1.607  0.00  0.00    -0.480 OA
ATOM     24  H   UNL     1      -7.258   0.329   1.938  0.00  0.00    +0.295 HD
ENDBRANCH  22  23
ENDBRANCH  20  22
ENDBRANCH  18  20
ENDBRANCH   3  17
TORSDOF 4
