REMARK  Name = 133393
REMARK  7 active torsions:
REMARK  status: ('A' for Active; 'I' for Inactive)
REMARK    1  A    between atoms: N_2  and  C_8
REMARK    2  A    between atoms: C_3  and  C_17
REMARK    3  A    between atoms: C_17  and  N_18
REMARK    4  A    between atoms: C_17  and  C_22
REMARK    5  A    between atoms: C_22  and  S_23
REMARK    6  A    between atoms: S_23  and  C_24
REMARK    7  A    between atoms: C_24  and  C_25
REMARK                            x       y       z     vdW  Elec       q    Type
REMARK                         _______ _______ _______ _____ _____    ______ ____
ROOT
ATOM      1  O   UNL     1       0.310   1.041  -1.418  0.00  0.00    -0.277 OA
ATOM      2  N   UNL     1      -0.814   2.109   0.351  0.00  0.00    -0.286 N 
ATOM      3  C   UNL     1       0.249   1.902  -0.544  0.00  0.00    +0.206 C 
ATOM      4  H   UNL     1      -0.709   2.861   0.977  0.00  0.00    +0.155 HD
ENDROOT
BRANCH   2   8
ATOM      5  O   UNL     1      -3.609  -1.511  -1.111  0.00  0.00    -0.421 OA
ATOM      6  O   UNL     1      -4.923  -3.241  -1.823  0.00  0.00    -0.244 OA
ATOM      7  C   UNL     1      -4.399  -0.080   0.705  0.00  0.00    +0.031 C 
ATOM      8  C   UNL     1      -1.999   1.382   0.464  0.00  0.00    +0.053 C 
ATOM      9  C   UNL     1      -3.427  -0.419  -0.238  0.00  0.00    +0.150 C 
ATOM     10  C   UNL     1      -5.625  -0.887   0.774  0.00  0.00    -0.012 C 
ATOM     11  C   UNL     1      -2.235   0.295  -0.370  0.00  0.00    +0.052 C 
ATOM     12  C   UNL     1      -4.142   1.019   1.536  0.00  0.00    +0.004 C 
ATOM     13  C   UNL     1      -2.951   1.744   1.416  0.00  0.00    +0.015 C 
ATOM     14  C   UNL     1      -5.770  -1.919  -0.069  0.00  0.00    +0.078 C 
ATOM     15  C   UNL     1      -6.688  -0.548   1.777  0.00  0.00    +0.031 C 
ATOM     16  C   UNL     1      -4.755  -2.290  -1.069  0.00  0.00    +0.346 C 
ENDBRANCH   2   8
BRANCH   3  17
ATOM     17  C   UNL     1       1.375   2.921  -0.348  0.00  0.00    +0.024 C 
BRANCH  17  18
ATOM     18  N   UNL     1       0.986   4.090  -1.142  0.00  0.00    +0.388 N 
ATOM     19  H   UNL     1       1.700   4.813  -1.055  0.00  0.00    -0.089 HD
ATOM     20  H   UNL     1       0.094   4.449  -0.803  0.00  0.00    -0.089 HD
ATOM     21  H   UNL     1       0.893   3.820  -2.121  0.00  0.00    -0.089 HD
ENDBRANCH  17  18
BRANCH  17  22
ATOM     22  C   UNL     1       2.738   2.406  -0.821  0.00  0.00    +0.045 C 
BRANCH  22  23
ATOM     23  S   UNL     1       3.246   0.918   0.099  0.00  0.00    -0.137 S 
BRANCH  23  24
ATOM     24  C   UNL     1       4.871   0.692  -0.656  0.00  0.00    +0.084 C 
BRANCH  24  25
ATOM     25  C   UNL     1       5.594  -0.503  -0.099  0.00  0.00    -0.011 C 
ATOM     26  C   UNL     1       5.430  -1.745  -0.699  0.00  0.00    -0.003 C 
ATOM     27  C   UNL     1       6.417  -0.351   1.010  0.00  0.00    -0.003 C 
ATOM     28  C   UNL     1       6.101  -2.854  -0.182  0.00  0.00    -0.000 C 
ATOM     29  C   UNL     1       7.088  -1.460   1.526  0.00  0.00    -0.000 C 
ATOM     30  C   UNL     1       6.930  -2.711   0.931  0.00  0.00    -0.000 C 
ENDBRANCH  24  25
ENDBRANCH  23  24
ENDBRANCH  22  23
ENDBRANCH  17  22
ENDBRANCH   3  17
TORSDOF 7
