133339
  -OEChem-03292013323D

 33 33  0     0  0  0  0  0  0999 V2000
    0.5269    1.5430    0.4899 O   0  0  0  0  0  0  0  0  0  0  0  0
   -4.0517    0.8377    1.6795 O   0  0  0  0  0  0  0  0  0  0  0  0
   -4.9526    0.6497   -0.3946 O   0  0  0  0  0  0  0  0  0  0  0  0
    5.5601    1.5674   -0.3393 O   0  0  0  0  0  0  0  0  0  0  0  0
    5.0711   -0.5791    0.2169 O   0  0  0  0  0  0  0  0  0  0  0  0
   -1.3071   -2.5000   -0.2912 N   0  0  0  0  0  0  0  0  0  0  0  0
   -1.4663   -0.3266   -0.7199 C   0  0  0  0  0  0  0  0  0  0  0  0
   -0.2458   -0.5996   -0.1055 C   0  0  0  0  0  0  0  0  0  0  0  0
   -1.9827    0.9792   -1.1766 C   0  0  0  0  0  0  0  0  0  0  0  0
   -0.1462   -1.9261    0.1572 C   0  0  0  0  0  0  0  0  0  0  0  0
   -2.1191   -1.5349   -0.8275 C   0  0  0  0  0  0  0  0  0  0  0  0
    0.8107    0.3737    0.2273 C   0  0  0  0  0  0  0  0  0  0  0  0
    2.2675   -0.0886    0.2372 C   0  0  0  0  0  0  0  0  0  0  0  0
   -2.7960    1.7516   -0.1178 C   0  0  0  0  0  0  0  0  0  0  0  0
    0.9107   -2.7437    0.7848 C   0  0  0  0  0  0  0  0  0  0  0  0
    3.2616    1.0217   -0.1047 C   0  0  0  0  0  0  0  0  0  0  0  0
   -4.0414    1.0186    0.3327 C   0  0  0  0  0  0  0  0  0  0  0  0
    4.7004    0.5559   -0.0483 C   0  0  0  0  0  0  0  0  0  0  0  0
   -2.6195    0.8212   -2.0577 H   0  0  0  0  0  0  0  0  0  0  0  0
   -1.1584    1.6144   -1.5222 H   0  0  0  0  0  0  0  0  0  0  0  0
   -3.0851   -1.7967   -1.2369 H   0  0  0  0  0  0  0  0  0  0  0  0
   -1.5339   -3.4836   -0.2374 H   0  0  0  0  0  0  0  0  0  0  0  0
    2.4958   -0.4883    1.2303 H   0  0  0  0  0  0  0  0  0  0  0  0
    2.3997   -0.8796   -0.5078 H   0  0  0  0  0  0  0  0  0  0  0  0
   -2.1664    1.9571    0.7560 H   0  0  0  0  0  0  0  0  0  0  0  0
   -3.1113    2.7222   -0.5168 H   0  0  0  0  0  0  0  0  0  0  0  0
    0.5307   -3.7375    1.0500 H   0  0  0  0  0  0  0  0  0  0  0  0
    1.7539   -2.8992    0.1063 H   0  0  0  0  0  0  0  0  0  0  0  0
    1.2662   -2.2919    1.7151 H   0  0  0  0  0  0  0  0  0  0  0  0
    3.1498    1.8499    0.6044 H   0  0  0  0  0  0  0  0  0  0  0  0
    3.0588    1.3997   -1.1131 H   0  0  0  0  0  0  0  0  0  0  0  0
   -4.8625    0.3743    1.9795 H   0  0  0  0  0  0  0  0  0  0  0  0
    6.4952    1.2726   -0.3073 H   0  0  0  0  0  0  0  0  0  0  0  0
  1 12  2  0  0  0  0
  2 17  1  0  0  0  0
  2 32  1  0  0  0  0
  3 17  2  0  0  0  0
  4 18  1  0  0  0  0
  4 33  1  0  0  0  0
  5 18  2  0  0  0  0
  6 10  1  0  0  0  0
  6 11  1  0  0  0  0
  6 22  1  0  0  0  0
  7  8  1  0  0  0  0
  7  9  1  0  0  0  0
  7 11  2  0  0  0  0
  8 10  2  0  0  0  0
  8 12  1  0  0  0  0
  9 14  1  0  0  0  0
  9 19  1  0  0  0  0
  9 20  1  0  0  0  0
 10 15  1  0  0  0  0
 11 21  1  0  0  0  0
 12 13  1  0  0  0  0
 13 16  1  0  0  0  0
 13 23  1  0  0  0  0
 13 24  1  0  0  0  0
 14 17  1  0  0  0  0
 14 25  1  0  0  0  0
 14 26  1  0  0  0  0
 15 27  1  0  0  0  0
 15 28  1  0  0  0  0
 15 29  1  0  0  0  0
 16 18  1  0  0  0  0
 16 30  1  0  0  0  0
 16 31  1  0  0  0  0
M  END
> <PUBCHEM_COMPOUND_CID>
133339

> <PUBCHEM_CONFORMER_RMSD>
0.8

> <PUBCHEM_CONFORMER_DIVERSEORDER>
38
85
40
110
146
75
67
131
10
149
28
68
25
2
151
144
132
118
81
49
82
105
76
95
70
3
44
60
29
36
140
30
72
18
63
130
111
1
57
108
52
142
16
96
129
141
122
94
58
77
69
106
112
41
12
134
115
150
133
119
48
23
78
124
26
15
56
43
148
116
84
114
55
93
135
17
80
99
32
22
8
137
88
33
7
50
87
102
19
71
107
20
34
147
27
46
42
145
109
54
6
90
64
74
47
5
120
79
92
51
37
101
128
126
65
125
11
31
4
121
24
113
98
143
123
83
100
91
103
61
127
138
73
136
59
14
139
86
13
97
35
53
21
9
39
45
117
66
62
89
104

> <PUBCHEM_MMFF94_PARTIAL_CHARGES>
22
1 -0.57
10 -0.33
11 -0.3
12 0.6
13 0.06
14 0.06
15 0.18
16 0.06
17 0.66
18 0.66
2 -0.65
21 0.15
22 0.27
3 -0.57
32 0.5
33 0.5
4 -0.65
5 -0.57
6 0.03
7 -0.18
8 -0.09
9 0.18

> <PUBCHEM_EFFECTIVE_ROTOR_COUNT>
7

> <PUBCHEM_PHARMACOPHORE_FEATURES>
10
1 1 acceptor
1 2 acceptor
1 3 acceptor
1 4 acceptor
1 5 acceptor
1 6 cation
1 6 donor
3 2 3 17 anion
3 4 5 18 anion
5 6 7 8 10 11 rings

> <PUBCHEM_HEAVY_ATOM_COUNT>
18

> <PUBCHEM_ATOM_DEF_STEREO_COUNT>
0

> <PUBCHEM_ATOM_UDEF_STEREO_COUNT>
0

> <PUBCHEM_BOND_DEF_STEREO_COUNT>
0

> <PUBCHEM_BOND_UDEF_STEREO_COUNT>
0

> <PUBCHEM_ISOTOPIC_ATOM_COUNT>
0

> <PUBCHEM_COMPONENT_COUNT>
1

> <PUBCHEM_CACTVS_TAUTO_COUNT>
5

> <PUBCHEM_CONFORMER_ID>
000208DB00000026

> <PUBCHEM_MMFF94_ENERGY>
21.4823

> <PUBCHEM_FEATURE_SELFOVERLAP>
50.864

> <PUBCHEM_SHAPE_FINGERPRINT>
10493431 412 18409450292863307301
10922049 32 18335423443440412818
12592029 89 18188207590052005978
12644460 14 18115585929174104442
13583140 156 16443331070785316260
14790565 3 18339647741445667208
14943859 89 18412544310036021920
15534591 1 18272645753558781063
17834072 14 9727344706417016183
18186145 218 18336253605422523332
19784866 170 18040999501637174877
200 152 10087921869607858000
204376 136 18408886217860342119
20645477 56 18334855048022634156
20871999 31 18339358703536904710
21236236 1 18340205301441368239
21524375 3 18342455945919017191
22224240 67 18409456886550600329
23402539 116 18343012315660924396
23419403 2 17409703905333599815
23559900 14 18272364296669170928
25147074 1 18267562681318468431
293599 30 18412545396678799469
5104073 3 18335975476478297704
5283173 99 11671513243945881355
7226269 152 18059569162261807600
81228 2 17830438836913396771

> <PUBCHEM_SHAPE_MULTIPOLES>
336.1
9.49
2.41
0.95
7.91
1.64
-0.11
-5.8
-0.47
-0.25
-0.16
-0.81
-0.05
-0.66

> <PUBCHEM_SHAPE_SELFOVERLAP>
691.997

> <PUBCHEM_SHAPE_VOLUME>
193.2

> <PUBCHEM_COORDINATE_TYPE>
2
5
10

$$$$
