REMARK  Name = 133383
REMARK  9 active torsions:
REMARK  status: ('A' for Active; 'I' for Inactive)
REMARK    1  A    between atoms: CA_1  and  N_3
REMARK    2  A    between atoms: CA_1  and  C_11
REMARK    3  A    between atoms: CA_1  and  CB_14
REMARK    4  A    between atoms: C_4  and  C_6
REMARK    5  A    between atoms: C_6  and  C_7
REMARK    6  A    between atoms: C_11  and  O_12
REMARK    7  A    between atoms: CB_14  and  CG_15
REMARK    8  A    between atoms: CG_15  and  CD_17
REMARK    9  A    between atoms: CD_17  and  OE1_18
REMARK                            x       y       z     vdW  Elec       q    Type
REMARK                         _______ _______ _______ _____ _____    ______ ____
ROOT
ATOM      1  CA  UNL     1       0.479   1.336   0.510  0.00  0.00    +0.172 C 
ENDROOT
BRANCH   1   3
ATOM      2  O   UNL     1      -2.039   0.721   1.774  0.00  0.00    -0.275 OA
ATOM      3  N   UNL     1      -0.759   0.984  -0.145  0.00  0.00    -0.297 N 
ATOM      4  C   ACE A   0      -1.926   0.703   0.551  0.00  0.00    +0.223 C 
ATOM      5  H   UNL     1      -0.776   0.941  -1.129  0.00  0.00    +0.150 HD
BRANCH   4   6
ATOM      6  C   UNL     1      -3.081   0.398  -0.390  0.00  0.00    +0.085 C 
BRANCH   6   7
ATOM      7  C   UNL     1      -3.262  -1.100  -0.682  0.00  0.00    +0.009 C 
ATOM      8  C   UNL     1      -3.464  -1.899   0.608  0.00  0.00    +0.001 C 
ATOM      9  C   UNL     1      -2.044  -1.638  -1.437  0.00  0.00    +0.001 C 
ENDBRANCH   6   7
ENDBRANCH   4   6
ENDBRANCH   1   3
BRANCH   1  11
ATOM     10  OXT UNL     1       0.836   2.679  -1.490  0.00  0.00    -0.248 OA
ATOM     11  C   UNL     1       1.190   2.346  -0.366  0.00  0.00    +0.332 C 
BRANCH  11  12
ATOM     12  O   UNL     1       2.268   2.889   0.258  0.00  0.00    -0.479 OA
ATOM     13  H   UNL     1       2.503   2.604   1.119  0.00  0.00    +0.295 HD
ENDBRANCH  11  12
ENDBRANCH   1  11
BRANCH   1  14
ATOM     14  CB  UNL     1       1.332   0.111   0.861  0.00  0.00    +0.043 C 
BRANCH  14  15
ATOM     15  CG  UNL     1       1.815  -0.729  -0.328  0.00  0.00    +0.112 C 
BRANCH  15  17
ATOM     16  OE2 UNL     1       2.920  -2.254   1.218  0.00  0.00    -0.250 OA
ATOM     17  CD  UNL     1       2.643  -1.932   0.072  0.00  0.00    +0.314 C 
BRANCH  17  18
ATOM     18  OE1 UNL     1       3.091  -2.614  -1.015  0.00  0.00    -0.480 OA
ATOM     19  HE1 UNL     1       2.853  -2.331  -1.876  0.00  0.00    +0.295 HD
ENDBRANCH  17  18
ENDBRANCH  15  17
ENDBRANCH  14  15
ENDBRANCH   1  14
TORSDOF 9
