133379
  -OEChem-03292013323D

 42 45  0     0  0  0  0  0  0999 V2000
    2.3377   -2.0282    0.6098 O   0  0  0  0  0  0  0  0  0  0  0  0
   -3.5203   -2.4471   -0.4240 O   0  0  0  0  0  0  0  0  0  0  0  0
    3.6372    3.4604   -0.9754 O   0  0  0  0  0  0  0  0  0  0  0  0
   -3.5390   -0.5517    0.8876 O   0  0  0  0  0  0  0  0  0  0  0  0
    1.6594    2.4376   -1.4322 O   0  0  0  0  0  0  0  0  0  0  0  0
   -4.9680    1.5460    0.1611 O   0  0  0  0  0  0  0  0  0  0  0  0
    1.3758   -0.2929   -0.4858 N   0  0  0  0  0  0  0  0  0  0  0  0
   -1.4492   -0.6020   -0.1806 N   0  0  0  0  0  0  0  0  0  0  0  0
   -1.3513    2.0231    0.3617 N   0  0  0  0  0  0  0  0  0  0  0  0
    0.1478   -2.4331   -0.1788 C   0  0  0  0  0  0  0  0  0  0  0  0
    1.2571   -1.5289   -0.0531 C   0  0  0  0  0  0  0  0  0  0  0  0
   -1.1732   -1.9740   -0.2406 C   0  0  0  0  0  0  0  0  0  0  0  0
    2.6385    0.0647   -0.0793 C   0  0  0  0  0  0  0  0  0  0  0  0
    3.2305   -0.9952    0.5918 C   0  0  0  0  0  0  0  0  0  0  0  0
    3.3604    1.2569   -0.2337 C   0  0  0  0  0  0  0  0  0  0  0  0
    0.3989   -3.8086   -0.2405 C   0  0  0  0  0  0  0  0  0  0  0  0
   -2.2283   -2.8780   -0.3626 C   0  0  0  0  0  0  0  0  0  0  0  0
    4.5086   -0.9729    1.1361 C   0  0  0  0  0  0  0  0  0  0  0  0
   -0.6562   -4.7127   -0.3625 C   0  0  0  0  0  0  0  0  0  0  0  0
    4.6547    1.3177    0.3025 C   0  0  0  0  0  0  0  0  0  0  0  0
   -1.9698   -4.2474   -0.4236 C   0  0  0  0  0  0  0  0  0  0  0  0
    5.2151    0.2237    0.9734 C   0  0  0  0  0  0  0  0  0  0  0  0
   -2.5772   -0.0019    0.3619 C   0  0  0  0  0  0  0  0  0  0  0  0
    2.7882    2.3958   -0.9275 C   0  0  0  0  0  0  0  0  0  0  0  0
   -2.5754    1.4839    0.3072 C   0  0  0  0  0  0  0  0  0  0  0  0
   -3.7601    2.1640    0.2108 C   0  0  0  0  0  0  0  0  0  0  0  0
   -3.6834    3.5515    0.1648 C   0  0  0  0  0  0  0  0  0  0  0  0
   -2.4420    4.1757    0.2170 C   0  0  0  0  0  0  0  0  0  0  0  0
   -1.3163    3.3737    0.3145 C   0  0  0  0  0  0  0  0  0  0  0  0
    1.4114   -4.2044   -0.2053 H   0  0  0  0  0  0  0  0  0  0  0  0
    4.9328   -1.8245    1.6530 H   0  0  0  0  0  0  0  0  0  0  0  0
   -0.6752    0.0208   -0.3980 H   0  0  0  0  0  0  0  0  0  0  0  0
   -0.4553   -5.7789   -0.4121 H   0  0  0  0  0  0  0  0  0  0  0  0
   -2.7871   -4.9572   -0.5191 H   0  0  0  0  0  0  0  0  0  0  0  0
    5.2655    2.2133    0.2161 H   0  0  0  0  0  0  0  0  0  0  0  0
    6.2217    0.3049    1.3770 H   0  0  0  0  0  0  0  0  0  0  0  0
   -3.5434   -1.6399   -0.9647 H   0  0  0  0  0  0  0  0  0  0  0  0
   -4.5821    4.1572    0.0885 H   0  0  0  0  0  0  0  0  0  0  0  0
   -2.3581    5.2559    0.1830 H   0  0  0  0  0  0  0  0  0  0  0  0
   -0.3247    3.8119    0.3602 H   0  0  0  0  0  0  0  0  0  0  0  0
    3.2386    4.2235   -1.4457 H   0  0  0  0  0  0  0  0  0  0  0  0
   -5.6659    2.2201    0.0943 H   0  0  0  0  0  0  0  0  0  0  0  0
  1 11  1  0  0  0  0
  1 14  1  0  0  0  0
  2 17  1  0  0  0  0
  2 37  1  0  0  0  0
  3 24  1  0  0  0  0
  3 41  1  0  0  0  0
  4 23  2  0  0  0  0
  5 24  2  0  0  0  0
  6 26  1  0  0  0  0
  6 42  1  0  0  0  0
  7 11  2  0  0  0  0
  7 13  1  0  0  0  0
  8 12  1  0  0  0  0
  8 23  1  0  0  0  0
  8 32  1  0  0  0  0
  9 25  1  0  0  0  0
  9 29  2  0  0  0  0
 10 11  1  0  0  0  0
 10 12  2  0  0  0  0
 10 16  1  0  0  0  0
 12 17  1  0  0  0  0
 13 14  1  0  0  0  0
 13 15  2  0  0  0  0
 14 18  2  0  0  0  0
 15 20  1  0  0  0  0
 15 24  1  0  0  0  0
 16 19  2  0  0  0  0
 16 30  1  0  0  0  0
 17 21  2  0  0  0  0
 18 22  1  0  0  0  0
 18 31  1  0  0  0  0
 19 21  1  0  0  0  0
 19 33  1  0  0  0  0
 20 22  2  0  0  0  0
 20 35  1  0  0  0  0
 21 34  1  0  0  0  0
 22 36  1  0  0  0  0
 23 25  1  0  0  0  0
 25 26  2  0  0  0  0
 26 27  1  0  0  0  0
 27 28  2  0  0  0  0
 27 38  1  0  0  0  0
 28 29  1  0  0  0  0
 28 39  1  0  0  0  0
 29 40  1  0  0  0  0
M  END
> <PUBCHEM_COMPOUND_CID>
133379

> <PUBCHEM_CONFORMER_RMSD>
0.8

> <PUBCHEM_CONFORMER_DIVERSEORDER>
1
34
25
40
17
38
31
8
7
21
4
36
12
37
24
14
15
20
2
3
33
22
29
19
32
27
39
23
26
5
18
6
35
9
13
10
16
28
11
30

> <PUBCHEM_MMFF94_PARTIAL_CHARGES>
42
1 -0.28
10 0.05
11 0.43
12 0.12
13 0.23
14 0.14
15 0.09
16 -0.15
17 0.08
18 -0.15
19 -0.15
2 -0.53
20 -0.15
21 -0.15
22 -0.15
23 0.54
24 0.63
25 0.4
26 0.08
27 -0.15
28 -0.15
29 0.16
3 -0.65
30 0.15
31 0.15
32 0.37
33 0.15
34 0.15
35 0.15
36 0.15
37 0.45
38 0.15
39 0.15
4 -0.57
40 0.15
41 0.5
42 0.45
5 -0.57
6 -0.53
7 -0.57
8 -0.55
9 -0.62

> <PUBCHEM_EFFECTIVE_ROTOR_COUNT>
5

> <PUBCHEM_PHARMACOPHORE_FEATURES>
12
1 2 donor
1 3 acceptor
1 4 acceptor
1 5 acceptor
1 6 donor
1 8 donor
1 9 acceptor
3 3 5 24 anion
5 1 7 11 13 14 rings
6 10 12 16 17 19 21 rings
6 13 14 15 18 20 22 rings
6 9 25 26 27 28 29 rings

> <PUBCHEM_HEAVY_ATOM_COUNT>
29

> <PUBCHEM_ATOM_DEF_STEREO_COUNT>
0

> <PUBCHEM_ATOM_UDEF_STEREO_COUNT>
0

> <PUBCHEM_BOND_DEF_STEREO_COUNT>
0

> <PUBCHEM_BOND_UDEF_STEREO_COUNT>
0

> <PUBCHEM_ISOTOPIC_ATOM_COUNT>
0

> <PUBCHEM_COMPONENT_COUNT>
1

> <PUBCHEM_CACTVS_TAUTO_COUNT>
62

> <PUBCHEM_CONFORMER_ID>
0002090300000001

> <PUBCHEM_MMFF94_ENERGY>
93.9294

> <PUBCHEM_FEATURE_SELFOVERLAP>
61.077

> <PUBCHEM_SHAPE_FINGERPRINT>
10411042 1 17835797873720476182
10871710 139 18123198054405181661
10940486 97 18409737257784266398
1100329 8 17762909066651547851
11370993 70 18195804076822329616
11513181 2 18202000993313543942
12107183 9 18264756676705988458
12788726 201 18048325723606264422
12925494 130 17258221766251300641
12978246 48 18409169878791362088
13140716 1 18264491856726136843
13583140 156 17385998434511609619
1361 2 18194116309858352453
138480 1 17114946587303000667
13965767 371 17971749978407306710
14117953 113 18265049133027715101
14363568 33 17332263995423294250
14394314 77 18050855717221624457
14790565 3 18340780320790877209
15003188 8 18120640341235268176
15320467 1 18411418384381039808
15403338 16 16807842140741305433
15420108 30 18122888855494151514
17818456 19 18337667628857512878
19930381 70 17905890271512768473
20642791 105 18339066142743227043
20642791 35 17116362212808498431
20715895 44 18120369865934085625
20739085 24 17974851666776629846
21033648 29 18128518402489004048
21133410 127 17610634016281933772
21133410 221 17127004201787757544
22113638 7 18408602560808857868
229767 44 18120917435751577778
23558518 356 18408602569541502866
23559900 14 17475229103406277609
463206 1 17976264860961184577
5081480 168 17126234289674900350
6371009 1 18338782434605412549
653340 110 18196923582050551808
6700243 42 17481459335632103854
7064713 232 18340196389553170792
7808743 9 18412541033487626512
9981440 41 18266456516970207779

> <PUBCHEM_SHAPE_MULTIPOLES>
546.65
8.95
6.6
0.89
3.81
2.89
0.04
-6.8
-2.05
-4.7
1.29
0.59
-0.26
-1.48

> <PUBCHEM_SHAPE_SELFOVERLAP>
1235.601

> <PUBCHEM_SHAPE_VOLUME>
283.4

> <PUBCHEM_COORDINATE_TYPE>
2
5
10

$$$$
