REMARK  Name = 133466
REMARK  5 active torsions:
REMARK  status: ('A' for Active; 'I' for Inactive)
REMARK    1  A    between atoms: C_6  and  C_22
REMARK    2  A    between atoms: C_13  and  O_19
REMARK    3  A    between atoms: O_19  and  C_20
REMARK    4  A    between atoms: C_22  and  N_23
REMARK    5  A    between atoms: N_23  and  C_25
REMARK                            x       y       z     vdW  Elec       q    Type
REMARK                         _______ _______ _______ _____ _____    ______ ____
ROOT
ATOM      1  O   UNL     1      -4.691  -1.657   0.401  0.00  0.00    -0.226 OA
ATOM      2  N   UNL     1       0.135   2.883  -0.278  0.00  0.00    -0.325 N 
ATOM      3  N   UNL     1       1.376   0.632   0.907  0.00  0.00    -0.402 NA
ATOM      4  N   UNL     1      -2.087  -0.575   0.554  0.00  0.00    -0.370 NA
ATOM      5  N   UNL     1      -4.029   0.489  -0.271  0.00  0.00    -0.225 N 
ATOM      6  C   UNL     1       2.095   1.654   0.557  0.00  0.00    +0.126 C 
ATOM      7  C   UNL     1       1.578   2.821  -0.256  0.00  0.00    +0.144 C 
ATOM      8  C   UNL     1      -0.602   1.741  -0.016  0.00  0.00    +0.083 C 
ATOM      9  C   UNL     1       0.018   0.628   0.559  0.00  0.00    +0.187 C 
ATOM     10  C   UNL     1      -1.971   1.689  -0.282  0.00  0.00    +0.065 C 
ATOM     11  C   UNL     1      -0.764  -0.492   0.818  0.00  0.00    +0.210 C 
ATOM     12  C   UNL     1      -2.658   0.521   0.013  0.00  0.00    +0.191 C 
ATOM     13  C   UNL     1      -4.928  -0.551  -0.070  0.00  0.00    +0.407 C 
ATOM     14  H   UNL     1      -0.322   3.731  -0.479  0.00  0.00    +0.147 HD
ATOM     15  H   UNL     1      -4.404   1.310  -0.663  0.00  0.00    +0.161 HD
ATOM     16  N   UNL     1      -0.140  -1.624   1.402  0.00  0.00    -0.331 N 
ATOM     17  H   UNL     1      -0.668  -2.431   1.597  0.00  0.00    +0.145 HD
ATOM     18  H   UNL     1       0.822  -1.602   1.612  0.00  0.00    +0.145 HD
ENDROOT
BRANCH  13  19
ATOM     19  O   UNL     1      -6.171  -0.157  -0.489  0.00  0.00    -0.434 OA
BRANCH  19  20
ATOM     20  C   UNL     1      -7.218  -1.125  -0.348  0.00  0.00    +0.210 C 
ATOM     21  C   UNL     1      -8.513  -0.527  -0.856  0.00  0.00    +0.051 C 
ENDBRANCH  19  20
ENDBRANCH  13  19
BRANCH   6  22
ATOM     22  C   UNL     1       3.556   1.665   0.925  0.00  0.00    +0.148 C 
BRANCH  22  23
ATOM     23  N   UNL     1       4.260   0.996  -0.127  0.00  0.00    -0.300 N 
ATOM     24  C   UNL     1       4.971   1.799  -1.131  0.00  0.00    +0.113 C 
BRANCH  23  25
ATOM     25  C   UNL     1       4.279  -0.409  -0.231  0.00  0.00    +0.048 C 
ATOM     26  C   UNL     1       4.584  -1.015  -1.451  0.00  0.00    +0.015 C 
ATOM     27  C   UNL     1       3.992  -1.198   0.884  0.00  0.00    +0.015 C 
ATOM     28  C   UNL     1       4.602  -2.406  -1.555  0.00  0.00    +0.001 C 
ATOM     29  C   UNL     1       4.011  -2.588   0.780  0.00  0.00    +0.001 C 
ATOM     30  C   UNL     1       4.316  -3.193  -0.439  0.00  0.00    +0.000 C 
ENDBRANCH  23  25
ENDBRANCH  22  23
ENDBRANCH   6  22
TORSDOF 5
