133472
  -OEChem-03292013323D

 34 34  0     0  0  0  0  0  0999 V2000
    3.8752   -0.8369    0.6280 O   0  0  0  0  0  0  0  0  0  0  0  0
   -2.5674   -1.5780    0.3375 O   0  0  0  0  0  0  0  0  0  0  0  0
   -7.4500   -0.6959   -0.1263 O   0  0  0  0  0  0  0  0  0  0  0  0
    2.7992    2.8867   -0.6786 O   0  0  0  0  0  0  0  0  0  0  0  0
   -6.4762    1.3339   -0.4380 O   0  0  0  0  0  0  0  0  0  0  0  0
    4.2784    1.8889    0.7296 O   0  0  0  0  0  0  0  0  0  0  0  0
    3.9845   -1.1947   -1.6829 O   0  0  0  0  0  0  0  0  0  0  0  0
   -1.4822    0.4887    0.0626 N   0  0  0  0  0  0  0  0  0  0  0  0
   -0.1144    0.1564    0.2069 C   0  0  0  0  0  0  0  0  0  0  0  0
   -3.8842    0.3717   -0.0787 C   0  0  0  0  0  0  0  0  0  0  0  0
    0.8402    1.1553    0.1105 C   0  0  0  0  0  0  0  0  0  0  0  0
    2.1885    0.8268    0.2520 C   0  0  0  0  0  0  0  0  0  0  0  0
   -2.5731   -0.3686    0.1273 C   0  0  0  0  0  0  0  0  0  0  0  0
   -5.0700   -0.5821   -0.0047 C   0  0  0  0  0  0  0  0  0  0  0  0
    0.2409   -1.1617    0.4408 C   0  0  0  0  0  0  0  0  0  0  0  0
    2.5630   -0.4958    0.4881 C   0  0  0  0  0  0  0  0  0  0  0  0
    1.5893   -1.4901    0.5825 C   0  0  0  0  0  0  0  0  0  0  0  0
   -6.3813    0.1350   -0.2104 C   0  0  0  0  0  0  0  0  0  0  0  0
    3.1895    1.8795    0.1486 C   0  0  0  0  0  0  0  0  0  0  0  0
    4.5083   -1.1807   -0.5769 C   0  0  0  0  0  0  0  0  0  0  0  0
    5.9418   -1.5385   -0.3180 C   0  0  0  0  0  0  0  0  0  0  0  0
   -3.8536    0.8686   -1.0558 H   0  0  0  0  0  0  0  0  0  0  0  0
   -3.9706    1.1492    0.6899 H   0  0  0  0  0  0  0  0  0  0  0  0
   -1.6732    1.4734   -0.1107 H   0  0  0  0  0  0  0  0  0  0  0  0
    0.5270    2.1821   -0.0614 H   0  0  0  0  0  0  0  0  0  0  0  0
   -5.1008   -1.0688    0.9769 H   0  0  0  0  0  0  0  0  0  0  0  0
   -4.9820   -1.3546   -0.7773 H   0  0  0  0  0  0  0  0  0  0  0  0
   -0.4515   -1.9860    0.5250 H   0  0  0  0  0  0  0  0  0  0  0  0
    1.8749   -2.5225    0.7663 H   0  0  0  0  0  0  0  0  0  0  0  0
    6.4623   -0.6825    0.1184 H   0  0  0  0  0  0  0  0  0  0  0  0
    6.4275   -1.7980   -1.2629 H   0  0  0  0  0  0  0  0  0  0  0  0
    5.9918   -2.4018    0.3500 H   0  0  0  0  0  0  0  0  0  0  0  0
   -8.2961   -0.2196   -0.2662 H   0  0  0  0  0  0  0  0  0  0  0  0
    3.4793    3.5908   -0.7427 H   0  0  0  0  0  0  0  0  0  0  0  0
  1 16  1  0  0  0  0
  1 20  1  0  0  0  0
  2 13  2  0  0  0  0
  3 18  1  0  0  0  0
  3 33  1  0  0  0  0
  4 19  1  0  0  0  0
  4 34  1  0  0  0  0
  5 18  2  0  0  0  0
  6 19  2  0  0  0  0
  7 20  2  0  0  0  0
  8  9  1  0  0  0  0
  8 13  1  0  0  0  0
  8 24  1  0  0  0  0
  9 11  2  0  0  0  0
  9 15  1  0  0  0  0
 10 13  1  0  0  0  0
 10 14  1  0  0  0  0
 10 22  1  0  0  0  0
 10 23  1  0  0  0  0
 11 12  1  0  0  0  0
 11 25  1  0  0  0  0
 12 16  2  0  0  0  0
 12 19  1  0  0  0  0
 14 18  1  0  0  0  0
 14 26  1  0  0  0  0
 14 27  1  0  0  0  0
 15 17  2  0  0  0  0
 15 28  1  0  0  0  0
 16 17  1  0  0  0  0
 17 29  1  0  0  0  0
 20 21  1  0  0  0  0
 21 30  1  0  0  0  0
 21 31  1  0  0  0  0
 21 32  1  0  0  0  0
M  END
> <PUBCHEM_COMPOUND_CID>
133472

> <PUBCHEM_CONFORMER_RMSD>
0.8

> <PUBCHEM_CONFORMER_DIVERSEORDER>
2
40
60
51
73
10
46
41
28
57
44
43
69
18
42
29
49
21
68
32
14
48
61
9
19
55
64
38
22
65
6
75
62
3
16
37
53
74
13
56
23
50
45
11
15
36
72
33
70
20
58
12
66
34
71
30
25
54
1
5
52
31
47
59
27
7
35
24
26
67
17
4
39
8
63

> <PUBCHEM_MMFF94_PARTIAL_CHARGES>
27
1 -0.23
10 0.06
11 -0.15
12 0.09
13 0.57
14 0.06
15 -0.15
16 0.08
17 -0.15
18 0.66
19 0.63
2 -0.57
20 0.66
21 0.06
24 0.37
25 0.15
28 0.15
29 0.15
3 -0.65
33 0.5
34 0.5
4 -0.65
5 -0.57
6 -0.57
7 -0.57
8 -0.55
9 0.12

> <PUBCHEM_EFFECTIVE_ROTOR_COUNT>
8

> <PUBCHEM_PHARMACOPHORE_FEATURES>
10
1 2 acceptor
1 3 acceptor
1 4 acceptor
1 5 acceptor
1 6 acceptor
1 7 acceptor
1 8 donor
3 3 5 18 anion
3 4 6 19 anion
6 9 11 12 15 16 17 rings

> <PUBCHEM_HEAVY_ATOM_COUNT>
21

> <PUBCHEM_ATOM_DEF_STEREO_COUNT>
0

> <PUBCHEM_ATOM_UDEF_STEREO_COUNT>
0

> <PUBCHEM_BOND_DEF_STEREO_COUNT>
0

> <PUBCHEM_BOND_UDEF_STEREO_COUNT>
0

> <PUBCHEM_ISOTOPIC_ATOM_COUNT>
0

> <PUBCHEM_COMPONENT_COUNT>
1

> <PUBCHEM_CACTVS_TAUTO_COUNT>
2

> <PUBCHEM_CONFORMER_ID>
0002096000000002

> <PUBCHEM_MMFF94_ENERGY>
57.9614

> <PUBCHEM_FEATURE_SELFOVERLAP>
50.865

> <PUBCHEM_SHAPE_FINGERPRINT>
11954058 11 14835582232638658404
12236239 1 18060419123436048825
12403259 415 17967522459599554765
12616971 3 18131340930330840551
12730499 353 18186525401723155795
13167372 99 18271810086605308889
13533116 47 17846779606805399099
13540713 4 18045799020385227426
13836976 161 17846781797407889278
14170010 4 18342736334733388096
14528608 73 18408039632983711967
15196674 1 18337670922981442947
15536298 74 18412826919364055888
17834072 33 18413105083126774447
17834072 8 18408605846701009927
17844677 252 18409171000489768133
18186145 218 18259978297322418034
20612939 158 18409173224649720848
20645477 70 18343021090363499318
21267235 1 18411423890955861531
221357 26 18409166588861984156
23081809 10 12324233980564882633
23559900 14 18410570721008000537
239999 70 18411139138639723914
29717793 49 17917712383716577349
3004659 81 18410854356395426491
335352 9 18408886235283265846
4073 2 17895759616060885435
42630746 31 18411133667078001992
5104073 3 18334856160466234611
59755656 215 18334576798371326687
633830 44 18188202212441850915
90127 26 18186525423392911081
9709674 26 18191309479725967010
9999458 23 18259703410957609774

> <PUBCHEM_SHAPE_MULTIPOLES>
386.1
15.79
2.04
0.83
25.62
1.11
0.16
-2.1
2.8
-2.78
0.13
-0.73
-0.12
0.69

> <PUBCHEM_SHAPE_SELFOVERLAP>
805.561

> <PUBCHEM_SHAPE_VOLUME>
215.9

> <PUBCHEM_COORDINATE_TYPE>
2
5
10

$$$$
