REMARK  Name = 133476
REMARK  7 active torsions:
REMARK  status: ('A' for Active; 'I' for Inactive)
REMARK    1  A    between atoms: C_1  and  C_9
REMARK    2  A    between atoms: C_1  and  N_10
REMARK    3  A    between atoms: C_1  and  C_22
REMARK    4  A    between atoms: N_10  and  S_12
REMARK    5  A    between atoms: S_12  and  C_15
REMARK    6  A    between atoms: C_22  and  C_23
REMARK    7  A    between atoms: C_28  and  C_31
REMARK                            x       y       z     vdW  Elec       q    Type
REMARK                         _______ _______ _______ _____ _____    ______ ____
ROOT
ATOM      1  C   UNL     1       1.559   0.081   0.594  0.00  0.00    +0.156 C 
ENDROOT
BRANCH   1   9
ATOM      2  O   UNL     1       3.364  -0.541   1.998  0.00  0.00    -0.273 OA
ATOM      3  N   UNL     1       3.913   0.140  -0.154  0.00  0.00    -0.278 N 
ATOM      4  C   UNL     1       3.534   0.578  -1.504  0.00  0.00    +0.093 C 
ATOM      5  C   UNL     1       5.351  -0.044   0.050  0.00  0.00    +0.093 C 
ATOM      6  C   UNL     1       4.269   1.863  -1.882  0.00  0.00    +0.022 C 
ATOM      7  C   UNL     1       6.120   1.228  -0.297  0.00  0.00    +0.022 C 
ATOM      8  C   UNL     1       5.779   1.711  -1.706  0.00  0.00    +0.004 C 
ATOM      9  C   UNL     1       3.023  -0.138   0.883  0.00  0.00    +0.242 C 
ENDBRANCH   1   9
BRANCH   1  10
ATOM     10  N   UNL     1       0.887  -0.964   1.389  0.00  0.00    -0.172 NA
ATOM     11  H   UNL     1       1.417  -1.061   2.255  0.00  0.00    +0.149 HD
BRANCH  10  12
ATOM     12  S   UNL     1       0.696  -2.530   0.751  0.00  0.00    +0.061 S 
ATOM     13  O   UNL     1       0.555  -3.477   1.841  0.00  0.00    -0.153 OA
ATOM     14  O   UNL     1       1.694  -2.747  -0.279  0.00  0.00    -0.153 OA
BRANCH  12  15
ATOM     15  C   UNL     1      -0.867  -2.401  -0.064  0.00  0.00    +0.122 C 
ATOM     16  C   UNL     1      -0.907  -2.006  -1.391  0.00  0.00    +0.020 C 
ATOM     17  C   UNL     1      -2.022  -2.696   0.638  0.00  0.00    +0.020 C 
ATOM     18  C   UNL     1      -2.140  -1.904  -2.034  0.00  0.00    -0.003 C 
ATOM     19  C   UNL     1      -3.256  -2.594  -0.005  0.00  0.00    -0.003 C 
ATOM     20  C   UNL     1      -3.314  -2.198  -1.341  0.00  0.00    -0.022 C 
ATOM     21  C   UNL     1      -4.633  -2.090  -2.029  0.00  0.00    +0.031 C 
ENDBRANCH  12  15
ENDBRANCH  10  12
ENDBRANCH   1  10
BRANCH   1  22
ATOM     22  C   UNL     1       1.131   1.469   1.045  0.00  0.00    +0.053 C 
BRANCH  22  23
ATOM     23  C   UNL     1      -0.336   1.722   0.799  0.00  0.00    -0.020 C 
ATOM     24  C   UNL     1      -0.737   2.271  -0.409  0.00  0.00    -0.004 C 
ATOM     25  C   UNL     1      -1.256   1.401   1.784  0.00  0.00    -0.004 C 
ATOM     26  C   UNL     1      -2.094   2.504  -0.638  0.00  0.00    +0.002 C 
ATOM     27  C   UNL     1      -2.612   1.634   1.556  0.00  0.00    +0.002 C 
ATOM     28  C   UNL     1      -3.031   2.186   0.345  0.00  0.00    +0.031 C 
BRANCH  28  31
ATOM     29  N   UNL     1      -4.894   2.982  -1.090  0.00  0.00    -0.343 N 
ATOM     30  N   UNL     1      -5.330   2.131   1.042  0.00  0.00    -0.285 NA
ATOM     31  C   UNL     1      -4.445   2.430   0.108  0.00  0.00    +0.117 C 
ATOM     32  H   UNL     1      -5.856   3.139  -1.230  0.00  0.00    +0.144 HD
ATOM     33  H   UNL     1      -4.250   3.214  -1.798  0.00  0.00    +0.144 HD
ATOM     34  H   UNL     1      -6.288   2.296   0.884  0.00  0.00    +0.188 HD
ENDBRANCH  28  31
ENDBRANCH  22  23
ENDBRANCH   1  22
TORSDOF 7
