REMARK  Name = 133472
REMARK  9 active torsions:
REMARK  status: ('A' for Active; 'I' for Inactive)
REMARK    1  A    between atoms: C_1  and  N_8
REMARK    2  A    between atoms: C_3  and  C_18
REMARK    3  A    between atoms: C_5  and  O_21
REMARK    4  A    between atoms: C_9  and  C_11
REMARK    5  A    between atoms: C_11  and  C_12
REMARK    6  A    between atoms: C_12  and  C_14
REMARK    7  A    between atoms: C_14  and  O_15
REMARK    8  A    between atoms: C_18  and  O_19
REMARK    9  A    between atoms: O_21  and  C_23
REMARK                            x       y       z     vdW  Elec       q    Type
REMARK                         _______ _______ _______ _____ _____    ______ ____
ROOT
ATOM      1  C   UNL     1      -0.114   0.156   0.207  0.00  0.00    +0.051 C 
ATOM      2  C   UNL     1       0.840   1.155   0.111  0.00  0.00    +0.024 C 
ATOM      3  C   UNL     1       2.188   0.827   0.252  0.00  0.00    +0.111 C 
ATOM      4  C   UNL     1       0.241  -1.162   0.441  0.00  0.00    +0.018 C 
ATOM      5  C   UNL     1       2.563  -0.496   0.488  0.00  0.00    +0.155 C 
ATOM      6  C   UNL     1       1.589  -1.490   0.583  0.00  0.00    +0.039 C 
ENDROOT
BRANCH   1   8
ATOM      7  O   UNL     1      -2.567  -1.578   0.338  0.00  0.00    -0.275 OA
ATOM      8  N   UNL     1      -1.482   0.489   0.063  0.00  0.00    -0.284 N 
ATOM      9  C   UNL     1      -2.573  -0.369   0.127  0.00  0.00    +0.227 C 
ATOM     10  H   UNL     1      -1.684   1.438  -0.103  0.00  0.00    +0.155 HD
BRANCH   9  11
ATOM     11  C   UNL     1      -3.884   0.372  -0.079  0.00  0.00    +0.097 C 
BRANCH  11  12
ATOM     12  C   UNL     1      -5.070  -0.582  -0.005  0.00  0.00    +0.119 C 
BRANCH  12  14
ATOM     13  O   UNL     1      -6.476   1.334  -0.438  0.00  0.00    -0.250 OA
ATOM     14  C   UNL     1      -6.381   0.135  -0.210  0.00  0.00    +0.314 C 
BRANCH  14  15
ATOM     15  O   UNL     1      -7.450  -0.696  -0.126  0.00  0.00    -0.480 OA
ATOM     16  H   UNL     1      -7.322  -1.607   0.050  0.00  0.00    +0.295 HD
ENDBRANCH  14  15
ENDBRANCH  12  14
ENDBRANCH  11  12
ENDBRANCH   9  11
ENDBRANCH   1   8
BRANCH   3  18
ATOM     17  O   UNL     1       4.278   1.889   0.730  0.00  0.00    -0.245 OA
ATOM     18  C   UNL     1       3.189   1.879   0.149  0.00  0.00    +0.341 C 
BRANCH  18  19
ATOM     19  O   UNL     1       2.799   2.887  -0.679  0.00  0.00    -0.477 OA
ATOM     20  H   UNL     1       1.965   2.847  -1.104  0.00  0.00    +0.295 HD
ENDBRANCH  18  19
ENDBRANCH   3  18
BRANCH   5  21
ATOM     21  O   UNL     1       3.875  -0.837   0.628  0.00  0.00    -0.424 OA
BRANCH  21  23
ATOM     22  O   UNL     1       3.985  -1.195  -1.683  0.00  0.00    -0.250 OA
ATOM     23  C   UNL     1       4.508  -1.181  -0.577  0.00  0.00    +0.322 C 
ATOM     24  C   UNL     1       5.942  -1.538  -0.318  0.00  0.00    +0.122 C 
ENDBRANCH  21  23
ENDBRANCH   5  21
TORSDOF 9
