REMARK  Name = 133400
REMARK  7 active torsions:
REMARK  status: ('A' for Active; 'I' for Inactive)
REMARK    1  A    between atoms: C_1  and  N_4
REMARK    2  A    between atoms: C_1  and  C_15
REMARK    3  A    between atoms: C_15  and  O_16
REMARK    4  A    between atoms: C_15  and  C_18
REMARK    5  A    between atoms: C_18  and  O_19
REMARK    6  A    between atoms: O_19  and  C_21
REMARK    7  A    between atoms: C_21  and  C_23
REMARK                            x       y       z     vdW  Elec       q    Type
REMARK                         _______ _______ _______ _____ _____    ______ ____
ROOT
ATOM      1  C   UNL     1       0.702   1.247   1.291  0.00  0.00    +0.108 C 
ENDROOT
BRANCH   1   4
ATOM      2  O   UNL     1       1.992  -1.503   1.500  0.00  0.00    -0.272 OA
ATOM      3  O   UNL     1       6.058  -1.840  -0.817  0.00  0.00    -0.252 OA
ATOM      4  N   UNL     1       1.925   1.326   0.529  0.00  0.00    -0.237 NA
ATOM      5  N   UNL     1       4.931   0.195  -0.869  0.00  0.00    -0.228 N 
ATOM      6  N   UNL     1       4.030  -1.696   0.347  0.00  0.00    -0.211 N 
ATOM      7  N   UNL     1       3.525   2.212  -0.746  0.00  0.00    -0.240 NA
ATOM      8  C   UNL     1       2.845   0.337   0.329  0.00  0.00    +0.192 C 
ATOM      9  C   UNL     1       3.813   0.906  -0.453  0.00  0.00    +0.136 C 
ATOM     10  C   UNL     1       2.870  -1.011   0.796  0.00  0.00    +0.254 C 
ATOM     11  C   UNL     1       2.378   2.435  -0.138  0.00  0.00    +0.203 C 
ATOM     12  C   UNL     1       5.084  -1.158  -0.477  0.00  0.00    +0.318 C 
ATOM     13  C   UNL     1       5.941   0.837  -1.702  0.00  0.00    +0.123 C 
ATOM     14  C   UNL     1       4.169  -3.088   0.761  0.00  0.00    +0.124 C 
ENDBRANCH   1   4
BRANCH   1  15
ATOM     15  C   UNL     1      -0.488   0.802   0.438  0.00  0.00    +0.170 C 
BRANCH  15  16
ATOM     16  O   UNL     1      -0.691   1.767  -0.596  0.00  0.00    -0.379 OA
ATOM     17  H   UNL     1       0.111   1.832  -1.139  0.00  0.00    +0.211 HD
ENDBRANCH  15  16
BRANCH  15  18
ATOM     18  C   UNL     1      -1.760   0.719   1.276  0.00  0.00    +0.239 C 
BRANCH  18  19
ATOM     19  O   UNL     1      -2.841   0.331   0.435  0.00  0.00    -0.443 OA
BRANCH  19  21
ATOM     20  O   UNL     1      -4.290   0.407   2.222  0.00  0.00    -0.245 OA
ATOM     21  C   UNL     1      -4.054   0.212   1.040  0.00  0.00    +0.343 C 
BRANCH  21  23
ATOM     22  N   UNL     1      -5.645  -0.770  -2.194  0.00  0.00    -0.242 NA
ATOM     23  C   UNL     1      -5.092  -0.197   0.059  0.00  0.00    +0.095 C 
ATOM     24  C   UNL     1      -6.391  -0.374   0.470  0.00  0.00    +0.010 C 
ATOM     25  C   UNL     1      -4.750  -0.397  -1.252  0.00  0.00    +0.105 C 
ATOM     26  C   UNL     1      -7.340  -0.758  -0.470  0.00  0.00    +0.021 C 
ATOM     27  C   UNL     1      -6.920  -0.941  -1.778  0.00  0.00    +0.099 C 
ENDBRANCH  21  23
ENDBRANCH  19  21
ENDBRANCH  18  19
ENDBRANCH  15  18
ENDBRANCH   1  15
TORSDOF 7
