REMARK  Name = 133409
REMARK  9 active torsions:
REMARK  status: ('A' for Active; 'I' for Inactive)
REMARK    1  A    between atoms: C_1  and  C_14
REMARK    2  A    between atoms: C_2  and  O_18
REMARK    3  A    between atoms: C_6  and  O_22
REMARK    4  A    between atoms: C_7  and  O_26
REMARK    5  A    between atoms: C_8  and  O_30
REMARK    6  A    between atoms: O_18  and  C_20
REMARK    7  A    between atoms: O_22  and  C_24
REMARK    8  A    between atoms: O_26  and  C_28
REMARK    9  A    between atoms: O_30  and  C_32
REMARK                            x       y       z     vdW  Elec       q    Type
REMARK                         _______ _______ _______ _____ _____    ______ ____
ROOT
ATOM      1  C   UNL     1      -1.303  -0.419  -0.075  0.00  0.00    +0.042 C 
ATOM      2  C   UNL     1      -0.790   0.878  -0.056  0.00  0.00    +0.150 C 
ATOM      3  C   UNL     1      -0.439  -1.510  -0.063  0.00  0.00    +0.039 C 
ATOM      4  C   UNL     1       0.596   1.101  -0.024  0.00  0.00    +0.075 C 
ATOM      5  C   UNL     1       1.475  -0.009  -0.012  0.00  0.00    +0.075 C 
ATOM      6  C   UNL     1       0.941  -1.308  -0.032  0.00  0.00    +0.151 C 
ATOM      7  C   UNL     1       1.129   2.399  -0.004  0.00  0.00    +0.152 C 
ATOM      8  C   UNL     1       2.861   0.213   0.020  0.00  0.00    +0.152 C 
ATOM      9  C   UNL     1       2.510   2.602   0.028  0.00  0.00    +0.041 C 
ATOM     10  C   UNL     1       3.374   1.511   0.040  0.00  0.00    +0.041 C 
ENDROOT
BRANCH   1  14
ATOM     11  O   UNL     1      -3.123  -1.865  -0.836  0.00  0.00    -0.357 OA
ATOM     12  C   UNL     1      -4.175  -2.562  -0.138  0.00  0.00    +0.093 C 
ATOM     13  C   UNL     1      -4.643  -1.626   0.976  0.00  0.00    +0.030 C 
ATOM     14  C   UNL     1      -2.790  -0.666  -0.109  0.00  0.00    +0.140 C 
ATOM     15  C   UNL     1      -3.401  -0.821   1.276  0.00  0.00    +0.037 C 
ATOM     16  C   UNL     1      -5.293  -2.871  -1.130  0.00  0.00    +0.030 C 
ATOM     17  C   UNL     1      -3.588  -3.863   0.416  0.00  0.00    +0.030 C 
ENDBRANCH   1  14
BRANCH   2  18
ATOM     18  O   UNL     1      -1.688   1.910  -0.068  0.00  0.00    -0.424 OA
BRANCH  18  20
ATOM     19  O   UNL     1      -1.710   1.857   2.272  0.00  0.00    -0.250 OA
ATOM     20  C   UNL     1      -2.088   2.329   1.208  0.00  0.00    +0.322 C 
ATOM     21  C   UNL     1      -3.068   3.459   1.088  0.00  0.00    +0.122 C 
ENDBRANCH  18  20
ENDBRANCH   2  18
BRANCH   6  22
ATOM     22  O   UNL     1       1.724  -2.427  -0.022  0.00  0.00    -0.424 OA
BRANCH  22  24
ATOM     23  O   UNL     1       1.748  -2.375  -2.362  0.00  0.00    -0.250 OA
ATOM     24  C   UNL     1       2.079  -2.885  -1.300  0.00  0.00    +0.322 C 
ATOM     25  C   UNL     1       2.934  -4.111  -1.182  0.00  0.00    +0.122 C 
ENDBRANCH  22  24
ENDBRANCH   6  22
BRANCH   7  26
ATOM     26  O   UNL     1       0.349   3.520  -0.012  0.00  0.00    -0.424 OA
BRANCH  26  28
ATOM     27  O   UNL     1       0.427   3.502  -2.352  0.00  0.00    -0.250 OA
ATOM     28  C   UNL     1       0.051   3.997  -1.298  0.00  0.00    +0.322 C 
ATOM     29  C   UNL     1      -0.807   5.223  -1.200  0.00  0.00    +0.122 C 
ENDBRANCH  26  28
ENDBRANCH   7  26
BRANCH   8  30
ATOM     30  O   UNL     1       3.771  -0.805   0.033  0.00  0.00    -0.424 OA
BRANCH  30  32
ATOM     31  O   UNL     1       3.692  -0.786   2.372  0.00  0.00    -0.250 OA
ATOM     32  C   UNL     1       4.122  -1.238   1.320  0.00  0.00    +0.322 C 
ATOM     33  C   UNL     1       5.122  -2.353   1.227  0.00  0.00    +0.122 C 
ENDBRANCH  30  32
ENDBRANCH   8  30
TORSDOF 9
