REMARK  Name = 133447
REMARK  6 active torsions:
REMARK  status: ('A' for Active; 'I' for Inactive)
REMARK    1  A    between atoms: C_1  and  N_7
REMARK    2  A    between atoms: C_2  and  N_13
REMARK    3  A    between atoms: C_3  and  N_10
REMARK    4  A    between atoms: N_13  and  N_14
REMARK    5  A    between atoms: N_14  and  C_15
REMARK    6  A    between atoms: C_16  and  N_21
REMARK                            x       y       z     vdW  Elec       q    Type
REMARK                         _______ _______ _______ _____ _____    ______ ____
ROOT
ATOM      1  C   UNL     1       2.447   0.711   0.165  0.00  0.00    +0.072 C 
ATOM      2  C   UNL     1       1.638  -0.415   0.296  0.00  0.00    +0.103 C 
ATOM      3  C   UNL     1       3.816   0.560  -0.056  0.00  0.00    +0.056 C 
ATOM      4  C   UNL     1       2.189  -1.691   0.207  0.00  0.00    +0.019 C 
ATOM      5  C   UNL     1       4.371  -0.716  -0.146  0.00  0.00    +0.015 C 
ATOM      6  C   UNL     1       3.558  -1.842  -0.014  0.00  0.00    +0.003 C 
ENDROOT
BRANCH   1   7
ATOM      7  N   UNL     1       1.880   2.004   0.256  0.00  0.00    -0.355 N 
ATOM      8  H   UNL     1       0.914   2.109   0.412  0.00  0.00    +0.142 HD
ATOM      9  H   UNL     1       2.453   2.800   0.163  0.00  0.00    +0.142 HD
ENDBRANCH   1   7
BRANCH   3  10
ATOM     10  N   UNL     1       4.659   1.686  -0.193  0.00  0.00    -0.356 N 
ATOM     11  H   UNL     1       4.282   2.593  -0.132  0.00  0.00    +0.142 HD
ATOM     12  H   UNL     1       5.623   1.562  -0.348  0.00  0.00    +0.142 HD
ENDBRANCH   3  10
BRANCH   2  13
ATOM     13  N   UNL     1       0.256  -0.289   0.520  0.00  0.00    -0.127 NA
BRANCH  13  14
ATOM     14  N   UNL     1      -0.354  -0.251  -0.574  0.00  0.00    -0.128 NA
BRANCH  14  15
ATOM     15  C   UNL     1      -1.729  -0.125  -0.351  0.00  0.00    +0.089 C 
ATOM     16  C   UNL     1      -4.472   0.124   0.092  0.00  0.00    +0.042 C 
ATOM     17  C   UNL     1      -2.308   1.140  -0.259  0.00  0.00    +0.019 C 
ATOM     18  C   UNL     1      -2.521  -1.266  -0.223  0.00  0.00    +0.019 C 
ATOM     19  C   UNL     1      -3.679   1.264  -0.037  0.00  0.00    +0.015 C 
ATOM     20  C   UNL     1      -3.893  -1.142  -0.001  0.00  0.00    +0.015 C 
BRANCH  16  21
ATOM     21  N   UNL     1      -5.859   0.249   0.316  0.00  0.00    -0.357 N 
ATOM     22  H   UNL     1      -6.268   1.143   0.382  0.00  0.00    +0.142 HD
ATOM     23  H   UNL     1      -6.418  -0.556   0.407  0.00  0.00    +0.142 HD
ENDBRANCH  16  21
ENDBRANCH  14  15
ENDBRANCH  13  14
ENDBRANCH   2  13
TORSDOF 6
