133476
  -OEChem-03292013323D

 58 60  0     1  0  0  0  0  0999 V2000
    0.6960   -2.5304    0.7512 S   0  0  0  0  0  0  0  0  0  0  0  0
    3.3635   -0.5411    1.9981 O   0  0  0  0  0  0  0  0  0  0  0  0
    0.5546   -3.4771    1.8410 O   0  0  0  0  0  0  0  0  0  0  0  0
    1.6938   -2.7473   -0.2790 O   0  0  0  0  0  0  0  0  0  0  0  0
    3.9126    0.1404   -0.1540 N   0  0  0  0  0  0  0  0  0  0  0  0
    0.8871   -0.9635    1.3887 N   0  0  0  0  0  0  0  0  0  0  0  0
   -4.8945    2.9817   -1.0904 N   0  0  0  0  0  0  0  0  0  0  0  0
   -5.3299    2.1315    1.0424 N   0  0  0  0  0  0  0  0  0  0  0  0
    3.5345    0.5783   -1.5036 C   0  0  0  0  0  0  0  0  0  0  0  0
    5.3510   -0.0445    0.0503 C   0  0  0  0  0  0  0  0  0  0  0  0
    4.2692    1.8625   -1.8820 C   0  0  0  0  0  0  0  0  0  0  0  0
    6.1195    1.2275   -0.2973 C   0  0  0  0  0  0  0  0  0  0  0  0
    5.7795    1.7111   -1.7061 C   0  0  0  0  0  0  0  0  0  0  0  0
    1.5592    0.0807    0.5943 C   0  0  2  0  0  0  0  0  0  0  0  0
    3.0229   -0.1376    0.8831 C   0  0  0  0  0  0  0  0  0  0  0  0
    1.1315    1.4693    1.0446 C   0  0  0  0  0  0  0  0  0  0  0  0
   -0.3359    1.7223    0.7986 C   0  0  0  0  0  0  0  0  0  0  0  0
   -0.8669   -2.4006   -0.0644 C   0  0  0  0  0  0  0  0  0  0  0  0
   -0.7374    2.2709   -0.4094 C   0  0  0  0  0  0  0  0  0  0  0  0
   -1.2561    1.4011    1.7840 C   0  0  0  0  0  0  0  0  0  0  0  0
   -2.0936    2.5040   -0.6377 C   0  0  0  0  0  0  0  0  0  0  0  0
   -2.6123    1.6341    1.5558 C   0  0  0  0  0  0  0  0  0  0  0  0
   -0.9067   -2.0063   -1.3906 C   0  0  0  0  0  0  0  0  0  0  0  0
   -2.0221   -2.6960    0.6384 C   0  0  0  0  0  0  0  0  0  0  0  0
   -3.0310    2.1857    0.3449 C   0  0  0  0  0  0  0  0  0  0  0  0
   -2.1402   -1.9043   -2.0340 C   0  0  0  0  0  0  0  0  0  0  0  0
   -3.2555   -2.5941   -0.0049 C   0  0  0  0  0  0  0  0  0  0  0  0
   -3.3145   -2.1981   -1.3411 C   0  0  0  0  0  0  0  0  0  0  0  0
   -4.4449    2.4303    0.1080 C   0  0  0  0  0  0  0  0  0  0  0  0
   -4.6332   -2.0904   -2.0292 C   0  0  0  0  0  0  0  0  0  0  0  0
    3.8003   -0.2323   -2.1923 H   0  0  0  0  0  0  0  0  0  0  0  0
    2.4698    0.7661   -1.6210 H   0  0  0  0  0  0  0  0  0  0  0  0
    5.5643   -0.3337    1.0841 H   0  0  0  0  0  0  0  0  0  0  0  0
    5.6685   -0.8729   -0.5941 H   0  0  0  0  0  0  0  0  0  0  0  0
    4.0413    2.1308   -2.9194 H   0  0  0  0  0  0  0  0  0  0  0  0
    3.9145    2.6848   -1.2480 H   0  0  0  0  0  0  0  0  0  0  0  0
    5.8649    2.0148    0.4234 H   0  0  0  0  0  0  0  0  0  0  0  0
    7.1968    1.0472   -0.2146 H   0  0  0  0  0  0  0  0  0  0  0  0
    6.1635    0.9940   -2.4419 H   0  0  0  0  0  0  0  0  0  0  0  0
    6.2747    2.6689   -1.9005 H   0  0  0  0  0  0  0  0  0  0  0  0
    1.2840   -0.0958   -0.4443 H   0  0  0  0  0  0  0  0  0  0  0  0
    1.7236    2.2344    0.5251 H   0  0  0  0  0  0  0  0  0  0  0  0
    1.3498    1.6184    2.1114 H   0  0  0  0  0  0  0  0  0  0  0  0
    0.8913   -0.8419    2.4092 H   0  0  0  0  0  0  0  0  0  0  0  0
   -0.0140    2.5185   -1.1812 H   0  0  0  0  0  0  0  0  0  0  0  0
   -0.9415    0.9742    2.7320 H   0  0  0  0  0  0  0  0  0  0  0  0
   -2.3646    2.9329   -1.5961 H   0  0  0  0  0  0  0  0  0  0  0  0
   -3.3157    1.3745    2.3422 H   0  0  0  0  0  0  0  0  0  0  0  0
   -0.0053   -1.7666   -1.9459 H   0  0  0  0  0  0  0  0  0  0  0  0
   -1.9964   -2.9975    1.6810 H   0  0  0  0  0  0  0  0  0  0  0  0
   -2.1735   -1.5912   -3.0741 H   0  0  0  0  0  0  0  0  0  0  0  0
   -4.1638   -2.8218    0.5466 H   0  0  0  0  0  0  0  0  0  0  0  0
   -5.3503   -2.8126   -1.6242 H   0  0  0  0  0  0  0  0  0  0  0  0
   -4.5388   -2.2990   -3.1003 H   0  0  0  0  0  0  0  0  0  0  0  0
   -5.0407   -1.0824   -1.9027 H   0  0  0  0  0  0  0  0  0  0  0  0
   -4.2855    3.2392   -1.8569 H   0  0  0  0  0  0  0  0  0  0  0  0
   -5.8852    3.1462   -1.2365 H   0  0  0  0  0  0  0  0  0  0  0  0
   -6.2629    2.3755    0.6921 H   0  0  0  0  0  0  0  0  0  0  0  0
  1  3  2  0  0  0  0
  1  4  2  0  0  0  0
  1  6  1  0  0  0  0
  1 18  1  0  0  0  0
  2 15  2  0  0  0  0
  5  9  1  0  0  0  0
  5 10  1  0  0  0  0
  5 15  1  0  0  0  0
  6 14  1  0  0  0  0
  6 44  1  0  0  0  0
  7 29  1  0  0  0  0
  7 56  1  0  0  0  0
  7 57  1  0  0  0  0
  8 29  2  0  0  0  0
  8 58  1  0  0  0  0
  9 11  1  0  0  0  0
  9 31  1  0  0  0  0
  9 32  1  0  0  0  0
 10 12  1  0  0  0  0
 10 33  1  0  0  0  0
 10 34  1  0  0  0  0
 11 13  1  0  0  0  0
 11 35  1  0  0  0  0
 11 36  1  0  0  0  0
 12 13  1  0  0  0  0
 12 37  1  0  0  0  0
 12 38  1  0  0  0  0
 13 39  1  0  0  0  0
 13 40  1  0  0  0  0
 14 15  1  0  0  0  0
 14 16  1  0  0  0  0
 14 41  1  0  0  0  0
 16 17  1  0  0  0  0
 16 42  1  0  0  0  0
 16 43  1  0  0  0  0
 17 19  2  0  0  0  0
 17 20  1  0  0  0  0
 18 23  2  0  0  0  0
 18 24  1  0  0  0  0
 19 21  1  0  0  0  0
 19 45  1  0  0  0  0
 20 22  2  0  0  0  0
 20 46  1  0  0  0  0
 21 25  2  0  0  0  0
 21 47  1  0  0  0  0
 22 25  1  0  0  0  0
 22 48  1  0  0  0  0
 23 26  1  0  0  0  0
 23 49  1  0  0  0  0
 24 27  2  0  0  0  0
 24 50  1  0  0  0  0
 25 29  1  0  0  0  0
 26 28  2  0  0  0  0
 26 51  1  0  0  0  0
 27 28  1  0  0  0  0
 27 52  1  0  0  0  0
 28 30  1  0  0  0  0
 30 53  1  0  0  0  0
 30 54  1  0  0  0  0
 30 55  1  0  0  0  0
M  END
> <PUBCHEM_COMPOUND_CID>
133476

> <PUBCHEM_CONFORMER_RMSD>
1

> <PUBCHEM_CONFORMER_DIVERSEORDER>
1
13
14
41
26
69
58
61
46
8
59
5
48
57
45
42
55
44
24
35
68
67
22
31
50
19
11
40
66
43
27
64
21
62
63
37
51
56
34
39
28
7
29
25
71
53
10
20
32
52
49
9
65
23
33
30
12
54
6
70
3
18
17
60
15
4
16
2
47
36
38

> <PUBCHEM_MMFF94_PARTIAL_CHARGES>
39
1 1.45
10 0.3
14 0.42
15 0.57
16 0.14
17 -0.14
18 -0.01
19 -0.15
2 -0.57
20 -0.15
21 -0.15
22 -0.15
23 -0.15
24 -0.15
25 0.09
26 -0.15
27 -0.15
28 -0.14
29 0.41
3 -0.65
30 0.14
4 -0.65
44 0.42
45 0.15
46 0.15
47 0.15
48 0.15
49 0.15
5 -0.66
50 0.15
51 0.15
52 0.15
56 0.4
57 0.4
58 0.4
6 -0.91
7 -0.85
8 -0.85
9 0.3

> <PUBCHEM_EFFECTIVE_ROTOR_COUNT>
9.2

> <PUBCHEM_PHARMACOPHORE_FEATURES>
10
1 2 acceptor
1 3 acceptor
1 4 acceptor
1 6 donor
1 7 donor
1 8 donor
3 7 8 29 cation
6 17 19 20 21 22 25 rings
6 18 23 24 26 27 28 rings
6 5 9 10 11 12 13 rings

> <PUBCHEM_HEAVY_ATOM_COUNT>
30

> <PUBCHEM_ATOM_DEF_STEREO_COUNT>
0

> <PUBCHEM_ATOM_UDEF_STEREO_COUNT>
1

> <PUBCHEM_BOND_DEF_STEREO_COUNT>
0

> <PUBCHEM_BOND_UDEF_STEREO_COUNT>
0

> <PUBCHEM_ISOTOPIC_ATOM_COUNT>
0

> <PUBCHEM_COMPONENT_COUNT>
1

> <PUBCHEM_CACTVS_TAUTO_COUNT>
1

> <PUBCHEM_CONFORMER_ID>
0002096400000001

> <PUBCHEM_MMFF94_ENERGY>
61.5978

> <PUBCHEM_FEATURE_SELFOVERLAP>
50.807

> <PUBCHEM_SHAPE_FINGERPRINT>
104564 63 18342166808752565251
10871710 139 18410014368462092055
11479125 193 16517381121838108725
12035759 4 18042684090779130908
12788726 201 18339360889496072546
13642711 20 16082197512214879901
14251757 5 18269840980758116598
14289585 56 17460314348429410452
14931854 50 18198882787554275029
15274700 242 17968368035449021336
16752209 62 18341045319856257042
17138139 8 17699247120318109469
17357779 13 18058163010784361662
19319366 153 18263643978620907819
21236236 1 18342176695951565682
21304303 94 17772755965876172685
22121540 332 17048860621552136473
22620623 9 17917992818936727494
244849 19 16271628079649348922
25147074 1 18335126571686662418
27425 322 17315350329151577101
3027735 51 18272100430357202038
3052486 1 18412535522522287368
338550 245 18264763268789411410
4058900 60 17982178816549320209
469060 322 18187936122354141995
5171179 24 17701528739187878041
563151 74 13770429467274445188
7237137 82 18271811267209449580

> <PUBCHEM_SHAPE_MULTIPOLES>
583.7
11.24
4.45
1.99
10.64
0.94
0.27
-6.12
4.93
-5.86
0
0.1
0.36
-2.58

> <PUBCHEM_SHAPE_SELFOVERLAP>
1220.333

> <PUBCHEM_SHAPE_VOLUME>
330

> <PUBCHEM_COORDINATE_TYPE>
2
5
10

$$$$
