REMARK  Name = 133440
REMARK  6 active torsions:
REMARK  status: ('A' for Active; 'I' for Inactive)
REMARK    1  A    between atoms: C_1  and  C_3
REMARK    2  A    between atoms: C_1  and  C_12
REMARK    3  A    between atoms: C_3  and  O_4
REMARK    4  A    between atoms: O_4  and  N_7
REMARK    5  A    between atoms: C_12  and  C_13
REMARK    6  A    between atoms: C_13  and  N_16
REMARK                            x       y       z     vdW  Elec       q    Type
REMARK                         _______ _______ _______ _____ _____    ______ ____
ROOT
ATOM      1  C   UNL     1      -0.033   0.012  -1.090  0.00  0.00    +0.114 C 
ENDROOT
BRANCH   1   3
ATOM      2  O   UNL     1      -1.282   0.013   0.997  0.00  0.00    -0.248 OA
ATOM      3  C   UNL     1      -1.275   0.009  -0.227  0.00  0.00    +0.340 C 
BRANCH   3   4
ATOM      4  O   UNL     1      -2.375   0.005  -1.038  0.00  0.00    -0.336 OA
BRANCH   4   7
ATOM      5  O   UNL     1      -3.837   2.308  -0.140  0.00  0.00    -0.267 OA
ATOM      6  O   UNL     1      -3.902  -2.299  -0.260  0.00  0.00    -0.267 OA
ATOM      7  N   UNL     1      -3.570   0.003  -0.286  0.00  0.00    -0.054 N 
ATOM      8  C   UNL     1      -5.386   0.763   0.895  0.00  0.00    +0.066 C 
ATOM      9  C   UNL     1      -5.407  -0.767   0.856  0.00  0.00    +0.066 C 
ATOM     10  C   UNL     1      -4.176   1.158   0.092  0.00  0.00    +0.287 C 
ATOM     11  C   UNL     1      -4.208  -1.154   0.032  0.00  0.00    +0.287 C 
ENDBRANCH   4   7
ENDBRANCH   3   4
ENDBRANCH   1   3
BRANCH   1  12
ATOM     12  C   UNL     1       1.246   0.040  -0.252  0.00  0.00    +0.034 C 
BRANCH  12  13
ATOM     13  C   UNL     1       2.507  -0.022  -1.107  0.00  0.00    +0.102 C 
BRANCH  13  16
ATOM     14  O   UNL     1       4.061  -2.313  -0.004  0.00  0.00    -0.269 OA
ATOM     15  O   UNL     1       4.118   2.289  -0.127  0.00  0.00    -0.269 OA
ATOM     16  N   UNL     1       3.709  -0.015  -0.319  0.00  0.00    -0.223 N 
ATOM     17  C   UNL     1       4.354  -1.138   0.143  0.00  0.00    +0.255 C 
ATOM     18  C   UNL     1       4.380   1.117   0.082  0.00  0.00    +0.255 C 
ATOM     19  C   UNL     1       5.530  -0.671   0.894  0.00  0.00    +0.063 C 
ATOM     20  C   UNL     1       5.545   0.662   0.858  0.00  0.00    +0.063 C 
ENDBRANCH  13  16
ENDBRANCH  12  13
ENDBRANCH   1  12
TORSDOF 6
