REMARK  Name = 133562569
REMARK  10 active torsions:
REMARK  status: ('A' for Active; 'I' for Inactive)
REMARK    1  A    between atoms: C_4  and  O_17
REMARK    2  A    between atoms: C_9  and  C_30
REMARK    3  A    between atoms: C_12  and  O_26
REMARK    4  A    between atoms: O_17  and  C_19
REMARK    5  A    between atoms: C_19  and  C_20
REMARK    6  A    between atoms: C_22  and  C_23
REMARK    7  A    between atoms: C_23  and  O_24
REMARK    8  A    between atoms: O_26  and  C_28
REMARK    9  A    between atoms: C_30  and  O_31
REMARK   10  A    between atoms: O_31  and  C_33
REMARK                            x       y       z     vdW  Elec       q    Type
REMARK                         _______ _______ _______ _____ _____    ______ ____
ROOT
ATOM      1  O   UNL     1       0.628  -2.083  -2.864  0.00  0.00    -0.449 OA
ATOM      2  O   UNL     1      -0.789  -2.191  -4.674  0.00  0.00    -0.245 OA
ATOM      3  C   UNL     1      -0.288  -0.230  -1.710  0.00  0.00    +0.109 C 
ATOM      4  C   UNL     1      -0.962   0.316  -0.428  0.00  0.00    +0.181 C 
ATOM      5  C   UNL     1       0.546  -1.508  -1.549  0.00  0.00    +0.177 C 
ATOM      6  C   UNL     1      -0.022   0.832   0.693  0.00  0.00    +0.069 C 
ATOM      7  C   UNL     1      -1.177  -0.676  -2.829  0.00  0.00    +0.060 C 
ATOM      8  C   UNL     1       1.923  -1.155  -1.076  0.00  0.00    +0.048 C 
ATOM      9  C   UNL     1       1.068   1.810   0.305  0.00  0.00    -0.001 C 
ATOM     10  C   UNL     1       2.474  -1.464   0.112  0.00  0.00    +0.044 C 
ATOM     11  C   UNL     1      -0.474  -1.732  -3.591  0.00  0.00    +0.337 C 
ATOM     12  C   UNL     1       3.612  -0.583   0.599  0.00  0.00    +0.173 C 
ATOM     13  C   UNL     1       3.053   0.594   1.427  0.00  0.00    +0.069 C 
ATOM     14  C   UNL     1       2.378   1.669   0.607  0.00  0.00    -0.027 C 
ATOM     15  C   UNL     1      -2.405  -0.277  -3.170  0.00  0.00    +0.002 C 
ATOM     16  C   UNL     1       1.932  -2.479   1.082  0.00  0.00    +0.004 C 
ENDROOT
BRANCH   4  17
ATOM     17  O   UNL     1      -1.770  -0.701   0.175  0.00  0.00    -0.449 OA
BRANCH  17  19
ATOM     18  O   UNL     1      -3.226   0.905   0.950  0.00  0.00    -0.245 OA
ATOM     19  C   UNL     1      -2.877  -0.261   0.834  0.00  0.00    +0.337 C 
BRANCH  19  20
ATOM     20  C   UNL     1      -3.609  -1.430   1.410  0.00  0.00    +0.052 C 
ATOM     21  C   UNL     1      -2.822  -2.654   1.771  0.00  0.00    +0.038 C 
ATOM     22  C   UNL     1      -4.942  -1.287   1.528  0.00  0.00    +0.007 C 
BRANCH  22  23
ATOM     23  C   UNL     1      -5.913  -2.286   2.077  0.00  0.00    +0.163 C 
BRANCH  23  24
ATOM     24  O   UNL     1      -6.567  -1.709   3.202  0.00  0.00    -0.377 OA
ATOM     25  H   UNL     1      -7.200  -2.345   3.569  0.00  0.00    +0.211 HD
ENDBRANCH  23  24
ENDBRANCH  22  23
ENDBRANCH  19  20
ENDBRANCH  17  19
ENDBRANCH   4  17
BRANCH  12  26
ATOM     26  O   UNL     1       4.518  -1.326   1.412  0.00  0.00    -0.452 OA
BRANCH  26  28
ATOM     27  O   UNL     1       6.255   0.050   0.758  0.00  0.00    -0.250 OA
ATOM     28  C   UNL     1       5.814  -0.897   1.396  0.00  0.00    +0.317 C 
ATOM     29  C   UNL     1       6.646  -1.766   2.290  0.00  0.00    +0.121 C 
ENDBRANCH  26  28
ENDBRANCH  12  26
BRANCH   9  30
ATOM     30  C   UNL     1       0.601   3.042  -0.430  0.00  0.00    +0.231 C 
BRANCH  30  31
ATOM     31  O   UNL     1      -0.339   3.735   0.365  0.00  0.00    -0.444 OA
BRANCH  31  33
ATOM     32  O   UNL     1      -0.574   5.348  -1.271  0.00  0.00    -0.250 OA
ATOM     33  C   UNL     1      -0.857   4.884  -0.175  0.00  0.00    +0.318 C 
ATOM     34  C   UNL     1      -1.834   5.509   0.774  0.00  0.00    +0.121 C 
ENDBRANCH  31  33
ENDBRANCH  30  31
ENDBRANCH   9  30
TORSDOF 10
