REMARK  Name = 133561811
REMARK  10 active torsions:
REMARK  status: ('A' for Active; 'I' for Inactive)
REMARK    1  A    between atoms: O_1  and  C_6
REMARK    2  A    between atoms: O_1  and  C_17
REMARK    3  A    between atoms: C_3  and  O_8
REMARK    4  A    between atoms: C_4  and  O_10
REMARK    5  A    between atoms: C_5  and  O_12
REMARK    6  A    between atoms: C_7  and  C_14
REMARK    7  A    between atoms: C_14  and  O_15
REMARK    8  A    between atoms: C_17  and  C_20
REMARK    9  A    between atoms: C_19  and  C_23
REMARK   10  A    between atoms: C_23  and  O_31
REMARK                            x       y       z     vdW  Elec       q    Type
REMARK                         _______ _______ _______ _____ _____    ______ ____
ROOT
ATOM      1  O   UNL     1      -1.568  -1.823   0.943  0.00  0.00    -0.327 OA
ENDROOT
BRANCH   1   6
ATOM      2  O   UNL     1      -3.147  -1.009  -0.570  0.00  0.00    -0.326 OA
ATOM      3  C   UNL     1      -3.518   1.384   0.974  0.00  0.00    +0.172 C 
ATOM      4  C   UNL     1      -4.472   0.977  -0.149  0.00  0.00    +0.169 C 
ATOM      5  C   UNL     1      -2.748   0.178   1.511  0.00  0.00    +0.196 C 
ATOM      6  C   UNL     1      -2.143  -0.646   0.375  0.00  0.00    +0.266 C 
ATOM      7  C   UNL     1      -3.747   0.127  -1.195  0.00  0.00    +0.176 C 
BRANCH   3   8
ATOM      8  O   UNL     1      -4.295   1.959   2.026  0.00  0.00    -0.379 OA
ATOM      9  H   UNL     1      -4.784   2.725   1.686  0.00  0.00    +0.211 HD
ENDBRANCH   3   8
BRANCH   4  10
ATOM     10  O   UNL     1      -4.994   2.147  -0.772  0.00  0.00    -0.379 OA
ATOM     11  H   UNL     1      -5.454   2.688  -0.111  0.00  0.00    +0.211 HD
ENDBRANCH   4  10
BRANCH   5  12
ATOM     12  O   UNL     1      -1.686   0.629   2.351  0.00  0.00    -0.378 OA
ATOM     13  H   UNL     1      -2.052   1.155   3.080  0.00  0.00    +0.211 HD
ENDBRANCH   5  12
BRANCH   7  14
ATOM     14  C   UNL     1      -4.703  -0.389  -2.266  0.00  0.00    +0.169 C 
BRANCH  14  15
ATOM     15  O   UNL     1      -3.963  -1.153  -3.200  0.00  0.00    -0.379 OA
ATOM     16  H   UNL     1      -4.559  -1.488  -3.888  0.00  0.00    +0.211 HD
ENDBRANCH  14  15
ENDBRANCH   7  14
ENDBRANCH   1   6
BRANCH   1  17
ATOM     17  C   UNL     1      -0.449  -2.273   0.184  0.00  0.00    +0.140 C 
ATOM     18  C   UNL     1      -0.353  -3.790   0.287  0.00  0.00    +0.037 C 
BRANCH  17  20
ATOM     19  C   UNL     1       1.558  -0.780   0.026  0.00  0.00    +0.002 C 
ATOM     20  C   UNL     1       0.780  -1.612   0.734  0.00  0.00    +0.001 C 
BRANCH  19  23
ATOM     21  O   UNL     1       4.397   2.255  -2.464  0.00  0.00    -0.291 OA
ATOM     22  C   UNL     1       4.119  -0.565  -0.148  0.00  0.00    +0.037 C 
ATOM     23  C   UNL     1       2.796  -0.112   0.576  0.00  0.00    +0.122 C 
ATOM     24  C   UNL     1       4.180   0.046  -1.564  0.00  0.00    +0.072 C 
ATOM     25  C   UNL     1       2.608   1.401   0.497  0.00  0.00    -0.013 C 
ATOM     26  C   UNL     1       4.214  -2.104  -0.279  0.00  0.00    +0.003 C 
ATOM     27  C   UNL     1       5.375  -0.120   0.651  0.00  0.00    +0.003 C 
ATOM     28  C   UNL     1       3.958   1.542  -1.562  0.00  0.00    +0.173 C 
ATOM     29  C   UNL     1       3.148   2.149  -0.480  0.00  0.00    +0.031 C 
ATOM     30  C   UNL     1       1.754   2.058   1.553  0.00  0.00    +0.029 C 
BRANCH  23  31
ATOM     31  O   UNL     1       2.899  -0.478   1.961  0.00  0.00    -0.379 OA
ATOM     32  H   UNL     1       3.687  -0.064   2.346  0.00  0.00    +0.211 HD
ENDBRANCH  23  31
ENDBRANCH  19  23
ENDBRANCH  17  20
ENDBRANCH   1  17
TORSDOF 10
