133562
  -OEChem-03292013323D

 35 36  0     1  0  0  0  0  0999 V2000
    1.2611   -0.8419    0.1200 O   0  0  0  0  0  0  0  0  0  0  0  0
   -0.5889    0.5668   -0.0720 O   0  0  0  0  0  0  0  0  0  0  0  0
    3.8015    2.3473    0.6119 O   0  0  0  0  0  0  0  0  0  0  0  0
    4.8682   -0.2447   -0.0949 O   0  0  0  0  0  0  0  0  0  0  0  0
    1.1469    2.7373   -0.6053 O   0  0  0  0  0  0  0  0  0  0  0  0
    2.0936   -3.4361   -0.2448 O   0  0  0  0  0  0  0  0  0  0  0  0
   -4.6301    0.0486    1.2252 O   0  0  0  0  0  0  0  0  0  0  0  0
   -6.1784    0.1826   -0.4721 O   0  0  0  0  0  0  0  0  0  0  0  0
    3.0775    1.3682   -0.1348 C   0  0  1  0  0  0  0  0  0  0  0  0
    3.5292   -0.0145    0.3357 C   0  0  1  0  0  0  0  0  0  0  0  0
    1.5779    1.5656    0.0867 C   0  0  2  0  0  0  0  0  0  0  0  0
    2.6198   -1.1059   -0.2339 C   0  0  1  0  0  0  0  0  0  0  0  0
    0.7765    0.3757   -0.4414 C   0  0  1  0  0  0  0  0  0  0  0  0
    2.9788   -2.4832    0.3147 C   0  0  0  0  0  0  0  0  0  0  0  0
   -1.4015   -0.5029   -0.5292 C   0  0  0  0  0  0  0  0  0  0  0  0
   -2.8163   -0.2800   -0.1324 C   0  0  0  0  0  0  0  0  0  0  0  0
   -3.2138   -0.1510    1.2843 C   0  0  0  0  0  0  0  0  0  0  0  0
   -3.8684   -0.1710   -0.9391 C   0  0  0  0  0  0  0  0  0  0  0  0
   -5.0337    0.0390   -0.0786 C   0  0  0  0  0  0  0  0  0  0  0  0
    3.3363    1.5290   -1.1887 H   0  0  0  0  0  0  0  0  0  0  0  0
    3.5276   -0.0447    1.4322 H   0  0  0  0  0  0  0  0  0  0  0  0
    1.3694    1.7309    1.1504 H   0  0  0  0  0  0  0  0  0  0  0  0
    2.6924   -1.1477   -1.3293 H   0  0  0  0  0  0  0  0  0  0  0  0
    0.8310    0.3301   -1.5376 H   0  0  0  0  0  0  0  0  0  0  0  0
    2.8672   -2.5226    1.4034 H   0  0  0  0  0  0  0  0  0  0  0  0
    4.0019   -2.7688    0.0546 H   0  0  0  0  0  0  0  0  0  0  0  0
    4.7488    2.1866    0.4610 H   0  0  0  0  0  0  0  0  0  0  0  0
    4.8782   -0.2270   -1.0671 H   0  0  0  0  0  0  0  0  0  0  0  0
    1.3246    2.6105   -1.5529 H   0  0  0  0  0  0  0  0  0  0  0  0
   -1.3199   -0.5822   -1.6202 H   0  0  0  0  0  0  0  0  0  0  0  0
   -1.0695   -1.4523   -0.0931 H   0  0  0  0  0  0  0  0  0  0  0  0
    1.1880   -3.1694   -0.0112 H   0  0  0  0  0  0  0  0  0  0  0  0
   -3.0054   -1.0581    1.8589 H   0  0  0  0  0  0  0  0  0  0  0  0
   -2.7542    0.7138    1.7716 H   0  0  0  0  0  0  0  0  0  0  0  0
   -3.8938   -0.2223   -2.0139 H   0  0  0  0  0  0  0  0  0  0  0  0
  1 12  1  0  0  0  0
  1 13  1  0  0  0  0
  2 13  1  0  0  0  0
  2 15  1  0  0  0  0
  3  9  1  0  0  0  0
  3 27  1  0  0  0  0
  4 10  1  0  0  0  0
  4 28  1  0  0  0  0
  5 11  1  0  0  0  0
  5 29  1  0  0  0  0
  6 14  1  0  0  0  0
  6 32  1  0  0  0  0
  7 17  1  0  0  0  0
  7 19  1  0  0  0  0
  8 19  2  0  0  0  0
  9 10  1  0  0  0  0
  9 11  1  0  0  0  0
  9 20  1  0  0  0  0
 10 12  1  0  0  0  0
 10 21  1  0  0  0  0
 11 13  1  0  0  0  0
 11 22  1  0  0  0  0
 12 14  1  0  0  0  0
 12 23  1  0  0  0  0
 13 24  1  0  0  0  0
 14 25  1  0  0  0  0
 14 26  1  0  0  0  0
 15 16  1  0  0  0  0
 15 30  1  0  0  0  0
 15 31  1  0  0  0  0
 16 17  1  0  0  0  0
 16 18  2  0  0  0  0
 17 33  1  0  0  0  0
 17 34  1  0  0  0  0
 18 19  1  0  0  0  0
 18 35  1  0  0  0  0
M  END
> <PUBCHEM_COMPOUND_CID>
133562

> <PUBCHEM_CONFORMER_RMSD>
0.8

> <PUBCHEM_CONFORMER_DIVERSEORDER>
1
47
52
48
4
57
10
40
23
37
31
9
43
56
12
42
45
41
44
29
18
53
26
24
5
14
35
46
20
33
50
8
39
51
32
3
11
34
55
6
13
19
7
30
49
17
25
54
2
27
22
36
15
28
38
21
16

> <PUBCHEM_MMFF94_PARTIAL_CHARGES>
24
1 -0.56
10 0.28
11 0.28
12 0.28
13 0.56
14 0.28
15 0.42
16 -0.28
17 0.42
18 -0.14
19 0.71
2 -0.56
27 0.4
28 0.4
29 0.4
3 -0.68
32 0.4
35 0.15
4 -0.68
5 -0.68
6 -0.68
7 -0.43
8 -0.57
9 0.28

> <PUBCHEM_EFFECTIVE_ROTOR_COUNT>
5.6

> <PUBCHEM_PHARMACOPHORE_FEATURES>
13
1 1 acceptor
1 2 acceptor
1 3 acceptor
1 3 donor
1 4 acceptor
1 4 donor
1 5 acceptor
1 5 donor
1 6 acceptor
1 6 donor
1 8 acceptor
5 7 16 17 18 19 rings
6 1 9 10 11 12 13 rings

> <PUBCHEM_HEAVY_ATOM_COUNT>
19

> <PUBCHEM_ATOM_DEF_STEREO_COUNT>
5

> <PUBCHEM_ATOM_UDEF_STEREO_COUNT>
0

> <PUBCHEM_BOND_DEF_STEREO_COUNT>
0

> <PUBCHEM_BOND_UDEF_STEREO_COUNT>
0

> <PUBCHEM_ISOTOPIC_ATOM_COUNT>
0

> <PUBCHEM_COMPONENT_COUNT>
1

> <PUBCHEM_CACTVS_TAUTO_COUNT>
1

> <PUBCHEM_CONFORMER_ID>
000209BA00000001

> <PUBCHEM_MMFF94_ENERGY>
37.1708

> <PUBCHEM_FEATURE_SELFOVERLAP>
66.036

> <PUBCHEM_SHAPE_FINGERPRINT>
10912923 1 17846780707134717283
114674 6 18188211983609020634
11471102 20 18410011061194855884
12107183 9 17695637251507481011
12236239 1 17775283867841738015
12596602 18 17417805192689536699
12670546 56 17989205941011120265
13140716 1 18266451187163933714
13167823 11 18202279230243355543
13533116 47 18272087184930957027
13675066 3 18040437702824438751
13955234 65 18411696578319053010
14252887 29 18187366519105976082
14386348 63 17675928690073428251
14790565 3 17902799892256962444
15375358 24 18040996267262920603
15635459 17 18259985937795204066
17818456 19 17415011144891826169
17834072 33 18272085041583962311
1813 80 17984995799388054718
200 152 18272929419395989421
20157964 124 18411415125270352461
20279233 1 17967255303911887843
20511986 3 17703213079770064129
20645477 70 18335696118229879967
21267235 1 18412550885863028350
22224240 67 18271513291569372002
22289505 5 18334287630796758069
2255824 54 18338521940538466900
23048698 100 18202285809884897683
23402539 116 15769771352028328317
23532345 1 18410292531718181307
23557571 272 17095798828517921221
23559900 14 18335701667422247209
26918003 58 18260830410323066473
3060560 45 18342461448152282542
33824 294 18408882940969392762
341906 21 16056885680716899155
3421961 26 18337951182292615138
345986 75 18057879152074357331
3545911 37 18409731789836827527
42630746 31 18342173380210549782
474 4 18268147737193911344
5104073 3 18339358685824481115
542803 24 17561088025020422849
573450 72 17275384279555703187
602551 16 16081656698195575385
8272917 22 18412546500448400087
9999458 23 18409449219923025236

> <PUBCHEM_SHAPE_MULTIPOLES>
344.06
11.14
2.41
0.88
12.87
0.81
0.15
-0.06
0.63
-4.22
-0.09
0.76
-0.03
0.11

> <PUBCHEM_SHAPE_SELFOVERLAP>
713.078

> <PUBCHEM_SHAPE_VOLUME>
195.3

> <PUBCHEM_COORDINATE_TYPE>
2
5
10

$$$$
