REMARK  Name = 133556494
REMARK  5 active torsions:
REMARK  status: ('A' for Active; 'I' for Inactive)
REMARK    1  A    between atoms: C_4  and  C_27
REMARK    2  A    between atoms: C_7  and  C_29
REMARK    3  A    between atoms: C_14  and  O_32
REMARK    4  A    between atoms: C_29  and  O_30
REMARK    5  A    between atoms: O_32  and  C_34
REMARK                            x       y       z     vdW  Elec       q    Type
REMARK                         _______ _______ _______ _____ _____    ______ ____
ROOT
ATOM      1  O   UNL     1      -1.460  -2.055   1.353  0.00  0.00    -0.295 OA
ATOM      2  O   UNL     1      -4.588   1.341   2.074  0.00  0.00    -0.295 OA
ATOM      3  C   UNL     1      -0.975  -0.118  -0.998  0.00  0.00    +0.021 C 
ATOM      4  C   UNL     1       1.474   0.841  -0.536  0.00  0.00    +0.062 C 
ATOM      5  C   UNL     1      -0.022   0.695  -0.045  0.00  0.00    +0.029 C 
ATOM      6  C   UNL     1       2.032  -0.581  -0.887  0.00  0.00    +0.011 C 
ATOM      7  C   UNL     1      -2.344  -0.354  -0.212  0.00  0.00    +0.150 C 
ATOM      8  C   UNL     1      -0.294  -1.451  -1.416  0.00  0.00    +0.001 C 
ATOM      9  C   UNL     1      -3.041   1.026   0.200  0.00  0.00    +0.082 C 
ATOM     10  C   UNL     1       3.578  -0.656  -1.187  0.00  0.00    +0.037 C 
ATOM     11  C   UNL     1       1.145  -1.298  -1.922  0.00  0.00    +0.001 C 
ATOM     12  C   UNL     1       2.351   1.460   0.589  0.00  0.00    +0.011 C 
ATOM     13  C   UNL     1      -0.698   1.979   0.391  0.00  0.00    -0.034 C 
ATOM     14  C   UNL     1       4.374   0.052  -0.051  0.00  0.00    +0.169 C 
ATOM     15  C   UNL     1      -1.266   0.655  -2.325  0.00  0.00    +0.001 C 
ATOM     16  C   UNL     1      -2.032   2.154   0.484  0.00  0.00    -0.041 C 
ATOM     17  C   UNL     1       3.849   1.447   0.278  0.00  0.00    +0.044 C 
ATOM     18  C   UNL     1      -2.149  -1.060   1.158  0.00  0.00    +0.167 C 
ATOM     19  C   UNL     1      -3.667   0.710   1.564  0.00  0.00    +0.161 C 
ATOM     20  C   UNL     1      -2.985  -0.442   2.250  0.00  0.00    +0.116 C 
ATOM     21  C   UNL     1      -4.166   1.478  -0.749  0.00  0.00    +0.012 C 
ATOM     22  C   UNL     1       4.032  -2.139  -1.246  0.00  0.00    +0.004 C 
ATOM     23  C   UNL     1       3.971  -0.029  -2.542  0.00  0.00    +0.004 C 
ATOM     24  C   UNL     1      -2.551   3.515   0.883  0.00  0.00    +0.026 C 
ATOM     25  C   UNL     1      -3.985  -1.435   2.809  0.00  0.00    +0.016 C 
ENDROOT
BRANCH   4  27
ATOM     26  O   UNL     1       1.138   2.976  -1.614  0.00  0.00    -0.288 OA
ATOM     27  C   UNL     1       1.522   1.814  -1.692  0.00  0.00    +0.207 C 
ENDBRANCH   4  27
BRANCH   7  29
ATOM     28  O   UNL     1      -3.622  -0.981  -2.179  0.00  0.00    -0.250 OA
ATOM     29  C   UNL     1      -3.261  -1.242  -1.039  0.00  0.00    +0.323 C 
BRANCH  29  30
ATOM     30  O   UNL     1      -3.601  -2.345  -0.314  0.00  0.00    -0.444 OA
ATOM     31  C   UNL     1      -4.466  -3.273  -0.977  0.00  0.00    +0.256 C 
ENDBRANCH  29  30
ENDBRANCH   7  29
BRANCH  14  32
ATOM     32  O   UNL     1       4.381  -0.727   1.148  0.00  0.00    -0.452 OA
BRANCH  32  34
ATOM     33  O   UNL     1       6.465   0.110   1.689  0.00  0.00    -0.250 OA
ATOM     34  C   UNL     1       5.495  -0.597   1.923  0.00  0.00    +0.317 C 
ATOM     35  C   UNL     1       5.363  -1.466   3.138  0.00  0.00    +0.121 C 
ENDBRANCH  32  34
ENDBRANCH  14  32
TORSDOF 5
