REMARK  Name = 133561756
REMARK  4 active torsions:
REMARK  status: ('A' for Active; 'I' for Inactive)
REMARK    1  A    between atoms: C_8  and  O_30
REMARK    2  A    between atoms: C_9  and  O_32
REMARK    3  A    between atoms: C_16  and  C_26
REMARK    4  A    between atoms: C_17  and  O_34
REMARK                            x       y       z     vdW  Elec       q    Type
REMARK                         _______ _______ _______ _____ _____    ______ ____
ROOT
ATOM      1  O   UNL     1      -0.849  -3.058  -0.447  0.00  0.00    -0.288 OA
ATOM      2  O   UNL     1      -5.031   1.661   2.090  0.00  0.00    -0.291 OA
ATOM      3  C   UNL     1      -0.052  -0.785  -0.527  0.00  0.00    +0.067 C 
ATOM      4  C   UNL     1       1.149  -1.074   0.494  0.00  0.00    +0.047 C 
ATOM      5  C   UNL     1      -0.654   0.631  -0.194  0.00  0.00    +0.042 C 
ATOM      6  C   UNL     1      -2.119   0.879  -0.747  0.00  0.00    +0.040 C 
ATOM      7  C   UNL     1       2.165   0.061   0.405  0.00  0.00    -0.044 C 
ATOM      8  C   UNL     1       0.410   1.748  -0.404  0.00  0.00    +0.115 C 
ATOM      9  C   UNL     1       2.057  -2.335   0.247  0.00  0.00    +0.118 C 
ATOM     10  C   UNL     1       1.693   1.487   0.406  0.00  0.00    +0.051 C 
ATOM     11  C   UNL     1      -1.125  -1.860  -0.343  0.00  0.00    +0.205 C 
ATOM     12  C   UNL     1      -3.030  -0.241  -0.157  0.00  0.00    +0.002 C 
ATOM     13  C   UNL     1       0.431  -0.881  -2.004  0.00  0.00    +0.008 C 
ATOM     14  C   UNL     1       3.502  -1.884   0.495  0.00  0.00    +0.055 C 
ATOM     15  C   UNL     1       0.681  -1.163   1.976  0.00  0.00    +0.007 C 
ATOM     16  C   UNL     1       3.431  -0.391   0.391  0.00  0.00    -0.024 C 
ATOM     17  C   UNL     1      -2.534  -1.493  -0.005  0.00  0.00    +0.161 C 
ATOM     18  C   UNL     1      -4.481   0.168   0.233  0.00  0.00    +0.074 C 
ATOM     19  C   UNL     1      -2.258   0.869  -2.281  0.00  0.00    +0.009 C 
ATOM     20  C   UNL     1      -2.553   2.269  -0.298  0.00  0.00    -0.020 C 
ATOM     21  C   UNL     1      -4.386   1.463   1.060  0.00  0.00    +0.176 C 
ATOM     22  C   UNL     1      -3.541   2.557   0.549  0.00  0.00    +0.033 C 
ATOM     23  C   UNL     1      -5.349   0.441  -1.012  0.00  0.00    +0.012 C 
ATOM     24  C   UNL     1      -5.274  -0.846   1.096  0.00  0.00    +0.012 C 
ENDROOT
BRANCH  16  26
ATOM     25  O   UNL     1       6.223   1.843  -0.391  0.00  0.00    -0.447 OA
ATOM     26  C   UNL     1       4.664   0.400   0.344  0.00  0.00    +0.036 C 
ATOM     27  C   UNL     1       5.722   0.431   1.284  0.00  0.00    +0.043 C 
ATOM     28  C   UNL     1       5.017   1.276  -0.656  0.00  0.00    +0.179 C 
ATOM     29  C   UNL     1       6.645   1.324   0.791  0.00  0.00    +0.180 C 
ENDBRANCH  16  26
BRANCH   8  30
ATOM     30  O   UNL     1       0.735   1.936  -1.774  0.00  0.00    -0.384 OA
ATOM     31  H   UNL     1      -0.077   2.100  -2.279  0.00  0.00    +0.210 HD
ENDBRANCH   8  30
BRANCH   9  32
ATOM     32  O   UNL     1       2.014  -2.882  -1.060  0.00  0.00    -0.384 OA
ATOM     33  H   UNL     1       1.112  -3.181  -1.256  0.00  0.00    +0.210 HD
ENDBRANCH   9  32
BRANCH  17  34
ATOM     34  O   UNL     1      -3.304  -2.549   0.439  0.00  0.00    -0.503 OA
ATOM     35  H   UNL     1      -2.923  -3.400   0.531  0.00  0.00    +0.292 HD
ENDBRANCH  17  34
TORSDOF 4
