REMARK  Name = 133554324
REMARK  14 active torsions:
REMARK  status: ('A' for Active; 'I' for Inactive)
REMARK    1  A    between atoms: O_1  and  C_7
REMARK    2  A    between atoms: O_1  and  C_17
REMARK    3  A    between atoms: C_3  and  O_8
REMARK    4  A    between atoms: C_4  and  O_10
REMARK    5  A    between atoms: C_5  and  O_12
REMARK    6  A    between atoms: C_6  and  C_14
REMARK    7  A    between atoms: C_14  and  O_15
REMARK    8  A    between atoms: C_17  and  C_18
REMARK    9  A    between atoms: C_18  and  C_20
REMARK   10  A    between atoms: C_19  and  C_21
REMARK   11  A    between atoms: C_21  and  C_24
REMARK   12  A    between atoms: C_23  and  C_28
REMARK   13  A    between atoms: C_28  and  C_30
REMARK   14  A    between atoms: C_30  and  O_31
REMARK                            x       y       z     vdW  Elec       q    Type
REMARK                         _______ _______ _______ _____ _____    ______ ____
ROOT
ATOM      1  O   UNL     1       1.968   1.693   1.002  0.00  0.00    -0.328 OA
ENDROOT
BRANCH   1   7
ATOM      2  O   UNL     1       2.601   1.049  -1.193  0.00  0.00    -0.326 OA
ATOM      3  C   UNL     1       3.723  -0.744   0.749  0.00  0.00    +0.172 C 
ATOM      4  C   UNL     1       3.194  -1.248  -0.595  0.00  0.00    +0.169 C 
ATOM      5  C   UNL     1       4.151   0.721   0.655  0.00  0.00    +0.196 C 
ATOM      6  C   UNL     1       2.114  -0.295  -1.127  0.00  0.00    +0.176 C 
ATOM      7  C   UNL     1       3.034   1.579   0.064  0.00  0.00    +0.266 C 
BRANCH   3   8
ATOM      8  O   UNL     1       4.830  -1.549   1.149  0.00  0.00    -0.379 OA
ATOM      9  H   UNL     1       4.551  -2.476   1.207  0.00  0.00    +0.211 HD
ENDBRANCH   3   8
BRANCH   4  10
ATOM     10  O   UNL     1       2.650  -2.550  -0.398  0.00  0.00    -0.379 OA
ATOM     11  H   UNL     1       3.341  -3.142  -0.062  0.00  0.00    +0.211 HD
ENDBRANCH   4  10
BRANCH   5  12
ATOM     12  O   UNL     1       5.290   0.842  -0.199  0.00  0.00    -0.378 OA
ATOM     13  H   UNL     1       6.017   0.305   0.153  0.00  0.00    +0.211 HD
ENDBRANCH   5  12
BRANCH   6  14
ATOM     14  C   UNL     1       1.659  -0.675  -2.533  0.00  0.00    +0.169 C 
BRANCH  14  15
ATOM     15  O   UNL     1       0.660   0.240  -2.946  0.00  0.00    -0.379 OA
ATOM     16  H   UNL     1       0.361   0.011  -3.839  0.00  0.00    +0.211 HD
ENDBRANCH  14  15
ENDBRANCH   6  14
ENDBRANCH   1   7
BRANCH   1  17
ATOM     17  C   UNL     1       0.907   2.485   0.488  0.00  0.00    +0.150 C 
BRANCH  17  18
ATOM     18  C   UNL     1      -0.212   2.572   1.518  0.00  0.00    +0.058 C 
BRANCH  18  20
ATOM     19  C   UNL     1      -2.620   2.882   0.879  0.00  0.00    -0.030 C 
ATOM     20  C   UNL     1      -1.377   3.372   1.008  0.00  0.00    -0.028 C 
BRANCH  19  21
ATOM     21  C   UNL     1      -3.002   1.475   1.230  0.00  0.00    +0.033 C 
BRANCH  21  24
ATOM     22  O   UNL     1      -4.503   1.799  -1.297  0.00  0.00    -0.296 OA
ATOM     23  C   UNL     1      -3.008  -0.934   0.387  0.00  0.00    +0.019 C 
ATOM     24  C   UNL     1      -2.891   0.556   0.027  0.00  0.00    +0.062 C 
ATOM     25  C   UNL     1      -3.529  -1.576  -0.902  0.00  0.00    +0.009 C 
ATOM     26  C   UNL     1      -4.592  -0.607  -1.404  0.00  0.00    +0.065 C 
ATOM     27  C   UNL     1      -4.050   0.720  -0.936  0.00  0.00    +0.151 C 
BRANCH  23  28
ATOM     28  C   UNL     1      -1.693  -1.546   0.845  0.00  0.00    +0.110 C 
BRANCH  28  30
ATOM     29  O   UNL     1      -2.835  -3.595   1.506  0.00  0.00    -0.250 OA
ATOM     30  C   UNL     1      -1.826  -3.020   1.127  0.00  0.00    +0.314 C 
BRANCH  30  31
ATOM     31  O   UNL     1      -0.643  -3.644   0.895  0.00  0.00    -0.480 OA
ATOM     32  H   UNL     1       0.099  -3.151   0.605  0.00  0.00    +0.295 HD
ENDBRANCH  30  31
ENDBRANCH  28  30
ENDBRANCH  23  28
ENDBRANCH  21  24
ENDBRANCH  19  21
ENDBRANCH  18  20
ENDBRANCH  17  18
ENDBRANCH   1  17
TORSDOF 14
