REMARK  Name = 133562417
REMARK  6 active torsions:
REMARK  status: ('A' for Active; 'I' for Inactive)
REMARK    1  A    between atoms: C_7  and  C_29
REMARK    2  A    between atoms: C_8  and  O_25
REMARK    3  A    between atoms: C_9  and  O_23
REMARK    4  A    between atoms: O_25  and  C_27
REMARK    5  A    between atoms: C_29  and  O_30
REMARK    6  A    between atoms: O_30  and  C_32
REMARK                            x       y       z     vdW  Elec       q    Type
REMARK                         _______ _______ _______ _____ _____    ______ ____
ROOT
ATOM      1  O   UNL     1       0.202   0.842  -2.231  0.00  0.00    -0.448 OA
ATOM      2  O   UNL     1       2.571   2.360   0.938  0.00  0.00    -0.291 OA
ATOM      3  O   UNL     1       1.402   2.689  -1.770  0.00  0.00    -0.250 OA
ATOM      4  C   UNL     1      -0.181  -0.612  -0.241  0.00  0.00    +0.084 C 
ATOM      5  C   UNL     1       1.377  -0.520   0.099  0.00  0.00    +0.051 C 
ATOM      6  C   UNL     1       2.080   0.625  -0.723  0.00  0.00    +0.147 C 
ATOM      7  C   UNL     1      -0.993   0.586   0.485  0.00  0.00    +0.051 C 
ATOM      8  C   UNL     1      -0.847  -1.979   0.134  0.00  0.00    +0.172 C 
ATOM      9  C   UNL     1       2.202  -1.847  -0.036  0.00  0.00    +0.112 C 
ATOM     10  C   UNL     1      -1.343   0.343   2.021  0.00  0.00    +0.004 C 
ATOM     11  C   UNL     1       3.223   0.100  -1.630  0.00  0.00    +0.023 C 
ATOM     12  C   UNL     1       4.256  -0.390  -0.621  0.00  0.00    +0.029 C 
ATOM     13  C   UNL     1      -0.204  -0.467  -1.793  0.00  0.00    +0.212 C 
ATOM     14  C   UNL     1       3.733  -1.656   0.062  0.00  0.00    +0.034 C 
ATOM     15  C   UNL     1      -1.096  -2.171   1.629  0.00  0.00    +0.044 C 
ATOM     16  C   UNL     1      -1.950  -1.058   2.227  0.00  0.00    +0.004 C 
ATOM     17  C   UNL     1       2.930   1.403   0.273  0.00  0.00    +0.178 C 
ATOM     18  C   UNL     1       1.196   1.493  -1.588  0.00  0.00    +0.323 C 
ATOM     19  C   UNL     1       4.279   0.770   0.340  0.00  0.00    +0.013 C 
ATOM     20  C   UNL     1      -2.371   1.380   2.549  0.00  0.00    +0.000 C 
ATOM     21  C   UNL     1      -0.111   0.513   2.943  0.00  0.00    +0.000 C 
ATOM     22  C   UNL     1       5.286   1.234   1.080  0.00  0.00    -0.002 C 
ENDROOT
BRANCH   9  23
ATOM     23  O   UNL     1       1.851  -2.774   0.989  0.00  0.00    -0.384 OA
ATOM     24  H   UNL     1       0.894  -2.929   0.970  0.00  0.00    +0.210 HD
ENDBRANCH   9  23
BRANCH   8  25
ATOM     25  O   UNL     1      -2.126  -2.124  -0.498  0.00  0.00    -0.452 OA
BRANCH  25  27
ATOM     26  O   UNL     1      -1.842  -4.416  -0.556  0.00  0.00    -0.250 OA
ATOM     27  C   UNL     1      -2.492  -3.405  -0.785  0.00  0.00    +0.317 C 
ATOM     28  C   UNL     1      -3.840  -3.403  -1.438  0.00  0.00    +0.121 C 
ENDBRANCH  25  27
ENDBRANCH   8  25
BRANCH   7  29
ATOM     29  C   UNL     1      -2.272   0.984  -0.298  0.00  0.00    +0.209 C 
BRANCH  29  30
ATOM     30  O   UNL     1      -2.647   2.273   0.126  0.00  0.00    -0.448 OA
BRANCH  30  32
ATOM     31  O   UNL     1      -4.458   2.253  -1.309  0.00  0.00    -0.250 OA
ATOM     32  C   UNL     1      -3.770   2.804  -0.461  0.00  0.00    +0.318 C 
ATOM     33  C   UNL     1      -4.046   4.173   0.085  0.00  0.00    +0.121 C 
ENDBRANCH  30  32
ENDBRANCH  29  30
ENDBRANCH   7  29
TORSDOF 6
