REMARK  Name = 133599
REMARK  7 active torsions:
REMARK  status: ('A' for Active; 'I' for Inactive)
REMARK    1  A    between atoms: C_1  and  N_5
REMARK    2  A    between atoms: C_1  and  S_12
REMARK    3  A    between atoms: C_1  and  C_14
REMARK    4  A    between atoms: C_14  and  N_16
REMARK    5  A    between atoms: N_17  and  N_21
REMARK    6  A    between atoms: N_17  and  C_22
REMARK    7  A    between atoms: C_22  and  C_24
REMARK                            x       y       z     vdW  Elec       q    Type
REMARK                         _______ _______ _______ _____ _____    ______ ____
ROOT
ATOM      1  C   UNL     1       0.998   1.723  -0.161  0.00  0.00    +0.149 C 
ENDROOT
BRANCH   1   5
ATOM      2  F   UNL     1       4.386  -1.150   1.588  0.00  0.00    -0.198 F 
ATOM      3  O   UNL     1       0.760  -0.152  -2.298  0.00  0.00    -0.252 OA
ATOM      4  O   UNL     1       4.052  -2.848  -0.509  0.00  0.00    -0.267 OA
ATOM      5  N   UNL     1       1.772   0.514  -0.299  0.00  0.00    -0.230 N 
ATOM      6  N   UNL     1       2.399  -1.493  -1.408  0.00  0.00    -0.234 N 
ATOM      7  C   UNL     1       1.579  -0.354  -1.399  0.00  0.00    +0.314 C 
ATOM      8  C   UNL     1       2.713   0.219   0.676  0.00  0.00    +0.104 C 
ATOM      9  C   UNL     1       3.475  -0.872   0.638  0.00  0.00    +0.208 C 
ATOM     10  C   UNL     1       3.356  -1.840  -0.463  0.00  0.00    +0.282 C 
ATOM     11  H   UNL     1       2.284  -2.112  -2.165  0.00  0.00    +0.159 HD
ENDBRANCH   1   5
BRANCH   1  12
ATOM     12  S   UNL     1       2.130   3.157  -0.273  0.00  0.00    -0.118 S 
ATOM     13  C   UNL     1       0.922   4.504  -0.255  0.00  0.00    +0.071 C 
ENDBRANCH   1  12
BRANCH   1  14
ATOM     14  C   UNL     1       0.164   1.700   1.122  0.00  0.00    +0.122 C 
BRANCH  14  16
ATOM     15  O   UNL     1      -2.487   1.839   0.180  0.00  0.00    -0.251 OA
ATOM     16  N   UNL     1      -0.796   0.628   1.161  0.00  0.00    -0.285 N 
ATOM     17  N   UNL     1      -2.915  -0.358   0.778  0.00  0.00    -0.163 N 
ATOM     18  C   UNL     1      -2.095   0.776   0.672  0.00  0.00    +0.320 C 
ATOM     19  H   UNL     1      -0.528  -0.237   1.545  0.00  0.00    +0.151 HD
BRANCH  17  21
ATOM     20  O   UNL     1      -3.206  -2.535   1.411  0.00  0.00    -0.078 OA
ATOM     21  N   UNL     1      -2.382  -1.615   1.378  0.00  0.00    +0.054 NA
ENDBRANCH  17  21
BRANCH  17  22
ATOM     22  C   UNL     1      -4.294  -0.344   0.305  0.00  0.00    +0.134 C 
BRANCH  22  24
ATOM     23 CL   UNL     1      -6.113  -0.733  -1.693  0.00  0.00    -0.112 Cl
ATOM     24  C   UNL     1      -4.417  -0.767  -1.149  0.00  0.00    +0.118 C 
ENDBRANCH  22  24
ENDBRANCH  17  22
ENDBRANCH  14  16
ENDBRANCH   1  14
TORSDOF 7
