133561756
  -OEChem-03292013293D

 62 66  0     1  0  0  0  0  0999 V2000
    0.7350    1.9359   -1.7736 O   0  0  0  0  0  0  0  0  0  0  0  0
    2.0135   -2.8823   -1.0604 O   0  0  0  0  0  0  0  0  0  0  0  0
   -0.8494   -3.0584   -0.4471 O   0  0  0  0  0  0  0  0  0  0  0  0
   -3.3038   -2.5490    0.4391 O   0  0  0  0  0  0  0  0  0  0  0  0
   -5.0307    1.6610    2.0899 O   0  0  0  0  0  0  0  0  0  0  0  0
    6.2228    1.8432   -0.3914 O   0  0  0  0  0  0  0  0  0  0  0  0
   -0.0517   -0.7852   -0.5270 C   0  0  2  0  0  0  0  0  0  0  0  0
    1.1494   -1.0743    0.4936 C   0  0  2  0  0  0  0  0  0  0  0  0
   -0.6541    0.6311   -0.1939 C   0  0  2  0  0  0  0  0  0  0  0  0
   -2.1190    0.8788   -0.7470 C   0  0  2  0  0  0  0  0  0  0  0  0
    2.1653    0.0607    0.4053 C   0  0  0  0  0  0  0  0  0  0  0  0
    0.4102    1.7483   -0.4037 C   0  0  1  0  0  0  0  0  0  0  0  0
    2.0572   -2.3348    0.2469 C   0  0  2  0  0  0  0  0  0  0  0  0
    1.6933    1.4871    0.4055 C   0  0  0  0  0  0  0  0  0  0  0  0
   -1.1247   -1.8597   -0.3425 C   0  0  0  0  0  0  0  0  0  0  0  0
   -3.0303   -0.2412   -0.1573 C   0  0  0  0  0  0  0  0  0  0  0  0
    0.4310   -0.8814   -2.0041 C   0  0  0  0  0  0  0  0  0  0  0  0
    3.5020   -1.8837    0.4947 C   0  0  0  0  0  0  0  0  0  0  0  0
    0.6815   -1.1628    1.9762 C   0  0  0  0  0  0  0  0  0  0  0  0
    3.4314   -0.3908    0.3908 C   0  0  0  0  0  0  0  0  0  0  0  0
   -2.5340   -1.4932   -0.0047 C   0  0  0  0  0  0  0  0  0  0  0  0
   -4.4808    0.1681    0.2333 C   0  0  0  0  0  0  0  0  0  0  0  0
   -2.2584    0.8693   -2.2813 C   0  0  0  0  0  0  0  0  0  0  0  0
   -2.5525    2.2688   -0.2976 C   0  0  0  0  0  0  0  0  0  0  0  0
   -4.3862    1.4628    1.0605 C   0  0  0  0  0  0  0  0  0  0  0  0
    4.6643    0.4000    0.3439 C   0  0  0  0  0  0  0  0  0  0  0  0
   -3.5414    2.5566    0.5492 C   0  0  0  0  0  0  0  0  0  0  0  0
   -5.3494    0.4405   -1.0120 C   0  0  0  0  0  0  0  0  0  0  0  0
   -5.2740   -0.8462    1.0959 C   0  0  0  0  0  0  0  0  0  0  0  0
    5.7220    0.4309    1.2839 C   0  0  0  0  0  0  0  0  0  0  0  0
    5.0167    1.2761   -0.6564 C   0  0  0  0  0  0  0  0  0  0  0  0
    6.6452    1.3236    0.7911 C   0  0  0  0  0  0  0  0  0  0  0  0
   -0.8212    0.6506    0.8929 H   0  0  0  0  0  0  0  0  0  0  0  0
    0.0188    2.7071   -0.0494 H   0  0  0  0  0  0  0  0  0  0  0  0
    1.7893   -3.1538    0.9252 H   0  0  0  0  0  0  0  0  0  0  0  0
    1.4882    1.7520    1.4512 H   0  0  0  0  0  0  0  0  0  0  0  0
    2.4814    2.1642    0.0620 H   0  0  0  0  0  0  0  0  0  0  0  0
    1.4768   -0.5796   -2.1209 H   0  0  0  0  0  0  0  0  0  0  0  0
   -0.1298   -0.2570   -2.6934 H   0  0  0  0  0  0  0  0  0  0  0  0
    0.3303   -1.8942   -2.4093 H   0  0  0  0  0  0  0  0  0  0  0  0
    4.2046   -2.3053   -0.2322 H   0  0  0  0  0  0  0  0  0  0  0  0
    3.8242   -2.1635    1.5045 H   0  0  0  0  0  0  0  0  0  0  0  0
   -0.0592   -1.9577    2.1117 H   0  0  0  0  0  0  0  0  0  0  0  0
    0.2507   -0.2327    2.3557 H   0  0  0  0  0  0  0  0  0  0  0  0
    1.5202   -1.3962    2.6449 H   0  0  0  0  0  0  0  0  0  0  0  0
   -3.2150    1.2858   -2.6136 H   0  0  0  0  0  0  0  0  0  0  0  0
   -2.2182   -0.1433   -2.6962 H   0  0  0  0  0  0  0  0  0  0  0  0
   -1.4937    1.4817   -2.7678 H   0  0  0  0  0  0  0  0  0  0  0  0
   -1.9971    3.1145   -0.6985 H   0  0  0  0  0  0  0  0  0  0  0  0
    1.3692    2.6705   -1.8321 H   0  0  0  0  0  0  0  0  0  0  0  0
    2.5840   -3.6697   -1.0730 H   0  0  0  0  0  0  0  0  0  0  0  0
   -3.7565    3.5717    0.8590 H   0  0  0  0  0  0  0  0  0  0  0  0
   -6.4018    0.5798   -0.7346 H   0  0  0  0  0  0  0  0  0  0  0  0
   -5.3009   -0.3955   -1.7187 H   0  0  0  0  0  0  0  0  0  0  0  0
   -6.2293   -0.4236    1.4335 H   0  0  0  0  0  0  0  0  0  0  0  0
   -5.0651    1.3542   -1.5406 H   0  0  0  0  0  0  0  0  0  0  0  0
   -4.7222   -1.1267    2.0007 H   0  0  0  0  0  0  0  0  0  0  0  0
   -5.5318   -1.7493    0.5323 H   0  0  0  0  0  0  0  0  0  0  0  0
   -2.7424   -3.3428    0.4614 H   0  0  0  0  0  0  0  0  0  0  0  0
    5.8065   -0.1254    2.2069 H   0  0  0  0  0  0  0  0  0  0  0  0
    4.5480    1.5927   -1.5775 H   0  0  0  0  0  0  0  0  0  0  0  0
    7.6021    1.6803    1.1431 H   0  0  0  0  0  0  0  0  0  0  0  0
  1 12  1  0  0  0  0
  1 50  1  0  0  0  0
  2 13  1  0  0  0  0
  2 51  1  0  0  0  0
  3 15  2  0  0  0  0
  4 21  1  0  0  0  0
  4 59  1  0  0  0  0
  5 25  2  0  0  0  0
  6 31  1  0  0  0  0
  6 32  1  0  0  0  0
  7  8  1  0  0  0  0
  7  9  1  0  0  0  0
  7 15  1  0  0  0  0
  7 17  1  0  0  0  0
  8 11  1  0  0  0  0
  8 13  1  0  0  0  0
  8 19  1  0  0  0  0
  9 10  1  0  0  0  0
  9 12  1  0  0  0  0
  9 33  1  0  0  0  0
 10 16  1  0  0  0  0
 10 23  1  0  0  0  0
 10 24  1  0  0  0  0
 11 14  1  0  0  0  0
 11 20  2  0  0  0  0
 12 14  1  0  0  0  0
 12 34  1  0  0  0  0
 13 18  1  0  0  0  0
 13 35  1  0  0  0  0
 14 36  1  0  0  0  0
 14 37  1  0  0  0  0
 15 21  1  0  0  0  0
 16 21  2  0  0  0  0
 16 22  1  0  0  0  0
 17 38  1  0  0  0  0
 17 39  1  0  0  0  0
 17 40  1  0  0  0  0
 18 20  1  0  0  0  0
 18 41  1  0  0  0  0
 18 42  1  0  0  0  0
 19 43  1  0  0  0  0
 19 44  1  0  0  0  0
 19 45  1  0  0  0  0
 20 26  1  0  0  0  0
 22 25  1  0  0  0  0
 22 28  1  0  0  0  0
 22 29  1  0  0  0  0
 23 46  1  0  0  0  0
 23 47  1  0  0  0  0
 23 48  1  0  0  0  0
 24 27  2  0  0  0  0
 24 49  1  0  0  0  0
 25 27  1  0  0  0  0
 26 30  1  0  0  0  0
 26 31  2  0  0  0  0
 27 52  1  0  0  0  0
 28 53  1  0  0  0  0
 28 54  1  0  0  0  0
 28 56  1  0  0  0  0
 29 55  1  0  0  0  0
 29 57  1  0  0  0  0
 29 58  1  0  0  0  0
 30 32  2  0  0  0  0
 30 60  1  0  0  0  0
 31 61  1  0  0  0  0
 32 62  1  0  0  0  0
M  END
> <PUBCHEM_COMPOUND_CID>
133561756

> <PUBCHEM_CONFORMER_RMSD>
0.8

> <PUBCHEM_CONFORMER_DIVERSEORDER>
3
1
2

> <PUBCHEM_MMFF94_PARTIAL_CHARGES>
34
1 -0.68
10 0.28
11 -0.28
12 0.28
13 0.28
14 0.14
15 0.49
16 -0.28
18 0.14
2 -0.68
20 -0.09
21 0.09
22 0.2
24 -0.29
25 0.49
26 -0.05
27 -0.14
3 -0.57
30 -0.15
31 -0.01
32 -0.01
4 -0.53
49 0.15
5 -0.57
50 0.4
51 0.4
52 0.15
59 0.45
6 -0.28
60 0.15
61 0.15
62 0.15
7 0.06
8 0.14

> <PUBCHEM_EFFECTIVE_ROTOR_COUNT>
2

> <PUBCHEM_PHARMACOPHORE_FEATURES>
14
1 1 acceptor
1 1 donor
1 2 acceptor
1 2 donor
1 3 acceptor
1 4 donor
1 5 acceptor
1 6 acceptor
3 22 28 29 hydrophobe
5 6 26 30 31 32 rings
5 8 11 13 18 20 rings
6 10 16 22 24 25 27 rings
6 7 8 9 11 12 14 rings
6 7 9 10 15 16 21 rings

> <PUBCHEM_HEAVY_ATOM_COUNT>
32

> <PUBCHEM_ATOM_DEF_STEREO_COUNT>
6

> <PUBCHEM_ATOM_UDEF_STEREO_COUNT>
0

> <PUBCHEM_BOND_DEF_STEREO_COUNT>
0

> <PUBCHEM_BOND_UDEF_STEREO_COUNT>
0

> <PUBCHEM_ISOTOPIC_ATOM_COUNT>
0

> <PUBCHEM_COMPONENT_COUNT>
1

> <PUBCHEM_CACTVS_TAUTO_COUNT>
2

> <PUBCHEM_CONFORMER_ID>
07F5FD9C00000003

> <PUBCHEM_MMFF94_ENERGY>
126.1368

> <PUBCHEM_FEATURE_SELFOVERLAP>
71.151

> <PUBCHEM_SHAPE_FINGERPRINT>
10 15 18040432218030187984
10165383 225 18202283623387971530
10366900 7 17989194959022038641
10369192 42 18272091651781373780
10411042 1 17618781805033005894
10493431 412 18411418414671988544
10675989 125 16818808532516296869
10863032 1 18410007694083063494
10906281 52 18115322167064112394
1100329 8 18263644146119467636
11115154 58 17051576716063782143
11513181 2 17916869015216928575
11578080 2 14331753031716015641
12166972 35 12463559716668450219
12236239 1 17822005432599710640
12390115 104 18272942617329265408
12422481 6 18113331986482831652
12788726 201 17131557124597521248
13140716 1 18048037664165451867
13224815 77 17968090859328202633
13757389 114 17982460592268544614
14068700 675 17911225432733176559
14341114 176 18408045095591359811
14341114 328 18186234044147528866
14787075 74 17968095356396455528
14790565 3 18411421726340031424
14840074 17 18040722489179269836
14856354 85 18339084890291330814
14955137 171 18260557727266217084
15183329 4 10952051139152876936
15685185 35 16519648358666595684
1601671 61 18412260653790860104
17980427 23 17895479240737961030
1813 80 16877949308557376310
18222031 100 7925635527440160256
20739085 24 18192445073210245340
21421861 104 18041829607484258202
21756936 100 18130780175005649156
22393880 68 10231750051005442969
23559900 14 18339631356456279713
34934 24 18261382347616596998
350125 39 18337109076454782449
3633792 109 18335409142212453381
3680242 22 18260543412535520968
392239 28 17748830730221036448
469060 322 16877657989331155799
5104073 3 18262799549406189522
5265222 85 18055080019879483500
7808743 9 18341327868474545466

> <PUBCHEM_SHAPE_MULTIPOLES>
623.33
12.52
2.87
1.54
9.07
0.96
0.2
-6.04
-3.95
-0.28
0.13
-0.82
-0.21
-0.31

> <PUBCHEM_SHAPE_SELFOVERLAP>
1378.11

> <PUBCHEM_SHAPE_VOLUME>
327.2

> <PUBCHEM_COORDINATE_TYPE>
2
5
10

$$$$
