133554282
  -OEChem-03292013293D

 33 34  0     1  0  0  0  0  0999 V2000
   -2.8868    1.2310    0.0015 O   0  0  0  0  0  0  0  0  0  0  0  0
    1.1378    2.3686    0.0356 O   0  0  0  0  0  0  0  0  0  0  0  0
    2.4866   -2.1962   -0.0337 O   0  0  0  0  0  0  0  0  0  0  0  0
   -1.3564    2.8372    0.4432 O   0  0  0  0  0  0  0  0  0  0  0  0
    3.8239    0.0630   -1.1816 O   0  0  0  0  0  0  0  0  0  0  0  0
    3.7800    1.1956    0.7888 O   0  0  0  0  0  0  0  0  0  0  0  0
   -2.3116   -1.1494    0.1969 C   0  0  1  0  0  0  0  0  0  0  0  0
   -3.1757   -0.0944   -0.5029 C   0  0  2  0  0  0  0  0  0  0  0  0
   -0.8703   -0.7211    0.1220 C   0  0  0  0  0  0  0  0  0  0  0  0
   -0.5474    0.6415    0.1143 C   0  0  0  0  0  0  0  0  0  0  0  0
    0.1586   -1.6709    0.0752 C   0  0  0  0  0  0  0  0  0  0  0  0
   -2.7252   -1.3306    1.6614 C   0  0  0  0  0  0  0  0  0  0  0  0
   -3.0446   -0.0955   -2.0261 C   0  0  0  0  0  0  0  0  0  0  0  0
   -1.6138    1.6663    0.1950 C   0  0  0  0  0  0  0  0  0  0  0  0
    0.7902    1.0486    0.0582 C   0  0  0  0  0  0  0  0  0  0  0  0
    1.4911   -1.2635    0.0148 C   0  0  0  0  0  0  0  0  0  0  0  0
    1.8059    0.0939    0.0055 C   0  0  0  0  0  0  0  0  0  0  0  0
   -0.1449   -3.1373    0.0916 C   0  0  0  0  0  0  0  0  0  0  0  0
    3.2025    0.5131   -0.0595 C   0  0  0  0  0  0  0  0  0  0  0  0
   -2.4790   -2.0912   -0.3374 H   0  0  0  0  0  0  0  0  0  0  0  0
   -4.2297   -0.2857   -0.2670 H   0  0  0  0  0  0  0  0  0  0  0  0
   -2.6336   -0.3985    2.2306 H   0  0  0  0  0  0  0  0  0  0  0  0
   -2.1095   -2.0809    2.1683 H   0  0  0  0  0  0  0  0  0  0  0  0
   -3.7681   -1.6591    1.7265 H   0  0  0  0  0  0  0  0  0  0  0  0
   -2.0321    0.1589   -2.3549 H   0  0  0  0  0  0  0  0  0  0  0  0
   -3.7084    0.6605   -2.4598 H   0  0  0  0  0  0  0  0  0  0  0  0
   -3.3112   -1.0712   -2.4437 H   0  0  0  0  0  0  0  0  0  0  0  0
   -0.1425   -3.5317   -0.9297 H   0  0  0  0  0  0  0  0  0  0  0  0
    0.5872   -3.6911    0.6904 H   0  0  0  0  0  0  0  0  0  0  0  0
   -1.1021   -3.3871    0.5532 H   0  0  0  0  0  0  0  0  0  0  0  0
    0.3577    2.9253   -0.1109 H   0  0  0  0  0  0  0  0  0  0  0  0
    2.1587   -3.0196   -0.4293 H   0  0  0  0  0  0  0  0  0  0  0  0
    4.7620    0.3477   -1.2189 H   0  0  0  0  0  0  0  0  0  0  0  0
  1  8  1  0  0  0  0
  1 14  1  0  0  0  0
  2 15  1  0  0  0  0
  2 31  1  0  0  0  0
  3 16  1  0  0  0  0
  3 32  1  0  0  0  0
  4 14  2  0  0  0  0
  5 19  1  0  0  0  0
  5 33  1  0  0  0  0
  6 19  2  0  0  0  0
  7  8  1  0  0  0  0
  7  9  1  0  0  0  0
  7 12  1  0  0  0  0
  7 20  1  0  0  0  0
  8 13  1  0  0  0  0
  8 21  1  0  0  0  0
  9 10  1  0  0  0  0
  9 11  2  0  0  0  0
 10 14  1  0  0  0  0
 10 15  2  0  0  0  0
 11 16  1  0  0  0  0
 11 18  1  0  0  0  0
 12 22  1  0  0  0  0
 12 23  1  0  0  0  0
 12 24  1  0  0  0  0
 13 25  1  0  0  0  0
 13 26  1  0  0  0  0
 13 27  1  0  0  0  0
 15 17  1  0  0  0  0
 16 17  2  0  0  0  0
 17 19  1  0  0  0  0
 18 28  1  0  0  0  0
 18 29  1  0  0  0  0
 18 30  1  0  0  0  0
M  END
> <PUBCHEM_COMPOUND_CID>
133554282

> <PUBCHEM_CONFORMER_RMSD>
0.6

> <PUBCHEM_CONFORMER_DIVERSEORDER>
1

> <PUBCHEM_MMFF94_PARTIAL_CHARGES>
20
1 -0.43
10 0.09
11 -0.14
14 0.63
15 0.08
16 0.08
17 0.09
18 0.14
19 0.63
2 -0.53
3 -0.53
31 0.45
32 0.45
33 0.5
4 -0.57
5 -0.65
6 -0.57
7 0.14
8 0.28
9 -0.14

> <PUBCHEM_EFFECTIVE_ROTOR_COUNT>
1.6

> <PUBCHEM_PHARMACOPHORE_FEATURES>
8
1 2 donor
1 3 donor
1 4 acceptor
1 5 acceptor
1 6 acceptor
3 5 6 19 anion
6 1 7 8 9 10 14 rings
6 9 10 11 15 16 17 rings

> <PUBCHEM_HEAVY_ATOM_COUNT>
19

> <PUBCHEM_ATOM_DEF_STEREO_COUNT>
2

> <PUBCHEM_ATOM_UDEF_STEREO_COUNT>
0

> <PUBCHEM_BOND_DEF_STEREO_COUNT>
0

> <PUBCHEM_BOND_UDEF_STEREO_COUNT>
0

> <PUBCHEM_ISOTOPIC_ATOM_COUNT>
0

> <PUBCHEM_COMPONENT_COUNT>
1

> <PUBCHEM_CACTVS_TAUTO_COUNT>
47

> <PUBCHEM_CONFORMER_ID>
07F5E06A00000001

> <PUBCHEM_MMFF94_ENERGY>
67.9433

> <PUBCHEM_FEATURE_SELFOVERLAP>
40.679

> <PUBCHEM_SHAPE_FINGERPRINT>
10411042 1 17474108078362071746
10967382 1 18411138068981578386
11132069 177 18270397321125802986
11206711 2 18411418397218111893
12423570 1 17319576078237117749
13027679 85 18267591393321879017
13140716 1 17978514461762190122
13544592 271 18336255816987620569
13583140 156 17096630179710320728
14614273 12 18188202087982712757
14790565 3 18122089694971527577
15309172 13 18340495537935000651
15852999 172 17822275856615253063
16945 1 18339364174903389458
193761 8 17978511931847026338
19591789 44 18121793977814334282
20510252 161 18343306997899589992
21501502 16 18267584593945427362
22802520 49 18055935215701214470
2334 1 18338520746484778450
23402539 116 18271514369221190636
23419403 2 15037858522705170447
23493267 7 17676201385772891771
23559900 14 18341620373787193348
25 1 18189321399810351125
2748010 2 18337961090697569526
353137 74 18336538335641468377
7364860 26 18053381003087850518
7832392 63 17621314637287678627
81228 2 17621598745211977242

> <PUBCHEM_SHAPE_MULTIPOLES>
355.8
5.52
2.76
1.1
2.58
0.39
0.25
-0.73
0.8
-0.07
-0.46
-0.86
0.12
0.43

> <PUBCHEM_SHAPE_SELFOVERLAP>
774.452

> <PUBCHEM_SHAPE_VOLUME>
193.8

> <PUBCHEM_COORDINATE_TYPE>
2
5
10

$$$$
