REMARK  Name = 133562583
REMARK  4 active torsions:
REMARK  status: ('A' for Active; 'I' for Inactive)
REMARK    1  A    between atoms: C_6  and  O_25
REMARK    2  A    between atoms: C_9  and  C_22
REMARK    3  A    between atoms: C_11  and  O_27
REMARK    4  A    between atoms: C_13  and  O_29
REMARK                            x       y       z     vdW  Elec       q    Type
REMARK                         _______ _______ _______ _____ _____    ______ ____
ROOT
ATOM      1  O   UNL     1      -0.831   2.314  -1.065  0.00  0.00    -0.351 OA
ATOM      2  O   UNL     1      -3.586   0.653  -1.115  0.00  0.00    -0.351 OA
ATOM      3  O   UNL     1       5.147   0.581   1.424  0.00  0.00    -0.441 OA
ATOM      4  O   UNL     1       6.018  -1.154   0.186  0.00  0.00    -0.245 OA
ATOM      5  C   UNL     1      -1.236   1.126  -0.367  0.00  0.00    +0.169 C 
ATOM      6  C   UNL     1      -0.586  -0.172  -0.891  0.00  0.00    +0.142 C 
ATOM      7  C   UNL     1      -2.732   1.075  -0.045  0.00  0.00    +0.171 C 
ATOM      8  C   UNL     1      -0.375   2.205   0.288  0.00  0.00    +0.145 C 
ATOM      9  C   UNL     1      -3.491  -0.234   0.017  0.00  0.00    +0.147 C 
ATOM     10  C   UNL     1       1.014  -0.121  -0.881  0.00  0.00    +0.031 C 
ATOM     11  C   UNL     1      -1.219  -1.367  -0.099  0.00  0.00    +0.166 C 
ATOM     12  C   UNL     1       1.531   0.600   0.421  0.00  0.00    +0.027 C 
ATOM     13  C   UNL     1      -2.746  -1.504  -0.312  0.00  0.00    +0.167 C 
ATOM     14  C   UNL     1       1.102   2.071   0.440  0.00  0.00    +0.036 C 
ATOM     15  C   UNL     1       1.649  -1.557  -0.929  0.00  0.00    +0.008 C 
ATOM     16  C   UNL     1       1.534   0.617  -2.163  0.00  0.00    +0.003 C 
ATOM     17  C   UNL     1       3.008   0.407   0.629  0.00  0.00    +0.001 C 
ATOM     18  C   UNL     1       3.190  -1.560  -0.920  0.00  0.00    +0.032 C 
ATOM     19  C   UNL     1       3.714  -0.549   0.029  0.00  0.00    +0.049 C 
ATOM     20  C   UNL     1       3.851   1.184   1.556  0.00  0.00    +0.231 C 
ATOM     21  C   UNL     1       5.086  -0.444   0.521  0.00  0.00    +0.337 C 
ENDROOT
BRANCH   9  22
ATOM     22  C   UNL     1      -4.766  -0.307   0.797  0.00  0.00    +0.030 C 
ATOM     23  C   UNL     1      -4.502  -0.592   2.287  0.00  0.00    +0.003 C 
ATOM     24  C   UNL     1      -5.589   0.959   0.658  0.00  0.00    +0.003 C 
ENDBRANCH   9  22
BRANCH   6  25
ATOM     25  O   UNL     1      -1.009  -0.377  -2.254  0.00  0.00    -0.382 OA
ATOM     26  H   UNL     1      -0.652   0.331  -2.813  0.00  0.00    +0.210 HD
ENDBRANCH   6  25
BRANCH  11  27
ATOM     27  O   UNL     1      -0.973  -1.254   1.301  0.00  0.00    -0.379 OA
ATOM     28  H   UNL     1      -0.019  -1.167   1.455  0.00  0.00    +0.211 HD
ENDBRANCH  11  27
BRANCH  13  29
ATOM     29  O   UNL     1      -3.201  -2.599   0.487  0.00  0.00    -0.379 OA
ATOM     30  H   UNL     1      -4.158  -2.708   0.372  0.00  0.00    +0.211 HD
ENDBRANCH  13  29
TORSDOF 4
