REMARK  Name = 133556242
REMARK  8 active torsions:
REMARK  status: ('A' for Active; 'I' for Inactive)
REMARK    1  A    between atoms: C_8  and  C_24
REMARK    2  A    between atoms: C_12  and  O_26
REMARK    3  A    between atoms: O_26  and  C_28
REMARK    4  A    between atoms: C_29  and  O_33
REMARK    5  A    between atoms: C_30  and  O_35
REMARK    6  A    between atoms: C_31  and  O_37
REMARK    7  A    between atoms: C_32  and  C_39
REMARK    8  A    between atoms: C_39  and  O_40
REMARK                            x       y       z     vdW  Elec       q    Type
REMARK                         _______ _______ _______ _____ _____    ______ ____
ROOT
ATOM      1  O   UNL     1       2.173   0.066  -1.567  0.00  0.00    -0.449 OA
ATOM      2  O   UNL     1      -0.930  -2.538  -2.287  0.00  0.00    -0.270 OA
ATOM      3  N   UNL     1      -2.369  -1.517  -0.779  0.00  0.00    -0.272 N 
ATOM      4  N   UNL     1      -4.566   0.643   1.366  0.00  0.00    -0.355 N 
ATOM      5  C   UNL     1      -0.242   0.247   0.086  0.00  0.00    +0.042 C 
ATOM      6  C   UNL     1      -2.570  -0.572   0.357  0.00  0.00    +0.114 C 
ATOM      7  C   UNL     1      -1.705   0.676   0.185  0.00  0.00    +0.031 C 
ATOM      8  C   UNL     1       0.755   1.426  -0.021  0.00  0.00    +0.097 C 
ATOM      9  C   UNL     1      -0.053  -0.727  -1.038  0.00  0.00    +0.069 C 
ATOM     10  C   UNL     1      -4.023  -0.221   0.455  0.00  0.00    +0.048 A 
ATOM     11  C   UNL     1      -3.468  -2.460  -1.085  0.00  0.00    +0.099 C 
ATOM     12  C   UNL     1       2.156   0.898  -0.399  0.00  0.00    +0.294 C 
ATOM     13  C   UNL     1      -5.049  -0.731  -0.312  0.00  0.00    -0.006 A 
ATOM     14  C   UNL     1      -1.140  -1.681  -1.428  0.00  0.00    +0.248 C 
ATOM     15  C   UNL     1      -4.787  -1.730  -1.379  0.00  0.00    +0.049 C 
ATOM     16  C   UNL     1       1.082  -0.740  -1.754  0.00  0.00    +0.175 C 
ATOM     17  C   UNL     1      -6.261  -0.132   0.126  0.00  0.00    +0.013 A 
ATOM     18  C   UNL     1      -5.929   0.727   1.179  0.00  0.00    +0.056 A 
ATOM     19  C   UNL     1      -7.611  -0.236  -0.263  0.00  0.00    +0.001 C 
ATOM     20  C   UNL     1      -6.886   1.488   1.860  0.00  0.00    +0.017 C 
ATOM     21  C   UNL     1      -8.577   0.521   0.410  0.00  0.00    +0.000 C 
ATOM     22  C   UNL     1      -8.218   1.369   1.454  0.00  0.00    +0.001 C 
ATOM     23  H   UNL     1      -4.058   1.133   2.053  0.00  0.00    +0.166 HD
ENDROOT
BRANCH   8  24
ATOM     24  C   UNL     1       0.333   2.496  -0.989  0.00  0.00    -0.020 C 
ATOM     25  C   UNL     1       0.092   3.766  -0.643  0.00  0.00    -0.005 C 
ENDBRANCH   8  24
BRANCH  12  26
ATOM     26  O   UNL     1       2.777   0.239   0.706  0.00  0.00    -0.293 OA
BRANCH  26  28
ATOM     27  O   UNL     1       4.895   0.909  -0.007  0.00  0.00    -0.326 OA
ATOM     28  C   UNL     1       4.091  -0.206   0.369  0.00  0.00    +0.268 C 
ATOM     29  C   UNL     1       4.681  -0.904   1.595  0.00  0.00    +0.197 C 
ATOM     30  C   UNL     1       6.145  -1.280   1.371  0.00  0.00    +0.172 C 
ATOM     31  C   UNL     1       6.941  -0.098   0.816  0.00  0.00    +0.169 C 
ATOM     32  C   UNL     1       6.220   0.528  -0.381  0.00  0.00    +0.176 C 
BRANCH  29  33
ATOM     33  O   UNL     1       3.921  -2.086   1.846  0.00  0.00    -0.378 OA
ATOM     34  H   UNL     1       2.991  -1.848   1.989  0.00  0.00    +0.211 HD
ENDBRANCH  29  33
BRANCH  30  35
ATOM     35  O   UNL     1       6.734  -1.664   2.615  0.00  0.00    -0.379 OA
ATOM     36  H   UNL     1       6.244  -2.414   2.986  0.00  0.00    +0.211 HD
ENDBRANCH  30  35
BRANCH  31  37
ATOM     37  O   UNL     1       8.230  -0.548   0.406  0.00  0.00    -0.379 OA
ATOM     38  H   UNL     1       8.689  -0.946   1.163  0.00  0.00    +0.211 HD
ENDBRANCH  31  37
BRANCH  32  39
ATOM     39  C   UNL     1       6.936   1.779  -0.880  0.00  0.00    +0.169 C 
BRANCH  39  40
ATOM     40  O   UNL     1       6.222   2.294  -1.989  0.00  0.00    -0.379 OA
ATOM     41  H   UNL     1       6.666   3.091  -2.317  0.00  0.00    +0.211 HD
ENDBRANCH  39  40
ENDBRANCH  32  39
ENDBRANCH  26  28
ENDBRANCH  12  26
TORSDOF 8
