REMARK  Name = 133561827
REMARK  12 active torsions:
REMARK  status: ('A' for Active; 'I' for Inactive)
REMARK    1  A    between atoms: C_3  and  C_30
REMARK    2  A    between atoms: C_6  and  O_14
REMARK    3  A    between atoms: C_10  and  O_12
REMARK    4  A    between atoms: O_14  and  C_20
REMARK    5  A    between atoms: C_16  and  O_21
REMARK    6  A    between atoms: C_17  and  O_23
REMARK    7  A    between atoms: C_18  and  O_25
REMARK    8  A    between atoms: C_19  and  C_27
REMARK    9  A    between atoms: C_27  and  O_28
REMARK   10  A    between atoms: C_30  and  C_31
REMARK   11  A    between atoms: C_31  and  C_32
REMARK   12  A    between atoms: C_37  and  O_38
REMARK                            x       y       z     vdW  Elec       q    Type
REMARK                         _______ _______ _______ _____ _____    ______ ____
ROOT
ATOM      1  O   UNL     1       2.089   2.009   0.301  0.00  0.00    -0.449 OA
ATOM      2  O   UNL     1       1.169   3.976   0.945  0.00  0.00    -0.245 OA
ATOM      3  C   UNL     1       1.871   0.610   0.011  0.00  0.00    +0.174 C 
ATOM      4  C   UNL     1       0.870   0.468  -1.126  0.00  0.00    +0.070 C 
ATOM      5  C   UNL     1      -0.384   1.183  -0.722  0.00  0.00    -0.006 C 
ATOM      6  C   UNL     1      -2.792   1.435  -0.783  0.00  0.00    +0.144 C 
ATOM      7  C   UNL     1      -0.292   2.334   0.070  0.00  0.00    +0.106 C 
ATOM      8  C   UNL     1      -1.639   0.744  -1.156  0.00  0.00    +0.033 C 
ATOM      9  C   UNL     1      -2.696   2.575   0.014  0.00  0.00    +0.074 C 
ATOM     10  C   UNL     1      -1.448   3.030   0.439  0.00  0.00    +0.143 C 
ATOM     11  C   UNL     1       1.034   2.849   0.486  0.00  0.00    +0.344 C 
ENDROOT
BRANCH  10  12
ATOM     12  O   UNL     1      -1.415   4.147   1.219  0.00  0.00    -0.505 OA
ATOM     13  H   UNL     1      -0.594   4.483   1.523  0.00  0.00    +0.292 HD
ENDBRANCH  10  12
BRANCH   6  14
ATOM     14  O   UNL     1      -4.018   0.997  -1.204  0.00  0.00    -0.450 OA
BRANCH  14  20
ATOM     15  O   UNL     1      -4.421  -0.404   0.618  0.00  0.00    -0.316 OA
ATOM     16  C   UNL     1      -6.329  -1.943  -0.878  0.00  0.00    +0.173 C 
ATOM     17  C   UNL     1      -6.191  -2.058   0.641  0.00  0.00    +0.169 C 
ATOM     18  C   UNL     1      -5.782  -0.608  -1.383  0.00  0.00    +0.210 C 
ATOM     19  C   UNL     1      -4.769  -1.708   1.085  0.00  0.00    +0.177 C 
ATOM     20  C   UNL     1      -4.396  -0.320  -0.805  0.00  0.00    +0.318 C 
BRANCH  16  21
ATOM     21  O   UNL     1      -7.716  -2.042  -1.204  0.00  0.00    -0.379 OA
ATOM     22  H   UNL     1      -8.064  -2.889  -0.884  0.00  0.00    +0.211 HD
ENDBRANCH  16  21
BRANCH  17  23
ATOM     23  O   UNL     1      -6.495  -3.392   1.041  0.00  0.00    -0.379 OA
ATOM     24  H   UNL     1      -7.396  -3.617   0.761  0.00  0.00    +0.211 HD
ENDBRANCH  17  23
BRANCH  18  25
ATOM     25  O   UNL     1      -5.673  -0.648  -2.805  0.00  0.00    -0.377 OA
ATOM     26  H   UNL     1      -6.545  -0.829  -3.191  0.00  0.00    +0.211 HD
ENDBRANCH  18  25
BRANCH  19  27
ATOM     27  C   UNL     1      -4.637  -1.703   2.604  0.00  0.00    +0.169 C 
BRANCH  27  28
ATOM     28  O   UNL     1      -3.299  -1.384   2.939  0.00  0.00    -0.379 OA
ATOM     29  H   UNL     1      -3.200  -1.377   3.904  0.00  0.00    +0.211 HD
ENDBRANCH  27  28
ENDBRANCH  19  27
ENDBRANCH  14  20
ENDBRANCH   6  14
BRANCH   3  30
ATOM     30  C   UNL     1       3.217   0.001  -0.356  0.00  0.00    +0.049 C 
BRANCH  30  31
ATOM     31  C   UNL     1       4.209   0.103   0.803  0.00  0.00    +0.030 C 
BRANCH  31  32
ATOM     32  C   UNL     1       5.535  -0.522   0.456  0.00  0.00    -0.022 C 
ATOM     33  C   UNL     1       5.760  -1.873   0.722  0.00  0.00    -0.001 C 
ATOM     34  C   UNL     1       6.538   0.249  -0.132  0.00  0.00    -0.001 C 
ATOM     35  C   UNL     1       6.988  -2.452   0.400  0.00  0.00    +0.037 C 
ATOM     36  C   UNL     1       7.766  -0.330  -0.453  0.00  0.00    +0.037 C 
ATOM     37  C   UNL     1       7.991  -1.680  -0.187  0.00  0.00    +0.139 C 
BRANCH  37  38
ATOM     38  O   UNL     1       9.188  -2.245  -0.501  0.00  0.00    -0.471 OA
ATOM     39  C   UNL     1      10.168  -1.399  -1.099  0.00  0.00    +0.252 C 
ENDBRANCH  37  38
ENDBRANCH  31  32
ENDBRANCH  30  31
ENDBRANCH   3  30
TORSDOF 12
