133561980
  -OEChem-03292013293D

 62 64  0     1  0  0  0  0  0999 V2000
   -2.3504    1.7465   -0.0465 O   0  0  0  0  0  0  0  0  0  0  0  0
    0.9382    2.7488   -0.0304 O   0  0  0  0  0  0  0  0  0  0  0  0
   -1.3813   -2.4153    0.2469 O   0  0  0  0  0  0  0  0  0  0  0  0
   -2.9973   -0.9535   -0.5555 O   0  0  0  0  0  0  0  0  0  0  0  0
    3.2001   -1.8251    0.0142 O   0  0  0  0  0  0  0  0  0  0  0  0
    1.3239    3.9990    1.8735 O   0  0  0  0  0  0  0  0  0  0  0  0
   -4.1847   -1.7381    1.2594 O   0  0  0  0  0  0  0  0  0  0  0  0
    4.9555   -2.5464    1.3252 O   0  0  0  0  0  0  0  0  0  0  0  0
   -0.9923    1.3448   -0.2717 C   0  0  2  0  0  0  0  0  0  0  0  0
   -0.7419   -0.1348   -0.4752 C   0  0  1  0  0  0  0  0  0  0  0  0
    0.6582   -0.3283    0.1611 C   0  0  1  0  0  0  0  0  0  0  0  0
    0.0030    1.9417    0.6772 C   0  0  1  0  0  0  0  0  0  0  0  0
   -1.7582    2.1738   -1.2770 C   0  0  0  0  0  0  0  0  0  0  0  0
    0.7056    0.7241    1.2847 C   0  0  0  0  0  0  0  0  0  0  0  0
   -1.7854   -1.0422    0.1961 C   0  0  2  0  0  0  0  0  0  0  0  0
    0.9010   -1.7290    0.6390 C   0  0  0  0  0  0  0  0  0  0  0  0
   -0.0856   -2.6355    0.6176 C   0  0  0  0  0  0  0  0  0  0  0  0
    2.2928   -2.0806    1.0704 C   0  0  0  0  0  0  0  0  0  0  0  0
    1.5277    3.7464    0.6938 C   0  0  0  0  0  0  0  0  0  0  0  0
   -4.1314   -1.3365    0.1051 C   0  0  0  0  0  0  0  0  0  0  0  0
    2.4816    4.5089   -0.1750 C   0  0  0  0  0  0  0  0  0  0  0  0
   -5.3137   -1.2219   -0.8333 C   0  0  0  0  0  0  0  0  0  0  0  0
    4.5197   -2.1035    0.2713 C   0  0  0  0  0  0  0  0  0  0  0  0
   -6.4323   -0.3203   -0.2882 C   0  0  0  0  0  0  0  0  0  0  0  0
    5.3591   -1.7417   -0.9355 C   0  0  0  0  0  0  0  0  0  0  0  0
   -5.9320    1.1054   -0.0424 C   0  0  0  0  0  0  0  0  0  0  0  0
   -7.6080   -0.2943   -1.2668 C   0  0  0  0  0  0  0  0  0  0  0  0
    5.1941   -0.2767   -1.3687 C   0  0  0  0  0  0  0  0  0  0  0  0
    5.6014    0.6866   -0.2509 C   0  0  0  0  0  0  0  0  0  0  0  0
    6.0326   -0.0024   -2.6186 C   0  0  0  0  0  0  0  0  0  0  0  0
   -0.6879   -0.3680   -1.5467 H   0  0  0  0  0  0  0  0  0  0  0  0
    1.4066   -0.0618   -0.5982 H   0  0  0  0  0  0  0  0  0  0  0  0
   -0.5078    2.5206    1.4566 H   0  0  0  0  0  0  0  0  0  0  0  0
   -1.5182    3.2243   -1.3773 H   0  0  0  0  0  0  0  0  0  0  0  0
   -2.1013    1.6993   -2.1873 H   0  0  0  0  0  0  0  0  0  0  0  0
    0.1479    0.3699    2.1608 H   0  0  0  0  0  0  0  0  0  0  0  0
    1.7342    0.9390    1.5928 H   0  0  0  0  0  0  0  0  0  0  0  0
   -1.9641   -0.6969    1.2246 H   0  0  0  0  0  0  0  0  0  0  0  0
    0.0533   -3.6766    0.8766 H   0  0  0  0  0  0  0  0  0  0  0  0
    2.3577   -3.1384    1.3539 H   0  0  0  0  0  0  0  0  0  0  0  0
    2.5648   -1.4776    1.9449 H   0  0  0  0  0  0  0  0  0  0  0  0
    3.2656    3.8400   -0.5390 H   0  0  0  0  0  0  0  0  0  0  0  0
    2.9477    5.3064    0.4106 H   0  0  0  0  0  0  0  0  0  0  0  0
    1.9413    4.9604   -1.0108 H   0  0  0  0  0  0  0  0  0  0  0  0
   -4.9725   -0.8420   -1.8048 H   0  0  0  0  0  0  0  0  0  0  0  0
   -5.6848   -2.2384   -1.0101 H   0  0  0  0  0  0  0  0  0  0  0  0
   -6.7850   -0.7270    0.6678 H   0  0  0  0  0  0  0  0  0  0  0  0
    5.0838   -2.4238   -1.7485 H   0  0  0  0  0  0  0  0  0  0  0  0
    6.4075   -1.9480   -0.6869 H   0  0  0  0  0  0  0  0  0  0  0  0
   -7.3105    0.1182   -2.2370 H   0  0  0  0  0  0  0  0  0  0  0  0
   -8.4268    0.3184   -0.8748 H   0  0  0  0  0  0  0  0  0  0  0  0
   -7.9970   -1.3045   -1.4324 H   0  0  0  0  0  0  0  0  0  0  0  0
   -5.1519    1.1257    0.7251 H   0  0  0  0  0  0  0  0  0  0  0  0
   -6.7482    1.7480    0.3050 H   0  0  0  0  0  0  0  0  0  0  0  0
   -5.5210    1.5461   -0.9572 H   0  0  0  0  0  0  0  0  0  0  0  0
    4.1432   -0.0837   -1.6174 H   0  0  0  0  0  0  0  0  0  0  0  0
    6.6383    0.5197    0.0600 H   0  0  0  0  0  0  0  0  0  0  0  0
    5.5121    1.7262   -0.5846 H   0  0  0  0  0  0  0  0  0  0  0  0
    4.9595    0.5707    0.6283 H   0  0  0  0  0  0  0  0  0  0  0  0
    7.0989   -0.1636   -2.4268 H   0  0  0  0  0  0  0  0  0  0  0  0
    5.7320   -0.6620   -3.4395 H   0  0  0  0  0  0  0  0  0  0  0  0
    5.9015    1.0312   -2.9561 H   0  0  0  0  0  0  0  0  0  0  0  0
  1  9  1  0  0  0  0
  1 13  1  0  0  0  0
  2 12  1  0  0  0  0
  2 19  1  0  0  0  0
  3 15  1  0  0  0  0
  3 17  1  0  0  0  0
  4 15  1  0  0  0  0
  4 20  1  0  0  0  0
  5 18  1  0  0  0  0
  5 23  1  0  0  0  0
  6 19  2  0  0  0  0
  7 20  2  0  0  0  0
  8 23  2  0  0  0  0
  9 10  1  0  0  0  0
  9 12  1  0  0  0  0
  9 13  1  0  0  0  0
 10 11  1  0  0  0  0
 10 15  1  0  0  0  0
 10 31  1  0  0  0  0
 11 14  1  0  0  0  0
 11 16  1  0  0  0  0
 11 32  1  0  0  0  0
 12 14  1  0  0  0  0
 12 33  1  0  0  0  0
 13 34  1  0  0  0  0
 13 35  1  0  0  0  0
 14 36  1  0  0  0  0
 14 37  1  0  0  0  0
 15 38  1  0  0  0  0
 16 17  2  0  0  0  0
 16 18  1  0  0  0  0
 17 39  1  0  0  0  0
 18 40  1  0  0  0  0
 18 41  1  0  0  0  0
 19 21  1  0  0  0  0
 20 22  1  0  0  0  0
 21 42  1  0  0  0  0
 21 43  1  0  0  0  0
 21 44  1  0  0  0  0
 22 24  1  0  0  0  0
 22 45  1  0  0  0  0
 22 46  1  0  0  0  0
 23 25  1  0  0  0  0
 24 26  1  0  0  0  0
 24 27  1  0  0  0  0
 24 47  1  0  0  0  0
 25 28  1  0  0  0  0
 25 48  1  0  0  0  0
 25 49  1  0  0  0  0
 26 53  1  0  0  0  0
 26 54  1  0  0  0  0
 26 55  1  0  0  0  0
 27 50  1  0  0  0  0
 27 51  1  0  0  0  0
 27 52  1  0  0  0  0
 28 29  1  0  0  0  0
 28 30  1  0  0  0  0
 28 56  1  0  0  0  0
 29 57  1  0  0  0  0
 29 58  1  0  0  0  0
 29 59  1  0  0  0  0
 30 60  1  0  0  0  0
 30 61  1  0  0  0  0
 30 62  1  0  0  0  0
M  END
> <PUBCHEM_COMPOUND_CID>
133561980

> <PUBCHEM_CONFORMER_RMSD>
1.2

> <PUBCHEM_CONFORMER_DIVERSEORDER>
1
8
23
7
16
22
10
27
20
17
3
19
24
26
29
4
11
12
2
13
25
6
14
28
5
18
9
15
21

> <PUBCHEM_MMFF94_PARTIAL_CHARGES>
26
1 -0.3
10 0.09
11 0.14
12 0.38
13 -0.05
15 0.56
16 -0.28
17 -0.07
18 0.42
19 0.66
2 -0.43
20 0.66
21 0.06
22 0.06
23 0.66
25 0.06
3 -0.36
34 0.1
35 0.1
39 0.15
4 -0.43
5 -0.43
6 -0.57
7 -0.57
8 -0.57
9 -0.04

> <PUBCHEM_EFFECTIVE_ROTOR_COUNT>
12.2

> <PUBCHEM_PHARMACOPHORE_FEATURES>
9
1 1 acceptor
1 3 acceptor
1 6 acceptor
1 7 acceptor
1 8 acceptor
3 24 26 27 hydrophobe
3 28 29 30 hydrophobe
5 9 10 11 12 14 rings
6 3 10 11 15 16 17 rings

> <PUBCHEM_HEAVY_ATOM_COUNT>
30

> <PUBCHEM_ATOM_DEF_STEREO_COUNT>
5

> <PUBCHEM_ATOM_UDEF_STEREO_COUNT>
0

> <PUBCHEM_BOND_DEF_STEREO_COUNT>
0

> <PUBCHEM_BOND_UDEF_STEREO_COUNT>
0

> <PUBCHEM_ISOTOPIC_ATOM_COUNT>
0

> <PUBCHEM_COMPONENT_COUNT>
1

> <PUBCHEM_CACTVS_TAUTO_COUNT>
1

> <PUBCHEM_CONFORMER_ID>
07F5FE7C00000001

> <PUBCHEM_MMFF94_ENERGY>
49.9771

> <PUBCHEM_FEATURE_SELFOVERLAP>
45.789

> <PUBCHEM_SHAPE_FINGERPRINT>
10050765 1 18194958768047118127
10816530 90 18260540160369785468
10906281 52 18264220131995263499
11049842 53 17538292026114150340
11135609 187 17677910100479671820
12788726 201 18337964393965439010
13140716 1 17832691740665442432
13590594 115 18339082584416665233
13617811 41 18113332033226656653
13899415 154 18411141324915318819
14068700 675 18130780136524874353
14787075 74 18188776041489235595
14790565 3 18336831896619148843
14849402 71 18409173233930752073
14931854 50 18263385693169537500
15439362 3 18265611181212297813
15475509 8 18059025990046961503
15927050 60 17980197818359457582
16067689 134 18196106447163802905
16994733 274 15719396143958128359
1813 80 18060140929455863974
19319366 153 17895185580676294466
20567600 75 15339121195701584615
20642791 105 17827339004877124906
20642791 239 18262534705202205426
20642791 35 18337951298092935450
21279426 13 18337957903984875381
22182313 1 18195218131655976288
23352939 185 18342179963962813858
23559900 14 18270955847373815835
24771750 20 17974584789850576476
3178227 256 18409175402921028339
350125 39 18408319969673120709
3534868 343 18191309282537656302
4093350 32 17203607125143682048
4340502 62 11169910584782673626
532947 4 18052260884480918264
552612 73 18113888347951568957
6328613 192 18187366498348506063
6669772 16 18123188171949593580

> <PUBCHEM_SHAPE_MULTIPOLES>
570.43
14.95
4.43
1.45
11.13
5.17
0.42
-6.36
7.74
-4.2
-1.69
-1.59
0.18
0.09

> <PUBCHEM_SHAPE_SELFOVERLAP>
1171.469

> <PUBCHEM_SHAPE_VOLUME>
328.1

> <PUBCHEM_COORDINATE_TYPE>
2
5
10

$$$$
