REMARK  Name = 133579
REMARK  11 active torsions:
REMARK  status: ('A' for Active; 'I' for Inactive)
REMARK    1  A    between atoms: C_1  and  C_2
REMARK    2  A    between atoms: C_1  and  C_11
REMARK    3  A    between atoms: C_2  and  C_3
REMARK    4  A    between atoms: C_3  and  C_4
REMARK    5  A    between atoms: C_4  and  C_5
REMARK    6  A    between atoms: C_5  and  O_6
REMARK    7  A    between atoms: O_6  and  S_7
REMARK    8  A    between atoms: C_11  and  C_12
REMARK    9  A    between atoms: C_12  and  C_13
REMARK   10  A    between atoms: C_13  and  O_14
REMARK   11  A    between atoms: O_14  and  S_15
REMARK                            x       y       z     vdW  Elec       q    Type
REMARK                         _______ _______ _______ _____ _____    ______ ____
ROOT
ATOM      1  C   UNL     1       0.288  -0.360  -0.275  0.00  0.00    +0.000 C 
ENDROOT
BRANCH   1   2
ATOM      2  C   UNL     1      -0.820  -1.291   0.222  0.00  0.00    +0.000 C 
BRANCH   2   3
ATOM      3  C   UNL     1      -2.196  -0.816  -0.253  0.00  0.00    +0.003 C 
BRANCH   3   4
ATOM      4  C   UNL     1      -3.309  -1.731   0.268  0.00  0.00    +0.033 C 
BRANCH   4   5
ATOM      5  C   UNL     1      -4.692  -1.259  -0.164  0.00  0.00    +0.159 C 
BRANCH   5   6
ATOM      6  O   UNL     1      -4.940   0.045   0.343  0.00  0.00    -0.286 OA
BRANCH   6   7
ATOM      7  S   UNL     1      -6.356   0.776   0.019  0.00  0.00    +0.081 S 
ATOM      8  S   UNL     1      -6.587   2.167   1.205  0.00  0.00    +0.023 S 
ATOM      9  O   UNL     1      -7.490  -0.112   0.101  0.00  0.00    -0.134 OA
ATOM     10  C   UNL     1      -6.055   1.364  -1.625  0.00  0.00    +0.120 C 
ENDBRANCH   6   7
ENDBRANCH   5   6
ENDBRANCH   4   5
ENDBRANCH   3   4
ENDBRANCH   2   3
ENDBRANCH   1   2
BRANCH   1  11
ATOM     11  C   UNL     1       1.686  -0.772   0.197  0.00  0.00    +0.003 C 
BRANCH  11  12
ATOM     12  C   UNL     1       2.800   0.113  -0.359  0.00  0.00    +0.033 C 
BRANCH  12  13
ATOM     13  C   UNL     1       4.165  -0.309   0.169  0.00  0.00    +0.159 C 
BRANCH  13  14
ATOM     14  O   UNL     1       5.154   0.557  -0.369  0.00  0.00    -0.286 OA
BRANCH  14  15
ATOM     15  S   UNL     1       6.716   0.337   0.028  0.00  0.00    +0.081 S 
ATOM     16  S   UNL     1       7.767   1.233  -1.191  0.00  0.00    +0.023 S 
ATOM     17  O   UNL     1       7.107  -1.051   0.064  0.00  0.00    -0.134 OA
ATOM     18  C   UNL     1       6.762   1.110   1.622  0.00  0.00    +0.120 C 
ENDBRANCH  14  15
ENDBRANCH  13  14
ENDBRANCH  12  13
ENDBRANCH  11  12
ENDBRANCH   1  11
TORSDOF 11
