REMARK  Name = 133562
REMARK  8 active torsions:
REMARK  status: ('A' for Active; 'I' for Inactive)
REMARK    1  A    between atoms: C_2  and  O_7
REMARK    2  A    between atoms: C_3  and  O_9
REMARK    3  A    between atoms: C_4  and  O_11
REMARK    4  A    between atoms: C_5  and  C_21
REMARK    5  A    between atoms: C_6  and  O_13
REMARK    6  A    between atoms: O_13  and  C_14
REMARK    7  A    between atoms: C_14  and  C_17
REMARK    8  A    between atoms: C_21  and  O_22
REMARK                            x       y       z     vdW  Elec       q    Type
REMARK                         _______ _______ _______ _____ _____    ______ ____
ROOT
ATOM      1  O   UNL     1       1.261  -0.842   0.120  0.00  0.00    -0.326 OA
ATOM      2  C   UNL     1       3.078   1.368  -0.135  0.00  0.00    +0.172 C 
ATOM      3  C   UNL     1       3.529  -0.015   0.336  0.00  0.00    +0.169 C 
ATOM      4  C   UNL     1       1.578   1.566   0.087  0.00  0.00    +0.196 C 
ATOM      5  C   UNL     1       2.620  -1.106  -0.234  0.00  0.00    +0.176 C 
ATOM      6  C   UNL     1       0.776   0.376  -0.441  0.00  0.00    +0.266 C 
ENDROOT
BRANCH   2   7
ATOM      7  O   UNL     1       3.801   2.347   0.612  0.00  0.00    -0.379 OA
ATOM      8  H   UNL     1       4.753   2.222   0.472  0.00  0.00    +0.211 HD
ENDBRANCH   2   7
BRANCH   3   9
ATOM      9  O   UNL     1       4.868  -0.245  -0.095  0.00  0.00    -0.379 OA
ATOM     10  H   UNL     1       5.447   0.446   0.265  0.00  0.00    +0.211 HD
ENDBRANCH   3   9
BRANCH   4  11
ATOM     11  O   UNL     1       1.147   2.737  -0.605  0.00  0.00    -0.378 OA
ATOM     12  H   UNL     1       1.645   3.505  -0.283  0.00  0.00    +0.211 HD
ENDBRANCH   4  11
BRANCH   6  13
ATOM     13  O   UNL     1      -0.589   0.567  -0.072  0.00  0.00    -0.324 OA
BRANCH  13  14
ATOM     14  C   UNL     1      -1.401  -0.503  -0.529  0.00  0.00    +0.171 C 
BRANCH  14  17
ATOM     15  O   UNL     1      -4.630   0.049   1.225  0.00  0.00    -0.441 OA
ATOM     16  O   UNL     1      -6.178   0.183  -0.472  0.00  0.00    -0.245 OA
ATOM     17  C   UNL     1      -2.816  -0.280  -0.132  0.00  0.00    +0.035 C 
ATOM     18  C   UNL     1      -3.214  -0.151   1.284  0.00  0.00    +0.234 C 
ATOM     19  C   UNL     1      -3.868  -0.171  -0.939  0.00  0.00    +0.079 C 
ATOM     20  C   UNL     1      -5.034   0.039  -0.079  0.00  0.00    +0.341 C 
ENDBRANCH  14  17
ENDBRANCH  13  14
ENDBRANCH   6  13
BRANCH   5  21
ATOM     21  C   UNL     1       2.979  -2.483   0.315  0.00  0.00    +0.169 C 
BRANCH  21  22
ATOM     22  O   UNL     1       2.094  -3.436  -0.245  0.00  0.00    -0.379 OA
ATOM     23  H   UNL     1       2.311  -4.318   0.096  0.00  0.00    +0.211 HD
ENDBRANCH  21  22
ENDBRANCH   5  21
TORSDOF 8
