REMARK  Name = 133562771
REMARK  3 active torsions:
REMARK  status: ('A' for Active; 'I' for Inactive)
REMARK    1  A    between atoms: C_9  and  O_33
REMARK    2  A    between atoms: C_10  and  N_29
REMARK    3  A    between atoms: C_21  and  O_35
REMARK                            x       y       z     vdW  Elec       q    Type
REMARK                         _______ _______ _______ _____ _____    ______ ____
ROOT
ATOM      1  O   UNL     1      -3.160   0.692  -1.863  0.00  0.00    -0.350 OA
ATOM      2  O   UNL     1       5.015  -0.463   0.469  0.00  0.00    -0.350 OA
ATOM      3  O   UNL     1       3.721   1.795  -0.999  0.00  0.00    -0.445 OA
ATOM      4  O   UNL     1       0.702   1.816  -0.420  0.00  0.00    -0.287 OA
ATOM      5  O   UNL     1       1.909  -3.299   0.553  0.00  0.00    -0.287 OA
ATOM      6  O   UNL     1       5.607   2.657  -1.977  0.00  0.00    -0.250 OA
ATOM      7  C   UNL     1      -3.648  -0.494  -1.174  0.00  0.00    +0.134 C 
ATOM      8  C   UNL     1      -2.046   1.170  -1.062  0.00  0.00    +0.136 C 
ATOM      9  C   UNL     1      -4.407  -0.017   0.099  0.00  0.00    +0.120 C 
ATOM     10  C   UNL     1      -4.092   1.461   0.437  0.00  0.00    -0.025 C 
ATOM     11  C   UNL     1      -2.621   1.853   0.187  0.00  0.00    +0.016 C 
ATOM     12  C   UNL     1      -2.339  -1.124  -0.788  0.00  0.00    +0.006 C 
ATOM     13  C   UNL     1      -1.368  -0.120  -0.714  0.00  0.00    +0.006 C 
ATOM     14  C   UNL     1      -0.061  -0.412  -0.334  0.00  0.00    +0.043 C 
ATOM     15  C   UNL     1      -4.460  -1.325  -2.159  0.00  0.00    +0.037 C 
ATOM     16  C   UNL     1      -2.036  -2.443  -0.503  0.00  0.00    +0.035 C 
ATOM     17  C   UNL     1       0.257  -1.745  -0.055  0.00  0.00    +0.075 C 
ATOM     18  C   UNL     1       2.341   0.228   0.188  0.00  0.00    +0.060 C 
ATOM     19  C   UNL     1       0.967   0.638  -0.210  0.00  0.00    +0.195 C 
ATOM     20  C   UNL     1       3.372   1.314   0.310  0.00  0.00    +0.221 C 
ATOM     21  C   UNL     1      -0.726  -2.753  -0.141  0.00  0.00    +0.137 C 
ATOM     22  C   UNL     1       2.646  -1.050   0.459  0.00  0.00    +0.046 C 
ATOM     23  C   UNL     1       4.688   0.857   0.910  0.00  0.00    +0.171 C 
ATOM     24  C   UNL     1       1.627  -2.125   0.338  0.00  0.00    +0.197 C 
ATOM     25  C   UNL     1       4.051  -1.458   0.846  0.00  0.00    +0.141 C 
ATOM     26  C   UNL     1       5.681   1.821   0.297  0.00  0.00    +0.143 C 
ATOM     27  C   UNL     1       5.044   2.140  -1.024  0.00  0.00    +0.320 C 
ATOM     28  C   UNL     1       4.181  -1.792   2.332  0.00  0.00    +0.037 C 
ENDROOT
BRANCH  10  29
ATOM     29  N   UNL     1      -4.462   1.776   1.818  0.00  0.00    +0.387 N 
ATOM     30  C   UNL     1      -4.248   3.196   2.089  0.00  0.00    -0.101 C 
ATOM     31  C   UNL     1      -5.854   1.409   2.066  0.00  0.00    -0.101 C 
ATOM     32  H   UNL     1      -3.869   1.235   2.447  0.00  0.00    -0.080 HD
ENDBRANCH  10  29
BRANCH   9  33
ATOM     33  O   UNL     1      -5.817  -0.139  -0.104  0.00  0.00    -0.384 OA
ATOM     34  H   UNL     1      -6.035  -1.060  -0.318  0.00  0.00    +0.210 HD
ENDBRANCH   9  33
BRANCH  21  35
ATOM     35  O   UNL     1      -0.463  -4.065   0.132  0.00  0.00    -0.505 OA
ATOM     36  H   UNL     1      -1.144  -4.704   0.062  0.00  0.00    +0.292 HD
ENDBRANCH  21  35
TORSDOF 3
