REMARK  Name = 133595
REMARK  8 active torsions:
REMARK  status: ('A' for Active; 'I' for Inactive)
REMARK    1  A    between atoms: CA_1  and  C_2
REMARK    2  A    between atoms: CA_1  and  C_12
REMARK    3  A    between atoms: CA_1  and  N_21
REMARK    4  A    between atoms: C_7  and  O_8
REMARK    5  A    between atoms: N_11  and  CA_14
REMARK    6  A    between atoms: CA_14  and  C_16
REMARK    7  A    between atoms: CA_14  and  C_20
REMARK    8  A    between atoms: C_16  and  O_17
REMARK                            x       y       z     vdW  Elec       q    Type
REMARK                         _______ _______ _______ _____ _____    ______ ____
ROOT
ATOM      1  CA  UNL     1      -0.563   1.817   0.361  0.00  0.00    +0.036 C 
ENDROOT
BRANCH   1   2
ATOM      2  C   UNL     1      -1.655   0.771   0.272  0.00  0.00    -0.034 C 
ATOM      3  C   UNL     1      -2.160   0.223   1.437  0.00  0.00    -0.003 C 
ATOM      4  C   UNL     1      -2.122   0.389  -0.973  0.00  0.00    -0.003 C 
ATOM      5  C   UNL     1      -3.166  -0.740   1.355  0.00  0.00    +0.036 C 
ATOM      6  C   UNL     1      -3.128  -0.575  -1.055  0.00  0.00    +0.036 C 
ATOM      7  C   UNL     1      -3.650  -1.139   0.110  0.00  0.00    +0.134 C 
BRANCH   7   8
ATOM      8  O   UNL     1      -4.631  -2.079   0.030  0.00  0.00    -0.506 OA
ATOM      9  H   UNL     1      -4.981  -2.458   0.812  0.00  0.00    +0.292 HD
ENDBRANCH   7   8
ENDBRANCH   1   2
BRANCH   1  12
ATOM     10  O   UNL     1       0.882   1.581  -1.571  0.00  0.00    -0.277 OA
ATOM     11  N   UNL     1       1.560   0.655   0.445  0.00  0.00    -0.292 N 
ATOM     12  C   UNL     1       0.690   1.358  -0.377  0.00  0.00    +0.207 C 
ATOM     13  H   UNL     1       1.315   0.528   1.391  0.00  0.00    +0.150 HD
BRANCH  11  14
ATOM     14  CA  UNL     1       2.808   0.101  -0.026  0.00  0.00    +0.237 C 
BRANCH  14  16
ATOM     15  O   UNL     1       3.534  -1.945  -1.087  0.00  0.00    -0.248 OA
ATOM     16  C   UNL     1       2.620  -1.294  -0.590  0.00  0.00    +0.340 C 
BRANCH  16  17
ATOM     17  O   UNL     1       1.369  -1.794  -0.451  0.00  0.00    -0.479 OA
ATOM     18  H   UNL     1       0.694  -1.269  -0.066  0.00  0.00    +0.295 HD
ENDBRANCH  16  17
ENDBRANCH  14  16
BRANCH  14  20
ATOM     19  O   UNL     1       4.772  -0.594   1.224  0.00  0.00    -0.286 OA
ATOM     20  C   UNL     1       3.813   0.162   1.103  0.00  0.00    +0.238 C 
ENDBRANCH  14  20
ENDBRANCH  11  14
ENDBRANCH   1  12
BRANCH   1  21
ATOM     21  N   UNL     1      -0.972   3.103  -0.210  0.00  0.00    +0.390 N 
ATOM     22  H1  UNL     1      -1.811   3.435   0.266  0.00  0.00    -0.088 HD
ATOM     23  H2  UNL     1      -1.169   2.987  -1.204  0.00  0.00    -0.088 HD
ATOM     24  H3  UNL     1      -0.221   3.783  -0.089  0.00  0.00    -0.088 HD
ENDBRANCH   1  21
TORSDOF 8
