REMARK  Name = 133554282
REMARK  4 active torsions:
REMARK  status: ('A' for Active; 'I' for Inactive)
REMARK    1  A    between atoms: C_11  and  O_15
REMARK    2  A    between atoms: C_12  and  O_17
REMARK    3  A    between atoms: C_13  and  C_20
REMARK    4  A    between atoms: C_20  and  O_21
REMARK                            x       y       z     vdW  Elec       q    Type
REMARK                         _______ _______ _______ _____ _____    ______ ____
ROOT
ATOM      1  O   UNL     1      -2.887   1.231   0.002  0.00  0.00    -0.449 OA
ATOM      2  O   UNL     1      -1.356   2.837   0.443  0.00  0.00    -0.245 OA
ATOM      3  C   UNL     1      -2.312  -1.149   0.197  0.00  0.00    +0.063 C 
ATOM      4  C   UNL     1      -3.176  -0.094  -0.503  0.00  0.00    +0.173 C 
ATOM      5  C   UNL     1      -0.870  -0.721   0.122  0.00  0.00    -0.011 A 
ATOM      6  C   UNL     1      -0.547   0.641   0.114  0.00  0.00    +0.105 A 
ATOM      7  C   UNL     1       0.159  -1.671   0.075  0.00  0.00    +0.009 A 
ATOM      8  C   UNL     1      -2.725  -1.331   1.661  0.00  0.00    +0.008 C 
ATOM      9  C   UNL     1      -3.045  -0.096  -2.026  0.00  0.00    +0.048 C 
ATOM     10  C   UNL     1      -1.614   1.666   0.195  0.00  0.00    +0.344 C 
ATOM     11  C   UNL     1       0.790   1.049   0.058  0.00  0.00    +0.149 A 
ATOM     12  C   UNL     1       1.491  -1.264   0.015  0.00  0.00    +0.138 A 
ATOM     13  C   UNL     1       1.806   0.094   0.005  0.00  0.00    +0.142 A 
ATOM     14  C   UNL     1      -0.145  -3.137   0.092  0.00  0.00    +0.034 C 
ENDROOT
BRANCH  11  15
ATOM     15  O   UNL     1       1.138   2.369   0.036  0.00  0.00    -0.505 OA
ATOM     16  H   UNL     1       0.474   3.029   0.070  0.00  0.00    +0.292 HD
ENDBRANCH  11  15
BRANCH  12  17
ATOM     17  O   UNL     1       2.487  -2.196  -0.034  0.00  0.00    -0.506 OA
ATOM     18  H   UNL     1       2.274  -3.109  -0.027  0.00  0.00    +0.292 HD
ENDBRANCH  12  17
BRANCH  13  20
ATOM     19  O   UNL     1       3.780   1.196   0.789  0.00  0.00    -0.245 OA
ATOM     20  C   UNL     1       3.203   0.513  -0.059  0.00  0.00    +0.344 C 
BRANCH  20  21
ATOM     21  O   UNL     1       3.824   0.063  -1.182  0.00  0.00    -0.477 OA
ATOM     22  H   UNL     1       3.351  -0.454  -1.804  0.00  0.00    +0.295 HD
ENDBRANCH  20  21
ENDBRANCH  13  20
TORSDOF 4
