REMARK  Name = 133561980
REMARK  11 active torsions:
REMARK  status: ('A' for Active; 'I' for Inactive)
REMARK    1  A    between atoms: C_6  and  O_12
REMARK    2  A    between atoms: C_9  and  O_16
REMARK    3  A    between atoms: C_10  and  C_23
REMARK    4  A    between atoms: O_12  and  C_14
REMARK    5  A    between atoms: O_16  and  C_18
REMARK    6  A    between atoms: C_18  and  C_19
REMARK    7  A    between atoms: C_19  and  C_20
REMARK    8  A    between atoms: C_23  and  O_24
REMARK    9  A    between atoms: O_24  and  C_26
REMARK   10  A    between atoms: C_26  and  C_27
REMARK   11  A    between atoms: C_27  and  C_28
REMARK                            x       y       z     vdW  Elec       q    Type
REMARK                         _______ _______ _______ _____ _____    ______ ____
ROOT
ATOM      1  O   UNL     1      -2.350   1.746  -0.046  0.00  0.00    -0.350 OA
ATOM      2  O   UNL     1      -1.381  -2.415   0.247  0.00  0.00    -0.440 OA
ATOM      3  C   UNL     1      -0.992   1.345  -0.272  0.00  0.00    +0.164 C 
ATOM      4  C   UNL     1      -0.742  -0.135  -0.475  0.00  0.00    +0.119 C 
ATOM      5  C   UNL     1       0.658  -0.328   0.161  0.00  0.00    +0.038 C 
ATOM      6  C   UNL     1       0.003   1.942   0.677  0.00  0.00    +0.196 C 
ATOM      7  C   UNL     1      -1.758   2.174  -1.277  0.00  0.00    +0.173 C 
ATOM      8  C   UNL     1       0.706   0.724   1.285  0.00  0.00    +0.051 C 
ATOM      9  C   UNL     1      -1.785  -1.042   0.196  0.00  0.00    +0.345 C 
ATOM     10  C   UNL     1       0.901  -1.729   0.639  0.00  0.00    +0.036 C 
ATOM     11  C   UNL     1      -0.086  -2.635   0.618  0.00  0.00    +0.171 C 
ENDROOT
BRANCH   6  12
ATOM     12  O   UNL     1       0.938   2.749  -0.030  0.00  0.00    -0.450 OA
BRANCH  12  14
ATOM     13  O   UNL     1       1.324   3.999   1.873  0.00  0.00    -0.250 OA
ATOM     14  C   UNL     1       1.528   3.746   0.694  0.00  0.00    +0.318 C 
ATOM     15  C   UNL     1       2.482   4.509  -0.175  0.00  0.00    +0.121 C 
ENDBRANCH  12  14
ENDBRANCH   6  12
BRANCH   9  16
ATOM     16  O   UNL     1      -2.997  -0.954  -0.555  0.00  0.00    -0.414 OA
BRANCH  16  18
ATOM     17  O   UNL     1      -4.185  -1.738   1.259  0.00  0.00    -0.250 OA
ATOM     18  C   UNL     1      -4.131  -1.337   0.105  0.00  0.00    +0.319 C 
BRANCH  18  19
ATOM     19  C   UNL     1      -5.314  -1.222  -0.833  0.00  0.00    +0.110 C 
BRANCH  19  20
ATOM     20  C   UNL     1      -6.432  -0.320  -0.288  0.00  0.00    +0.011 C 
ATOM     21  C   UNL     1      -5.932   1.105  -0.042  0.00  0.00    +0.001 C 
ATOM     22  C   UNL     1      -7.608  -0.294  -1.267  0.00  0.00    +0.001 C 
ENDBRANCH  19  20
ENDBRANCH  18  19
ENDBRANCH  16  18
ENDBRANCH   9  16
BRANCH  10  23
ATOM     23  C   UNL     1       2.293  -2.081   1.070  0.00  0.00    +0.234 C 
BRANCH  23  24
ATOM     24  O   UNL     1       3.200  -1.825   0.014  0.00  0.00    -0.444 OA
BRANCH  24  26
ATOM     25  O   UNL     1       4.955  -2.546   1.325  0.00  0.00    -0.250 OA
ATOM     26  C   UNL     1       4.520  -2.103   0.271  0.00  0.00    +0.317 C 
BRANCH  26  27
ATOM     27  C   UNL     1       5.359  -1.742  -0.935  0.00  0.00    +0.110 C 
BRANCH  27  28
ATOM     28  C   UNL     1       5.194  -0.277  -1.369  0.00  0.00    +0.011 C 
ATOM     29  C   UNL     1       5.601   0.687  -0.251  0.00  0.00    +0.001 C 
ATOM     30  C   UNL     1       6.033  -0.002  -2.619  0.00  0.00    +0.001 C 
ENDBRANCH  27  28
ENDBRANCH  26  27
ENDBRANCH  24  26
ENDBRANCH  23  24
ENDBRANCH  10  23
TORSDOF 11
