133562417
  -OEChem-03292013293D

 64 67  0     1  0  0  0  0  0999 V2000
    0.2015    0.8415   -2.2311 O   0  0  0  0  0  0  0  0  0  0  0  0
   -2.1257   -2.1244   -0.4985 O   0  0  0  0  0  0  0  0  0  0  0  0
    1.8514   -2.7740    0.9885 O   0  0  0  0  0  0  0  0  0  0  0  0
   -2.6469    2.2726    0.1255 O   0  0  0  0  0  0  0  0  0  0  0  0
    2.5710    2.3603    0.9376 O   0  0  0  0  0  0  0  0  0  0  0  0
    1.4020    2.6887   -1.7697 O   0  0  0  0  0  0  0  0  0  0  0  0
   -1.8423   -4.4163   -0.5562 O   0  0  0  0  0  0  0  0  0  0  0  0
   -4.4579    2.2527   -1.3088 O   0  0  0  0  0  0  0  0  0  0  0  0
   -0.1812   -0.6120   -0.2410 C   0  0  2  0  0  0  0  0  0  0  0  0
    1.3770   -0.5201    0.0992 C   0  0  2  0  0  0  0  0  0  0  0  0
    2.0797    0.6245   -0.7227 C   0  0  2  0  0  0  0  0  0  0  0  0
   -0.9933    0.5863    0.4852 C   0  0  2  0  0  0  0  0  0  0  0  0
   -0.8465   -1.9787    0.1336 C   0  0  1  0  0  0  0  0  0  0  0  0
    2.2017   -1.8468   -0.0358 C   0  0  1  0  0  0  0  0  0  0  0  0
   -1.3426    0.3429    2.0212 C   0  0  0  0  0  0  0  0  0  0  0  0
    3.2233    0.0996   -1.6301 C   0  0  0  0  0  0  0  0  0  0  0  0
    4.2563   -0.3896   -0.6211 C   0  0  2  0  0  0  0  0  0  0  0  0
   -0.2040   -0.4671   -1.7928 C   0  0  0  0  0  0  0  0  0  0  0  0
    3.7332   -1.6561    0.0618 C   0  0  0  0  0  0  0  0  0  0  0  0
   -1.0961   -2.1710    1.6293 C   0  0  0  0  0  0  0  0  0  0  0  0
   -1.9501   -1.0585    2.2266 C   0  0  0  0  0  0  0  0  0  0  0  0
    2.9303    1.4028    0.2730 C   0  0  0  0  0  0  0  0  0  0  0  0
    1.1963    1.4926   -1.5879 C   0  0  0  0  0  0  0  0  0  0  0  0
    4.2790    0.7705    0.3395 C   0  0  0  0  0  0  0  0  0  0  0  0
   -2.2721    0.9835   -0.2985 C   0  0  0  0  0  0  0  0  0  0  0  0
   -2.3713    1.3798    2.5489 C   0  0  0  0  0  0  0  0  0  0  0  0
   -0.1108    0.5130    2.9431 C   0  0  0  0  0  0  0  0  0  0  0  0
    5.2858    1.2344    1.0799 C   0  0  0  0  0  0  0  0  0  0  0  0
   -2.4917   -3.4047   -0.7847 C   0  0  0  0  0  0  0  0  0  0  0  0
   -3.7697    2.8041   -0.4607 C   0  0  0  0  0  0  0  0  0  0  0  0
   -3.8404   -3.4030   -1.4382 C   0  0  0  0  0  0  0  0  0  0  0  0
   -4.0458    4.1725    0.0846 C   0  0  0  0  0  0  0  0  0  0  0  0
    1.4515   -0.2708    1.1551 H   0  0  0  0  0  0  0  0  0  0  0  0
   -0.3524    1.4777    0.4755 H   0  0  0  0  0  0  0  0  0  0  0  0
   -0.2038   -2.7818   -0.2373 H   0  0  0  0  0  0  0  0  0  0  0  0
    1.9679   -2.3235   -0.9946 H   0  0  0  0  0  0  0  0  0  0  0  0
    3.6439    0.9068   -2.2481 H   0  0  0  0  0  0  0  0  0  0  0  0
    2.8967   -0.6826   -2.3245 H   0  0  0  0  0  0  0  0  0  0  0  0
    5.2361   -0.5571   -1.0793 H   0  0  0  0  0  0  0  0  0  0  0  0
    0.4414   -1.2052   -2.2831 H   0  0  0  0  0  0  0  0  0  0  0  0
   -1.2007   -0.6424   -2.2094 H   0  0  0  0  0  0  0  0  0  0  0  0
    4.2018   -2.5307   -0.4100 H   0  0  0  0  0  0  0  0  0  0  0  0
    4.0588   -1.6977    1.1102 H   0  0  0  0  0  0  0  0  0  0  0  0
   -0.1549   -2.2392    2.1780 H   0  0  0  0  0  0  0  0  0  0  0  0
   -1.6149   -3.1207    1.8082 H   0  0  0  0  0  0  0  0  0  0  0  0
   -2.9547   -1.1038    1.7875 H   0  0  0  0  0  0  0  0  0  0  0  0
   -2.0856   -1.2557    3.2982 H   0  0  0  0  0  0  0  0  0  0  0  0
   -2.1043    1.0489   -1.3730 H   0  0  0  0  0  0  0  0  0  0  0  0
   -3.0862    0.2732   -0.1206 H   0  0  0  0  0  0  0  0  0  0  0  0
    0.4439    1.4246    2.6970 H   0  0  0  0  0  0  0  0  0  0  0  0
    0.5761   -0.3333    2.9132 H   0  0  0  0  0  0  0  0  0  0  0  0
   -2.0165    2.4079    2.4194 H   0  0  0  0  0  0  0  0  0  0  0  0
   -2.5269    1.2461    3.6279 H   0  0  0  0  0  0  0  0  0  0  0  0
   -0.4122    0.5947    3.9950 H   0  0  0  0  0  0  0  0  0  0  0  0
   -3.3667    1.2557    2.1115 H   0  0  0  0  0  0  0  0  0  0  0  0
    2.3416   -3.5972    0.8221 H   0  0  0  0  0  0  0  0  0  0  0  0
    6.2538    0.7451    1.0646 H   0  0  0  0  0  0  0  0  0  0  0  0
    5.1715    2.1052    1.7160 H   0  0  0  0  0  0  0  0  0  0  0  0
   -4.5803   -2.9715   -0.7593 H   0  0  0  0  0  0  0  0  0  0  0  0
   -4.1344   -4.4315   -1.6662 H   0  0  0  0  0  0  0  0  0  0  0  0
   -3.7985   -2.8372   -2.3724 H   0  0  0  0  0  0  0  0  0  0  0  0
   -4.2243    4.1119    1.1610 H   0  0  0  0  0  0  0  0  0  0  0  0
   -4.9394    4.5816   -0.3955 H   0  0  0  0  0  0  0  0  0  0  0  0
   -3.2016    4.8327   -0.1292 H   0  0  0  0  0  0  0  0  0  0  0  0
  1 18  1  0  0  0  0
  1 23  1  0  0  0  0
  2 13  1  0  0  0  0
  2 29  1  0  0  0  0
  3 14  1  0  0  0  0
  3 56  1  0  0  0  0
  4 25  1  0  0  0  0
  4 30  1  0  0  0  0
  5 22  2  0  0  0  0
  6 23  2  0  0  0  0
  7 29  2  0  0  0  0
  8 30  2  0  0  0  0
  9 10  1  0  0  0  0
  9 12  1  0  0  0  0
  9 13  1  0  0  0  0
  9 18  1  0  0  0  0
 10 11  1  0  0  0  0
 10 14  1  0  0  0  0
 10 33  1  0  0  0  0
 11 16  1  0  0  0  0
 11 22  1  0  0  0  0
 11 23  1  0  0  0  0
 12 15  1  0  0  0  0
 12 25  1  0  0  0  0
 12 34  1  0  0  0  0
 13 20  1  0  0  0  0
 13 35  1  0  0  0  0
 14 19  1  0  0  0  0
 14 36  1  0  0  0  0
 15 21  1  0  0  0  0
 15 26  1  0  0  0  0
 15 27  1  0  0  0  0
 16 17  1  0  0  0  0
 16 37  1  0  0  0  0
 16 38  1  0  0  0  0
 17 19  1  0  0  0  0
 17 24  1  0  0  0  0
 17 39  1  0  0  0  0
 18 40  1  0  0  0  0
 18 41  1  0  0  0  0
 19 42  1  0  0  0  0
 19 43  1  0  0  0  0
 20 21  1  0  0  0  0
 20 44  1  0  0  0  0
 20 45  1  0  0  0  0
 21 46  1  0  0  0  0
 21 47  1  0  0  0  0
 22 24  1  0  0  0  0
 24 28  2  0  0  0  0
 25 48  1  0  0  0  0
 25 49  1  0  0  0  0
 26 52  1  0  0  0  0
 26 53  1  0  0  0  0
 26 55  1  0  0  0  0
 27 50  1  0  0  0  0
 27 51  1  0  0  0  0
 27 54  1  0  0  0  0
 28 57  1  0  0  0  0
 28 58  1  0  0  0  0
 29 31  1  0  0  0  0
 30 32  1  0  0  0  0
 31 59  1  0  0  0  0
 31 60  1  0  0  0  0
 31 61  1  0  0  0  0
 32 62  1  0  0  0  0
 32 63  1  0  0  0  0
 32 64  1  0  0  0  0
M  END
> <PUBCHEM_COMPOUND_CID>
133562417

> <PUBCHEM_CONFORMER_RMSD>
1

> <PUBCHEM_CONFORMER_DIVERSEORDER>
1
8
2
10
9
6
11
4
7
3
5

> <PUBCHEM_MMFF94_PARTIAL_CHARGES>
25
1 -0.43
11 0.12
13 0.28
14 0.28
17 0.14
18 0.28
2 -0.43
22 0.49
23 0.66
24 -0.12
25 0.28
28 -0.3
29 0.66
3 -0.68
30 0.66
31 0.06
32 0.06
4 -0.43
5 -0.57
56 0.4
57 0.15
58 0.15
6 -0.57
7 -0.57
8 -0.57

> <PUBCHEM_EFFECTIVE_ROTOR_COUNT>
7

> <PUBCHEM_PHARMACOPHORE_FEATURES>
10
1 3 acceptor
1 3 donor
1 5 acceptor
1 6 acceptor
1 7 acceptor
1 8 acceptor
3 15 26 27 hydrophobe
6 1 9 10 11 18 23 rings
6 9 12 13 15 20 21 rings
8 10 11 14 16 17 19 22 24 rings

> <PUBCHEM_HEAVY_ATOM_COUNT>
32

> <PUBCHEM_ATOM_DEF_STEREO_COUNT>
7

> <PUBCHEM_ATOM_UDEF_STEREO_COUNT>
0

> <PUBCHEM_BOND_DEF_STEREO_COUNT>
0

> <PUBCHEM_BOND_UDEF_STEREO_COUNT>
0

> <PUBCHEM_ISOTOPIC_ATOM_COUNT>
0

> <PUBCHEM_COMPONENT_COUNT>
1

> <PUBCHEM_CACTVS_TAUTO_COUNT>
1

> <PUBCHEM_CONFORMER_ID>
07F6003100000001

> <PUBCHEM_MMFF94_ENERGY>
130.0962

> <PUBCHEM_FEATURE_SELFOVERLAP>
50.777

> <PUBCHEM_SHAPE_FINGERPRINT>
10764073 3 12758816913057585189
10863032 1 18338232661289577124
11045515 52 17981885555928953115
11115154 58 18123170567380210511
11578080 2 18058163006795583921
12156800 1 17979031116331725689
12160290 23 18053135996788973387
12788726 201 18118407486326932509
13140716 1 17467081069452198274
13583140 156 18413395340842347712
14068700 675 18049151469755378814
14178342 30 18335975463229502254
14787075 74 17482831564829635506
15420108 30 18119797020227762813
16945 1 17972051489680974054
17349148 13 17824255119163191106
18981168 100 16556256417000759224
192875 21 17898847113489022982
20197701 30 18262234405278438517
20600515 1 17056417831290026127
21033648 144 18060142029115490208
21033648 29 18337962181725251920
22907989 373 14333122039893953704
23558518 356 18334856142817171535
27425 322 16628304017019425865
3493558 16 18192699266808380725
35225 105 17694832653392457266
38695281 34 18050562946559747813
469060 322 17764876088057389632
59755656 520 18058470732332397163
70251023 43 18055373558654801350
7164475 11 18266743665150362383

> <PUBCHEM_SHAPE_MULTIPOLES>
611.59
7.8
4.47
2.26
3.66
1.6
-0.99
-3.61
0.77
-6.32
1.14
-0.89
-0.41
-0.39

> <PUBCHEM_SHAPE_SELFOVERLAP>
1307.937

> <PUBCHEM_SHAPE_VOLUME>
331.9

> <PUBCHEM_COORDINATE_TYPE>
2
5
10

$$$$
