REMARK  Name = 133562621
REMARK  7 active torsions:
REMARK  status: ('A' for Active; 'I' for Inactive)
REMARK    1  A    between atoms: C_9  and  O_24
REMARK    2  A    between atoms: C_11  and  O_20
REMARK    3  A    between atoms: C_12  and  C_22
REMARK    4  A    between atoms: O_24  and  C_26
REMARK    5  A    between atoms: C_26  and  C_27
REMARK    6  A    between atoms: C_27  and  S_28
REMARK    7  A    between atoms: S_28  and  C_33
REMARK                            x       y       z     vdW  Elec       q    Type
REMARK                         _______ _______ _______ _____ _____    ______ ____
ROOT
ATOM      1  O   UNL     1       3.898   2.871  -1.813  0.00  0.00    -0.296 OA
ATOM      2  C   UNL     1       3.747   0.075   0.379  0.00  0.00    +0.009 C 
ATOM      3  C   UNL     1       2.984   0.855  -0.736  0.00  0.00    +0.061 C 
ATOM      4  C   UNL     1       1.599   1.451  -0.323  0.00  0.00    +0.043 C 
ATOM      5  C   UNL     1       3.177  -1.364   0.706  0.00  0.00    +0.027 C 
ATOM      6  C   UNL     1       1.798   2.329   0.967  0.00  0.00    +0.004 C 
ATOM      7  C   UNL     1       3.817   0.954   1.669  0.00  0.00    +0.001 C 
ATOM      8  C   UNL     1       5.175  -0.028  -0.226  0.00  0.00    +0.008 C 
ATOM      9  C   UNL     1       0.551   0.293  -0.073  0.00  0.00    +0.169 C 
ATOM     10  C   UNL     1       2.479   1.542   2.102  0.00  0.00    +0.000 C 
ATOM     11  C   UNL     1       2.684  -2.167  -0.551  0.00  0.00    +0.110 C 
ATOM     12  C   UNL     1       1.136  -2.187  -0.822  0.00  0.00    +0.028 C 
ATOM     13  C   UNL     1       4.078   1.824  -1.204  0.00  0.00    +0.150 C 
ATOM     14  C   UNL     1       5.460   1.316  -0.886  0.00  0.00    +0.065 C 
ATOM     15  C   UNL     1       0.500  -0.803  -1.157  0.00  0.00    +0.046 C 
ATOM     16  C   UNL     1       1.060   2.352  -1.473  0.00  0.00    +0.004 C 
ATOM     17  C   UNL     1       4.179  -2.193   1.547  0.00  0.00    +0.002 C 
ATOM     18  C   UNL     1       0.534   2.999   1.519  0.00  0.00    +0.000 C 
ATOM     19  C   UNL     1       0.872  -3.077  -2.074  0.00  0.00    +0.003 C 
ENDROOT
BRANCH  11  20
ATOM     20  O   UNL     1       3.122  -3.532  -0.424  0.00  0.00    -0.384 OA
ATOM     21  H   UNL     1       4.077  -3.551  -0.256  0.00  0.00    +0.210 HD
ENDBRANCH  11  20
BRANCH  12  22
ATOM     22  C   UNL     1       0.368  -2.855   0.344  0.00  0.00    +0.002 C 
ATOM     23  C   UNL     1      -1.080  -3.067  -0.024  0.00  0.00    +0.000 C 
ENDBRANCH  12  22
BRANCH   9  24
ATOM     24  O   UNL     1      -0.770   0.851   0.016  0.00  0.00    -0.452 OA
BRANCH  24  26
ATOM     25  O   UNL     1      -1.304  -0.419   1.863  0.00  0.00    -0.249 OA
ATOM     26  C   UNL     1      -1.625   0.197   0.857  0.00  0.00    +0.329 C 
BRANCH  26  27
ATOM     27  C   UNL     1      -3.026   0.371   0.325  0.00  0.00    +0.183 C 
BRANCH  27  28
ATOM     28  S   UNL     1      -4.238  -0.466   1.375  0.00  0.00    -0.017 S 
BRANCH  28  33
ATOM     29  N   UNL     1      -5.813   0.644  -0.622  0.00  0.00    -0.312 NA
ATOM     30  N   UNL     1      -6.945  -0.539   0.974  0.00  0.00    -0.106 NA
ATOM     31  N   UNL     1      -7.777  -0.037   0.049  0.00  0.00    -0.188 N 
ATOM     32  N   UNL     1      -7.775   1.243  -1.909  0.00  0.00    -0.319 N 
ATOM     33  C   UNL     1      -5.769  -0.099   0.522  0.00  0.00    +0.134 C 
ATOM     34  C   UNL     1      -7.096   0.665  -0.896  0.00  0.00    +0.262 C 
ATOM     35  H   UNL     1      -8.754  -0.161   0.054  0.00  0.00    +0.179 HD
ATOM     36  H   UNL     1      -7.291   1.753  -2.598  0.00  0.00    +0.146 HD
ATOM     37  H   UNL     1      -8.755   1.154  -1.959  0.00  0.00    +0.146 HD
ENDBRANCH  28  33
ENDBRANCH  27  28
ENDBRANCH  26  27
ENDBRANCH  24  26
ENDBRANCH   9  24
TORSDOF 7
