REMARK  Name = 133565265
REMARK  3 active torsions:
REMARK  status: ('A' for Active; 'I' for Inactive)
REMARK    1  A    between atoms: C_17  and  O_24
REMARK    2  A    between atoms: C_17  and  C_26
REMARK    3  A    between atoms: C_26  and  O_27
REMARK                            x       y       z     vdW  Elec       q    Type
REMARK                         _______ _______ _______ _____ _____    ______ ____
ROOT
ATOM      1  O   UNL     1       0.840  -0.924  -0.149  0.00  0.00    -0.451 OA
ATOM      2  O   UNL     1       4.722   1.183  -0.295  0.00  0.00    -0.288 OA
ATOM      3  O   UNL     1      -0.812   1.766  -0.681  0.00  0.00    -0.442 OA
ATOM      4  O   UNL     1       0.336  -2.837  -1.347  0.00  0.00    -0.245 OA
ATOM      5  O   UNL     1      -1.476   2.641   1.348  0.00  0.00    -0.247 OA
ATOM      6  N   UNL     1       3.578   0.613   0.193  0.00  0.00    +0.439 N 
ATOM      7  C   UNL     1       2.389   0.874  -0.749  0.00  0.00    +0.050 C 
ATOM      8  C   UNL     1       1.835  -0.514  -1.107  0.00  0.00    +0.158 C 
ATOM      9  C   UNL     1       3.733  -0.883   0.269  0.00  0.00    -0.023 C 
ATOM     10  C   UNL     1       3.080  -1.391  -1.003  0.00  0.00    +0.025 C 
ATOM     11  C   UNL     1       3.179   1.256   1.510  0.00  0.00    -0.000 C 
ATOM     12  C   UNL     1       1.510   1.853  -0.025  0.00  0.00    -0.018 C 
ATOM     13  C   UNL     1       1.963   2.067   1.216  0.00  0.00    -0.050 C 
ATOM     14  C   UNL     1       0.380   2.571  -0.680  0.00  0.00    +0.229 C 
ATOM     15  C   UNL     1       0.157  -2.071  -0.412  0.00  0.00    +0.337 C 
ATOM     16  C   UNL     1      -2.527  -0.439  -0.093  0.00  0.00    +0.042 C 
ATOM     17  C   UNL     1      -2.905   1.040   0.199  0.00  0.00    +0.205 C 
ATOM     18  C   UNL     1      -1.693  -1.056   1.065  0.00  0.00    +0.036 C 
ATOM     19  C   UNL     1      -0.891  -2.252   0.621  0.00  0.00    +0.049 C 
ATOM     20  C   UNL     1      -1.661   1.911   0.382  0.00  0.00    +0.344 C 
ATOM     21  C   UNL     1      -3.762  -1.318  -0.356  0.00  0.00    +0.003 C 
ATOM     22  C   UNL     1      -1.069  -3.494   1.090  0.00  0.00    -0.024 C 
ATOM     23  C   UNL     1      -0.285  -4.677   0.634  0.00  0.00    +0.031 C 
ENDROOT
BRANCH  17  24
ATOM     24  O   UNL     1      -3.636   1.095   1.423  0.00  0.00    -0.375 OA
ATOM     25  H   UNL     1      -3.108   0.699   2.133  0.00  0.00    +0.211 HD
ENDBRANCH  17  24
BRANCH  17  26
ATOM     26  C   UNL     1      -3.767   1.671  -0.899  0.00  0.00    +0.175 C 
BRANCH  26  27
ATOM     27  O   UNL     1      -3.218   1.317  -2.153  0.00  0.00    -0.379 OA
ATOM     28  H   UNL     1      -3.751   1.708  -2.862  0.00  0.00    +0.211 HD
ENDBRANCH  26  27
ENDBRANCH  17  26
TORSDOF 3
