REMARK  Name = 133562010
REMARK  2 active torsions:
REMARK  status: ('A' for Active; 'I' for Inactive)
REMARK    1  A    between atoms: C_8  and  O_25
REMARK    2  A    between atoms: O_25  and  C_27
REMARK                            x       y       z     vdW  Elec       q    Type
REMARK                         _______ _______ _______ _____ _____    ______ ____
ROOT
ATOM      1  O   UNL     1       1.309   0.951  -0.095  0.00  0.00    -0.443 OA
ATOM      2  O   UNL     1      -0.710  -1.146  -1.417  0.00  0.00    -0.441 OA
ATOM      3  O   UNL     1       5.085  -0.780   1.441  0.00  0.00    -0.274 OA
ATOM      4  O   UNL     1      -1.552  -2.025   0.539  0.00  0.00    -0.246 OA
ATOM      5  O   UNL     1       1.818   3.005  -1.014  0.00  0.00    -0.245 OA
ATOM      6  N   UNL     1       3.229  -1.548   0.377  0.00  0.00    -0.236 N 
ATOM      7  C   UNL     1      -1.955   1.324  -0.606  0.00  0.00    +0.052 C 
ATOM      8  C   UNL     1      -2.619  -0.077  -0.474  0.00  0.00    +0.224 C 
ATOM      9  C   UNL     1       2.391   0.296  -0.769  0.00  0.00    +0.214 C 
ATOM     10  C   UNL     1       2.237  -1.142  -0.457  0.00  0.00    +0.075 C 
ATOM     11  C   UNL     1      -1.196   1.723   0.689  0.00  0.00    +0.037 C 
ATOM     12  C   UNL     1       3.757   0.649  -0.113  0.00  0.00    +0.135 C 
ATOM     13  C   UNL     1       1.400  -2.202  -0.713  0.00  0.00    +0.036 C 
ATOM     14  C   UNL     1       4.153  -0.577   0.691  0.00  0.00    +0.237 C 
ATOM     15  C   UNL     1      -2.974   2.426  -0.949  0.00  0.00    +0.005 C 
ATOM     16  C   UNL     1      -3.538  -0.428  -1.651  0.00  0.00    +0.055 C 
ATOM     17  C   UNL     1      -1.572  -1.191  -0.357  0.00  0.00    +0.354 C 
ATOM     18  C   UNL     1      -0.087   2.715   0.425  0.00  0.00    +0.049 C 
ATOM     19  C   UNL     1       0.200  -2.253  -1.589  0.00  0.00    +0.236 C 
ATOM     20  C   UNL     1       3.068  -2.854   0.716  0.00  0.00    +0.072 C 
ATOM     21  C   UNL     1       1.941  -3.294   0.045  0.00  0.00    +0.017 C 
ATOM     22  C   UNL     1       1.124   2.278  -0.320  0.00  0.00    +0.337 C 
ATOM     23  C   UNL     1      -0.118   3.989   0.840  0.00  0.00    -0.024 C 
ATOM     24  C   UNL     1       0.977   4.970   0.597  0.00  0.00    +0.031 C 
ENDROOT
BRANCH   8  25
ATOM     25  O   UNL     1      -3.403  -0.105   0.717  0.00  0.00    -0.445 OA
BRANCH  25  27
ATOM     26  O   UNL     1      -4.051  -2.274   0.256  0.00  0.00    -0.250 OA
ATOM     27  C   UNL     1      -4.069  -1.273   0.958  0.00  0.00    +0.318 C 
ATOM     28  C   UNL     1      -4.846  -1.157   2.235  0.00  0.00    +0.121 C 
ENDBRANCH  25  27
ENDBRANCH   8  25
TORSDOF 2
