REMARK  Name = 133556521
REMARK  4 active torsions:
REMARK  status: ('A' for Active; 'I' for Inactive)
REMARK    1  A    between atoms: C_3  and  O_21
REMARK    2  A    between atoms: C_5  and  O_23
REMARK    3  A    between atoms: C_18  and  O_25
REMARK    4  A    between atoms: C_19  and  O_27
REMARK                            x       y       z     vdW  Elec       q    Type
REMARK                         _______ _______ _______ _____ _____    ______ ____
ROOT
ATOM      1  O   UNL     1      -0.316   1.816  -0.681  0.00  0.00    -0.449 OA
ATOM      2  O   UNL     1      -0.299   1.573   1.625  0.00  0.00    -0.245 OA
ATOM      3  C   UNL     1       2.759  -1.574   0.785  0.00  0.00    +0.142 C 
ATOM      4  C   UNL     1       2.605  -2.879  -0.018  0.00  0.00    +0.037 C 
ATOM      5  C   UNL     1       3.271  -0.384  -0.048  0.00  0.00    +0.159 C 
ATOM      6  C   UNL     1       1.580  -2.827  -1.157  0.00  0.00    +0.029 C 
ATOM      7  C   UNL     1       0.599   2.936  -0.676  0.00  0.00    +0.174 C 
ATOM      8  C   UNL     1       2.039   2.443  -0.884  0.00  0.00    +0.069 C 
ATOM      9  C   UNL     1       3.260   0.892   0.751  0.00  0.00    +0.001 C 
ATOM     10  C   UNL     1       2.716   2.069   0.405  0.00  0.00    -0.025 C 
ATOM     11  C   UNL     1       0.218  -2.416  -0.680  0.00  0.00    -0.026 C 
ATOM     12  C   UNL     1      -1.658  -0.834  -0.476  0.00  0.00    +0.012 C 
ATOM     13  C   UNL     1       0.168   3.825  -1.839  0.00  0.00    +0.048 C 
ATOM     14  C   UNL     1      -0.363  -1.256  -1.024  0.00  0.00    -0.004 C 
ATOM     15  C   UNL     1      -1.809   0.361   0.251  0.00  0.00    +0.109 C 
ATOM     16  C   UNL     1      -0.696   1.291   0.508  0.00  0.00    +0.344 C 
ATOM     17  C   UNL     1      -2.788  -1.645  -0.668  0.00  0.00    +0.037 C 
ATOM     18  C   UNL     1      -3.049   0.715   0.798  0.00  0.00    +0.143 C 
ATOM     19  C   UNL     1      -4.027  -1.284  -0.134  0.00  0.00    +0.137 C 
ATOM     20  C   UNL     1      -4.156  -0.108   0.602  0.00  0.00    +0.073 C 
ENDROOT
BRANCH   3  21
ATOM     21  O   UNL     1       3.668  -1.838   1.860  0.00  0.00    -0.382 OA
ATOM     22  H   UNL     1       3.342  -2.589   2.381  0.00  0.00    +0.210 HD
ENDBRANCH   3  21
BRANCH   5  23
ATOM     23  O   UNL     1       4.603  -0.654  -0.481  0.00  0.00    -0.378 OA
ATOM     24  H   UNL     1       4.615  -1.475  -0.996  0.00  0.00    +0.211 HD
ENDBRANCH   5  23
BRANCH  18  25
ATOM     25  O   UNL     1      -3.214   1.866   1.510  0.00  0.00    -0.505 OA
ATOM     26  H   UNL     1      -2.484   2.435   1.656  0.00  0.00    +0.292 HD
ENDBRANCH  18  25
BRANCH  19  27
ATOM     27  O   UNL     1      -5.110  -2.086  -0.329  0.00  0.00    -0.505 OA
ATOM     28  H   UNL     1      -5.024  -2.877  -0.823  0.00  0.00    +0.292 HD
ENDBRANCH  19  27
TORSDOF 4
