133562583
  -OEChem-03292013293D

 53 58  0     1  0  0  0  0  0999 V2000
   -0.8308    2.3137   -1.0649 O   0  0  0  0  0  0  0  0  0  0  0  0
   -3.5860    0.6532   -1.1145 O   0  0  0  0  0  0  0  0  0  0  0  0
   -1.0091   -0.3769   -2.2537 O   0  0  0  0  0  0  0  0  0  0  0  0
   -0.9730   -1.2542    1.3008 O   0  0  0  0  0  0  0  0  0  0  0  0
   -3.2007   -2.5993    0.4867 O   0  0  0  0  0  0  0  0  0  0  0  0
    5.1466    0.5806    1.4236 O   0  0  0  0  0  0  0  0  0  0  0  0
    6.0180   -1.1537    0.1856 O   0  0  0  0  0  0  0  0  0  0  0  0
   -1.2365    1.1263   -0.3668 C   0  0  2  0  0  0  0  0  0  0  0  0
   -0.5858   -0.1722   -0.8914 C   0  0  2  0  0  0  0  0  0  0  0  0
   -2.7320    1.0748   -0.0448 C   0  0  2  0  0  0  0  0  0  0  0  0
   -0.3754    2.2048    0.2877 C   0  0  1  0  0  0  0  0  0  0  0  0
   -3.4912   -0.2345    0.0170 C   0  0  2  0  0  0  0  0  0  0  0  0
    1.0144   -0.1213   -0.8806 C   0  0  1  0  0  0  0  0  0  0  0  0
   -1.2194   -1.3666   -0.0994 C   0  0  2  0  0  0  0  0  0  0  0  0
    1.5306    0.5996    0.4211 C   0  0  2  0  0  0  0  0  0  0  0  0
   -2.7457   -1.5038   -0.3118 C   0  0  1  0  0  0  0  0  0  0  0  0
    1.1023    2.0706    0.4395 C   0  0  0  0  0  0  0  0  0  0  0  0
   -4.7661   -0.3075    0.7973 C   0  0  0  0  0  0  0  0  0  0  0  0
    1.6487   -1.5567   -0.9289 C   0  0  0  0  0  0  0  0  0  0  0  0
    1.5342    0.6172   -2.1625 C   0  0  0  0  0  0  0  0  0  0  0  0
    3.0079    0.4074    0.6286 C   0  0  0  0  0  0  0  0  0  0  0  0
    3.1897   -1.5597   -0.9197 C   0  0  0  0  0  0  0  0  0  0  0  0
    3.7137   -0.5489    0.0289 C   0  0  0  0  0  0  0  0  0  0  0  0
   -4.5023   -0.5918    2.2870 C   0  0  0  0  0  0  0  0  0  0  0  0
   -5.5894    0.9591    0.6583 C   0  0  0  0  0  0  0  0  0  0  0  0
    3.8512    1.1839    1.5562 C   0  0  0  0  0  0  0  0  0  0  0  0
    5.0862   -0.4438    0.5206 C   0  0  0  0  0  0  0  0  0  0  0  0
   -3.0851    1.8980    0.5656 H   0  0  0  0  0  0  0  0  0  0  0  0
   -0.8189    2.8723    1.0145 H   0  0  0  0  0  0  0  0  0  0  0  0
   -0.7935   -2.3207   -0.4313 H   0  0  0  0  0  0  0  0  0  0  0  0
    1.0618    0.1270    1.2920 H   0  0  0  0  0  0  0  0  0  0  0  0
   -2.9576   -1.7744   -1.3532 H   0  0  0  0  0  0  0  0  0  0  0  0
    1.3845    2.5198    1.4002 H   0  0  0  0  0  0  0  0  0  0  0  0
    1.6222    2.6555   -0.3285 H   0  0  0  0  0  0  0  0  0  0  0  0
   -5.3717   -1.1308    0.3970 H   0  0  0  0  0  0  0  0  0  0  0  0
    1.2975   -2.1081   -1.8094 H   0  0  0  0  0  0  0  0  0  0  0  0
    1.3320   -2.1323   -0.0517 H   0  0  0  0  0  0  0  0  0  0  0  0
    1.0130    1.5571   -2.3536 H   0  0  0  0  0  0  0  0  0  0  0  0
    1.3981   -0.0054   -3.0547 H   0  0  0  0  0  0  0  0  0  0  0  0
    2.5989    0.8631   -2.1057 H   0  0  0  0  0  0  0  0  0  0  0  0
   -0.6737   -1.2410   -2.5467 H   0  0  0  0  0  0  0  0  0  0  0  0
    3.5727   -1.3504   -1.9250 H   0  0  0  0  0  0  0  0  0  0  0  0
    3.5431   -2.5602   -0.6453 H   0  0  0  0  0  0  0  0  0  0  0  0
   -0.0981   -1.6350    1.4813 H   0  0  0  0  0  0  0  0  0  0  0  0
   -2.7242   -3.3947    0.1941 H   0  0  0  0  0  0  0  0  0  0  0  0
   -3.8832    0.1968    2.7296 H   0  0  0  0  0  0  0  0  0  0  0  0
   -3.9860   -1.5395    2.4535 H   0  0  0  0  0  0  0  0  0  0  0  0
   -5.4451   -0.6323    2.8433 H   0  0  0  0  0  0  0  0  0  0  0  0
   -5.1213    1.8321    1.1227 H   0  0  0  0  0  0  0  0  0  0  0  0
   -6.5562    0.8283    1.1602 H   0  0  0  0  0  0  0  0  0  0  0  0
   -5.8177    1.2000   -0.3853 H   0  0  0  0  0  0  0  0  0  0  0  0
    3.9262    2.2380    1.2752 H   0  0  0  0  0  0  0  0  0  0  0  0
    3.5212    1.0935    2.5949 H   0  0  0  0  0  0  0  0  0  0  0  0
  1  8  1  0  0  0  0
  1 11  1  0  0  0  0
  2 10  1  0  0  0  0
  2 12  1  0  0  0  0
  3  9  1  0  0  0  0
  3 41  1  0  0  0  0
  4 14  1  0  0  0  0
  4 44  1  0  0  0  0
  5 16  1  0  0  0  0
  5 45  1  0  0  0  0
  6 26  1  0  0  0  0
  6 27  1  0  0  0  0
  7 27  2  0  0  0  0
  8  9  1  0  0  0  0
  8 10  1  0  0  0  0
  8 11  1  0  0  0  0
  9 13  1  0  0  0  0
  9 14  1  0  0  0  0
 10 12  1  0  0  0  0
 10 28  1  0  0  0  0
 11 17  1  0  0  0  0
 11 29  1  0  0  0  0
 12 16  1  0  0  0  0
 12 18  1  0  0  0  0
 13 15  1  0  0  0  0
 13 19  1  0  0  0  0
 13 20  1  0  0  0  0
 14 16  1  0  0  0  0
 14 30  1  0  0  0  0
 15 17  1  0  0  0  0
 15 21  1  0  0  0  0
 15 31  1  0  0  0  0
 16 32  1  0  0  0  0
 17 33  1  0  0  0  0
 17 34  1  0  0  0  0
 18 24  1  0  0  0  0
 18 25  1  0  0  0  0
 18 35  1  0  0  0  0
 19 22  1  0  0  0  0
 19 36  1  0  0  0  0
 19 37  1  0  0  0  0
 20 38  1  0  0  0  0
 20 39  1  0  0  0  0
 20 40  1  0  0  0  0
 21 23  2  0  0  0  0
 21 26  1  0  0  0  0
 22 23  1  0  0  0  0
 22 42  1  0  0  0  0
 22 43  1  0  0  0  0
 23 27  1  0  0  0  0
 24 46  1  0  0  0  0
 24 47  1  0  0  0  0
 24 48  1  0  0  0  0
 25 49  1  0  0  0  0
 25 50  1  0  0  0  0
 25 51  1  0  0  0  0
 26 52  1  0  0  0  0
 26 53  1  0  0  0  0
M  END
> <PUBCHEM_COMPOUND_CID>
133562583

> <PUBCHEM_CONFORMER_RMSD>
0.6

> <PUBCHEM_CONFORMER_DIVERSEORDER>
1
6
9
8
2
10
4
3
11
5
7

> <PUBCHEM_MMFF94_PARTIAL_CHARGES>
27
1 -0.3
10 0.05
11 -0.05
12 -0.04
14 0.28
15 0.14
16 0.38
17 0.09
18 0.09
2 -0.3
21 -0.28
22 0.14
23 -0.12
26 0.42
27 0.71
28 0.1
29 0.1
3 -0.68
4 -0.68
41 0.4
44 0.4
45 0.4
5 -0.68
6 -0.43
7 -0.57
8 0.05
9 0.38

> <PUBCHEM_EFFECTIVE_ROTOR_COUNT>
2.8

> <PUBCHEM_PHARMACOPHORE_FEATURES>
14
1 1 acceptor
1 2 acceptor
1 3 acceptor
1 3 donor
1 4 acceptor
1 4 donor
1 5 acceptor
1 5 donor
1 7 acceptor
3 18 24 25 hydrophobe
5 6 21 23 26 27 rings
6 13 15 19 21 22 23 rings
7 1 8 9 11 13 15 17 rings
7 2 8 9 10 12 14 16 rings

> <PUBCHEM_HEAVY_ATOM_COUNT>
27

> <PUBCHEM_ATOM_DEF_STEREO_COUNT>
5

> <PUBCHEM_ATOM_UDEF_STEREO_COUNT>
4

> <PUBCHEM_BOND_DEF_STEREO_COUNT>
0

> <PUBCHEM_BOND_UDEF_STEREO_COUNT>
0

> <PUBCHEM_ISOTOPIC_ATOM_COUNT>
0

> <PUBCHEM_COMPONENT_COUNT>
1

> <PUBCHEM_CACTVS_TAUTO_COUNT>
1

> <PUBCHEM_CONFORMER_ID>
07F600D700000001

> <PUBCHEM_MMFF94_ENERGY>
77.1445

> <PUBCHEM_FEATURE_SELFOVERLAP>
71.147

> <PUBCHEM_SHAPE_FINGERPRINT>
10675989 125 16749287490043994365
10863032 1 17417804084408561351
11045977 3 18343860022230802872
11089746 13 15841544180848879778
11132069 177 18410855469018796383
11370993 144 17846225410058766851
11552529 35 17559665325198302735
11578080 2 12893978855426230137
11796584 16 16950286200187210507
12011746 2 18342165640152156860
12035758 1 18411427215339618355
12236239 1 16153709799718680108
12403814 3 17917699197739762869
12422481 6 18272371957820175776
12633257 1 18341333374348046051
12670546 177 12251904806242472753
12714826 92 17458054963450272277
12788726 201 18114480975770282988
13140716 1 18268992153676332057
13224815 77 18341898523498802764
13402501 40 18342174440904110482
13583140 156 18269542871663036996
13675066 3 18334298664936668363
14178342 30 18200323237649138751
14341114 176 18411135819209928128
14386348 63 18411418397307548506
14790565 3 17764588016459915584
15142383 8 16515678910518708509
15163728 17 13182202638718824179
15209289 33 17821446889272302971
15209294 21 16917351437241391665
15238133 3 18339373993262263093
15788980 27 17967247606976922525
16945 1 18342465854619786629
17349148 13 16660646241422626162
1813 80 17458064867491850164
18785283 64 18265337402669327496
19141452 34 18343301487662186127
19784866 170 18272369789130365764
20600515 1 18411147939085885445
21033648 29 18340469089473936729
21267235 1 18272373019541975166
21421861 104 18116146680252125810
21637258 2 16370723772894906427
22122407 14 16271932644206784419
22182313 1 18128537067952849788
23184049 59 17846782905361329461
23402539 116 18343013394024613615
23559900 14 18338241458026457502
2838139 119 15338837513438622121
296302 2 16630529535590219311
350125 39 18273213110871529504
392239 28 18342170073043774602
4340502 62 15985108522178663567
46194498 28 8070016775248966346
463206 1 14490483014115636889
474 4 14979956990814402972
5104073 3 18129933585475551074
59755656 215 18341336574563470326
7226269 152 18261392222010161113
9709674 26 18200027335866315830

> <PUBCHEM_SHAPE_MULTIPOLES>
514.56
10.65
2.05
1.63
2.16
0.14
-0.14
-1.15
5.37
-0.17
-0.02
-0.35
0.03
0.98

> <PUBCHEM_SHAPE_SELFOVERLAP>
1137.942

> <PUBCHEM_SHAPE_VOLUME>
268.2

> <PUBCHEM_COORDINATE_TYPE>
2
5
10

$$$$
