REMARK  Name = 133562450
REMARK  7 active torsions:
REMARK  status: ('A' for Active; 'I' for Inactive)
REMARK    1  A    between atoms: C_1  and  C_13
REMARK    2  A    between atoms: C_1  and  C_19
REMARK    3  A    between atoms: C_7  and  C_16
REMARK    4  A    between atoms: C_16  and  O_17
REMARK    5  A    between atoms: C_20  and  C_22
REMARK    6  A    between atoms: C_23  and  C_27
REMARK    7  A    between atoms: C_27  and  O_33
REMARK                            x       y       z     vdW  Elec       q    Type
REMARK                         _______ _______ _______ _____ _____    ______ ____
ROOT
ATOM      1  C   UNL     1       1.455   0.359  -1.894  0.00  0.00    +0.049 C 
ATOM      2  C   UNL     1       1.902  -0.449  -3.115  0.00  0.00    +0.007 C 
ENDROOT
BRANCH   1  13
ATOM      3  O   UNL     1       5.931  -0.535   1.376  0.00  0.00    -0.341 OA
ATOM      4  O   UNL     1       3.212  -0.576   1.796  0.00  0.00    -0.327 OA
ATOM      5  O   UNL     1       2.765  -1.040  -0.493  0.00  0.00    -0.334 OA
ATOM      6  O   UNL     1       4.792   2.534   1.882  0.00  0.00    -0.291 OA
ATOM      7  C   UNL     1       5.072  -0.767   0.248  0.00  0.00    +0.198 C 
ATOM      8  C   UNL     1       5.458   0.628   0.681  0.00  0.00    +0.206 C 
ATOM      9  C   UNL     1       3.674  -1.233   0.603  0.00  0.00    +0.215 C 
ATOM     10  C   UNL     1       3.093   0.831   1.612  0.00  0.00    +0.179 C 
ATOM     11  C   UNL     1       2.125   1.120   0.452  0.00  0.00    +0.062 C 
ATOM     12  C   UNL     1       4.482   1.431   1.447  0.00  0.00    +0.207 C 
ATOM     13  C   UNL     1       2.532   0.338  -0.814  0.00  0.00    +0.124 C 
ATOM     14  C   UNL     1       3.656  -2.728   0.923  0.00  0.00    +0.064 C 
ATOM     15  C   UNL     1       1.961   2.618   0.201  0.00  0.00    +0.005 C 
BRANCH   7  16
ATOM     16  C   UNL     1       5.773  -1.385  -0.921  0.00  0.00    +0.172 C 
BRANCH  16  17
ATOM     17  O   UNL     1       5.206  -0.889  -2.123  0.00  0.00    -0.379 OA
ATOM     18  H   UNL     1       5.659  -1.287  -2.882  0.00  0.00    +0.211 HD
ENDBRANCH  16  17
ENDBRANCH   7  16
ENDBRANCH   1  13
BRANCH   1  19
ATOM     19  C   UNL     1       0.162  -0.210  -1.350  0.00  0.00    -0.028 C 
ATOM     20  C   UNL     1      -1.041   0.391  -1.229  0.00  0.00    -0.026 C 
ATOM     21  C   UNL     1      -1.324   1.809  -1.651  0.00  0.00    +0.031 C 
BRANCH  20  22
ATOM     22  C   UNL     1      -2.151  -0.379  -0.655  0.00  0.00    -0.001 C 
ATOM     23  C   UNL     1      -3.410   0.051  -0.459  0.00  0.00    +0.037 C 
BRANCH  23  27
ATOM     24  O   UNL     1      -6.852  -2.128   1.252  0.00  0.00    -0.289 OA
ATOM     25  O   UNL     1      -5.483   1.996  -0.571  0.00  0.00    -0.270 OA
ATOM     26  N   UNL     1      -7.507   1.147   0.285  0.00  0.00    -0.294 N 
ATOM     27  C   UNL     1      -4.488  -0.735   0.113  0.00  0.00    +0.141 C 
ATOM     28  C   UNL     1      -5.724  -0.244   0.281  0.00  0.00    +0.123 C 
ATOM     29  C   UNL     1      -6.873  -0.976   0.854  0.00  0.00    +0.200 C 
ATOM     30  C   UNL     1      -6.162   1.116  -0.075  0.00  0.00    +0.252 C 
ATOM     31  C   UNL     1      -8.071  -0.066   0.865  0.00  0.00    +0.160 C 
ATOM     32  H   UNL     1      -8.055   1.954   0.154  0.00  0.00    +0.150 HD
BRANCH  27  33
ATOM     33  O   UNL     1      -4.165  -2.028   0.477  0.00  0.00    -0.505 OA
ATOM     34  H   UNL     1      -3.293  -2.347   0.349  0.00  0.00    +0.292 HD
ENDBRANCH  27  33
ENDBRANCH  23  27
ENDBRANCH  20  22
ENDBRANCH   1  19
TORSDOF 7
