REMARK  Name = 133540
REMARK  6 active torsions:
REMARK  status: ('A' for Active; 'I' for Inactive)
REMARK    1  A    between atoms: C_2  and  O_12
REMARK    2  A    between atoms: C_3  and  O_14
REMARK    3  A    between atoms: C_4  and  O_16
REMARK    4  A    between atoms: C_5  and  C_9
REMARK    5  A    between atoms: C_6  and  S_18
REMARK    6  A    between atoms: S_18  and  C_23
REMARK                            x       y       z     vdW  Elec       q    Type
REMARK                         _______ _______ _______ _____ _____    ______ ____
ROOT
ATOM      1  O   UNL     1       1.034  -0.268   0.272  0.00  0.00    -0.333 OA
ATOM      2  C   UNL     1       3.469   1.169  -0.226  0.00  0.00    +0.170 C 
ATOM      3  C   UNL     1       3.462  -0.280   0.261  0.00  0.00    +0.176 C 
ATOM      4  C   UNL     1       2.157   1.885   0.113  0.00  0.00    +0.178 C 
ATOM      5  C   UNL     1       2.182  -0.986  -0.165  0.00  0.00    +0.221 C 
ATOM      6  C   UNL     1       0.951   1.035  -0.305  0.00  0.00    +0.197 C 
ENDROOT
BRANCH   5   9
ATOM      7  O   UNL     1       1.530  -2.412   1.633  0.00  0.00    -0.273 OA
ATOM      8  N   UNL     1       2.557  -3.360  -0.194  0.00  0.00    -0.327 N 
ATOM      9  C   UNL     1       2.043  -2.305   0.522  0.00  0.00    +0.249 C 
ATOM     10  H   UNL     1       2.514  -4.272   0.174  0.00  0.00    +0.145 HD
ATOM     11  H   UNL     1       2.967  -3.203  -1.075  0.00  0.00    +0.145 HD
ENDBRANCH   5   9
BRANCH   2  12
ATOM     12  O   UNL     1       4.557   1.841   0.411  0.00  0.00    -0.379 OA
ATOM     13  H   UNL     1       5.387   1.387   0.197  0.00  0.00    +0.211 HD
ENDBRANCH   2  12
BRANCH   3  14
ATOM     14  O   UNL     1       4.574  -0.969  -0.307  0.00  0.00    -0.379 OA
ATOM     15  H   UNL     1       5.397  -0.528  -0.043  0.00  0.00    +0.211 HD
ENDBRANCH   3  14
BRANCH   4  16
ATOM     16  O   UNL     1       2.122   3.128  -0.587  0.00  0.00    -0.379 OA
ATOM     17  H   UNL     1       2.883   3.669  -0.325  0.00  0.00    +0.211 HD
ENDBRANCH   4  16
BRANCH   6  18
ATOM     18  S   UNL     1      -0.605   1.842   0.219  0.00  0.00    -0.067 S 
BRANCH  18  23
ATOM     19  N   UNL     1      -1.536  -0.056  -1.467  0.00  0.00    -0.241 NA
ATOM     20  N   UNL     1      -3.621   1.051   1.353  0.00  0.00    -0.271 NA
ATOM     21  N   UNL     1      -5.071  -0.434   0.538  0.00  0.00    -0.307 N 
ATOM     22  N   UNL     1      -3.700  -1.173  -1.329  0.00  0.00    -0.232 NA
ATOM     23  C   UNL     1      -1.815   0.671  -0.377  0.00  0.00    +0.105 C 
ATOM     24  C   UNL     1      -3.016   0.504   0.257  0.00  0.00    +0.156 C 
ATOM     25  C   UNL     1      -3.936  -0.414  -0.231  0.00  0.00    +0.124 C 
ATOM     26  C   UNL     1      -4.850   0.458   1.480  0.00  0.00    +0.163 C 
ATOM     27  C   UNL     1      -2.489  -0.928  -1.873  0.00  0.00    +0.252 C 
ATOM     28  H   UNL     1      -3.245   1.744   1.942  0.00  0.00    +0.125 HD
ATOM     29  H   UNL     1      -5.873  -0.991   0.413  0.00  0.00    +0.149 HD
ENDBRANCH  18  23
ENDBRANCH   6  18
TORSDOF 6
