REMARK  Name = 133544
REMARK  12 active torsions:
REMARK  status: ('A' for Active; 'I' for Inactive)
REMARK    1  A    between atoms: N_2  and  CA_18
REMARK    2  A    between atoms: C_3  and  C_5
REMARK    3  A    between atoms: C_5  and  N_6
REMARK    4  A    between atoms: C_5  and  C_14
REMARK    5  A    between atoms: N_6  and  P_8
REMARK    6  A    between atoms: P_8  and  O_10
REMARK    7  A    between atoms: P_8  and  O_12
REMARK    8  A    between atoms: C_14  and  C_15
REMARK    9  A    between atoms: CA_18  and  C_20
REMARK   10  A    between atoms: CA_18  and  CB_23
REMARK   11  A    between atoms: C_20  and  O_21
REMARK   12  A    between atoms: CB_23  and  CG_24
REMARK                            x       y       z     vdW  Elec       q    Type
REMARK                         _______ _______ _______ _____ _____    ______ ____
ROOT
ATOM      1  O   UNL     1       0.635   0.995  -2.041  0.00  0.00    -0.274 OA
ATOM      2  N   UNL     1      -0.376   1.163   0.042  0.00  0.00    -0.295 N 
ATOM      3  C   ACE A   0       0.653   0.823  -0.823  0.00  0.00    +0.238 C 
ATOM      4  H   UNL     1      -0.261   0.982   1.003  0.00  0.00    +0.150 HD
ENDROOT
BRANCH   3   5
ATOM      5  C   UNL     1       1.827   0.166  -0.106  0.00  0.00    +0.140 C 
BRANCH   5   6
ATOM      6  N   UNL     1       2.356  -0.829  -1.043  0.00  0.00    -0.205 NA
ATOM      7  H   UNL     1       2.224  -0.451  -1.981  0.00  0.00    +0.135 HD
BRANCH   6   8
ATOM      8  P   UNL     1       1.730  -2.357  -1.049  0.00  0.00    +0.404 P 
ATOM      9  O   UNL     1       0.261  -2.475  -1.352  0.00  0.00    -0.240 OA
BRANCH   8  10
ATOM     10  O   UNL     1       2.116  -3.027   0.379  0.00  0.00    -0.312 OA
ATOM     11  H   UNL     1       1.766  -3.931   0.417  0.00  0.00    +0.221 HD
ENDBRANCH   8  10
BRANCH   8  12
ATOM     12  O   UNL     1       2.636  -3.240  -2.068  0.00  0.00    -0.312 OA
ATOM     13  H   UNL     1       2.296  -4.148  -2.098  0.00  0.00    +0.221 HD
ENDBRANCH   8  12
ENDBRANCH   6   8
ENDBRANCH   5   6
BRANCH   5  14
ATOM     14  C   UNL     1       2.924   1.177   0.265  0.00  0.00    +0.026 C 
BRANCH  14  15
ATOM     15  C   UNL     1       4.115   0.573   1.040  0.00  0.00    +0.002 C 
ATOM     16  C   UNL     1       5.205   1.604   1.336  0.00  0.00    +0.000 C 
ATOM     17  C   UNL     1       3.618  -0.042   2.352  0.00  0.00    +0.000 C 
ENDBRANCH  14  15
ENDBRANCH   5  14
ENDBRANCH   3   5
BRANCH   2  18
ATOM     18  CA  UNL     1      -1.609   1.771  -0.402  0.00  0.00    +0.176 C 
BRANCH  18  20
ATOM     19  OXT UNL     1      -2.364   4.009  -0.924  0.00  0.00    -0.248 OA
ATOM     20  C   UNL     1      -1.474   3.284  -0.493  0.00  0.00    +0.332 C 
BRANCH  20  21
ATOM     21  O   UNL     1      -0.292   3.777  -0.052  0.00  0.00    -0.479 OA
ATOM     22  H   UNL     1       0.367   3.194   0.272  0.00  0.00    +0.295 HD
ENDBRANCH  20  21
ENDBRANCH  18  20
BRANCH  18  23
ATOM     23  CB  UNL     1      -2.773   1.404   0.528  0.00  0.00    +0.057 C 
BRANCH  23  24
ATOM     24  CG  UNL     1      -2.994  -0.086   0.636  0.00  0.00    -0.020 C 
ATOM     25  CD1 UNL     1      -3.858  -0.729  -0.251  0.00  0.00    -0.004 C 
ATOM     26  CD2 UNL     1      -2.334  -0.819   1.622  0.00  0.00    -0.004 C 
ATOM     27  CE1 UNL     1      -4.062  -2.105  -0.152  0.00  0.00    -0.000 C 
ATOM     28  CE2 UNL     1      -2.538  -2.196   1.721  0.00  0.00    -0.000 C 
ATOM     29  CZ  UNL     1      -3.402  -2.838   0.834  0.00  0.00    -0.000 C 
ENDBRANCH  23  24
ENDBRANCH  18  23
ENDBRANCH   2  18
TORSDOF 12
