REMARK  Name = 133556368
REMARK  5 active torsions:
REMARK  status: ('A' for Active; 'I' for Inactive)
REMARK    1  A    between atoms: C_6  and  O_16
REMARK    2  A    between atoms: C_6  and  C_22
REMARK    3  A    between atoms: C_10  and  C_19
REMARK    4  A    between atoms: C_19  and  O_20
REMARK    5  A    between atoms: C_22  and  O_23
REMARK                            x       y       z     vdW  Elec       q    Type
REMARK                         _______ _______ _______ _____ _____    ______ ____
ROOT
ATOM      1  O   UNL     1       0.384   2.527   0.408  0.00  0.00    -0.447 OA
ATOM      2  O   UNL     1       2.327   2.126   1.477  0.00  0.00    -0.247 OA
ATOM      3  C   UNL     1       0.344  -0.171  -0.381  0.00  0.00    +0.039 C 
ATOM      4  C   UNL     1      -0.116  -0.810   0.980  0.00  0.00    +0.003 C 
ATOM      5  C   UNL     1      -0.814   0.765  -0.836  0.00  0.00    +0.057 C 
ATOM      6  C   UNL     1       1.698   0.590  -0.294  0.00  0.00    +0.204 C 
ATOM      7  C   UNL     1       0.205  -2.324   0.881  0.00  0.00    +0.000 C 
ATOM      8  C   UNL     1       0.409  -1.395  -1.274  0.00  0.00    +0.003 C 
ATOM      9  C   UNL     1      -1.571  -0.447   1.060  0.00  0.00    +0.011 C 
ATOM     10  C   UNL     1      -1.931   0.389   0.087  0.00  0.00    +0.103 C 
ATOM     11  C   UNL     1       0.324  -2.549  -0.601  0.00  0.00    +0.000 C 
ATOM     12  C   UNL     1      -0.457   2.246  -0.724  0.00  0.00    +0.209 C 
ATOM     13  C   UNL     1       1.520   1.806   0.610  0.00  0.00    +0.344 C 
ATOM     14  C   UNL     1      -0.787  -3.241   1.590  0.00  0.00    +0.000 C 
ATOM     15  C   UNL     1       0.416  -3.910  -1.195  0.00  0.00    +0.000 C 
ENDROOT
BRANCH   6  16
ATOM     16  O   UNL     1       2.083   1.154  -1.550  0.00  0.00    -0.375 OA
ATOM     17  H   UNL     1       1.362   1.703  -1.893  0.00  0.00    +0.211 HD
ENDBRANCH   6  16
BRANCH  10  19
ATOM     18  O   UNL     1      -4.091   1.004   0.865  0.00  0.00    -0.250 OA
ATOM     19  C   UNL     1      -3.300   0.857  -0.057  0.00  0.00    +0.313 C 
BRANCH  19  20
ATOM     20  O   UNL     1      -3.570   1.105  -1.360  0.00  0.00    -0.480 OA
ATOM     21  H   UNL     1      -2.909   0.967  -2.009  0.00  0.00    +0.295 HD
ENDBRANCH  19  20
ENDBRANCH  10  19
BRANCH   6  22
ATOM     22  C   UNL     1       2.880  -0.259   0.183  0.00  0.00    +0.175 C 
BRANCH  22  23
ATOM     23  O   UNL     1       4.046   0.537   0.130  0.00  0.00    -0.379 OA
ATOM     24  H   UNL     1       4.807   0.016   0.430  0.00  0.00    +0.211 HD
ENDBRANCH  22  23
ENDBRANCH   6  22
TORSDOF 5
