REMARK  Name = 133562831
REMARK  10 active torsions:
REMARK  status: ('A' for Active; 'I' for Inactive)
REMARK    1  A    between atoms: O_1  and  C_3
REMARK    2  A    between atoms: O_1  and  C_17
REMARK    3  A    between atoms: C_4  and  O_8
REMARK    4  A    between atoms: C_5  and  O_10
REMARK    5  A    between atoms: C_6  and  O_12
REMARK    6  A    between atoms: C_7  and  C_14
REMARK    7  A    between atoms: C_14  and  O_15
REMARK    8  A    between atoms: C_17  and  C_19
REMARK    9  A    between atoms: C_19  and  C_20
REMARK   10  A    between atoms: C_20  and  C_23
REMARK                            x       y       z     vdW  Elec       q    Type
REMARK                         _______ _______ _______ _____ _____    ______ ____
ROOT
ATOM      1  O   UNL     1      -0.979   0.750  -1.358  0.00  0.00    -0.331 OA
ENDROOT
BRANCH   1   3
ATOM      2  O   UNL     1      -2.966   0.888  -0.142  0.00  0.00    -0.326 OA
ATOM      3  C   UNL     1      -1.819   0.086  -0.414  0.00  0.00    +0.266 C 
ATOM      4  C   UNL     1      -2.234  -1.256  -1.017  0.00  0.00    +0.196 C 
ATOM      5  C   UNL     1      -3.258  -1.970  -0.134  0.00  0.00    +0.172 C 
ATOM      6  C   UNL     1      -4.393  -1.028   0.268  0.00  0.00    +0.169 C 
ATOM      7  C   UNL     1      -3.838   0.288   0.817  0.00  0.00    +0.176 C 
BRANCH   4   8
ATOM      8  O   UNL     1      -1.068  -2.070  -1.142  0.00  0.00    -0.378 OA
ATOM      9  H   UNL     1      -0.417  -1.619  -1.702  0.00  0.00    +0.211 HD
ENDBRANCH   4   8
BRANCH   5  10
ATOM     10  O   UNL     1      -3.826  -3.065  -0.854  0.00  0.00    -0.379 OA
ATOM     11  H   UNL     1      -3.122  -3.677  -1.120  0.00  0.00    +0.211 HD
ENDBRANCH   5  10
BRANCH   6  12
ATOM     12  O   UNL     1      -5.195  -1.654   1.266  0.00  0.00    -0.379 OA
ATOM     13  H   UNL     1      -5.548  -2.489   0.920  0.00  0.00    +0.211 HD
ENDBRANCH   6  12
BRANCH   7  14
ATOM     14  C   UNL     1      -4.950   1.289   1.117  0.00  0.00    +0.169 C 
BRANCH  14  15
ATOM     15  O   UNL     1      -4.365   2.472   1.629  0.00  0.00    -0.379 OA
ATOM     16  H   UNL     1      -5.061   3.119   1.825  0.00  0.00    +0.211 HD
ENDBRANCH  14  15
ENDBRANCH   7  14
ENDBRANCH   1   3
BRANCH   1  17
ATOM     17  C   UNL     1      -0.542   2.014  -0.866  0.00  0.00    +0.118 C 
ATOM     18  C   UNL     1      -1.070   3.106  -1.786  0.00  0.00    +0.032 C 
BRANCH  17  19
ATOM     19  C   UNL     1       0.987   2.045  -0.776  0.00  0.00    +0.030 C 
BRANCH  19  20
ATOM     20  C   UNL     1       1.518   0.925   0.113  0.00  0.00    +0.007 C 
BRANCH  20  23
ATOM     21  O   UNL     1       4.368  -3.004   0.154  0.00  0.00    -0.291 OA
ATOM     22  C   UNL     1       3.656   0.347   1.473  0.00  0.00    +0.011 C 
ATOM     23  C   UNL     1       3.055   0.946   0.160  0.00  0.00    +0.019 C 
ATOM     24  C   UNL     1       3.521  -1.188   1.467  0.00  0.00    +0.069 C 
ATOM     25  C   UNL     1       3.596   0.243  -1.077  0.00  0.00    -0.041 C 
ATOM     26  C   UNL     1       5.152   0.736   1.590  0.00  0.00    +0.001 C 
ATOM     27  C   UNL     1       2.954   0.900   2.730  0.00  0.00    +0.001 C 
ATOM     28  C   UNL     1       4.019  -1.825   0.187  0.00  0.00    +0.173 C 
ATOM     29  C   UNL     1       4.040  -1.024  -1.059  0.00  0.00    +0.029 C 
ATOM     30  C   UNL     1       3.636   1.050  -2.345  0.00  0.00    +0.026 C 
ENDBRANCH  20  23
ENDBRANCH  19  20
ENDBRANCH  17  19
ENDBRANCH   1  17
TORSDOF 10
