133561827
  -OEChem-03292013293D

 62 65  0     1  0  0  0  0  0999 V2000
   -4.4206   -0.4035    0.6182 O   0  0  0  0  0  0  0  0  0  0  0  0
   -4.0176    0.9967   -1.2040 O   0  0  0  0  0  0  0  0  0  0  0  0
   -7.7162   -2.0419   -1.2044 O   0  0  0  0  0  0  0  0  0  0  0  0
   -6.4950   -3.3919    1.0412 O   0  0  0  0  0  0  0  0  0  0  0  0
   -5.6734   -0.6478   -2.8054 O   0  0  0  0  0  0  0  0  0  0  0  0
    2.0887    2.0092    0.3014 O   0  0  0  0  0  0  0  0  0  0  0  0
   -3.2992   -1.3836    2.9395 O   0  0  0  0  0  0  0  0  0  0  0  0
   -1.4149    4.1475    1.2186 O   0  0  0  0  0  0  0  0  0  0  0  0
    1.1689    3.9756    0.9449 O   0  0  0  0  0  0  0  0  0  0  0  0
    9.1881   -2.2454   -0.5012 O   0  0  0  0  0  0  0  0  0  0  0  0
   -6.3292   -1.9426   -0.8776 C   0  0  2  0  0  0  0  0  0  0  0  0
   -6.1915   -2.0582    0.6406 C   0  0  2  0  0  0  0  0  0  0  0  0
   -5.7817   -0.6076   -1.3827 C   0  0  1  0  0  0  0  0  0  0  0  0
   -4.7695   -1.7079    1.0849 C   0  0  2  0  0  0  0  0  0  0  0  0
   -4.3960   -0.3204   -0.8049 C   0  0  2  0  0  0  0  0  0  0  0  0
   -4.6372   -1.7034    2.6045 C   0  0  0  0  0  0  0  0  0  0  0  0
    1.8710    0.6098    0.0108 C   0  0  1  0  0  0  0  0  0  0  0  0
    0.8696    0.4677   -1.1262 C   0  0  0  0  0  0  0  0  0  0  0  0
   -0.3838    1.1831   -0.7220 C   0  0  0  0  0  0  0  0  0  0  0  0
    3.2169    0.0010   -0.3559 C   0  0  0  0  0  0  0  0  0  0  0  0
   -2.7918    1.4354   -0.7835 C   0  0  0  0  0  0  0  0  0  0  0  0
   -0.2917    2.3343    0.0699 C   0  0  0  0  0  0  0  0  0  0  0  0
   -1.6392    0.7436   -1.1559 C   0  0  0  0  0  0  0  0  0  0  0  0
    4.2087    0.1035    0.8027 C   0  0  0  0  0  0  0  0  0  0  0  0
   -2.6961    2.5749    0.0142 C   0  0  0  0  0  0  0  0  0  0  0  0
   -1.4476    3.0302    0.4387 C   0  0  0  0  0  0  0  0  0  0  0  0
    1.0345    2.8489    0.4863 C   0  0  0  0  0  0  0  0  0  0  0  0
    5.5353   -0.5224    0.4559 C   0  0  0  0  0  0  0  0  0  0  0  0
    5.7604   -1.8732    0.7218 C   0  0  0  0  0  0  0  0  0  0  0  0
    6.5377    0.2492   -0.1316 C   0  0  0  0  0  0  0  0  0  0  0  0
    6.9879   -2.4521    0.4004 C   0  0  0  0  0  0  0  0  0  0  0  0
    7.7655   -0.3297   -0.4528 C   0  0  0  0  0  0  0  0  0  0  0  0
    7.9906   -1.6803   -0.1869 C   0  0  0  0  0  0  0  0  0  0  0  0
   10.1684   -1.3987   -1.0995 C   0  0  0  0  0  0  0  0  0  0  0  0
   -5.8365   -2.7834   -1.3798 H   0  0  0  0  0  0  0  0  0  0  0  0
   -6.9182   -1.3969    1.1282 H   0  0  0  0  0  0  0  0  0  0  0  0
   -6.4742    0.2076   -1.1413 H   0  0  0  0  0  0  0  0  0  0  0  0
   -4.0428   -2.4275    0.6836 H   0  0  0  0  0  0  0  0  0  0  0  0
   -3.6741   -1.0431   -1.2075 H   0  0  0  0  0  0  0  0  0  0  0  0
   -4.8811   -2.6805    3.0321 H   0  0  0  0  0  0  0  0  0  0  0  0
   -5.2844   -0.9407    3.0504 H   0  0  0  0  0  0  0  0  0  0  0  0
    1.4919    0.1351    0.9261 H   0  0  0  0  0  0  0  0  0  0  0  0
    0.6706   -0.5917   -1.3233 H   0  0  0  0  0  0  0  0  0  0  0  0
    1.2467    0.9301   -2.0463 H   0  0  0  0  0  0  0  0  0  0  0  0
    3.6337    0.5211   -1.2286 H   0  0  0  0  0  0  0  0  0  0  0  0
    3.0828   -1.0501   -0.6408 H   0  0  0  0  0  0  0  0  0  0  0  0
   -8.1798   -1.2967   -0.7857 H   0  0  0  0  0  0  0  0  0  0  0  0
   -5.8471   -3.9855    0.6245 H   0  0  0  0  0  0  0  0  0  0  0  0
   -5.0618   -1.3661   -3.0413 H   0  0  0  0  0  0  0  0  0  0  0  0
   -1.7044   -0.1313   -1.7975 H   0  0  0  0  0  0  0  0  0  0  0  0
    3.7987   -0.3859    1.6956 H   0  0  0  0  0  0  0  0  0  0  0  0
    4.3716    1.1511    1.0857 H   0  0  0  0  0  0  0  0  0  0  0  0
   -3.5978    3.1099    0.3024 H   0  0  0  0  0  0  0  0  0  0  0  0
   -3.2387   -1.3815    3.9100 H   0  0  0  0  0  0  0  0  0  0  0  0
    4.9863   -2.4851    1.1773 H   0  0  0  0  0  0  0  0  0  0  0  0
    6.3724    1.3020   -0.3451 H   0  0  0  0  0  0  0  0  0  0  0  0
   -0.5198    4.2947    1.5615 H   0  0  0  0  0  0  0  0  0  0  0  0
    7.1573   -3.5049    0.6093 H   0  0  0  0  0  0  0  0  0  0  0  0
    8.4994    0.3270   -0.9074 H   0  0  0  0  0  0  0  0  0  0  0  0
   10.4701   -0.5918   -0.4230 H   0  0  0  0  0  0  0  0  0  0  0  0
    9.8350   -1.0220   -2.0724 H   0  0  0  0  0  0  0  0  0  0  0  0
   11.0571   -2.0118   -1.2817 H   0  0  0  0  0  0  0  0  0  0  0  0
  1 14  1  0  0  0  0
  1 15  1  0  0  0  0
  2 15  1  0  0  0  0
  2 21  1  0  0  0  0
  3 11  1  0  0  0  0
  3 47  1  0  0  0  0
  4 12  1  0  0  0  0
  4 48  1  0  0  0  0
  5 13  1  0  0  0  0
  5 49  1  0  0  0  0
  6 17  1  0  0  0  0
  6 27  1  0  0  0  0
  7 16  1  0  0  0  0
  7 54  1  0  0  0  0
  8 26  1  0  0  0  0
  8 57  1  0  0  0  0
  9 27  2  0  0  0  0
 10 33  1  0  0  0  0
 10 34  1  0  0  0  0
 11 12  1  0  0  0  0
 11 13  1  0  0  0  0
 11 35  1  0  0  0  0
 12 14  1  0  0  0  0
 12 36  1  0  0  0  0
 13 15  1  0  0  0  0
 13 37  1  0  0  0  0
 14 16  1  0  0  0  0
 14 38  1  0  0  0  0
 15 39  1  0  0  0  0
 16 40  1  0  0  0  0
 16 41  1  0  0  0  0
 17 18  1  0  0  0  0
 17 20  1  0  0  0  0
 17 42  1  0  0  0  0
 18 19  1  0  0  0  0
 18 43  1  0  0  0  0
 18 44  1  0  0  0  0
 19 22  2  0  0  0  0
 19 23  1  0  0  0  0
 20 24  1  0  0  0  0
 20 45  1  0  0  0  0
 20 46  1  0  0  0  0
 21 23  2  0  0  0  0
 21 25  1  0  0  0  0
 22 26  1  0  0  0  0
 22 27  1  0  0  0  0
 23 50  1  0  0  0  0
 24 28  1  0  0  0  0
 24 51  1  0  0  0  0
 24 52  1  0  0  0  0
 25 26  2  0  0  0  0
 25 53  1  0  0  0  0
 28 29  2  0  0  0  0
 28 30  1  0  0  0  0
 29 31  1  0  0  0  0
 29 55  1  0  0  0  0
 30 32  2  0  0  0  0
 30 56  1  0  0  0  0
 31 33  2  0  0  0  0
 31 58  1  0  0  0  0
 32 33  1  0  0  0  0
 32 59  1  0  0  0  0
 34 60  1  0  0  0  0
 34 61  1  0  0  0  0
 34 62  1  0  0  0  0
M  END
> <PUBCHEM_COMPOUND_CID>
133561827

> <PUBCHEM_CONFORMER_RMSD>
1

> <PUBCHEM_CONFORMER_DIVERSEORDER>
1
86
107
77
127
138
41
172
59
106
49
222
34
126
213
70
249
237
31
116
235
75
79
36
104
181
216
12
125
115
120
132
207
190
220
247
248
214
124
140
253
18
121
162
209
239
186
183
119
61
170
217
117
64
14
232
182
60
218
147
157
194
152
89
42
15
17
192
224
175
25
231
135
98
51
234
80
88
128
230
82
200
55
236
46
97
166
243
5
191
74
30
180
66
151
203
130
27
87
149
93
56
255
244
91
110
103
158
92
171
113
168
142
4
187
195
3
26
155
241
156
242
11
188
20
174
176
133
47
83
29
90
69
45
84
148
57
102
96
144
226
201
196
189
6
185
58
215
71
24
146
73
13
53
67
258
81
163
159
227
139
205
111
164
254
184
39
40
108
211
10
112
43
150
223
122
206
22
32
7
256
179
137
212
28
100
19
118
76
178
134
193
65
68
161
35
48
63
16
85
109
38
198
145
136
165
72
177
123
228
101
33
208
99
44
197
204
257
143
23
37
54
114
246
202
167
129
240
21
8
131
2
62
233
238
9
95
154
173
160
50
153
52
105
245
250
169
221
199
78
229
94
252
141
210
251
219
225

> <PUBCHEM_MMFF94_PARTIAL_CHARGES>
44
1 -0.56
10 -0.36
11 0.28
12 0.28
13 0.28
14 0.28
15 0.56
16 0.28
17 0.28
18 0.14
19 -0.14
2 -0.36
21 0.08
22 0.09
23 -0.15
24 0.14
25 -0.15
26 0.08
27 0.63
28 -0.14
29 -0.15
3 -0.68
30 -0.15
31 -0.15
32 -0.15
33 0.08
34 0.28
4 -0.68
47 0.4
48 0.4
49 0.4
5 -0.68
50 0.15
53 0.15
54 0.4
55 0.15
56 0.15
57 0.45
58 0.15
59 0.15
6 -0.43
7 -0.68
8 -0.53
9 -0.57

> <PUBCHEM_EFFECTIVE_ROTOR_COUNT>
8.8

> <PUBCHEM_PHARMACOPHORE_FEATURES>
17
1 1 acceptor
1 10 acceptor
1 2 acceptor
1 3 acceptor
1 3 donor
1 4 acceptor
1 4 donor
1 5 acceptor
1 5 donor
1 7 acceptor
1 7 donor
1 8 donor
1 9 acceptor
6 1 11 12 13 14 15 rings
6 19 21 22 23 25 26 rings
6 28 29 30 31 32 33 rings
6 6 17 18 19 22 27 rings

> <PUBCHEM_HEAVY_ATOM_COUNT>
34

> <PUBCHEM_ATOM_DEF_STEREO_COUNT>
6

> <PUBCHEM_ATOM_UDEF_STEREO_COUNT>
0

> <PUBCHEM_BOND_DEF_STEREO_COUNT>
0

> <PUBCHEM_BOND_UDEF_STEREO_COUNT>
0

> <PUBCHEM_ISOTOPIC_ATOM_COUNT>
0

> <PUBCHEM_COMPONENT_COUNT>
1

> <PUBCHEM_CACTVS_TAUTO_COUNT>
39

> <PUBCHEM_CONFORMER_ID>
07F5FDE300000001

> <PUBCHEM_MMFF94_ENERGY>
115.7828

> <PUBCHEM_FEATURE_SELFOVERLAP>
86.366

> <PUBCHEM_SHAPE_FINGERPRINT>
10391435 84 17895190064932335154
10411042 1 18343578559986805765
105312 117 8502371144069800569
11200772 48 15357700798921813051
11475781 23 11602824554473923162
11497681 19 18262799563377923870
11578821 258 8501783988667883190
117089 54 18410015450640993618
11763389 116 18408888412906434442
12106331 60 18339631261845277214
12373685 5 15068616090236881240
12522641 126 18042412503213165068
12760667 363 18408604773217447561
13248334 5 17981036728410261096
1361 4 18192992626619118242
1361 87 17676773183828662771
13631057 29 18335137562254511576
13782708 43 18259978301322057884
14202775 3 18198906908877761822
14340393 91 18113896078665652813
14444916 359 16487258747450308966
14931854 50 17676478445871719811
150020 25 17748826345792461590
15064986 266 17821453452467887549
15351339 4 17822000978893257954
15392192 29 18336273366498597441
15510800 12 18188208805543639979
15604295 49 9366757678615437926
15803439 3 14851603284458433937
17686467 74 18410568484533364488
19246450 95 17988376875738243769
19302320 297 12031780401373169306
19611394 137 18412268354857262266
21033650 10 16371273464717464509
21133410 32 14491058080546691049
21267235 1 18272083890659457604
21307412 95 17895188965948682467
21344244 246 18260834852053441764
21756936 100 12319730363035346821
21796203 349 18199208328098876513
2260408 40 16199884894460667204
23559900 14 17895469353871380013
25025965 108 18056455306308852070
25269216 80 14779553430779397091
2747138 104 18272081696036528000
2838139 119 10447925062027736474
3383291 50 18409722980749010986
397638 26 10519983760410615358
42767 28 17385720313640535408
4330586 98 17459202930978664058
437795 150 17240493523615119258
437815 12 18335421296004186051
4461854 278 17775284989129825798
474113 269 18201145646987881535
49967989 163 17822301175389564722
54039377 194 18412545418512176766
58083652 198 15912747441609887024
6327066 14 9007061257626582897
636775 8 18411986837152613518
6376802 90 17974001743761436940
70634741 139 17386296483846061096
9896288 288 18058450893894664473
999808 66 18409168809370586646

> <PUBCHEM_SHAPE_MULTIPOLES>
641.01
26.45
4.02
1.74
46.72
2.74
0.4
-31.1
-6.22
-3.09
1.73
-3.59
-0.78
1.28

> <PUBCHEM_SHAPE_SELFOVERLAP>
1377.358

> <PUBCHEM_SHAPE_VOLUME>
351.5

> <PUBCHEM_COORDINATE_TYPE>
2
5
10

$$$$
