REMARK  Name = 133657
REMARK  7 active torsions:
REMARK  status: ('A' for Active; 'I' for Inactive)
REMARK    1  A    between atoms: C_4  and  O_22
REMARK    2  A    between atoms: C_4  and  C_34
REMARK    3  A    between atoms: C_5  and  C_29
REMARK    4  A    between atoms: C_10  and  O_24
REMARK    5  A    between atoms: C_11  and  O_26
REMARK    6  A    between atoms: C_18  and  O_32
REMARK    7  A    between atoms: C_29  and  O_30
REMARK                            x       y       z     vdW  Elec       q    Type
REMARK                         _______ _______ _______ _____ _____    ______ ____
ROOT
ATOM      1  O   UNL     1      -2.136   3.148   0.412  0.00  0.00    -0.291 OA
ATOM      2  O   UNL     1       1.991  -2.791  -0.576  0.00  0.00    -0.286 OA
ATOM      3  O   UNL     1       2.769   2.415   0.341  0.00  0.00    -0.286 OA
ATOM      4  C   UNL     1      -3.802   0.149  -0.863  0.00  0.00    +0.109 C 
ATOM      5  C   UNL     1      -2.784  -0.905  -0.388  0.00  0.00    +0.149 C 
ATOM      6  C   UNL     1      -3.732   1.426  -0.024  0.00  0.00    +0.097 C 
ATOM      7  C   UNL     1      -1.394  -0.324  -0.258  0.00  0.00    +0.030 A 
ATOM      8  C   UNL     1      -1.180   1.037  -0.010  0.00  0.00    +0.068 A 
ATOM      9  C   UNL     1      -2.327   1.968   0.130  0.00  0.00    +0.178 C 
ATOM     10  C   UNL     1      -0.282  -1.177  -0.366  0.00  0.00    +0.134 A 
ATOM     11  C   UNL     1       0.123   1.540   0.116  0.00  0.00    +0.139 A 
ATOM     12  C   UNL     1       1.020  -0.678  -0.241  0.00  0.00    +0.078 A 
ATOM     13  C   UNL     1       1.222   0.680  -0.002  0.00  0.00    +0.079 A 
ATOM     14  C   UNL     1       2.169  -1.598  -0.363  0.00  0.00    +0.199 C 
ATOM     15  C   UNL     1       2.590   1.222   0.133  0.00  0.00    +0.202 C 
ATOM     16  C   UNL     1       3.537  -1.058  -0.226  0.00  0.00    +0.045 C 
ATOM     17  C   UNL     1       3.740   0.302   0.012  0.00  0.00    +0.076 C 
ATOM     18  C   UNL     1       5.042   0.802   0.139  0.00  0.00    +0.137 C 
ATOM     19  C   UNL     1       4.635  -1.919  -0.338  0.00  0.00    +0.003 C 
ATOM     20  C   UNL     1       6.134  -0.059   0.027  0.00  0.00    +0.037 C 
ATOM     21  C   UNL     1       5.931  -1.417  -0.211  0.00  0.00    +0.003 C 
ENDROOT
BRANCH   4  22
ATOM     22  O   UNL     1      -3.480   0.472  -2.226  0.00  0.00    -0.385 OA
ATOM     23  H   UNL     1      -2.578   0.826  -2.270  0.00  0.00    +0.210 HD
ENDBRANCH   4  22
BRANCH  10  24
ATOM     24  O   UNL     1      -0.506  -2.508  -0.590  0.00  0.00    -0.506 OA
ATOM     25  H   UNL     1      -1.382  -2.829  -0.672  0.00  0.00    +0.292 HD
ENDBRANCH  10  24
BRANCH  11  26
ATOM     26  O   UNL     1       0.320   2.871   0.348  0.00  0.00    -0.505 OA
ATOM     27  H   UNL     1      -0.416   3.447   0.426  0.00  0.00    +0.292 HD
ENDBRANCH  11  26
BRANCH   5  29
ATOM     28  O   UNL     1      -3.416  -2.733   1.052  0.00  0.00    -0.250 OA
ATOM     29  C   UNL     1      -3.188  -1.540   0.913  0.00  0.00    +0.323 C 
BRANCH  29  30
ATOM     30  O   UNL     1      -3.254  -0.585   1.884  0.00  0.00    -0.444 OA
ATOM     31  C   UNL     1      -3.630  -1.053   3.183  0.00  0.00    +0.256 C 
ENDBRANCH  29  30
ENDBRANCH   5  29
BRANCH  18  32
ATOM     32  O   UNL     1       5.315   2.118   0.372  0.00  0.00    -0.505 OA
ATOM     33  H   UNL     1       4.614   2.734   0.455  0.00  0.00    +0.292 HD
ENDBRANCH  18  32
BRANCH   4  34
ATOM     34  C   UNL     1      -5.235  -0.400  -0.879  0.00  0.00    +0.028 C 
ATOM     35  C   UNL     1      -6.192   0.594  -1.500  0.00  0.00    +0.003 C 
ENDBRANCH   4  34
TORSDOF 7
