REMARK  Name = 133688438
REMARK  9 active torsions:
REMARK  status: ('A' for Active; 'I' for Inactive)
REMARK    1  A    between atoms: C_6  and  C_24
REMARK    2  A    between atoms: C_13  and  O_20
REMARK    3  A    between atoms: C_19  and  O_22
REMARK    4  A    between atoms: C_24  and  C_26
REMARK    5  A    between atoms: C_26  and  C_27
REMARK    6  A    between atoms: C_27  and  C_30
REMARK    7  A    between atoms: N_29  and  C_32
REMARK    8  A    between atoms: C_32  and  C_34
REMARK    9  A    between atoms: C_34  and  O_35
REMARK                            x       y       z     vdW  Elec       q    Type
REMARK                         _______ _______ _______ _____ _____    ______ ____
ROOT
ATOM      1  C   UNL     1       0.749  -0.443  -0.546  0.00  0.00    +0.000 C 
ATOM      2  C   UNL     1      -0.062   0.652   0.180  0.00  0.00    +0.000 C 
ATOM      3  C   UNL     1       2.002  -0.868   0.227  0.00  0.00    +0.002 C 
ATOM      4  C   UNL     1       2.925   0.382   0.408  0.00  0.00    +0.000 C 
ATOM      5  C   UNL     1       4.268   0.025   1.151  0.00  0.00    +0.002 C 
ATOM      6  C   UNL     1      -1.239   0.789  -0.816  0.00  0.00    +0.000 C 
ATOM      7  C   UNL     1       4.982  -1.149   0.395  0.00  0.00    +0.029 C 
ATOM      8  C   UNL     1       0.830   1.895   0.299  0.00  0.00    +0.000 C 
ATOM      9  C   UNL     1       2.153   1.581   1.022  0.00  0.00    +0.000 C 
ATOM     10  C   UNL     1      -0.300  -1.494  -0.896  0.00  0.00    +0.000 C 
ATOM     11  C   UNL     1       2.740  -2.008  -0.483  0.00  0.00    +0.029 C 
ATOM     12  C   UNL     1      -1.567  -0.674  -1.198  0.00  0.00    +0.000 C 
ATOM     13  C   UNL     1       4.049  -2.365   0.217  0.00  0.00    +0.111 C 
ATOM     14  C   UNL     1       5.244   1.235   1.227  0.00  0.00    +0.003 C 
ATOM     15  C   UNL     1      -0.568   0.239   1.586  0.00  0.00    +0.000 C 
ATOM     16  C   UNL     1       5.588  -0.699  -0.956  0.00  0.00    +0.032 C 
ATOM     17  C   UNL     1       3.997  -0.396   2.619  0.00  0.00    +0.000 C 
ATOM     18  C   UNL     1       5.800   1.668  -0.123  0.00  0.00    +0.029 C 
ATOM     19  C   UNL     1       6.507   0.510  -0.814  0.00  0.00    +0.111 C 
ENDROOT
BRANCH  13  20
ATOM     20  O   UNL     1       4.692  -3.396  -0.530  0.00  0.00    -0.384 OA
ATOM     21  H   UNL     1       5.527  -3.635  -0.098  0.00  0.00    +0.210 HD
ENDBRANCH  13  20
BRANCH  19  22
ATOM     22  O   UNL     1       6.929   0.915  -2.113  0.00  0.00    -0.384 OA
ATOM     23  H   UNL     1       7.378   0.176  -2.551  0.00  0.00    +0.210 HD
ENDBRANCH  19  22
BRANCH   6  24
ATOM     24  C   UNL     1      -2.457   1.562  -0.332  0.00  0.00    +0.000 C 
ATOM     25  C   UNL     1      -2.049   2.980   0.082  0.00  0.00    +0.000 C 
BRANCH  24  26
ATOM     26  C   UNL     1      -3.550   1.569  -1.420  0.00  0.00    +0.010 C 
BRANCH  26  27
ATOM     27  C   UNL     1      -4.937   1.948  -0.899  0.00  0.00    +0.085 C 
BRANCH  27  30
ATOM     28  O   UNL     1      -5.761   1.257   1.270  0.00  0.00    -0.275 OA
ATOM     29  N   UNL     1      -5.574  -0.321  -0.426  0.00  0.00    -0.295 N 
ATOM     30  C   UNL     1      -5.466   0.951   0.118  0.00  0.00    +0.223 C 
ATOM     31  H   UNL     1      -5.307  -0.455  -1.364  0.00  0.00    +0.150 HD
BRANCH  29  32
ATOM     32  C   UNL     1      -6.059  -1.460   0.320  0.00  0.00    +0.200 C 
BRANCH  32  34
ATOM     33  O   UNL     1      -8.161  -2.538   0.780  0.00  0.00    -0.248 OA
ATOM     34  C   UNL     1      -7.551  -1.638   0.215  0.00  0.00    +0.334 C 
BRANCH  34  35
ATOM     35  O   UNL     1      -8.153  -0.709  -0.563  0.00  0.00    -0.479 OA
ATOM     36  H   UNL     1      -7.643  -0.040  -0.974  0.00  0.00    +0.295 HD
ENDBRANCH  34  35
ENDBRANCH  32  34
ENDBRANCH  29  32
ENDBRANCH  27  30
ENDBRANCH  26  27
ENDBRANCH  24  26
ENDBRANCH   6  24
TORSDOF 9
