133606
  -OEChem-03292013323D

 48 48  0     1  0  0  0  0  0999 V2000
   -0.2858    0.0044    2.1083 O   0  0  0  0  0  0  0  0  0  0  0  0
    1.5570    2.6282    0.5002 O   0  0  0  0  0  0  0  0  0  0  0  0
    0.1728    4.2512    1.2500 O   0  0  0  0  0  0  0  0  0  0  0  0
   -4.1272   -3.1416   -0.7554 O   0  0  0  0  0  0  0  0  0  0  0  0
   -2.8813   -4.0570    0.9095 O   0  0  0  0  0  0  0  0  0  0  0  0
   -0.4125    0.9072   -0.0244 N   0  0  0  0  0  0  0  0  0  0  0  0
   -0.8212   -2.3935    0.5308 N   0  0  0  0  0  0  0  0  0  0  0  0
   -1.7682    2.8592   -0.6493 C   0  0  0  0  0  0  0  0  0  0  0  0
   -2.9704    2.0191   -1.1370 C   0  0  0  0  0  0  0  0  0  0  0  0
   -0.8262    2.2243    0.3849 C   0  0  2  0  0  0  0  0  0  0  0  0
    0.2274   -1.4219    0.2180 C   0  0  2  0  0  0  0  0  0  0  0  0
    1.5771   -1.9188    0.7561 C   0  0  0  0  0  0  0  0  0  0  0  0
   -0.1725   -0.1114    0.8890 C   0  0  0  0  0  0  0  0  0  0  0  0
   -3.8116    2.7091   -2.2085 C   0  0  0  0  0  0  0  0  0  0  0  0
   -3.8601    1.6678    0.0615 C   0  0  0  0  0  0  0  0  0  0  0  0
    0.3298    3.1322    0.7734 C   0  0  0  0  0  0  0  0  0  0  0  0
    2.7563   -1.2625    0.0771 C   0  0  0  0  0  0  0  0  0  0  0  0
   -1.9749   -2.2011   -0.3333 C   0  0  0  0  0  0  0  0  0  0  0  0
    3.3093   -1.8355   -1.0682 C   0  0  0  0  0  0  0  0  0  0  0  0
    3.2919   -0.0831    0.5950 C   0  0  0  0  0  0  0  0  0  0  0  0
    4.3978   -1.2295   -1.6954 C   0  0  0  0  0  0  0  0  0  0  0  0
    4.3804    0.5229   -0.0324 C   0  0  0  0  0  0  0  0  0  0  0  0
   -3.0212   -3.2192    0.0275 C   0  0  0  0  0  0  0  0  0  0  0  0
    4.9333   -0.0504   -1.1775 C   0  0  0  0  0  0  0  0  0  0  0  0
   -2.1363    3.8155   -0.2531 H   0  0  0  0  0  0  0  0  0  0  0  0
   -1.1702    3.1247   -1.5328 H   0  0  0  0  0  0  0  0  0  0  0  0
   -2.5971    1.0839   -1.5719 H   0  0  0  0  0  0  0  0  0  0  0  0
   -1.3845    2.0986    1.3218 H   0  0  0  0  0  0  0  0  0  0  0  0
    0.3088   -1.2995   -0.8697 H   0  0  0  0  0  0  0  0  0  0  0  0
   -0.2207    0.7511   -1.0097 H   0  0  0  0  0  0  0  0  0  0  0  0
    1.6546   -1.7739    1.8420 H   0  0  0  0  0  0  0  0  0  0  0  0
    1.6752   -3.0029    0.6039 H   0  0  0  0  0  0  0  0  0  0  0  0
   -4.2412    3.6441   -1.8332 H   0  0  0  0  0  0  0  0  0  0  0  0
   -3.1982    2.9472   -3.0838 H   0  0  0  0  0  0  0  0  0  0  0  0
   -4.6329    2.0648   -2.5393 H   0  0  0  0  0  0  0  0  0  0  0  0
   -4.7430    1.1073   -0.2651 H   0  0  0  0  0  0  0  0  0  0  0  0
   -3.3344    1.0385    0.7855 H   0  0  0  0  0  0  0  0  0  0  0  0
   -4.2069    2.5694    0.5779 H   0  0  0  0  0  0  0  0  0  0  0  0
   -0.4638   -3.3382    0.3865 H   0  0  0  0  0  0  0  0  0  0  0  0
   -1.7071   -2.3472   -1.3854 H   0  0  0  0  0  0  0  0  0  0  0  0
   -2.4208   -1.2122   -0.1923 H   0  0  0  0  0  0  0  0  0  0  0  0
    2.8994   -2.7524   -1.4831 H   0  0  0  0  0  0  0  0  0  0  0  0
    2.8758    0.3676    1.4918 H   0  0  0  0  0  0  0  0  0  0  0  0
    4.8280   -1.6753   -2.5874 H   0  0  0  0  0  0  0  0  0  0  0  0
    4.7982    1.4403    0.3718 H   0  0  0  0  0  0  0  0  0  0  0  0
    2.2735    3.2524    0.7434 H   0  0  0  0  0  0  0  0  0  0  0  0
    5.7809    0.4215   -1.6658 H   0  0  0  0  0  0  0  0  0  0  0  0
   -4.7914   -3.8238   -0.5190 H   0  0  0  0  0  0  0  0  0  0  0  0
  1 13  2  0  0  0  0
  2 16  1  0  0  0  0
  2 46  1  0  0  0  0
  3 16  2  0  0  0  0
  4 23  1  0  0  0  0
  4 48  1  0  0  0  0
  5 23  2  0  0  0  0
  6 10  1  0  0  0  0
  6 13  1  0  0  0  0
  6 30  1  0  0  0  0
  7 11  1  0  0  0  0
  7 18  1  0  0  0  0
  7 39  1  0  0  0  0
  8  9  1  0  0  0  0
  8 10  1  0  0  0  0
  8 25  1  0  0  0  0
  8 26  1  0  0  0  0
  9 14  1  0  0  0  0
  9 15  1  0  0  0  0
  9 27  1  0  0  0  0
 10 16  1  0  0  0  0
 10 28  1  0  0  0  0
 11 12  1  0  0  0  0
 11 13  1  0  0  0  0
 11 29  1  0  0  0  0
 12 17  1  0  0  0  0
 12 31  1  0  0  0  0
 12 32  1  0  0  0  0
 14 33  1  0  0  0  0
 14 34  1  0  0  0  0
 14 35  1  0  0  0  0
 15 36  1  0  0  0  0
 15 37  1  0  0  0  0
 15 38  1  0  0  0  0
 17 19  2  0  0  0  0
 17 20  1  0  0  0  0
 18 23  1  0  0  0  0
 18 40  1  0  0  0  0
 18 41  1  0  0  0  0
 19 21  1  0  0  0  0
 19 42  1  0  0  0  0
 20 22  2  0  0  0  0
 20 43  1  0  0  0  0
 21 24  2  0  0  0  0
 21 44  1  0  0  0  0
 22 24  1  0  0  0  0
 22 45  1  0  0  0  0
 24 47  1  0  0  0  0
M  END
> <PUBCHEM_COMPOUND_CID>
133606

> <PUBCHEM_CONFORMER_RMSD>
1

> <PUBCHEM_CONFORMER_DIVERSEORDER>
1
28
39
23
12
17
4
2
8
5
9
35
16
36
30
21
22
32
7
38
31
20
33
11
27
6
24
29
3
34
10
37
14
18
40
26
13
15
25
19

> <PUBCHEM_MMFF94_PARTIAL_CHARGES>
29
1 -0.57
10 0.36
11 0.33
12 0.14
13 0.57
16 0.66
17 -0.14
18 0.33
19 -0.15
2 -0.65
20 -0.15
21 -0.15
22 -0.15
23 0.66
24 -0.15
3 -0.57
30 0.37
39 0.36
4 -0.65
42 0.15
43 0.15
44 0.15
45 0.15
46 0.5
47 0.15
48 0.5
5 -0.57
6 -0.73
7 -0.9

> <PUBCHEM_EFFECTIVE_ROTOR_COUNT>
11

> <PUBCHEM_PHARMACOPHORE_FEATURES>
12
1 1 acceptor
1 2 acceptor
1 3 acceptor
1 4 acceptor
1 5 acceptor
1 6 donor
1 7 cation
1 7 donor
3 2 3 16 anion
3 4 5 23 anion
3 9 14 15 hydrophobe
6 17 19 20 21 22 24 rings

> <PUBCHEM_HEAVY_ATOM_COUNT>
24

> <PUBCHEM_ATOM_DEF_STEREO_COUNT>
2

> <PUBCHEM_ATOM_UDEF_STEREO_COUNT>
0

> <PUBCHEM_BOND_DEF_STEREO_COUNT>
0

> <PUBCHEM_BOND_UDEF_STEREO_COUNT>
0

> <PUBCHEM_ISOTOPIC_ATOM_COUNT>
0

> <PUBCHEM_COMPONENT_COUNT>
1

> <PUBCHEM_CACTVS_TAUTO_COUNT>
2

> <PUBCHEM_CONFORMER_ID>
000209E600000001

> <PUBCHEM_MMFF94_ENERGY>
43.6599

> <PUBCHEM_FEATURE_SELFOVERLAP>
61.015

> <PUBCHEM_SHAPE_FINGERPRINT>
10498660 4 18410860919664649788
108634 29 18341040844405233262
11045515 52 18193568971694470178
12788726 201 18187926213538179410
12969540 114 18264490581257701005
13149001 5 18341599413334036117
13911987 19 18191872215052453349
14251757 5 18408888425684912503
14790565 3 18052825745489915617
17357779 13 18271237352025374959
17492 54 18189611644704507565
1813 80 18054814998057697030
18785283 64 17109329732227068475
20775438 99 17984105297763421710
21049683 271 17688045509842978182
21524375 3 17682973089400601826
22182313 1 18129648833454253688
23352939 185 18126859410666472235
23419403 2 17559946787442397552
23557571 272 18413108372903165062
23566358 2 18267856358033107133
238 59 17760093917209357074
3084891 8 17832986426772203133
3380486 145 18267608899133752962
352729 6 18049717417364416179
394222 165 17244697862937665569
7164475 11 18409446964897240298

> <PUBCHEM_SHAPE_MULTIPOLES>
454.6
8.36
5.35
1.5
4.99
2
0.32
0.02
5.1
-6.76
-0.96
-0.18
-0.58
1.31

> <PUBCHEM_SHAPE_SELFOVERLAP>
916.215

> <PUBCHEM_SHAPE_VOLUME>
264.4

> <PUBCHEM_COORDINATE_TYPE>
2
5
10

$$$$
