133657
  -OEChem-03292013323D

 49 52  0     1  0  0  0  0  0999 V2000
   -3.4803    0.4724   -2.2262 O   0  0  0  0  0  0  0  0  0  0  0  0
   -3.2541   -0.5845    1.8843 O   0  0  0  0  0  0  0  0  0  0  0  0
   -2.1360    3.1484    0.4124 O   0  0  0  0  0  0  0  0  0  0  0  0
   -0.5058   -2.5081   -0.5897 O   0  0  0  0  0  0  0  0  0  0  0  0
    0.3197    2.8714    0.3476 O   0  0  0  0  0  0  0  0  0  0  0  0
   -3.4157   -2.7335    1.0523 O   0  0  0  0  0  0  0  0  0  0  0  0
    1.9912   -2.7907   -0.5761 O   0  0  0  0  0  0  0  0  0  0  0  0
    2.7695    2.4151    0.3412 O   0  0  0  0  0  0  0  0  0  0  0  0
    5.3150    2.1179    0.3719 O   0  0  0  0  0  0  0  0  0  0  0  0
   -3.8019    0.1486   -0.8634 C   0  0  1  0  0  0  0  0  0  0  0  0
   -2.7843   -0.9055   -0.3884 C   0  0  1  0  0  0  0  0  0  0  0  0
   -3.7325    1.4264   -0.0244 C   0  0  0  0  0  0  0  0  0  0  0  0
   -1.3940   -0.3244   -0.2584 C   0  0  0  0  0  0  0  0  0  0  0  0
   -5.2354   -0.4000   -0.8793 C   0  0  0  0  0  0  0  0  0  0  0  0
   -1.1796    1.0374   -0.0099 C   0  0  0  0  0  0  0  0  0  0  0  0
   -2.3274    1.9678    0.1303 C   0  0  0  0  0  0  0  0  0  0  0  0
   -0.2824   -1.1772   -0.3665 C   0  0  0  0  0  0  0  0  0  0  0  0
   -3.1875   -1.5395    0.9134 C   0  0  0  0  0  0  0  0  0  0  0  0
    0.1233    1.5397    0.1155 C   0  0  0  0  0  0  0  0  0  0  0  0
    1.0196   -0.6778   -0.2410 C   0  0  0  0  0  0  0  0  0  0  0  0
    1.2219    0.6800   -0.0016 C   0  0  0  0  0  0  0  0  0  0  0  0
   -6.1922    0.5944   -1.5004 C   0  0  0  0  0  0  0  0  0  0  0  0
    2.1693   -1.5978   -0.3631 C   0  0  0  0  0  0  0  0  0  0  0  0
    2.5903    1.2215    0.1328 C   0  0  0  0  0  0  0  0  0  0  0  0
    3.5372   -1.0581   -0.2263 C   0  0  0  0  0  0  0  0  0  0  0  0
    3.7404    0.3025    0.0124 C   0  0  0  0  0  0  0  0  0  0  0  0
    5.0420    0.8023    0.1394 C   0  0  0  0  0  0  0  0  0  0  0  0
    4.6352   -1.9193   -0.3380 C   0  0  0  0  0  0  0  0  0  0  0  0
   -3.6301   -1.0533    3.1831 C   0  0  0  0  0  0  0  0  0  0  0  0
    6.1337   -0.0591    0.0271 C   0  0  0  0  0  0  0  0  0  0  0  0
    5.9308   -1.4171   -0.2110 C   0  0  0  0  0  0  0  0  0  0  0  0
   -2.7710   -1.6904   -1.1571 H   0  0  0  0  0  0  0  0  0  0  0  0
   -4.1873    1.3292    0.9647 H   0  0  0  0  0  0  0  0  0  0  0  0
   -4.2704    2.2266   -0.5499 H   0  0  0  0  0  0  0  0  0  0  0  0
   -5.5829   -0.6488    0.1296 H   0  0  0  0  0  0  0  0  0  0  0  0
   -5.2727   -1.3219   -1.4736 H   0  0  0  0  0  0  0  0  0  0  0  0
   -3.5508   -0.3397   -2.7565 H   0  0  0  0  0  0  0  0  0  0  0  0
   -6.3202    1.4875   -0.8820 H   0  0  0  0  0  0  0  0  0  0  0  0
   -5.8899    0.9032   -2.5054 H   0  0  0  0  0  0  0  0  0  0  0  0
   -7.1831    0.1352   -1.5923 H   0  0  0  0  0  0  0  0  0  0  0  0
   -1.3433   -2.7900   -0.1911 H   0  0  0  0  0  0  0  0  0  0  0  0
    1.2102    3.1398    0.0753 H   0  0  0  0  0  0  0  0  0  0  0  0
    4.5036   -2.9820   -0.5236 H   0  0  0  0  0  0  0  0  0  0  0  0
   -3.6441   -0.1966    3.8620 H   0  0  0  0  0  0  0  0  0  0  0  0
   -2.8991   -1.7803    3.5493 H   0  0  0  0  0  0  0  0  0  0  0  0
   -4.6315   -1.4928    3.1511 H   0  0  0  0  0  0  0  0  0  0  0  0
    7.1510    0.3115    0.1226 H   0  0  0  0  0  0  0  0  0  0  0  0
    6.7822   -2.0859   -0.2980 H   0  0  0  0  0  0  0  0  0  0  0  0
    6.2772    2.2480    0.4249 H   0  0  0  0  0  0  0  0  0  0  0  0
  1 10  1  0  0  0  0
  1 37  1  0  0  0  0
  2 18  1  0  0  0  0
  2 29  1  0  0  0  0
  3 16  2  0  0  0  0
  4 17  1  0  0  0  0
  4 41  1  0  0  0  0
  5 19  1  0  0  0  0
  5 42  1  0  0  0  0
  6 18  2  0  0  0  0
  7 23  2  0  0  0  0
  8 24  2  0  0  0  0
  9 27  1  0  0  0  0
  9 49  1  0  0  0  0
 10 11  1  0  0  0  0
 10 12  1  0  0  0  0
 10 14  1  0  0  0  0
 11 13  1  0  0  0  0
 11 18  1  0  0  0  0
 11 32  1  0  0  0  0
 12 16  1  0  0  0  0
 12 33  1  0  0  0  0
 12 34  1  0  0  0  0
 13 15  2  0  0  0  0
 13 17  1  0  0  0  0
 14 22  1  0  0  0  0
 14 35  1  0  0  0  0
 14 36  1  0  0  0  0
 15 16  1  0  0  0  0
 15 19  1  0  0  0  0
 17 20  2  0  0  0  0
 19 21  2  0  0  0  0
 20 21  1  0  0  0  0
 20 23  1  0  0  0  0
 21 24  1  0  0  0  0
 22 38  1  0  0  0  0
 22 39  1  0  0  0  0
 22 40  1  0  0  0  0
 23 25  1  0  0  0  0
 24 26  1  0  0  0  0
 25 26  2  0  0  0  0
 25 28  1  0  0  0  0
 26 27  1  0  0  0  0
 27 30  2  0  0  0  0
 28 31  2  0  0  0  0
 28 43  1  0  0  0  0
 29 44  1  0  0  0  0
 29 45  1  0  0  0  0
 29 46  1  0  0  0  0
 30 31  1  0  0  0  0
 30 47  1  0  0  0  0
 31 48  1  0  0  0  0
M  END
> <PUBCHEM_COMPOUND_CID>
133657

> <PUBCHEM_CONFORMER_RMSD>
0.8

> <PUBCHEM_CONFORMER_DIVERSEORDER>
1
2

> <PUBCHEM_MMFF94_PARTIAL_CHARGES>
36
1 -0.68
10 0.28
11 0.2
12 0.06
13 -0.14
15 0.09
16 0.42
17 0.08
18 0.66
19 0.08
2 -0.43
20 0.09
21 0.09
23 0.4
24 0.4
25 0.09
26 0.09
27 0.08
28 -0.15
29 0.28
3 -0.57
30 -0.15
31 -0.15
37 0.4
4 -0.53
41 0.45
42 0.45
43 0.15
47 0.15
48 0.15
49 0.45
5 -0.53
6 -0.57
7 -0.57
8 -0.57
9 -0.53

> <PUBCHEM_EFFECTIVE_ROTOR_COUNT>
3.6

> <PUBCHEM_PHARMACOPHORE_FEATURES>
14
1 1 acceptor
1 1 donor
1 22 hydrophobe
1 3 acceptor
1 4 donor
1 5 donor
1 6 acceptor
1 7 acceptor
1 8 acceptor
1 9 donor
6 10 11 12 13 15 16 rings
6 13 15 17 19 20 21 rings
6 20 21 23 24 25 26 rings
6 25 26 27 28 30 31 rings

> <PUBCHEM_HEAVY_ATOM_COUNT>
31

> <PUBCHEM_ATOM_DEF_STEREO_COUNT>
2

> <PUBCHEM_ATOM_UDEF_STEREO_COUNT>
0

> <PUBCHEM_BOND_DEF_STEREO_COUNT>
0

> <PUBCHEM_BOND_UDEF_STEREO_COUNT>
0

> <PUBCHEM_ISOTOPIC_ATOM_COUNT>
0

> <PUBCHEM_COMPONENT_COUNT>
1

> <PUBCHEM_CACTVS_TAUTO_COUNT>
608

> <PUBCHEM_CONFORMER_ID>
00020A1900000001

> <PUBCHEM_MMFF94_ENERGY>
104.6982

> <PUBCHEM_FEATURE_SELFOVERLAP>
71.111

> <PUBCHEM_SHAPE_FINGERPRINT>
10 15 18339348761268162528
10675989 125 17038658068280145612
10906281 52 18341343193223728157
11135609 12 17968394427922925409
11578080 2 13841140051744921764
11796584 16 17167861954975198066
12011746 2 18411412904007363037
12236239 1 17418372497876816367
12422481 6 18199490812471938872
12788726 201 18266729204465371321
12838862 33 18269531950136378276
13140716 1 18196383519502505912
13224815 77 18410579474320219482
13402501 40 18409443674508407189
13583140 156 17675922105619551242
14068700 675 16127794371235300781
14294032 229 15481850999896590339
14790565 3 18342179947247544628
14840074 17 17917710222899635141
15196674 1 18341892953258704364
15788980 27 18113339725808131430
17349148 13 18337382756002307124
17844677 252 18411989048664871724
18927931 339 18339371785585490150
19591789 44 18413108385766792486
200 152 17989480805795480085
20028762 73 17988353789804439278
20721686 56 18411416216028495784
20775438 99 16763332033496878271
21033648 29 18261662770447509648
21033650 10 14978859695521984618
21236236 1 18271524191632470557
21267235 1 18342741792908736694
21424621 283 17387123166789053085
21682296 61 17987244331074512534
23559900 14 18337664312736825305
3004659 81 18334289847801423932
335352 9 18412541015769706765
3380486 145 18263658427777166779
350125 39 18342173332496833420
392239 28 18409455808144920698
4015057 19 18339353163066646081
4073 2 18113621205369895138
460360 51 18196956399884474006
497634 4 16702018660689203901
5081480 168 16841950108374483110
5104073 3 18412263900954967584
5283173 99 18116141191067675973
57527295 17 18116973552320688695
59755656 215 18408880707317211390
9709674 26 18269841904534800790

> <PUBCHEM_SHAPE_MULTIPOLES>
585.14
12.93
2.85
1.41
7.11
0.5
0.9
-0.88
-1.61
0.44
0.43
-2.83
-0.53
1.56

> <PUBCHEM_SHAPE_SELFOVERLAP>
1320.505

> <PUBCHEM_SHAPE_VOLUME>
301.8

> <PUBCHEM_COORDINATE_TYPE>
2
5
10

$$$$
