REMARK  Name = 133639
REMARK  2 active torsions:
REMARK  status: ('A' for Active; 'I' for Inactive)
REMARK    1  A    between atoms: N_2  and  C_15
REMARK    2  A    between atoms: C_3  and  C_7
REMARK                            x       y       z     vdW  Elec       q    Type
REMARK                         _______ _______ _______ _____ _____    ______ ____
ROOT
ATOM      1  O   UNL     1       0.133  -1.951   1.114  0.00  0.00    -0.270 OA
ATOM      2  N   UNL     1       0.946  -0.041   0.054  0.00  0.00    -0.295 N 
ATOM      3  C   UNL     1      -0.047  -0.889   0.515  0.00  0.00    +0.247 C 
ATOM      4  H   UNL     1       0.678   0.783  -0.413  0.00  0.00    +0.150 HD
ENDROOT
BRANCH   3   7
ATOM      5  O   UNL     1      -5.168   0.828  -0.571  0.00  0.00    -0.270 OA
ATOM      6  N   UNL     1      -3.667  -0.883  -0.168  0.00  0.00    -0.279 N 
ATOM      7  C   UNL     1      -1.396  -0.404   0.227  0.00  0.00    +0.068 C 
ATOM      8  C   UNL     1      -2.385  -1.297   0.102  0.00  0.00    +0.069 C 
ATOM      9  C   UNL     1      -1.675   1.004   0.077  0.00  0.00    +0.010 C 
ATOM     10  C   UNL     1      -2.916   1.435  -0.187  0.00  0.00    +0.058 C 
ATOM     11  C   UNL     1      -4.026   0.447  -0.329  0.00  0.00    +0.250 C 
ATOM     12  H   UNL     1      -4.369  -1.568  -0.253  0.00  0.00    +0.155 HD
ENDBRANCH   3   7
BRANCH   2  15
ATOM     13  S   UNL     1       4.656   0.910  -0.459  0.00  0.00    -0.075 S 
ATOM     14  O   UNL     1       2.709   1.995   0.951  0.00  0.00    -0.283 OA
ATOM     15  C   UNL     1       2.346  -0.305   0.222  0.00  0.00    +0.141 C 
ATOM     16  C   UNL     1       2.949  -1.016  -0.985  0.00  0.00    +0.040 C 
ATOM     17  C   UNL     1       4.454  -0.838  -0.908  0.00  0.00    +0.067 C 
ATOM     18  C   UNL     1       3.087   1.005   0.344  0.00  0.00    +0.216 C 
ENDBRANCH   2  15
TORSDOF 2
