REMARK  Name = 133626
REMARK  10 active torsions:
REMARK  status: ('A' for Active; 'I' for Inactive)
REMARK    1  A    between atoms: O_1  and  C_8
REMARK    2  A    between atoms: O_1  and  C_19
REMARK    3  A    between atoms: C_6  and  O_12
REMARK    4  A    between atoms: C_9  and  C_15
REMARK    5  A    between atoms: C_15  and  O_16
REMARK    6  A    between atoms: C_20  and  O_24
REMARK    7  A    between atoms: C_21  and  O_26
REMARK    8  A    between atoms: C_22  and  O_28
REMARK    9  A    between atoms: C_23  and  C_30
REMARK   10  A    between atoms: C_30  and  O_31
REMARK                            x       y       z     vdW  Elec       q    Type
REMARK                         _______ _______ _______ _____ _____    ______ ____
ROOT
ATOM      1  O   UNL     1       0.865  -0.998  -0.621  0.00  0.00    -0.293 OA
ENDROOT
BRANCH   1   8
ATOM      2  O   UNL     1      -0.447   0.867  -0.190  0.00  0.00    -0.449 OA
ATOM      3  C   UNL     1      -1.518  -1.256  -0.898  0.00  0.00    +0.077 C 
ATOM      4  C   UNL     1      -2.901  -0.717  -0.484  0.00  0.00    +0.065 C 
ATOM      5  C   UNL     1      -1.697  -2.768  -0.665  0.00  0.00    +0.009 C 
ATOM      6  C   UNL     1      -3.319  -1.585   0.719  0.00  0.00    +0.115 C 
ATOM      7  C   UNL     1      -2.451  -2.847   0.667  0.00  0.00    +0.030 C 
ATOM      8  C   UNL     1      -0.391  -0.565  -0.102  0.00  0.00    +0.290 C 
ATOM      9  C   UNL     1      -2.848   0.744  -0.179  0.00  0.00    +0.093 C 
ATOM     10  C   UNL     1      -0.442  -3.624  -0.678  0.00  0.00    +0.000 C 
ATOM     11  C   UNL     1      -1.696   1.415  -0.083  0.00  0.00    +0.177 C 
BRANCH   6  12
ATOM     12  O   UNL     1      -4.689  -1.954   0.607  0.00  0.00    -0.384 OA
ATOM     13  H   UNL     1      -5.242  -1.158   0.639  0.00  0.00    +0.210 HD
ENDBRANCH   6  12
BRANCH   9  15
ATOM     14  O   UNL     1      -5.130   1.204  -0.622  0.00  0.00    -0.245 OA
ATOM     15  C   UNL     1      -4.088   1.513  -0.065  0.00  0.00    +0.340 C 
BRANCH  15  16
ATOM     16  O   UNL     1      -3.865   2.582   0.742  0.00  0.00    -0.441 OA
ATOM     17  C   UNL     1      -4.993   3.438   0.953  0.00  0.00    +0.256 C 
ENDBRANCH  15  16
ENDBRANCH   9  15
ENDBRANCH   1   8
BRANCH   1  19
ATOM     18  O   UNL     1       2.287   0.852  -0.583  0.00  0.00    -0.326 OA
ATOM     19  C   UNL     1       1.952  -0.374   0.063  0.00  0.00    +0.268 C 
ATOM     20  C   UNL     1       3.140  -1.337   0.035  0.00  0.00    +0.197 C 
ATOM     21  C   UNL     1       4.396  -0.686   0.616  0.00  0.00    +0.172 C 
ATOM     22  C   UNL     1       4.632   0.698   0.012  0.00  0.00    +0.169 C 
ATOM     23  C   UNL     1       3.355   1.541   0.070  0.00  0.00    +0.176 C 
BRANCH  20  24
ATOM     24  O   UNL     1       2.801  -2.487   0.809  0.00  0.00    -0.378 OA
ATOM     25  H   UNL     1       2.004  -2.901   0.441  0.00  0.00    +0.211 HD
ENDBRANCH  20  24
BRANCH  21  26
ATOM     26  O   UNL     1       5.532  -1.498   0.318  0.00  0.00    -0.379 OA
ATOM     27  H   UNL     1       5.405  -2.384   0.692  0.00  0.00    +0.211 HD
ENDBRANCH  21  26
BRANCH  22  28
ATOM     28  O   UNL     1       5.665   1.359   0.738  0.00  0.00    -0.379 OA
ATOM     29  H   UNL     1       6.476   0.826   0.703  0.00  0.00    +0.211 HD
ENDBRANCH  22  28
BRANCH  23  30
ATOM     30  C   UNL     1       3.533   2.883  -0.632  0.00  0.00    +0.169 C 
BRANCH  30  31
ATOM     31  O   UNL     1       2.315   3.600  -0.548  0.00  0.00    -0.379 OA
ATOM     32  H   UNL     1       2.413   4.458  -0.991  0.00  0.00    +0.211 HD
ENDBRANCH  30  31
ENDBRANCH  23  30
ENDBRANCH   1  19
TORSDOF 10
