REMARK  Name = 133613180
REMARK  6 active torsions:
REMARK  status: ('A' for Active; 'I' for Inactive)
REMARK    1  A    between atoms: C_3  and  O_25
REMARK    2  A    between atoms: C_6  and  O_21
REMARK    3  A    between atoms: C_13  and  O_23
REMARK    4  A    between atoms: C_16  and  C_29
REMARK    5  A    between atoms: O_25  and  C_27
REMARK    6  A    between atoms: C_29  and  O_30
REMARK                            x       y       z     vdW  Elec       q    Type
REMARK                         _______ _______ _______ _____ _____    ______ ____
ROOT
ATOM      1  O   UNL     1      -4.694   0.784  -1.295  0.00  0.00    -0.294 OA
ATOM      2  C   UNL     1       1.677  -1.079   0.391  0.00  0.00    +0.046 C 
ATOM      3  C   UNL     1       2.531   0.001  -0.223  0.00  0.00    +0.136 C 
ATOM      4  C   UNL     1       2.675  -1.448  -0.698  0.00  0.00    +0.037 C 
ATOM      5  C   UNL     1       0.180  -0.896   0.191  0.00  0.00    +0.050 C 
ATOM      6  C   UNL     1      -0.200   0.550   0.680  0.00  0.00    +0.095 C 
ATOM      7  C   UNL     1       1.782   1.072  -0.965  0.00  0.00    +0.042 C 
ATOM      8  C   UNL     1       0.601   1.647  -0.135  0.00  0.00    +0.029 C 
ATOM      9  C   UNL     1       3.898  -2.223  -0.252  0.00  0.00    +0.004 C 
ATOM     10  C   UNL     1       2.215  -1.866  -2.072  0.00  0.00    +0.004 C 
ATOM     11  C   UNL     1      -1.748   0.749   0.700  0.00  0.00    +0.057 C 
ATOM     12  C   UNL     1      -0.639  -2.024   0.783  0.00  0.00    -0.030 C 
ATOM     13  C   UNL     1      -2.522   0.075  -0.451  0.00  0.00    +0.145 C 
ATOM     14  C   UNL     1       1.122   2.812   0.725  0.00  0.00    +0.003 C 
ATOM     15  C   UNL     1      -2.955  -1.357  -0.115  0.00  0.00    +0.058 C 
ATOM     16  C   UNL     1      -1.958  -2.248   0.614  0.00  0.00    -0.017 C 
ATOM     17  C   UNL     1      -2.301   2.151   0.712  0.00  0.00    +0.013 C 
ATOM     18  C   UNL     1      -3.685   1.022  -0.647  0.00  0.00    +0.174 C 
ATOM     19  C   UNL     1      -3.416   2.324  -0.006  0.00  0.00    +0.060 C 
ATOM     20  C   UNL     1      -4.277   3.515  -0.156  0.00  0.00    +0.008 C 
ENDROOT
BRANCH   6  21
ATOM     21  O   UNL     1       0.220   0.610   2.063  0.00  0.00    -0.386 OA
ATOM     22  H   UNL     1       1.181   0.492   2.115  0.00  0.00    +0.210 HD
ENDBRANCH   6  21
BRANCH  13  23
ATOM     23  O   UNL     1      -1.876   0.102  -1.717  0.00  0.00    -0.379 OA
ATOM     24  H   UNL     1      -1.103  -0.483  -1.698  0.00  0.00    +0.211 HD
ENDBRANCH  13  23
BRANCH   3  25
ATOM     25  O   UNL     1       3.580   0.517   0.619  0.00  0.00    -0.456 OA
BRANCH  25  27
ATOM     26  O   UNL     1       5.011   0.748  -1.176  0.00  0.00    -0.250 OA
ATOM     27  C   UNL     1       4.764   0.850   0.018  0.00  0.00    +0.317 C 
ATOM     28  C   UNL     1       5.732   1.370   1.036  0.00  0.00    +0.121 C 
ENDBRANCH  25  27
ENDBRANCH   3  25
BRANCH  16  29
ATOM     29  C   UNL     1      -2.581  -3.489   1.205  0.00  0.00    +0.159 C 
BRANCH  29  30
ATOM     30  O   UNL     1      -3.139  -4.271   0.170  0.00  0.00    -0.378 OA
ATOM     31  H   UNL     1      -3.539  -5.070   0.548  0.00  0.00    +0.211 HD
ENDBRANCH  29  30
ENDBRANCH  16  29
TORSDOF 6
