REMARK  Name = 133683
REMARK  4 active torsions:
REMARK  status: ('A' for Active; 'I' for Inactive)
REMARK    1  A    between atoms: N_4  and  C_15
REMARK    2  A    between atoms: C_5  and  S_8
REMARK    3  A    between atoms: S_8  and  N_11
REMARK    4  A    between atoms: C_15  and  C_19
REMARK                            x       y       z     vdW  Elec       q    Type
REMARK                         _______ _______ _______ _____ _____    ______ ____
ROOT
ATOM      1  S   UNL     1      -0.304   0.685   0.352  0.00  0.00    -0.011 S 
ATOM      2  N   UNL     1      -0.640  -1.810  -0.104  0.00  0.00    -0.227 N 
ATOM      3  N   UNL     1      -1.908  -1.305  -0.238  0.00  0.00    -0.141 NA
ATOM      4  N   UNL     1       1.623  -1.129   0.456  0.00  0.00    -0.147 NA
ATOM      5  C   UNL     1      -1.856  -0.028  -0.029  0.00  0.00    +0.254 A 
ATOM      6  C   UNL     1       0.370  -0.938   0.234  0.00  0.00    +0.186 A 
ATOM      7  C   UNL     1      -0.478  -3.237  -0.268  0.00  0.00    +0.156 C 
ENDROOT
BRANCH   5   8
ATOM      8  S   UNL     1      -3.313   0.904  -0.134  0.00  0.00    +0.081 S 
ATOM      9  O   UNL     1      -2.887   2.252  -0.458  0.00  0.00    -0.151 OA
ATOM     10  O   UNL     1      -4.192   0.148  -1.008  0.00  0.00    -0.151 OA
BRANCH   8  11
ATOM     11  N   UNL     1      -3.927   0.866   1.459  0.00  0.00    -0.202 NA
ATOM     12  H   UNL     1      -4.798   1.396   1.500  0.00  0.00    +0.144 HD
ATOM     13  H   UNL     1      -3.247   1.281   2.095  0.00  0.00    +0.144 HD
ENDBRANCH   8  11
ENDBRANCH   5   8
BRANCH   4  15
ATOM     14  O   UNL     1       2.613   0.407   1.908  0.00  0.00    -0.264 OA
ATOM     15  C   UNL     1       2.390  -0.030   0.781  0.00  0.00    +0.343 C 
BRANCH  15  19
ATOM     16  F   UNL     1       2.625   0.007  -1.582  0.00  0.00    -0.162 F 
ATOM     17  F   UNL     1       4.334   0.650  -0.392  0.00  0.00    -0.162 F 
ATOM     18  F   UNL     1       2.572   1.924  -0.545  0.00  0.00    -0.162 F 
ATOM     19  C   UNL     1       2.978   0.634  -0.431  0.00  0.00    +0.472 C 
ENDBRANCH  15  19
ENDBRANCH   4  15
TORSDOF 4
