REMARK  Name = 133678
REMARK  10 active torsions:
REMARK  status: ('A' for Active; 'I' for Inactive)
REMARK    1  A    between atoms: N_1  and  C_3
REMARK    2  A    between atoms: N_1  and  C_15
REMARK    3  A    between atoms: C_4  and  N_11
REMARK    4  A    between atoms: C_7  and  N_14
REMARK    5  A    between atoms: C_15  and  C_16
REMARK    6  A    between atoms: C_16  and  C_18
REMARK    7  A    between atoms: C_18  and  O_20
REMARK    8  A    between atoms: O_20  and  C_21
REMARK    9  A    between atoms: C_21  and  C_22
REMARK   10  A    between atoms: C_22  and  S_23
REMARK                            x       y       z     vdW  Elec       q    Type
REMARK                         _______ _______ _______ _____ _____    ______ ____
ROOT
ATOM      1  N   UNL     1      -0.257   1.128  -0.526  0.00  0.00    -0.331 N 
ATOM      2  H   UNL     1       0.472   0.468  -0.490  0.00  0.00    +0.147 HD
ENDROOT
BRANCH   1   3
ATOM      3  C   UNL     1      -1.554   0.682  -0.332  0.00  0.00    +0.067 C 
ATOM      4  C   UNL     1      -1.824  -0.666  -0.092  0.00  0.00    +0.157 C 
ATOM      5  C   UNL     1      -2.599   1.604  -0.380  0.00  0.00    +0.018 C 
ATOM      6  C   UNL     1      -3.139  -1.090   0.100  0.00  0.00    +0.049 C 
ATOM      7  C   UNL     1      -4.184  -0.168   0.052  0.00  0.00    +0.145 C 
ATOM      8  C   UNL     1      -3.914   1.180  -0.188  0.00  0.00    +0.025 C 
BRANCH   4  11
ATOM      9  O   UNL     1      -0.434  -2.208  -1.095  0.00  0.00    -0.126 OA
ATOM     10  O   UNL     1      -0.229  -1.865   1.063  0.00  0.00    -0.126 OA
ATOM     11  N   UNL     1      -0.777  -1.628  -0.039  0.00  0.00    +0.059 N 
ENDBRANCH   4  11
BRANCH   7  14
ATOM     12  O   UNL     1      -6.447   0.247   0.201  0.00  0.00    -0.126 OA
ATOM     13  O   UNL     1      -5.744  -1.816   0.462  0.00  0.00    -0.126 OA
ATOM     14  N   UNL     1      -5.522  -0.599   0.248  0.00  0.00    +0.058 N 
ENDBRANCH   7  14
ENDBRANCH   1   3
BRANCH   1  15
ATOM     15  C   UNL     1       0.086   2.508  -0.778  0.00  0.00    +0.097 C 
BRANCH  15  16
ATOM     16  C   UNL     1       1.592   2.662  -0.938  0.00  0.00    +0.105 C 
BRANCH  16  18
ATOM     17  N   UNL     1       2.558   3.006   1.305  0.00  0.00    -0.270 NA
ATOM     18  C   UNL     1       2.323   2.226   0.304  0.00  0.00    +0.194 C 
ATOM     19  H   UNL     1       3.041   2.665   2.092  0.00  0.00    +0.190 HD
BRANCH  18  20
ATOM     20  O   UNL     1       2.721   0.929   0.234  0.00  0.00    -0.462 OA
BRANCH  20  21
ATOM     21  C   UNL     1       3.430   0.400   1.362  0.00  0.00    +0.233 C 
BRANCH  21  22
ATOM     22  C   UNL     1       3.817  -1.045   1.115  0.00  0.00    +0.205 C 
BRANCH  22  23
ATOM     23  S   UNL     1       4.839  -1.212  -0.317  0.00  0.00    +0.026 S 
ATOM     24  O   UNL     1       5.197  -2.793  -0.137  0.00  0.00    -0.069 OA
ATOM     25  O   UNL     1       6.048  -0.434  -0.123  0.00  0.00    -0.069 OA
ATOM     26  O   UNL     1       4.013  -1.052  -1.500  0.00  0.00    -0.069 OA
ENDBRANCH  22  23
ENDBRANCH  21  22
ENDBRANCH  20  21
ENDBRANCH  18  20
ENDBRANCH  16  18
ENDBRANCH  15  16
ENDBRANCH   1  15
TORSDOF 10
