REMARK  Name = 133612048
REMARK  9 active torsions:
REMARK  status: ('A' for Active; 'I' for Inactive)
REMARK    1  A    between atoms: C_6  and  C_24
REMARK    2  A    between atoms: C_10  and  O_20
REMARK    3  A    between atoms: C_19  and  O_22
REMARK    4  A    between atoms: C_24  and  C_26
REMARK    5  A    between atoms: C_26  and  C_27
REMARK    6  A    between atoms: C_27  and  C_30
REMARK    7  A    between atoms: N_29  and  C_32
REMARK    8  A    between atoms: C_32  and  C_34
REMARK    9  A    between atoms: C_34  and  O_35
REMARK                            x       y       z     vdW  Elec       q    Type
REMARK                         _______ _______ _______ _____ _____    ______ ____
ROOT
ATOM      1  C   UNL     1       1.039   1.308  -0.031  0.00  0.00    +0.002 C 
ATOM      2  C   UNL     1      -0.138   0.318   0.140  0.00  0.00    +0.000 C 
ATOM      3  C   UNL     1       2.221   0.706  -0.815  0.00  0.00    +0.027 C 
ATOM      4  C   UNL     1       2.731  -0.558  -0.041  0.00  0.00    +0.002 C 
ATOM      5  C   UNL     1       3.977  -1.225  -0.736  0.00  0.00    +0.000 C 
ATOM      6  C   UNL     1      -1.127   1.230   0.907  0.00  0.00    +0.000 C 
ATOM      7  C   UNL     1       5.104  -0.156  -0.920  0.00  0.00    +0.005 C 
ATOM      8  C   UNL     1       0.366  -0.886   0.945  0.00  0.00    +0.000 C 
ATOM      9  C   UNL     1       1.579  -1.550   0.274  0.00  0.00    +0.000 C 
ATOM     10  C   UNL     1       3.362   1.721  -1.028  0.00  0.00    +0.110 C 
ATOM     11  C   UNL     1       0.355   2.579  -0.531  0.00  0.00    +0.000 C 
ATOM     12  C   UNL     1      -1.009   2.588   0.182  0.00  0.00    +0.000 C 
ATOM     13  C   UNL     1       4.600   1.088  -1.662  0.00  0.00    +0.029 C 
ATOM     14  C   UNL     1       4.560  -2.409   0.090  0.00  0.00    +0.002 C 
ATOM     15  C   UNL     1      -0.751  -0.169  -1.197  0.00  0.00    +0.000 C 
ATOM     16  C   UNL     1       5.770   0.247   0.412  0.00  0.00    +0.029 C 
ATOM     17  C   UNL     1       3.592  -1.812  -2.118  0.00  0.00    +0.000 C 
ATOM     18  C   UNL     1       5.189  -1.990   1.413  0.00  0.00    +0.029 C 
ATOM     19  C   UNL     1       6.287  -0.958   1.190  0.00  0.00    +0.111 C 
ENDROOT
BRANCH  10  20
ATOM     20  O   UNL     1       2.939   2.784  -1.882  0.00  0.00    -0.384 OA
ATOM     21  H   UNL     1       2.152   3.207  -1.505  0.00  0.00    +0.210 HD
ENDBRANCH  10  20
BRANCH  19  22
ATOM     22  O   UNL     1       6.776  -0.535   2.459  0.00  0.00    -0.384 OA
ATOM     23  H   UNL     1       7.477   0.123   2.332  0.00  0.00    +0.210 HD
ENDBRANCH  19  22
BRANCH   6  24
ATOM     24  C   UNL     1      -2.563   0.739   1.016  0.00  0.00    +0.000 C 
ATOM     25  C   UNL     1      -2.667  -0.345   2.094  0.00  0.00    +0.000 C 
BRANCH  24  26
ATOM     26  C   UNL     1      -3.510   1.925   1.295  0.00  0.00    +0.010 C 
BRANCH  26  27
ATOM     27  C   UNL     1      -4.970   1.515   1.491  0.00  0.00    +0.085 C 
BRANCH  27  30
ATOM     28  O   UNL     1      -5.201   1.161  -0.893  0.00  0.00    -0.275 OA
ATOM     29  N   UNL     1      -6.548  -0.046   0.567  0.00  0.00    -0.295 N 
ATOM     30  C   UNL     1      -5.565   0.879   0.246  0.00  0.00    +0.223 C 
ATOM     31  H   UNL     1      -6.760  -0.194   1.517  0.00  0.00    +0.150 HD
BRANCH  29  32
ATOM     32  C   UNL     1      -7.273  -0.804  -0.426  0.00  0.00    +0.200 C 
BRANCH  32  34
ATOM     33  O   UNL     1      -7.055  -2.898  -1.595  0.00  0.00    -0.248 OA
ATOM     34  C   UNL     1      -6.606  -2.112  -0.770  0.00  0.00    +0.334 C 
BRANCH  34  35
ATOM     35  O   UNL     1      -5.464  -2.334  -0.078  0.00  0.00    -0.479 OA
ATOM     36  H   UNL     1      -5.162  -1.702   0.543  0.00  0.00    +0.295 HD
ENDBRANCH  34  35
ENDBRANCH  32  34
ENDBRANCH  29  32
ENDBRANCH  27  30
ENDBRANCH  26  27
ENDBRANCH  24  26
ENDBRANCH   6  24
TORSDOF 9
