133645845
  -OEChem-03292013293D

 56 58  0     1  0  0  0  0  0999 V2000
    3.1524   -0.0588   -1.8358 O   0  5  0  0  0  0  0  0  0  0  0  0
    0.9683    1.1459   -0.1556 O   0  0  0  0  0  0  0  0  0  0  0  0
   -0.3660   -1.2528   -0.1924 O   0  0  0  0  0  0  0  0  0  0  0  0
    1.0828    3.1517    0.9958 O   0  0  0  0  0  0  0  0  0  0  0  0
   -3.8164   -0.3979    0.2407 O   0  0  0  0  0  0  0  0  0  0  0  0
   -2.1265   -1.1587   -1.6731 O   0  0  0  0  0  0  0  0  0  0  0  0
   -3.9154   -2.6229   -0.3727 O   0  0  0  0  0  0  0  0  0  0  0  0
    4.0555   -0.9221    0.3103 N   0  3  1  0  0  0  0  0  0  0  0  0
    2.8257   -0.4272   -0.6107 C   0  0  1  0  0  0  0  0  0  0  0  0
    3.8129   -0.2773    1.7034 C   0  0  0  0  0  0  0  0  0  0  0  0
    2.3102    0.7852    0.2000 C   0  0  2  0  0  0  0  0  0  0  0  0
    2.4187    0.3131    1.6417 C   0  0  0  0  0  0  0  0  0  0  0  0
    3.8754   -2.4555    0.3468 C   0  0  0  0  0  0  0  0  0  0  0  0
    1.9200   -1.6557   -0.6881 C   0  0  0  0  0  0  0  0  0  0  0  0
    5.4483   -0.5564   -0.1811 C   0  0  0  0  0  0  0  0  0  0  0  0
    2.5166   -2.7457   -0.1827 C   0  0  0  0  0  0  0  0  0  0  0  0
    0.5286   -1.6601   -1.2395 C   0  0  0  0  0  0  0  0  0  0  0  0
    0.5011    2.3398    0.2927 C   0  0  0  0  0  0  0  0  0  0  0  0
   -2.4659   -0.5677    0.6714 C   0  0  1  0  0  0  0  0  0  0  0  0
   -1.6625   -1.0242   -0.5480 C   0  0  0  0  0  0  0  0  0  0  0  0
   -0.8445    2.5697   -0.2786 C   0  0  0  0  0  0  0  0  0  0  0  0
   -1.9318    0.7845    1.2295 C   0  0  1  0  0  0  0  0  0  0  0  0
   -1.9023    1.8615    0.1562 C   0  0  0  0  0  0  0  0  0  0  0  0
   -2.4532   -1.6826    1.7244 C   0  0  0  0  0  0  0  0  0  0  0  0
   -2.7687    1.3146    2.4025 C   0  0  0  0  0  0  0  0  0  0  0  0
   -0.9724    3.5919   -1.2861 C   0  0  0  0  0  0  0  0  0  0  0  0
   -4.4212   -1.5143   -0.2622 C   0  0  0  0  0  0  0  0  0  0  0  0
    0.0558    4.3101   -1.7373 C   0  0  0  0  0  0  0  0  0  0  0  0
   -5.8255   -1.1880   -0.6716 C   0  0  0  0  0  0  0  0  0  0  0  0
    4.5578    0.5154    1.8364 H   0  0  0  0  0  0  0  0  0  0  0  0
    3.9387   -1.0250    2.4909 H   0  0  0  0  0  0  0  0  0  0  0  0
    2.9637    1.6589    0.0468 H   0  0  0  0  0  0  0  0  0  0  0  0
    1.6514   -0.4329    1.8797 H   0  0  0  0  0  0  0  0  0  0  0  0
    2.2930    1.1294    2.3596 H   0  0  0  0  0  0  0  0  0  0  0  0
    4.0101   -2.8061    1.3734 H   0  0  0  0  0  0  0  0  0  0  0  0
    4.6368   -2.9102   -0.2958 H   0  0  0  0  0  0  0  0  0  0  0  0
    6.1696   -0.9288    0.5525 H   0  0  0  0  0  0  0  0  0  0  0  0
    5.6210   -1.0312   -1.1511 H   0  0  0  0  0  0  0  0  0  0  0  0
    5.5138    0.5322   -0.2655 H   0  0  0  0  0  0  0  0  0  0  0  0
    2.0631   -3.7259   -0.1364 H   0  0  0  0  0  0  0  0  0  0  0  0
    0.4457   -0.9842   -2.0978 H   0  0  0  0  0  0  0  0  0  0  0  0
    0.2435   -2.6675   -1.5651 H   0  0  0  0  0  0  0  0  0  0  0  0
   -0.9188    0.6194    1.6148 H   0  0  0  0  0  0  0  0  0  0  0  0
   -2.8749    2.0790   -0.2876 H   0  0  0  0  0  0  0  0  0  0  0  0
   -3.3533   -1.6673    2.3493 H   0  0  0  0  0  0  0  0  0  0  0  0
   -1.5866   -1.5711    2.3878 H   0  0  0  0  0  0  0  0  0  0  0  0
   -2.3524   -2.6882    1.3033 H   0  0  0  0  0  0  0  0  0  0  0  0
   -3.8114    1.4885    2.1147 H   0  0  0  0  0  0  0  0  0  0  0  0
   -2.3630    2.2631    2.7735 H   0  0  0  0  0  0  0  0  0  0  0  0
   -2.7631    0.6108    3.2409 H   0  0  0  0  0  0  0  0  0  0  0  0
   -1.9612    3.7877   -1.6927 H   0  0  0  0  0  0  0  0  0  0  0  0
   -0.1164    5.0675   -2.4965 H   0  0  0  0  0  0  0  0  0  0  0  0
    1.0800    4.1893   -1.4059 H   0  0  0  0  0  0  0  0  0  0  0  0
   -6.3946   -0.8475    0.1970 H   0  0  0  0  0  0  0  0  0  0  0  0
   -6.3044   -2.0860   -1.0722 H   0  0  0  0  0  0  0  0  0  0  0  0
   -5.8151   -0.4215   -1.4505 H   0  0  0  0  0  0  0  0  0  0  0  0
  1  9  1  0  0  0  0
  2 11  1  0  0  0  0
  2 18  1  0  0  0  0
  3 17  1  0  0  0  0
  3 20  1  0  0  0  0
  4 18  2  0  0  0  0
  5 19  1  0  0  0  0
  5 27  1  0  0  0  0
  6 20  2  0  0  0  0
  7 27  2  0  0  0  0
  8  9  1  0  0  0  0
  8 10  1  0  0  0  0
  8 13  1  0  0  0  0
  8 15  1  0  0  0  0
  9 11  1  0  0  0  0
  9 14  1  0  0  0  0
 10 12  1  0  0  0  0
 10 30  1  0  0  0  0
 10 31  1  0  0  0  0
 11 12  1  0  0  0  0
 11 32  1  0  0  0  0
 12 33  1  0  0  0  0
 12 34  1  0  0  0  0
 13 16  1  0  0  0  0
 13 35  1  0  0  0  0
 13 36  1  0  0  0  0
 14 16  2  0  0  0  0
 14 17  1  0  0  0  0
 15 37  1  0  0  0  0
 15 38  1  0  0  0  0
 15 39  1  0  0  0  0
 16 40  1  0  0  0  0
 17 41  1  0  0  0  0
 17 42  1  0  0  0  0
 18 21  1  0  0  0  0
 19 20  1  0  0  0  0
 19 22  1  0  0  0  0
 19 24  1  0  0  0  0
 21 23  2  0  0  0  0
 21 26  1  0  0  0  0
 22 23  1  0  0  0  0
 22 25  1  0  0  0  0
 22 43  1  0  0  0  0
 23 44  1  0  0  0  0
 24 45  1  0  0  0  0
 24 46  1  0  0  0  0
 24 47  1  0  0  0  0
 25 48  1  0  0  0  0
 25 49  1  0  0  0  0
 25 50  1  0  0  0  0
 26 28  2  0  0  0  0
 26 51  1  0  0  0  0
 27 29  1  0  0  0  0
 28 52  1  0  0  0  0
 28 53  1  0  0  0  0
 29 54  1  0  0  0  0
 29 55  1  0  0  0  0
 29 56  1  0  0  0  0
M  CHG  2   1  -1   8   1
M  END
> <PUBCHEM_COMPOUND_CID>
133645845

> <PUBCHEM_CONFORMER_RMSD>
0.8

> <PUBCHEM_CONFORMER_DIVERSEORDER>
1
10
3
9
2
7
5
4
6
8

> <PUBCHEM_MMFF94_PARTIAL_CHARGES>
31
1 -0.93
10 0.5
11 0.28
13 0.64
14 -0.28
15 0.5
16 -0.29
17 0.42
18 0.71
19 0.34
2 -0.43
20 0.66
21 0.01
22 0.14
23 -0.29
26 -0.15
27 0.66
28 -0.3
29 0.06
3 -0.43
4 -0.57
40 0.15
44 0.15
5 -0.43
51 0.15
52 0.15
53 0.15
6 -0.57
7 -0.57
8 -1.01
9 0.57

> <PUBCHEM_EFFECTIVE_ROTOR_COUNT>
4.6

> <PUBCHEM_PHARMACOPHORE_FEATURES>
8
1 1 acceptor
1 28 hydrophobe
1 4 acceptor
1 6 acceptor
1 7 acceptor
1 8 cation
5 8 9 10 11 12 rings
5 8 9 13 14 16 rings

> <PUBCHEM_HEAVY_ATOM_COUNT>
29

> <PUBCHEM_ATOM_DEF_STEREO_COUNT>
4

> <PUBCHEM_ATOM_UDEF_STEREO_COUNT>
1

> <PUBCHEM_BOND_DEF_STEREO_COUNT>
1

> <PUBCHEM_BOND_UDEF_STEREO_COUNT>
0

> <PUBCHEM_ISOTOPIC_ATOM_COUNT>
0

> <PUBCHEM_COMPONENT_COUNT>
1

> <PUBCHEM_CACTVS_TAUTO_COUNT>
1

> <PUBCHEM_CONFORMER_ID>
07F7461500000001

> <PUBCHEM_MMFF94_ENERGY>
93.2844

> <PUBCHEM_FEATURE_SELFOVERLAP>
41.099

> <PUBCHEM_SHAPE_FINGERPRINT>
10366900 7 18409454686910653306
10670039 82 18338250284606042758
10688039 33 18261107452661484165
11045515 52 18334008398309583391
11578080 2 17844788369778396960
12160290 23 17832453915388976661
12363563 72 18333452062178562315
12403259 226 18341607062718094154
12422481 6 18057629624098161267
12553582 1 18189638127282619200
12633257 1 17843694252713466298
12788726 201 18041835112777548457
13140716 1 17839448231102342778
13224815 77 18342741771660902614
133893 2 17973188376061613889
138480 1 14880031823409438013
13965767 371 17698184866787814635
14790565 3 17761775465515506780
17357779 13 18341597209962864797
17492 54 18045803418294815956
1813 80 18336261327562659985
20691752 17 18335998488148444530
20739085 24 18193264424158512300
21641784 216 18188788175457695284
23419403 2 17629730488624167577
23559900 14 18191865841468289179
3380486 145 18266754488837869401
35225 105 17465370920231661828
4409770 3 17904198127090562404
469060 322 18408890624338610512
81228 2 18335424513103976401
9925002 15 17057508525434093199

> <PUBCHEM_SHAPE_MULTIPOLES>
550.74
8.81
4.08
1.71
0.49
4.22
-0.47
-7.05
-0.28
1.16
1.58
0.32
0.53
-0.2

> <PUBCHEM_SHAPE_SELFOVERLAP>
1165.845

> <PUBCHEM_SHAPE_VOLUME>
302.8

> <PUBCHEM_COORDINATE_TYPE>
2
5
10

$$$$
