133668
  -OEChem-03292013323D

 47 48  0     1  0  0  0  0  0999 V2000
   -0.3759    1.3180   -1.9741 O   0  0  0  0  0  0  0  0  0  0  0  0
    0.9002   -0.7697    0.6451 O   0  0  0  0  0  0  0  0  0  0  0  0
    5.4695    0.3728    0.1669 O   0  0  0  0  0  0  0  0  0  0  0  0
    5.8893   -1.8197   -0.1957 O   0  0  0  0  0  0  0  0  0  0  0  0
   -0.3720    1.5595    0.3276 N   0  0  0  0  0  0  0  0  0  0  0  0
    2.8741    0.1642   -0.1614 N   0  0  0  0  0  0  0  0  0  0  0  0
   -2.7622    2.8397   -1.6723 N   0  0  0  0  0  0  0  0  0  0  0  0
    1.0755    1.6058    0.4878 C   0  0  1  0  0  0  0  0  0  0  0  0
    1.2921    2.1345    1.9010 C   0  0  0  0  0  0  0  0  0  0  0  0
    0.0497    1.6608    2.6514 C   0  0  0  0  0  0  0  0  0  0  0  0
   -1.0501    1.7619    1.6054 C   0  0  0  0  0  0  0  0  0  0  0  0
   -0.9819    1.4902   -0.9152 C   0  0  0  0  0  0  0  0  0  0  0  0
    1.5821    0.2034    0.3343 C   0  0  0  0  0  0  0  0  0  0  0  0
   -2.4834    1.6290   -0.9107 C   0  0  2  0  0  0  0  0  0  0  0  0
   -3.1522    0.4113   -1.5481 C   0  0  0  0  0  0  0  0  0  0  0  0
    3.5999   -1.0662   -0.3802 C   0  0  1  0  0  0  0  0  0  0  0  0
   -3.2467   -0.7636   -0.6028 C   0  0  0  0  0  0  0  0  0  0  0  0
    3.3518   -1.5908   -1.7863 C   0  0  0  0  0  0  0  0  0  0  0  0
    5.0895   -0.8916   -0.1359 C   0  0  0  0  0  0  0  0  0  0  0  0
   -2.2116   -1.6832   -0.5586 C   0  0  0  0  0  0  0  0  0  0  0  0
   -4.3663   -0.8983    0.2019 C   0  0  0  0  0  0  0  0  0  0  0  0
   -2.2987   -2.7677    0.3142 C   0  0  0  0  0  0  0  0  0  0  0  0
   -4.4532   -1.9828    1.0747 C   0  0  0  0  0  0  0  0  0  0  0  0
   -3.4193   -2.9176    1.1309 C   0  0  0  0  0  0  0  0  0  0  0  0
    1.5112    2.2606   -0.2747 H   0  0  0  0  0  0  0  0  0  0  0  0
    2.2167    1.7817    2.3678 H   0  0  0  0  0  0  0  0  0  0  0  0
    1.3100    3.2311    1.8881 H   0  0  0  0  0  0  0  0  0  0  0  0
   -0.1625    2.2580    3.5425 H   0  0  0  0  0  0  0  0  0  0  0  0
    0.1776    0.6182    2.9659 H   0  0  0  0  0  0  0  0  0  0  0  0
   -1.4993    2.7611    1.6007 H   0  0  0  0  0  0  0  0  0  0  0  0
   -1.8267    1.0081    1.7619 H   0  0  0  0  0  0  0  0  0  0  0  0
   -2.9087    1.7880    0.0799 H   0  0  0  0  0  0  0  0  0  0  0  0
   -2.6359    0.0997   -2.4663 H   0  0  0  0  0  0  0  0  0  0  0  0
   -4.1711    0.6703   -1.8697 H   0  0  0  0  0  0  0  0  0  0  0  0
    3.3427    1.0360   -0.3911 H   0  0  0  0  0  0  0  0  0  0  0  0
    3.2430   -1.7983    0.3540 H   0  0  0  0  0  0  0  0  0  0  0  0
   -2.2800    3.6363   -1.2581 H   0  0  0  0  0  0  0  0  0  0  0  0
   -2.4160    2.7474   -2.6264 H   0  0  0  0  0  0  0  0  0  0  0  0
    3.7082   -0.8802   -2.5410 H   0  0  0  0  0  0  0  0  0  0  0  0
    2.2833   -1.7554   -1.9628 H   0  0  0  0  0  0  0  0  0  0  0  0
    3.8734   -2.5394   -1.9522 H   0  0  0  0  0  0  0  0  0  0  0  0
   -1.3358   -1.5775   -1.1921 H   0  0  0  0  0  0  0  0  0  0  0  0
   -5.1751   -0.1741    0.1676 H   0  0  0  0  0  0  0  0  0  0  0  0
   -1.4934   -3.4952    0.3581 H   0  0  0  0  0  0  0  0  0  0  0  0
   -5.3254   -2.0991    1.7114 H   0  0  0  0  0  0  0  0  0  0  0  0
   -3.4868   -3.7618    1.8108 H   0  0  0  0  0  0  0  0  0  0  0  0
    6.4359    0.4384    0.3215 H   0  0  0  0  0  0  0  0  0  0  0  0
  1 12  2  0  0  0  0
  2 13  2  0  0  0  0
  3 19  1  0  0  0  0
  3 47  1  0  0  0  0
  4 19  2  0  0  0  0
  5  8  1  0  0  0  0
  5 11  1  0  0  0  0
  5 12  1  0  0  0  0
  6 13  1  0  0  0  0
  6 16  1  0  0  0  0
  6 35  1  0  0  0  0
  7 14  1  0  0  0  0
  7 37  1  0  0  0  0
  7 38  1  0  0  0  0
  8  9  1  0  0  0  0
  8 13  1  0  0  0  0
  8 25  1  0  0  0  0
  9 10  1  0  0  0  0
  9 26  1  0  0  0  0
  9 27  1  0  0  0  0
 10 11  1  0  0  0  0
 10 28  1  0  0  0  0
 10 29  1  0  0  0  0
 11 30  1  0  0  0  0
 11 31  1  0  0  0  0
 12 14  1  0  0  0  0
 14 15  1  0  0  0  0
 14 32  1  0  0  0  0
 15 17  1  0  0  0  0
 15 33  1  0  0  0  0
 15 34  1  0  0  0  0
 16 18  1  0  0  0  0
 16 19  1  0  0  0  0
 16 36  1  0  0  0  0
 17 20  2  0  0  0  0
 17 21  1  0  0  0  0
 18 39  1  0  0  0  0
 18 40  1  0  0  0  0
 18 41  1  0  0  0  0
 20 22  1  0  0  0  0
 20 42  1  0  0  0  0
 21 23  2  0  0  0  0
 21 43  1  0  0  0  0
 22 24  2  0  0  0  0
 22 44  1  0  0  0  0
 23 24  1  0  0  0  0
 23 45  1  0  0  0  0
 24 46  1  0  0  0  0
M  END
> <PUBCHEM_COMPOUND_CID>
133668

> <PUBCHEM_CONFORMER_RMSD>
1

> <PUBCHEM_CONFORMER_DIVERSEORDER>
1
92
42
12
102
40
99
74
78
28
67
84
34
98
56
96
73
88
90
60
39
101
14
44
16
18
30
58
19
77
32
87
45
7
52
89
23
85
8
76
82
75
71
15
91
50
41
35
24
59
61
54
29
27
48
36
70
104
43
100
10
97
65
95
93
69
38
11
17
33
13
94
80
81
37
47
53
51
22
103
46
6
21
9
25
57
72
3
5
31
49
20
83
62
4
79
26
2
63
68
66
55
86
64

> <PUBCHEM_MMFF94_PARTIAL_CHARGES>
30
1 -0.57
11 0.3
12 0.57
13 0.57
14 0.33
15 0.14
16 0.36
17 -0.14
19 0.66
2 -0.57
20 -0.15
21 -0.15
22 -0.15
23 -0.15
24 -0.15
3 -0.65
35 0.37
37 0.36
38 0.36
4 -0.57
42 0.15
43 0.15
44 0.15
45 0.15
46 0.15
47 0.5
5 -0.66
6 -0.73
7 -0.99
8 0.36

> <PUBCHEM_EFFECTIVE_ROTOR_COUNT>
9

> <PUBCHEM_PHARMACOPHORE_FEATURES>
10
1 1 acceptor
1 2 acceptor
1 3 acceptor
1 4 acceptor
1 6 donor
1 7 cation
1 7 donor
3 3 4 19 anion
5 5 8 9 10 11 rings
6 17 20 21 22 23 24 rings

> <PUBCHEM_HEAVY_ATOM_COUNT>
24

> <PUBCHEM_ATOM_DEF_STEREO_COUNT>
3

> <PUBCHEM_ATOM_UDEF_STEREO_COUNT>
0

> <PUBCHEM_BOND_DEF_STEREO_COUNT>
0

> <PUBCHEM_BOND_UDEF_STEREO_COUNT>
0

> <PUBCHEM_ISOTOPIC_ATOM_COUNT>
0

> <PUBCHEM_COMPONENT_COUNT>
1

> <PUBCHEM_CACTVS_TAUTO_COUNT>
2

> <PUBCHEM_CONFORMER_ID>
00020A2400000001

> <PUBCHEM_MMFF94_ENERGY>
52.7412

> <PUBCHEM_FEATURE_SELFOVERLAP>
50.807

> <PUBCHEM_SHAPE_FINGERPRINT>
107951 10 18120366554587524173
121448 382 17749108881151386346
12506688 2 18271807964210501530
12553582 1 17560812051717353734
12596602 18 14835827526104128070
12633257 1 17417259860839910087
12714826 92 18409444782610021283
12760667 363 18273216370192745662
12788726 201 17557132909364124737
13103583 49 17203058481605192835
13402501 40 18411701002040597359
13533116 47 17771627038772429095
13544653 18 18202566202419190318
14251740 79 18261396611525104666
14251751 18 18334016107660042662
14251757 17 18410288099523201466
14251764 30 17532670120540929195
17913733 40 17485911236854235160
19784866 135 18333734641315276067
20603629 256 17201905145077790672
20775530 9 18122062276032185291
23175994 123 17989487420076718785
23419403 2 18201428242328810864
23466295 7 18261688029108499395
23559900 14 18336251440237130589
329604 57 18410015463921384790
437815 12 18201726167204493887
458136 41 17696185194270936513
469060 322 17896344487290047363
484985 159 18199478670642214315
4921388 177 18262237720397098964
5283178 26 18200883979857618199
574716 61 16009578080282346226
59755656 520 18050580542739858248
70634741 139 18408048399444967078
9862886 166 18335137592578089634

> <PUBCHEM_SHAPE_MULTIPOLES>
455.49
9.79
3.25
1.92
11.04
0.17
-0.22
8
0.7
-1.83
-0.59
-0.8
-1.17
2.53

> <PUBCHEM_SHAPE_SELFOVERLAP>
948.557

> <PUBCHEM_SHAPE_VOLUME>
258

> <PUBCHEM_COORDINATE_TYPE>
2
5
10

$$$$
