133690
  -OEChem-03292013323D

 57 60  0     1  0  0  0  0  0999 V2000
    3.8405    0.3757   -1.1271 S   0  0  0  0  0  0  0  0  0  0  0  0
    4.2845   -2.0193    2.4886 O   0  0  0  0  0  0  0  0  0  0  0  0
    7.9883   -0.0951   -0.7798 O   0  0  0  0  0  0  0  0  0  0  0  0
    6.8688   -1.9484   -1.4926 O   0  0  0  0  0  0  0  0  0  0  0  0
    0.4917   -1.0821   -1.0902 O   0  0  0  0  0  0  0  0  0  0  0  0
   -2.4647    0.9261    2.2636 O   0  0  0  0  0  0  0  0  0  0  0  0
   -3.2976   -0.8714   -1.4640 O   0  0  0  0  0  0  0  0  0  0  0  0
   -5.7804   -0.7661   -2.2906 O   0  0  0  0  0  0  0  0  0  0  0  0
    4.9093   -1.5838    0.2540 N   0  0  0  0  0  0  0  0  0  0  0  0
    1.8155   -0.8858    0.8031 N   0  0  0  0  0  0  0  0  0  0  0  0
   -1.5531    0.1717    0.2910 N   0  0  0  0  0  0  0  0  0  0  0  0
   -3.8993    0.0797    0.6128 N   0  0  0  0  0  0  0  0  0  0  0  0
   -6.5276   -0.7319   -0.0802 N   0  0  0  0  0  0  0  0  0  0  0  0
    3.8276   -1.4161   -0.7227 C   0  0  1  0  0  0  0  0  0  0  0  0
    2.8516   -1.8456    0.3847 C   0  0  1  0  0  0  0  0  0  0  0  0
    5.9534   -0.5889    0.2828 C   0  0  2  0  0  0  0  0  0  0  0  0
    4.0887   -1.8932    1.3010 C   0  0  0  0  0  0  0  0  0  0  0  0
    5.2669    0.7387   -0.0214 C   0  0  0  0  0  0  0  0  0  0  0  0
    6.9574   -0.9749   -0.7592 C   0  0  0  0  0  0  0  0  0  0  0  0
    0.7113   -0.5868    0.0137 C   0  0  0  0  0  0  0  0  0  0  0  0
   -0.1847    0.4707    0.6455 C   0  0  1  0  0  0  0  0  0  0  0  0
    0.2137    1.8669    0.2277 C   0  0  0  0  0  0  0  0  0  0  0  0
   -5.0594    0.4700    1.4113 C   0  0  0  0  0  0  0  0  0  0  0  0
   -2.6206    0.4267    1.1454 C   0  0  0  0  0  0  0  0  0  0  0  0
   -6.1454   -0.5781    1.3093 C   0  0  0  0  0  0  0  0  0  0  0  0
    1.1466    2.5805    0.9803 C   0  0  0  0  0  0  0  0  0  0  0  0
   -0.3507    2.4423   -0.9108 C   0  0  0  0  0  0  0  0  0  0  0  0
   -4.1382   -0.4921   -0.6550 C   0  0  0  0  0  0  0  0  0  0  0  0
   -5.5762   -0.6699   -1.0857 C   0  0  0  0  0  0  0  0  0  0  0  0
   -7.9180   -1.0372   -0.3729 C   0  0  0  0  0  0  0  0  0  0  0  0
    1.5148    3.8694    0.5948 C   0  0  0  0  0  0  0  0  0  0  0  0
    0.0176    3.7312   -1.2964 C   0  0  0  0  0  0  0  0  0  0  0  0
    0.9503    4.4447   -0.5436 C   0  0  0  0  0  0  0  0  0  0  0  0
   -8.1825   -2.5276   -0.3172 C   0  0  0  0  0  0  0  0  0  0  0  0
    3.9061   -2.0930   -1.5779 H   0  0  0  0  0  0  0  0  0  0  0  0
    2.4219   -2.8436    0.2318 H   0  0  0  0  0  0  0  0  0  0  0  0
    6.4330   -0.5835    1.2672 H   0  0  0  0  0  0  0  0  0  0  0  0
    4.8540    1.1697    0.8969 H   0  0  0  0  0  0  0  0  0  0  0  0
    5.9234    1.4787   -0.4870 H   0  0  0  0  0  0  0  0  0  0  0  0
    1.9097   -0.4113    1.6979 H   0  0  0  0  0  0  0  0  0  0  0  0
   -0.1111    0.3924    1.7378 H   0  0  0  0  0  0  0  0  0  0  0  0
    8.6581   -0.3312   -1.4566 H   0  0  0  0  0  0  0  0  0  0  0  0
   -1.7307   -0.2173   -0.6284 H   0  0  0  0  0  0  0  0  0  0  0  0
   -4.7845    0.6140    2.4608 H   0  0  0  0  0  0  0  0  0  0  0  0
   -5.4092    1.4340    1.0215 H   0  0  0  0  0  0  0  0  0  0  0  0
   -7.0125   -0.2704    1.9028 H   0  0  0  0  0  0  0  0  0  0  0  0
   -5.7977   -1.5520    1.6721 H   0  0  0  0  0  0  0  0  0  0  0  0
    1.5950    2.1438    1.8686 H   0  0  0  0  0  0  0  0  0  0  0  0
   -1.0678    1.9073   -1.5269 H   0  0  0  0  0  0  0  0  0  0  0  0
   -8.1515   -0.6766   -1.3812 H   0  0  0  0  0  0  0  0  0  0  0  0
   -8.5660   -0.4954    0.3242 H   0  0  0  0  0  0  0  0  0  0  0  0
    2.2419    4.4244    1.1802 H   0  0  0  0  0  0  0  0  0  0  0  0
   -0.4188    4.1781   -2.1850 H   0  0  0  0  0  0  0  0  0  0  0  0
   -7.5517   -3.0682   -1.0308 H   0  0  0  0  0  0  0  0  0  0  0  0
   -7.9743   -2.9278    0.6806 H   0  0  0  0  0  0  0  0  0  0  0  0
   -9.2289   -2.7389   -0.5578 H   0  0  0  0  0  0  0  0  0  0  0  0
    1.2380    5.4478   -0.8446 H   0  0  0  0  0  0  0  0  0  0  0  0
  1 14  1  0  0  0  0
  1 18  1  0  0  0  0
  2 17  2  0  0  0  0
  3 19  1  0  0  0  0
  3 42  1  0  0  0  0
  4 19  2  0  0  0  0
  5 20  2  0  0  0  0
  6 24  2  0  0  0  0
  7 28  2  0  0  0  0
  8 29  2  0  0  0  0
  9 14  1  0  0  0  0
  9 16  1  0  0  0  0
  9 17  1  0  0  0  0
 10 15  1  0  0  0  0
 10 20  1  0  0  0  0
 10 40  1  0  0  0  0
 11 21  1  0  0  0  0
 11 24  1  0  0  0  0
 11 43  1  0  0  0  0
 12 23  1  0  0  0  0
 12 24  1  0  0  0  0
 12 28  1  0  0  0  0
 13 25  1  0  0  0  0
 13 29  1  0  0  0  0
 13 30  1  0  0  0  0
 14 15  1  0  0  0  0
 14 35  1  0  0  0  0
 15 17  1  0  0  0  0
 15 36  1  0  0  0  0
 16 18  1  0  0  0  0
 16 19  1  0  0  0  0
 16 37  1  0  0  0  0
 18 38  1  0  0  0  0
 18 39  1  0  0  0  0
 20 21  1  0  0  0  0
 21 22  1  0  0  0  0
 21 41  1  0  0  0  0
 22 26  2  0  0  0  0
 22 27  1  0  0  0  0
 23 25  1  0  0  0  0
 23 44  1  0  0  0  0
 23 45  1  0  0  0  0
 25 46  1  0  0  0  0
 25 47  1  0  0  0  0
 26 31  1  0  0  0  0
 26 48  1  0  0  0  0
 27 32  2  0  0  0  0
 27 49  1  0  0  0  0
 28 29  1  0  0  0  0
 30 34  1  0  0  0  0
 30 50  1  0  0  0  0
 30 51  1  0  0  0  0
 31 33  2  0  0  0  0
 31 52  1  0  0  0  0
 32 33  1  0  0  0  0
 32 53  1  0  0  0  0
 33 57  1  0  0  0  0
 34 54  1  0  0  0  0
 34 55  1  0  0  0  0
 34 56  1  0  0  0  0
M  END
> <PUBCHEM_COMPOUND_CID>
133690

> <PUBCHEM_CONFORMER_RMSD>
1

> <PUBCHEM_CONFORMER_DIVERSEORDER>
1
89
51
50
58
124
64
114
111
24
53
52
42
75
119
25
91
9
57
55
47
70
97
54
110
113
4
49
56
115
43
90
94
21
27
116
14
10
32
5
11
13
16
39
34
88
41
60
109
121
44
87
30
86
37
40
107
12
99
65
76
45
26
36
82
15
96
74
59
81
77
123
63
105
106
19
73
33
101
31
66
46
118
98
17
61
78
8
112
67
6
95
20
108
48
69
125
83
100
3
38
2
71
68
122
7
29
35
104
93
23
79
72
103
126
84
117
120
18
22
85
80
92
102
28
62

> <PUBCHEM_MMFF94_PARTIAL_CHARGES>
41
1 -0.45
10 -0.65
11 -0.73
12 -0.42
13 -0.66
14 0.44
15 0.28
16 0.36
17 0.58
18 0.23
19 0.66
2 -0.57
20 0.57
21 0.5
22 -0.14
23 0.3
24 0.69
25 0.3
26 -0.15
27 -0.15
28 0.63
29 0.63
3 -0.65
30 0.3
31 -0.15
32 -0.15
33 -0.15
4 -0.57
40 0.37
42 0.5
43 0.37
48 0.15
49 0.15
5 -0.57
52 0.15
53 0.15
57 0.15
6 -0.57
7 -0.57
8 -0.57
9 -0.59

> <PUBCHEM_EFFECTIVE_ROTOR_COUNT>
10.6

> <PUBCHEM_PHARMACOPHORE_FEATURES>
13
1 10 donor
1 11 donor
1 2 acceptor
1 3 acceptor
1 4 acceptor
1 5 acceptor
1 6 acceptor
1 7 acceptor
1 8 acceptor
3 3 4 19 anion
6 12 13 23 25 28 29 rings
6 22 26 27 31 32 33 rings
7 1 9 14 15 16 17 18 rings

> <PUBCHEM_HEAVY_ATOM_COUNT>
34

> <PUBCHEM_ATOM_DEF_STEREO_COUNT>
3

> <PUBCHEM_ATOM_UDEF_STEREO_COUNT>
1

> <PUBCHEM_BOND_DEF_STEREO_COUNT>
0

> <PUBCHEM_BOND_UDEF_STEREO_COUNT>
0

> <PUBCHEM_ISOTOPIC_ATOM_COUNT>
0

> <PUBCHEM_COMPONENT_COUNT>
1

> <PUBCHEM_CACTVS_TAUTO_COUNT>
4

> <PUBCHEM_CONFORMER_ID>
00020A3A00000001

> <PUBCHEM_MMFF94_ENERGY>
78.9981

> <PUBCHEM_FEATURE_SELFOVERLAP>
66.043

> <PUBCHEM_SHAPE_FINGERPRINT>
10299344 5 17632861914471789879
11497681 19 18129668487488902894
12107698 1 18410575089944788745
12166972 35 18272086132637680449
12516196 113 18408322172463530635
12788726 201 18188769432114731466
12977781 61 17462016658706637283
13782708 43 17488745541760537782
13911987 19 17895202081998089242
14068700 675 18202847651874400801
14347332 77 18123754158798385854
14556957 393 17896904091928176028
14840074 17 18413390934263722966
15021287 119 18412554202406313585
15183329 4 14562529574603964303
15320294 125 17489303118930859775
15419008 47 17748823029772235173
15439362 3 18120372317801385524
15849732 13 18131070437459054567
15927050 60 17836934769376021348
15979999 66 18333448763902986629
16991971 28 18341622528663381183
16992787 43 18335143150202824708
16994733 274 14418130708037886428
17492 89 18046624495951642114
1813 80 18341901753377597253
18222031 100 18343014476166487762
18336668 15 18202568371678647777
21049683 271 18259987101710314037
2132832 1 18272934925623743473
21424621 283 10737295657613023710
23559900 14 18188771773082865593
23576562 1 18263074574122847463
24771293 8 18200868574142139800
24771750 20 17899428754760354492
3004659 81 18131353051134698753
5219985 9 18410012113303769920
54039377 194 18130790092713344559
57527295 17 17676477303948385289
5969126 39 18336263440349355876
9962374 69 18271238443833389079

> <PUBCHEM_SHAPE_MULTIPOLES>
637.56
20.5
3.68
1.65
14.25
5.26
-0.25
-18.46
4.43
-2.46
0.3
0.56
-0.26
-1.06

> <PUBCHEM_SHAPE_SELFOVERLAP>
1348.842

> <PUBCHEM_SHAPE_VOLUME>
357.2

> <PUBCHEM_COORDINATE_TYPE>
2
5
10

$$$$
