REMARK  Name = 133606
REMARK  12 active torsions:
REMARK  status: ('A' for Active; 'I' for Inactive)
REMARK    1  A    between atoms: CA_1  and  C_4
REMARK    2  A    between atoms: CA_1  and  N_15
REMARK    3  A    between atoms: CA_1  and  CB_23
REMARK    4  A    between atoms: N_3  and  CA_6
REMARK    5  A    between atoms: CA_6  and  C_8
REMARK    6  A    between atoms: CA_6  and  CB_11
REMARK    7  A    between atoms: C_8  and  O_9
REMARK    8  A    between atoms: CB_11  and  CG_12
REMARK    9  A    between atoms: N_15  and  C_18
REMARK   10  A    between atoms: C_18  and  C_20
REMARK   11  A    between atoms: C_20  and  O_21
REMARK   12  A    between atoms: CB_23  and  CG_24
REMARK                            x       y       z     vdW  Elec       q    Type
REMARK                         _______ _______ _______ _____ _____    ______ ____
ROOT
ATOM      1  CA  PHE A   1       0.227  -1.422   0.218  0.00  0.00    +0.022 C 
ENDROOT
BRANCH   1   4
ATOM      2  O   PHE A   1      -0.286   0.004   2.108  0.00  0.00    -0.277 OA
ATOM      3  N   PHE A   1      -0.412   0.907  -0.024  0.00  0.00    -0.298 N 
ATOM      4  C   PHE A   1      -0.172  -0.111   0.889  0.00  0.00    +0.203 C 
ATOM      5  H   PHE A   1      -0.296   0.722  -0.984  0.00  0.00    +0.150 HD
BRANCH   3   6
ATOM      6  CA  PHE A   1      -0.826   2.224   0.385  0.00  0.00    +0.171 C 
BRANCH   6   8
ATOM      7  OXT PHE A   1       0.173   4.251   1.250  0.00  0.00    -0.248 OA
ATOM      8  C   PHE A   1       0.330   3.132   0.773  0.00  0.00    +0.332 C 
BRANCH   8   9
ATOM      9  O   PHE A   1       1.557   2.628   0.500  0.00  0.00    -0.479 OA
ATOM     10  H   PHE A   1       1.640   1.769   0.136  0.00  0.00    +0.295 HD
ENDBRANCH   8   9
ENDBRANCH   6   8
BRANCH   6  11
ATOM     11  CB  PHE A   1      -1.768   2.859  -0.649  0.00  0.00    +0.031 C 
BRANCH  11  12
ATOM     12  CG  PHE A   1      -2.970   2.019  -1.137  0.00  0.00    +0.002 C 
ATOM     13  CD1 PHE A   1      -3.812   2.709  -2.208  0.00  0.00    +0.000 C 
ATOM     14  CD2 PHE A   1      -3.860   1.668   0.061  0.00  0.00    +0.000 C 
ENDBRANCH  11  12
ENDBRANCH   6  11
ENDBRANCH   3   6
ENDBRANCH   1   4
BRANCH   1  15
ATOM     15  N   PHE A   1      -0.821  -2.393   0.531  0.00  0.00    +0.398 N 
ATOM     16  H1  PHE A   1      -1.108  -2.276   1.503  0.00  0.00    -0.083 HD
ATOM     17  H2  PHE A   1      -0.453  -3.333   0.382  0.00  0.00    -0.083 HD
BRANCH  15  18
ATOM     18  C   UNK A   0      -1.975  -2.201  -0.333  0.00  0.00    +0.031 C 
BRANCH  18  20
ATOM     19  O   UNK A   0      -2.881  -4.057   0.909  0.00  0.00    -0.253 OA
ATOM     20  C   UNK A   0      -3.021  -3.219   0.028  0.00  0.00    +0.292 C 
BRANCH  20  21
ATOM     21  O   UNK A   0      -4.127  -3.142  -0.755  0.00  0.00    -0.482 OA
ATOM     22  H   UNK A   0      -4.187  -2.482  -1.418  0.00  0.00    +0.295 HD
ENDBRANCH  20  21
ENDBRANCH  18  20
ENDBRANCH  15  18
ENDBRANCH   1  15
BRANCH   1  23
ATOM     23  CB  PHE A   1       1.577  -1.919   0.756  0.00  0.00    +0.014 C 
BRANCH  23  24
ATOM     24  CG  PHE A   1       2.756  -1.262   0.077  0.00  0.00    -0.024 C 
ATOM     25  CD1 PHE A   1       3.309  -1.835  -1.068  0.00  0.00    -0.004 C 
ATOM     26  CD2 PHE A   1       3.292  -0.083   0.595  0.00  0.00    -0.004 C 
ATOM     27  CE1 PHE A   1       4.398  -1.230  -1.695  0.00  0.00    -0.000 C 
ATOM     28  CE2 PHE A   1       4.380   0.523  -0.032  0.00  0.00    -0.000 C 
ATOM     29  CZ  PHE A   1       4.933  -0.050  -1.177  0.00  0.00    -0.000 C 
ENDBRANCH  23  24
ENDBRANCH   1  23
TORSDOF 12
