REMARK  Name = 133690
REMARK  7 active torsions:
REMARK  status: ('A' for Active; 'I' for Inactive)
REMARK    1  A    between atoms: CA_1  and  N_5
REMARK    2  A    between atoms: CA_1  and  C_16
REMARK    3  A    between atoms: CA_1  and  C_24
REMARK    4  A    between atoms: N_7  and  C_14
REMARK    5  A    between atoms: N_23  and  CA_30
REMARK    6  A    between atoms: CA_31  and  C_35
REMARK    7  A    between atoms: C_35  and  O_36
REMARK                            x       y       z     vdW  Elec       q    Type
REMARK                         _______ _______ _______ _____ _____    ______ ____
ROOT
ATOM      1  CA  UNL     1      -0.185   0.471   0.645  0.00  0.00    +0.173 C 
ENDROOT
BRANCH   1   5
ATOM      2  O   UNL     1      -2.465   0.926   2.264  0.00  0.00    -0.252 OA
ATOM      3  O   UNL     1      -3.298  -0.871  -1.464  0.00  0.00    -0.264 OA
ATOM      4  O   UNL     1      -5.780  -0.766  -2.291  0.00  0.00    -0.265 OA
ATOM      5  N   UNL     1      -1.553   0.172   0.291  0.00  0.00    -0.279 N 
ATOM      6  N   UNL     1      -3.899   0.080   0.613  0.00  0.00    -0.205 N 
ATOM      7  N   UNL     1      -6.528  -0.732  -0.080  0.00  0.00    -0.271 N 
ATOM      8  C   UNL     1      -5.059   0.470   1.411  0.00  0.00    +0.124 C 
ATOM      9  C   UNL     1      -2.621   0.427   1.145  0.00  0.00    +0.311 C 
ATOM     10  C   UNL     1      -6.145  -0.578   1.309  0.00  0.00    +0.116 C 
ATOM     11  C   UNL     1      -4.138  -0.492  -0.655  0.00  0.00    +0.310 C 
ATOM     12  C   UNL     1      -5.576  -0.670  -1.086  0.00  0.00    +0.303 C 
ATOM     13  H   UNL     1      -1.737  -0.228  -0.590  0.00  0.00    +0.152 HD
BRANCH   7  14
ATOM     14  C   UNL     1      -7.918  -1.037  -0.373  0.00  0.00    +0.094 C 
ATOM     15  C   UNL     1      -8.182  -2.528  -0.317  0.00  0.00    +0.023 C 
ENDBRANCH   7  14
ENDBRANCH   1   5
BRANCH   1  16
ATOM     16  C   UNL     1       0.214   1.867   0.228  0.00  0.00    +0.004 C 
ATOM     17  C   UNL     1       1.147   2.580   0.980  0.00  0.00    -0.002 C 
ATOM     18  C   UNL     1      -0.351   2.442  -0.911  0.00  0.00    -0.002 C 
ATOM     19  C   UNL     1       1.515   3.869   0.595  0.00  0.00    -0.000 C 
ATOM     20  C   UNL     1       0.018   3.731  -1.296  0.00  0.00    -0.000 C 
ATOM     21  C   UNL     1       0.950   4.445  -0.544  0.00  0.00    -0.000 C 
ENDBRANCH   1  16
BRANCH   1  24
ATOM     22  O   UNL     1       0.492  -1.082  -1.090  0.00  0.00    -0.273 OA
ATOM     23  N   UNL     1       1.815  -0.886   0.803  0.00  0.00    -0.295 N 
ATOM     24  C   UNL     1       0.711  -0.587   0.014  0.00  0.00    +0.245 C 
ATOM     25  H   UNL     1       1.909  -0.439   1.675  0.00  0.00    +0.150 HD
BRANCH  23  30
ATOM     26  SG  UNL     1       3.841   0.376  -1.127  0.00  0.00    -0.117 S 
ATOM     27  O   UNL     1       4.285  -2.019   2.489  0.00  0.00    -0.273 OA
ATOM     28  N   UNL     1       4.909  -1.584   0.254  0.00  0.00    -0.260 N 
ATOM     29  C   UNL     1       3.828  -1.416  -0.723  0.00  0.00    +0.151 C 
ATOM     30  CA  UNL     1       2.852  -1.846   0.385  0.00  0.00    +0.178 C 
ATOM     31  CA  UNL     1       5.953  -0.589   0.283  0.00  0.00    +0.186 C 
ATOM     32  C   UNL     1       4.089  -1.893   1.301  0.00  0.00    +0.247 C 
ATOM     33  CB  UNL     1       5.267   0.739  -0.021  0.00  0.00    +0.090 C 
BRANCH  31  35
ATOM     34  OXT UNL     1       6.869  -1.948  -1.493  0.00  0.00    -0.248 OA
ATOM     35  C   UNL     1       6.957  -0.975  -0.759  0.00  0.00    +0.333 C 
BRANCH  35  36
ATOM     36  O   UNL     1       7.988  -0.095  -0.780  0.00  0.00    -0.479 OA
ATOM     37  H   UNL     1       7.995   0.632  -0.189  0.00  0.00    +0.295 HD
ENDBRANCH  35  36
ENDBRANCH  31  35
ENDBRANCH  23  30
ENDBRANCH   1  24
TORSDOF 7
