REMARK  Name = 133684
REMARK  5 active torsions:
REMARK  status: ('A' for Active; 'I' for Inactive)
REMARK    1  A    between atoms: C_1  and  C_4
REMARK    2  A    between atoms: C_1  and  CA_11
REMARK    3  A    between atoms: CA_11  and  N_12
REMARK    4  A    between atoms: CA_11  and  C_17
REMARK    5  A    between atoms: C_17  and  O_18
REMARK                            x       y       z     vdW  Elec       q    Type
REMARK                         _______ _______ _______ _____ _____    ______ ____
ROOT
ATOM      1  C   UNL     1      -1.851   1.068  -0.835  0.00  0.00    +0.055 C 
ENDROOT
BRANCH   1   4
ATOM      2  S   UNL     1       0.514   1.895   0.305  0.00  0.00    -0.076 S 
ATOM      3  N   UNL     1       0.162  -0.362  -0.891  0.00  0.00    -0.403 NA
ATOM      4  C   UNL     1      -0.436   0.752  -0.542  0.00  0.00    +0.133 C 
ATOM      5  C   UNL     1       1.863   0.826   0.214  0.00  0.00    +0.128 C 
ATOM      6  C   UNL     1       1.482  -0.335  -0.465  0.00  0.00    +0.123 C 
ATOM      7  C   UNL     1       3.166   1.003   0.707  0.00  0.00    -0.008 C 
ATOM      8  C   UNL     1       2.440  -1.355  -0.655  0.00  0.00    +0.029 C 
ATOM      9  C   UNL     1       4.095  -0.021   0.505  0.00  0.00    -0.003 C 
ATOM     10  C   UNL     1       3.739  -1.186  -0.166  0.00  0.00    +0.002 C 
ENDBRANCH   1   4
BRANCH   1  11
ATOM     11  CA  UNL     1      -2.834   0.609   0.270  0.00  0.00    +0.043 C 
BRANCH  11  12
ATOM     12  N   UNL     1      -4.211   0.955  -0.086  0.00  0.00    +0.389 N 
ATOM     13  H1  UNL     1      -4.287   1.964  -0.212  0.00  0.00    -0.088 HD
ATOM     14  H2  UNL     1      -4.840   0.657   0.659  0.00  0.00    -0.088 HD
ATOM     15  H3  UNL     1      -4.466   0.484  -0.955  0.00  0.00    -0.088 HD
ENDBRANCH  11  12
BRANCH  11  17
ATOM     16  OXT UNL     1      -3.455  -1.709  -0.188  0.00  0.00    -0.253 OA
ATOM     17  C   UNL     1      -2.792  -0.896   0.441  0.00  0.00    +0.293 C 
BRANCH  17  18
ATOM     18  O   UNL     1      -1.880  -1.244   1.386  0.00  0.00    -0.482 OA
ATOM     19  H   UNL     1      -1.398  -0.580   1.838  0.00  0.00    +0.295 HD
ENDBRANCH  17  18
ENDBRANCH  11  17
ENDBRANCH   1  11
TORSDOF 5
