REMARK  Name = 133613138
REMARK  10 active torsions:
REMARK  status: ('A' for Active; 'I' for Inactive)
REMARK    1  A    between atoms: C_9  and  C_29
REMARK    2  A    between atoms: C_10  and  O_23
REMARK    3  A    between atoms: C_12  and  O_25
REMARK    4  A    between atoms: C_19  and  O_27
REMARK    5  A    between atoms: C_29  and  O_31
REMARK    6  A    between atoms: C_29  and  C_33
REMARK    7  A    between atoms: C_33  and  C_34
REMARK    8  A    between atoms: C_34  and  C_35
REMARK    9  A    between atoms: C_35  and  C_36
REMARK   10  A    between atoms: C_36  and  O_39
REMARK                            x       y       z     vdW  Elec       q    Type
REMARK                         _______ _______ _______ _____ _____    ______ ____
ROOT
ATOM      1  C   UNL     1      -1.257  -0.946  -0.384  0.00  0.00    +0.002 C 
ATOM      2  C   UNL     1      -0.036  -1.581   0.438  0.00  0.00    +0.002 C 
ATOM      3  C   UNL     1      -1.798   0.302   0.430  0.00  0.00    +0.003 C 
ATOM      4  C   UNL     1      -3.160   0.943  -0.094  0.00  0.00    +0.002 C 
ATOM      5  C   UNL     1       1.069  -0.505   0.617  0.00  0.00    +0.029 C 
ATOM      6  C   UNL     1      -4.238  -0.221  -0.177  0.00  0.00    +0.029 C 
ATOM      7  C   UNL     1      -2.408  -1.964  -0.551  0.00  0.00    +0.029 C 
ATOM      8  C   UNL     1      -0.665   1.319   0.743  0.00  0.00    +0.029 C 
ATOM      9  C   UNL     1       2.287  -1.284   1.147  0.00  0.00    +0.027 C 
ATOM     10  C   UNL     1       0.567   0.689   1.422  0.00  0.00    +0.111 C 
ATOM     11  C   UNL     1       0.797  -2.683  -0.254  0.00  0.00    +0.000 C 
ATOM     12  C   UNL     1      -3.727  -1.378  -1.085  0.00  0.00    +0.111 C 
ATOM     13  C   UNL     1      -5.734   0.261  -0.405  0.00  0.00    +0.027 C 
ATOM     14  C   UNL     1       2.159  -2.668   0.467  0.00  0.00    +0.002 C 
ATOM     15  C   UNL     1      -3.650   1.984   0.958  0.00  0.00    +0.003 C 
ATOM     16  C   UNL     1      -0.796  -0.549  -1.816  0.00  0.00    +0.000 C 
ATOM     17  C   UNL     1      -0.500  -2.180   1.808  0.00  0.00    +0.000 C 
ATOM     18  C   UNL     1      -2.961   1.698  -1.431  0.00  0.00    +0.000 C 
ATOM     19  C   UNL     1      -6.077   1.349   0.658  0.00  0.00    +0.110 C 
ATOM     20  C   UNL     1      -5.071   2.487   0.734  0.00  0.00    +0.029 C 
ATOM     21  C   UNL     1      -6.748  -0.896  -0.168  0.00  0.00    +0.002 C 
ATOM     22  C   UNL     1      -6.002   0.769  -1.836  0.00  0.00    +0.002 C 
ENDROOT
BRANCH  10  23
ATOM     23  O   UNL     1       1.580   1.684   1.534  0.00  0.00    -0.384 OA
ATOM     24  H   UNL     1       2.363   1.302   1.960  0.00  0.00    +0.210 HD
ENDBRANCH  10  23
BRANCH  12  25
ATOM     25  O   UNL     1      -4.648  -2.466  -1.112  0.00  0.00    -0.384 OA
ATOM     26  H   UNL     1      -5.505  -2.155  -1.443  0.00  0.00    +0.210 HD
ENDBRANCH  12  25
BRANCH  19  27
ATOM     27  O   UNL     1      -7.367   1.909   0.406  0.00  0.00    -0.384 OA
ATOM     28  H   UNL     1      -8.024   1.197   0.354  0.00  0.00    +0.210 HD
ENDBRANCH  19  27
BRANCH   9  29
ATOM     29  C   UNL     1       3.630  -0.631   0.840  0.00  0.00    +0.088 C 
ATOM     30  C   UNL     1       4.778  -1.508   1.345  0.00  0.00    +0.029 C 
BRANCH  29  31
ATOM     31  O   UNL     1       3.700   0.596   1.581  0.00  0.00    -0.387 OA
ATOM     32  H   UNL     1       2.988   1.188   1.294  0.00  0.00    +0.210 HD
ENDBRANCH  29  31
BRANCH  29  33
ATOM     33  C   UNL     1       3.788  -0.271  -0.653  0.00  0.00    +0.027 C 
BRANCH  33  34
ATOM     34  C   UNL     1       5.233  -0.137  -1.149  0.00  0.00    +0.005 C 
BRANCH  34  35
ATOM     35  C   UNL     1       5.955   1.010  -0.426  0.00  0.00    +0.027 C 
BRANCH  35  36
ATOM     36  C   UNL     1       7.443   1.167  -0.805  0.00  0.00    +0.088 C 
ATOM     37  C   UNL     1       8.077   2.285   0.029  0.00  0.00    +0.029 C 
ATOM     38  C   UNL     1       7.638   1.461  -2.293  0.00  0.00    +0.029 C 
BRANCH  36  39
ATOM     39  O   UNL     1       8.139  -0.046  -0.514  0.00  0.00    -0.387 OA
ATOM     40  H   UNL     1       8.034  -0.261   0.426  0.00  0.00    +0.210 HD
ENDBRANCH  36  39
ENDBRANCH  35  36
ENDBRANCH  34  35
ENDBRANCH  33  34
ENDBRANCH  29  33
ENDBRANCH   9  29
TORSDOF 10
