REMARK  Name = 133645845
REMARK  3 active torsions:
REMARK  status: ('A' for Active; 'I' for Inactive)
REMARK    1  A    between atoms: C_17  and  O_26
REMARK    2  A    between atoms: C_19  and  C_24
REMARK    3  A    between atoms: O_26  and  C_28
REMARK                            x       y       z     vdW  Elec       q    Type
REMARK                         _______ _______ _______ _____ _____    ______ ____
ROOT
ATOM      1  O   UNL     1       3.152  -0.059  -1.836  0.00  0.00    -0.242 OA
ATOM      2  O   UNL     1       0.968   1.146  -0.156  0.00  0.00    -0.449 OA
ATOM      3  O   UNL     1      -0.366  -1.253  -0.192  0.00  0.00    -0.446 OA
ATOM      4  O   UNL     1       1.083   3.152   0.996  0.00  0.00    -0.245 OA
ATOM      5  O   UNL     1      -2.127  -1.159  -1.673  0.00  0.00    -0.246 OA
ATOM      6  N   UNL     1       4.056  -0.922   0.310  0.00  0.00    +0.411 N 
ATOM      7  C   UNL     1       2.826  -0.427  -0.611  0.00  0.00    +0.134 C 
ATOM      8  C   UNL     1       3.813  -0.277   1.703  0.00  0.00    -0.066 C 
ATOM      9  C   UNL     1       2.310   0.785   0.200  0.00  0.00    +0.178 C 
ATOM     10  C   UNL     1       2.419   0.313   1.642  0.00  0.00    +0.022 C 
ATOM     11  C   UNL     1       3.875  -2.455   0.347  0.00  0.00    -0.069 C 
ATOM     12  C   UNL     1       1.920  -1.656  -0.688  0.00  0.00    +0.056 C 
ATOM     13  C   UNL     1       5.448  -0.556  -0.181  0.00  0.00    -0.092 C 
ATOM     14  C   UNL     1       2.517  -2.746  -0.183  0.00  0.00    -0.018 C 
ATOM     15  C   UNL     1       0.529  -1.660  -1.240  0.00  0.00    +0.209 C 
ATOM     16  C   UNL     1       0.501   2.340   0.293  0.00  0.00    +0.341 C 
ATOM     17  C   UNL     1      -2.466  -0.568   0.671  0.00  0.00    +0.227 C 
ATOM     18  C   UNL     1      -1.663  -1.024  -0.548  0.00  0.00    +0.354 C 
ATOM     19  C   UNL     1      -0.845   2.570  -0.279  0.00  0.00    +0.072 C 
ATOM     20  C   UNL     1      -1.932   0.784   1.230  0.00  0.00    +0.069 C 
ATOM     21  C   UNL     1      -1.902   1.861   0.156  0.00  0.00    -0.016 C 
ATOM     22  C   UNL     1      -2.453  -1.683   1.724  0.00  0.00    +0.056 C 
ATOM     23  C   UNL     1      -2.769   1.315   2.402  0.00  0.00    +0.009 C 
ENDROOT
BRANCH  19  24
ATOM     24  C   UNL     1      -0.972   3.592  -1.286  0.00  0.00    +0.006 C 
ATOM     25  C   UNL     1       0.056   4.310  -1.737  0.00  0.00    +0.000 C 
ENDBRANCH  19  24
BRANCH  17  26
ATOM     26  O   UNL     1      -3.816  -0.398   0.241  0.00  0.00    -0.444 OA
BRANCH  26  28
ATOM     27  O   UNL     1      -3.915  -2.623  -0.373  0.00  0.00    -0.250 OA
ATOM     28  C   UNL     1      -4.421  -1.514  -0.262  0.00  0.00    +0.318 C 
ATOM     29  C   UNL     1      -5.825  -1.188  -0.672  0.00  0.00    +0.121 C 
ENDBRANCH  26  28
ENDBRANCH  17  26
TORSDOF 3
