133683
  -OEChem-03292013323D

 22 22  0     0  0  0  0  0  0999 V2000
   -3.3131    0.9037   -0.1336 S   0  0  0  0  0  0  0  0  0  0  0  0
   -0.3038    0.6846    0.3524 S   0  0  0  0  0  0  0  0  0  0  0  0
    2.6248    0.0071   -1.5816 F   0  0  0  0  0  0  0  0  0  0  0  0
    4.3342    0.6498   -0.3920 F   0  0  0  0  0  0  0  0  0  0  0  0
    2.5718    1.9238   -0.5453 F   0  0  0  0  0  0  0  0  0  0  0  0
   -2.8873    2.2524   -0.4584 O   0  0  0  0  0  0  0  0  0  0  0  0
   -4.1916    0.1484   -1.0080 O   0  0  0  0  0  0  0  0  0  0  0  0
    2.6132    0.4068    1.9078 O   0  0  0  0  0  0  0  0  0  0  0  0
   -0.6405   -1.8100   -0.1042 N   0  0  0  0  0  0  0  0  0  0  0  0
   -1.9079   -1.3052   -0.2377 N   0  0  0  0  0  0  0  0  0  0  0  0
    1.6235   -1.1287    0.4559 N   0  0  0  0  0  0  0  0  0  0  0  0
   -3.9272    0.8663    1.4586 N   0  0  0  0  0  0  0  0  0  0  0  0
   -1.8560   -0.0275   -0.0292 C   0  0  0  0  0  0  0  0  0  0  0  0
    0.3698   -0.9377    0.2342 C   0  0  0  0  0  0  0  0  0  0  0  0
   -0.4780   -3.2373   -0.2682 C   0  0  0  0  0  0  0  0  0  0  0  0
    2.3903   -0.0304    0.7806 C   0  0  0  0  0  0  0  0  0  0  0  0
    2.9778    0.6339   -0.4312 C   0  0  0  0  0  0  0  0  0  0  0  0
   -0.4476   -3.7274    0.7099 H   0  0  0  0  0  0  0  0  0  0  0  0
    0.4523   -3.4632   -0.7995 H   0  0  0  0  0  0  0  0  0  0  0  0
   -1.3031   -3.6692   -0.8446 H   0  0  0  0  0  0  0  0  0  0  0  0
   -4.5429    1.6405    1.7384 H   0  0  0  0  0  0  0  0  0  0  0  0
   -4.2516   -0.0428    1.8123 H   0  0  0  0  0  0  0  0  0  0  0  0
  1  6  2  0  0  0  0
  1  7  2  0  0  0  0
  1 12  1  0  0  0  0
  1 13  1  0  0  0  0
  2 13  1  0  0  0  0
  2 14  1  0  0  0  0
  3 17  1  0  0  0  0
  4 17  1  0  0  0  0
  5 17  1  0  0  0  0
  8 16  2  0  0  0  0
  9 10  1  0  0  0  0
  9 14  1  0  0  0  0
  9 15  1  0  0  0  0
 10 13  2  0  0  0  0
 11 14  2  0  0  0  0
 11 16  1  0  0  0  0
 12 21  1  0  0  0  0
 12 22  1  0  0  0  0
 15 18  1  0  0  0  0
 15 19  1  0  0  0  0
 15 20  1  0  0  0  0
 16 17  1  0  0  0  0
M  END
> <PUBCHEM_COMPOUND_CID>
133683

> <PUBCHEM_CONFORMER_RMSD>
0.6

> <PUBCHEM_CONFORMER_DIVERSEORDER>
1
8
4
5
7
2
3
6

> <PUBCHEM_MMFF94_PARTIAL_CHARGES>
19
1 1.41
10 -0.49
11 -0.66
12 -0.98
13 0.61
14 0.64
15 0.37
16 0.72
17 1.08
2 -0.28
21 0.42
22 0.42
3 -0.34
4 -0.34
5 -0.34
6 -0.65
7 -0.65
8 -0.57
9 -0.38

> <PUBCHEM_EFFECTIVE_ROTOR_COUNT>
3

> <PUBCHEM_PHARMACOPHORE_FEATURES>
7
1 10 acceptor
1 11 donor
1 12 donor
1 6 acceptor
1 7 acceptor
1 8 acceptor
5 2 9 10 13 14 rings

> <PUBCHEM_HEAVY_ATOM_COUNT>
17

> <PUBCHEM_ATOM_DEF_STEREO_COUNT>
0

> <PUBCHEM_ATOM_UDEF_STEREO_COUNT>
0

> <PUBCHEM_BOND_DEF_STEREO_COUNT>
0

> <PUBCHEM_BOND_UDEF_STEREO_COUNT>
0

> <PUBCHEM_ISOTOPIC_ATOM_COUNT>
0

> <PUBCHEM_COMPONENT_COUNT>
1

> <PUBCHEM_CACTVS_TAUTO_COUNT>
1

> <PUBCHEM_CONFORMER_ID>
00020A3300000001

> <PUBCHEM_MMFF94_ENERGY>
29.9295

> <PUBCHEM_FEATURE_SELFOVERLAP>
35.542

> <PUBCHEM_SHAPE_FINGERPRINT>
10498660 4 18410005533804243149
10980938 120 18339355250114342283
11543360 7 15554149463551757641
12173636 292 18410848893413375461
12500047 106 18342734156905387446
13538477 17 18187637063538884346
13583140 156 16877657981126245625
13705890 14 14261341475056041283
14252887 29 11386373590863942336
14289901 80 15574722391238321393
15309172 13 18409173203501607321
15775835 57 18113619001761534708
16945 1 18267575995421290611
1741750 31 18341331184025709178
18186145 218 17917707972600691129
19107657 9 18343023255264419433
19868273 293 18411695525724783498
200 152 11167944640843853016
20233049 118 18409163307929125520
20510252 161 18197782304689071395
20645476 183 18334855047526813718
20645477 56 18341053016374165952
20671657 1 18336820905861473282
20671657 53 14333415536199009720
21524375 3 18341604902381478595
23402539 116 18130784538845506700
23419403 2 12812975685913283019
23526113 38 17703800210231093502
23557571 272 17769920600292581306
23559900 14 18131073762602459360
23598291 2 17895176810537009850
25 1 17988650648731036987
251288 83 12468934142405816364
2748010 2 18413113840111891039
458136 41 18269851817403800379
4990 188 17418094295596619949
6333272 397 18335137592277090919
633830 44 17988651748659441613
7364860 26 17911793579238140943
7832392 63 18261955271027340324
81228 2 17981878954500987227
88987 49 18268980059280528786
9882013 296 17023199244346829473

> <PUBCHEM_SHAPE_MULTIPOLES>
298.2
6.95
2.29
1.14
0.97
1.74
0.25
-3.92
-0.51
0.69
-0.34
-0.33
-0.25
-0.31

> <PUBCHEM_SHAPE_SELFOVERLAP>
594.712

> <PUBCHEM_SHAPE_VOLUME>
178.7

> <PUBCHEM_COORDINATE_TYPE>
2
5
10

$$$$
