13366
  -OEChem-03292013323D

 36 35  0     0  0  0  0  0  0999 V2000
    1.7426   -3.2076   -2.3322 Cl  0  0  0  0  0  0  0  0  0  0  0  0
   -0.5010   -2.9315    2.1851 Cl  0  0  0  0  0  0  0  0  0  0  0  0
    3.8546   -0.3431    0.2527 S   0  0  0  0  0  0  0  0  0  0  0  0
   -3.9791   -0.8938    0.4251 S   0  0  0  0  0  0  0  0  0  0  0  0
    2.8024    2.5829    0.2788 O   0  0  0  0  0  0  0  0  0  0  0  0
   -3.3574    1.8912   -0.8105 O   0  0  0  0  0  0  0  0  0  0  0  0
    0.7935    1.6299    0.9554 N   0  0  0  0  0  0  0  0  0  0  0  0
   -1.2100    1.0505   -1.1089 N   0  0  0  0  0  0  0  0  0  0  0  0
   -0.0893    2.6286    0.3967 C   0  0  0  0  0  0  0  0  0  0  0  0
   -0.5000    2.2983   -1.0284 C   0  0  0  0  0  0  0  0  0  0  0  0
    2.1730    1.6927    0.8480 C   0  0  0  0  0  0  0  0  0  0  0  0
   -2.5906    0.9470   -0.9926 C   0  0  0  0  0  0  0  0  0  0  0  0
    2.8684    0.5203    1.4992 C   0  0  0  0  0  0  0  0  0  0  0  0
   -3.0914   -0.4745   -1.0940 C   0  0  0  0  0  0  0  0  0  0  0  0
    2.5295   -1.2957   -0.5264 C   0  0  0  0  0  0  0  0  0  0  0  0
   -2.5542   -1.2517    1.4796 C   0  0  0  0  0  0  0  0  0  0  0  0
    3.0463   -2.2327   -1.6090 C   0  0  0  0  0  0  0  0  0  0  0  0
   -1.9373   -2.6109    1.1813 C   0  0  0  0  0  0  0  0  0  0  0  0
    0.4130    3.6015    0.4217 H   0  0  0  0  0  0  0  0  0  0  0  0
   -0.9662    2.6806    1.0510 H   0  0  0  0  0  0  0  0  0  0  0  0
    0.3803    2.2089   -1.6742 H   0  0  0  0  0  0  0  0  0  0  0  0
   -1.1345    3.0977   -1.4258 H   0  0  0  0  0  0  0  0  0  0  0  0
    0.3648    0.8427    1.4327 H   0  0  0  0  0  0  0  0  0  0  0  0
   -0.6588    0.2077   -1.2404 H   0  0  0  0  0  0  0  0  0  0  0  0
    2.1732   -0.1678    1.9882 H   0  0  0  0  0  0  0  0  0  0  0  0
    3.5370    0.9168    2.2699 H   0  0  0  0  0  0  0  0  0  0  0  0
   -2.2935   -1.1870   -1.3129 H   0  0  0  0  0  0  0  0  0  0  0  0
   -3.7958   -0.5136   -1.9317 H   0  0  0  0  0  0  0  0  0  0  0  0
    2.0206   -1.8802    0.2474 H   0  0  0  0  0  0  0  0  0  0  0  0
    1.8017   -0.6019   -0.9602 H   0  0  0  0  0  0  0  0  0  0  0  0
   -1.8132   -0.4513    1.3877 H   0  0  0  0  0  0  0  0  0  0  0  0
   -2.9056   -1.2346    2.5174 H   0  0  0  0  0  0  0  0  0  0  0  0
    3.7808   -2.9364   -1.2043 H   0  0  0  0  0  0  0  0  0  0  0  0
    3.5177   -1.6725   -2.4229 H   0  0  0  0  0  0  0  0  0  0  0  0
   -1.6055   -2.6940    0.1435 H   0  0  0  0  0  0  0  0  0  0  0  0
   -2.6511   -3.4175    1.3774 H   0  0  0  0  0  0  0  0  0  0  0  0
  1 17  1  0  0  0  0
  2 18  1  0  0  0  0
  3 13  1  0  0  0  0
  3 15  1  0  0  0  0
  4 14  1  0  0  0  0
  4 16  1  0  0  0  0
  5 11  2  0  0  0  0
  6 12  2  0  0  0  0
  7  9  1  0  0  0  0
  7 11  1  0  0  0  0
  7 23  1  0  0  0  0
  8 10  1  0  0  0  0
  8 12  1  0  0  0  0
  8 24  1  0  0  0  0
  9 10  1  0  0  0  0
  9 19  1  0  0  0  0
  9 20  1  0  0  0  0
 10 21  1  0  0  0  0
 10 22  1  0  0  0  0
 11 13  1  0  0  0  0
 12 14  1  0  0  0  0
 13 25  1  0  0  0  0
 13 26  1  0  0  0  0
 14 27  1  0  0  0  0
 14 28  1  0  0  0  0
 15 17  1  0  0  0  0
 15 29  1  0  0  0  0
 15 30  1  0  0  0  0
 16 18  1  0  0  0  0
 16 31  1  0  0  0  0
 16 32  1  0  0  0  0
 17 33  1  0  0  0  0
 17 34  1  0  0  0  0
 18 35  1  0  0  0  0
 18 36  1  0  0  0  0
M  END
> <PUBCHEM_COMPOUND_CID>
13366

> <PUBCHEM_CONFORMER_RMSD>
1.2

> <PUBCHEM_CONFORMER_DIVERSEORDER>
3
97
52
72
91
22
115
26
79
18
50
70
83
108
114
39
55
92
14
99
9
1
77
107
15
62
42
78
56
106
130
25
123
12
29
90
45
112
119
75
17
5
43
121
65
95
6
11
125
68
96
113
109
40
16
122
7
82
80
34
2
57
73
111
24
48
8
126
21
129
93
128
101
86
60
51
131
110
63
87
89
23
69
41
88
84
124
127
118
38
120
10
81
13
46
20
61
33
76
4
64
49
53
94
44
58
117
74
104
85
30
54
31
32
36
66
105
47
67
27
35
102
100
71
116
103
59
37
28
98
19

> <PUBCHEM_MMFF94_PARTIAL_CHARGES>
20
1 -0.29
10 0.3
11 0.57
12 0.57
13 0.29
14 0.29
15 0.23
16 0.23
17 0.29
18 0.29
2 -0.29
23 0.37
24 0.37
3 -0.46
4 -0.46
5 -0.57
6 -0.57
7 -0.73
8 -0.73
9 0.3

> <PUBCHEM_EFFECTIVE_ROTOR_COUNT>
13

> <PUBCHEM_PHARMACOPHORE_FEATURES>
4
1 5 acceptor
1 6 acceptor
1 7 donor
1 8 donor

> <PUBCHEM_HEAVY_ATOM_COUNT>
18

> <PUBCHEM_ATOM_DEF_STEREO_COUNT>
0

> <PUBCHEM_ATOM_UDEF_STEREO_COUNT>
0

> <PUBCHEM_BOND_DEF_STEREO_COUNT>
0

> <PUBCHEM_BOND_UDEF_STEREO_COUNT>
0

> <PUBCHEM_ISOTOPIC_ATOM_COUNT>
0

> <PUBCHEM_COMPONENT_COUNT>
1

> <PUBCHEM_CACTVS_TAUTO_COUNT>
3

> <PUBCHEM_CONFORMER_ID>
0000343600000003

> <PUBCHEM_MMFF94_ENERGY>
16.3019

> <PUBCHEM_FEATURE_SELFOVERLAP>
20.299

> <PUBCHEM_SHAPE_FINGERPRINT>
117890 22 18263365961287802145
12596599 1 18201432515863422803
12596602 18 15769201881623286228
12712778 12 17899969436021294922
13402501 40 18409450305874991722
13615921 28 17398364456926914158
13947920 24 17757037498565961614
14251740 79 17756734947879072286
14251745 187 18338510833621014786
14251757 17 18410576141309846083
15003188 3 18336283304931770075
15415430 2 18263365793620547211
15635459 17 18412261735574271670
19930381 70 17986667065731252319
20397935 3 17896052098880526254
20600515 1 18040433295855742500
20645477 70 18270095998815626237
23526113 38 18266735775300928398
57307002 85 18339940212382408174
7987 15 18338532883888296643
9862886 166 18190184499559544226

> <PUBCHEM_SHAPE_MULTIPOLES>
360.17
6.94
4.21
2.12
0.66
0.77
-0.11
1.24
-0.47
-1.11
-0.28
-0.32
1.84
3.25

> <PUBCHEM_SHAPE_SELFOVERLAP>
631.969

> <PUBCHEM_SHAPE_VOLUME>
238.1

> <PUBCHEM_COORDINATE_TYPE>
2
5
10

$$$$
