REMARK  Name = 133685588
REMARK  9 active torsions:
REMARK  status: ('A' for Active; 'I' for Inactive)
REMARK    1  A    between atoms: C_4  and  O_17
REMARK    2  A    between atoms: C_11  and  C_28
REMARK    3  A    between atoms: O_17  and  C_19
REMARK    4  A    between atoms: C_19  and  C_20
REMARK    5  A    between atoms: C_20  and  C_22
REMARK    6  A    between atoms: C_22  and  O_23
REMARK    7  A    between atoms: C_22  and  C_25
REMARK    8  A    between atoms: C_25  and  O_26
REMARK    9  A    between atoms: C_28  and  O_29
REMARK                            x       y       z     vdW  Elec       q    Type
REMARK                         _______ _______ _______ _____ _____    ______ ____
ROOT
ATOM      1  O   UNL     1       2.621   2.419   0.029  0.00  0.00    -0.449 OA
ATOM      2  O   UNL     1       1.691   4.518  -0.060  0.00  0.00    -0.245 OA
ATOM      3  C   UNL     1       0.707   1.116   0.549  0.00  0.00    +0.109 C 
ATOM      4  C   UNL     1      -0.286  -0.029   0.190  0.00  0.00    +0.177 C 
ATOM      5  C   UNL     1       2.112   1.078  -0.088  0.00  0.00    +0.177 C 
ATOM      6  C   UNL     1      -0.039  -1.431   0.811  0.00  0.00    +0.044 C 
ATOM      7  C   UNL     1       0.344   2.510   0.099  0.00  0.00    +0.060 C 
ATOM      8  C   UNL     1       3.085   0.167   0.595  0.00  0.00    +0.047 C 
ATOM      9  C   UNL     1       1.119  -2.241   0.277  0.00  0.00    +0.004 C 
ATOM     10  C   UNL     1       1.589   3.306   0.006  0.00  0.00    +0.337 C 
ATOM     11  C   UNL     1       3.940  -0.689  -0.004  0.00  0.00    +0.033 C 
ATOM     12  C   UNL     1       4.474  -1.866   0.798  0.00  0.00    +0.003 C 
ATOM     13  C   UNL     1       3.494  -3.065   0.732  0.00  0.00    +0.000 C 
ATOM     14  C   UNL     1       2.106  -2.616   1.119  0.00  0.00    +0.000 C 
ATOM     15  C   UNL     1      -0.811   3.078  -0.260  0.00  0.00    +0.002 C 
ATOM     16  C   UNL     1       1.097  -2.507  -1.202  0.00  0.00    +0.000 C 
ENDROOT
BRANCH   4  17
ATOM     17  O   UNL     1      -1.589   0.332   0.684  0.00  0.00    -0.449 OA
BRANCH  17  19
ATOM     18  O   UNL     1      -2.558  -0.781  -1.078  0.00  0.00    -0.245 OA
ATOM     19  C   UNL     1      -2.637  -0.115  -0.054  0.00  0.00    +0.339 C 
BRANCH  19  20
ATOM     20  C   UNL     1      -3.938   0.285   0.562  0.00  0.00    +0.082 C 
ATOM     21  C   UNL     1      -3.966   1.017   1.687  0.00  0.00    +0.005 C 
BRANCH  20  22
ATOM     22  C   UNL     1      -5.217  -0.138  -0.123  0.00  0.00    +0.168 C 
BRANCH  22  23
ATOM     23  O   UNL     1      -5.282   0.470  -1.414  0.00  0.00    -0.377 OA
ATOM     24  H   UNL     1      -5.209   1.433  -1.322  0.00  0.00    +0.211 HD
ENDBRANCH  22  23
BRANCH  22  25
ATOM     25  C   UNL     1      -5.332  -1.656  -0.266  0.00  0.00    +0.171 C 
BRANCH  25  26
ATOM     26  O   UNL     1      -6.696  -1.989  -0.508  0.00  0.00    -0.379 OA
ATOM     27  H   UNL     1      -6.783  -2.950  -0.601  0.00  0.00    +0.211 HD
ENDBRANCH  25  26
ENDBRANCH  22  25
ENDBRANCH  20  22
ENDBRANCH  19  20
ENDBRANCH  17  19
ENDBRANCH   4  17
BRANCH  11  28
ATOM     28  C   UNL     1       4.290  -0.686  -1.464  0.00  0.00    +0.137 C 
BRANCH  28  29
ATOM     29  O   UNL     1       5.683  -0.487  -1.619  0.00  0.00    -0.382 OA
ATOM     30  H   UNL     1       5.906  -0.486  -2.563  0.00  0.00    +0.210 HD
ENDBRANCH  28  29
ENDBRANCH  11  28
TORSDOF 9
