REMARK  Name = 133613123
REMARK  4 active torsions:
REMARK  status: ('A' for Active; 'I' for Inactive)
REMARK    1  A    between atoms: C_2  and  O_28
REMARK    2  A    between atoms: C_8  and  C_23
REMARK    3  A    between atoms: C_11  and  O_30
REMARK    4  A    between atoms: C_20  and  O_32
REMARK                            x       y       z     vdW  Elec       q    Type
REMARK                         _______ _______ _______ _____ _____    ______ ____
ROOT
ATOM      1  O   UNL     1      -0.484  -2.063   1.054  0.00  0.00    -0.294 OA
ATOM      2  C   UNL     1       0.035   1.834  -0.195  0.00  0.00    +0.091 C 
ATOM      3  C   UNL     1      -1.391   1.443   0.289  0.00  0.00    +0.032 C 
ATOM      4  C   UNL     1       1.190   0.991   0.483  0.00  0.00    +0.058 C 
ATOM      5  C   UNL     1      -1.647  -0.090   0.252  0.00  0.00    +0.062 C 
ATOM      6  C   UNL     1      -3.083  -0.470   0.778  0.00  0.00    +0.007 C 
ATOM      7  C   UNL     1      -4.161   0.357  -0.003  0.00  0.00    +0.003 C 
ATOM      8  C   UNL     1       1.847   0.245  -0.729  0.00  0.00    +0.030 C 
ATOM      9  C   UNL     1      -2.488   2.228  -0.455  0.00  0.00    +0.003 C 
ATOM     10  C   UNL     1       0.236   1.671  -1.719  0.00  0.00    +0.027 C 
ATOM     11  C   UNL     1       0.654  -0.029   1.513  0.00  0.00    +0.170 C 
ATOM     12  C   UNL     1      -3.884   1.868   0.040  0.00  0.00    +0.000 C 
ATOM     13  C   UNL     1      -0.505  -0.834   0.960  0.00  0.00    +0.177 C 
ATOM     14  C   UNL     1       1.680   1.223  -1.887  0.00  0.00    +0.007 C 
ATOM     15  C   UNL     1      -3.438  -1.977   0.603  0.00  0.00    +0.003 C 
ATOM     16  C   UNL     1      -4.321  -0.107  -1.472  0.00  0.00    +0.029 C 
ATOM     17  C   UNL     1       2.226   1.902   1.196  0.00  0.00    +0.006 C 
ATOM     18  C   UNL     1      -3.198  -0.177   2.296  0.00  0.00    +0.000 C 
ATOM     19  C   UNL     1      -3.562  -2.427  -0.851  0.00  0.00    +0.029 C 
ATOM     20  C   UNL     1      -4.601  -1.602  -1.600  0.00  0.00    +0.111 C 
ENDROOT
BRANCH   8  23
ATOM     21  O   UNL     1       5.649   0.098  -0.657  0.00  0.00    -0.418 OA
ATOM     22  O   UNL     1       7.036  -1.594  -0.039  0.00  0.00    -0.244 OA
ATOM     23  C   UNL     1       3.257  -0.220  -0.555  0.00  0.00    +0.016 C 
ATOM     24  C   UNL     1       3.485  -1.557  -0.072  0.00  0.00    +0.006 C 
ATOM     25  C   UNL     1       4.327   0.535  -0.821  0.00  0.00    +0.179 C 
ATOM     26  C   UNL     1       4.726  -2.021   0.102  0.00  0.00    +0.082 C 
ATOM     27  C   UNL     1       5.896  -1.169  -0.199  0.00  0.00    +0.346 C 
ENDBRANCH   8  23
BRANCH   2  28
ATOM     28  O   UNL     1       0.213   3.235   0.066  0.00  0.00    -0.387 OA
ATOM     29  H   UNL     1       0.099   3.405   1.014  0.00  0.00    +0.210 HD
ENDBRANCH   2  28
BRANCH  11  30
ATOM     30  O   UNL     1       0.196   0.605   2.697  0.00  0.00    -0.377 OA
ATOM     31  H   UNL     1       0.914   1.131   3.081  0.00  0.00    +0.211 HD
ENDBRANCH  11  30
BRANCH  20  32
ATOM     32  O   UNL     1      -5.893  -1.899  -1.075  0.00  0.00    -0.384 OA
ATOM     33  H   UNL     1      -6.561  -1.377  -1.547  0.00  0.00    +0.210 HD
ENDBRANCH  20  32
TORSDOF 4
