133613138
  -OEChem-03292013293D

 89 92  0     1  0  0  0  0  0999 V2000
    1.5801    1.6844    1.5338 O   0  0  0  0  0  0  0  0  0  0  0  0
   -4.6481   -2.4658   -1.1122 O   0  0  0  0  0  0  0  0  0  0  0  0
   -7.3673    1.9093    0.4062 O   0  0  0  0  0  0  0  0  0  0  0  0
    3.7004    0.5955    1.5811 O   0  0  0  0  0  0  0  0  0  0  0  0
    8.1392   -0.0461   -0.5142 O   0  0  0  0  0  0  0  0  0  0  0  0
   -1.2574   -0.9462   -0.3843 C   0  0  2  0  0  0  0  0  0  0  0  0
   -0.0361   -1.5806    0.4376 C   0  0  2  0  0  0  0  0  0  0  0  0
   -1.7976    0.3021    0.4304 C   0  0  2  0  0  0  0  0  0  0  0  0
   -3.1603    0.9431   -0.0943 C   0  0  1  0  0  0  0  0  0  0  0  0
    1.0693   -0.5055    0.6172 C   0  0  2  0  0  0  0  0  0  0  0  0
   -4.2384   -0.2214   -0.1775 C   0  0  2  0  0  0  0  0  0  0  0  0
   -2.4082   -1.9638   -0.5514 C   0  0  0  0  0  0  0  0  0  0  0  0
   -0.6649    1.3192    0.7432 C   0  0  0  0  0  0  0  0  0  0  0  0
    2.2874   -1.2844    1.1467 C   0  0  1  0  0  0  0  0  0  0  0  0
    0.5670    0.6893    1.4219 C   0  0  2  0  0  0  0  0  0  0  0  0
    0.7968   -2.6835   -0.2536 C   0  0  0  0  0  0  0  0  0  0  0  0
   -3.7268   -1.3781   -1.0852 C   0  0  1  0  0  0  0  0  0  0  0  0
   -5.7340    0.2608   -0.4054 C   0  0  0  0  0  0  0  0  0  0  0  0
    2.1592   -2.6677    0.4671 C   0  0  0  0  0  0  0  0  0  0  0  0
   -3.6504    1.9843    0.9579 C   0  0  0  0  0  0  0  0  0  0  0  0
   -0.7959   -0.5495   -1.8161 C   0  0  0  0  0  0  0  0  0  0  0  0
   -0.4998   -2.1802    1.8079 C   0  0  0  0  0  0  0  0  0  0  0  0
   -2.9606    1.6983   -1.4311 C   0  0  0  0  0  0  0  0  0  0  0  0
   -6.0771    1.3495    0.6580 C   0  0  1  0  0  0  0  0  0  0  0  0
    3.6304   -0.6314    0.8395 C   0  0  1  0  0  0  0  0  0  0  0  0
   -5.0707    2.4871    0.7342 C   0  0  0  0  0  0  0  0  0  0  0  0
   -6.7476   -0.8957   -0.1682 C   0  0  0  0  0  0  0  0  0  0  0  0
   -6.0020    0.7695   -1.8364 C   0  0  0  0  0  0  0  0  0  0  0  0
    3.7883   -0.2710   -0.6534 C   0  0  0  0  0  0  0  0  0  0  0  0
    4.7782   -1.5084    1.3451 C   0  0  0  0  0  0  0  0  0  0  0  0
    5.2327   -0.1368   -1.1488 C   0  0  0  0  0  0  0  0  0  0  0  0
    5.9555    1.0095   -0.4258 C   0  0  0  0  0  0  0  0  0  0  0  0
    7.4429    1.1673   -0.8054 C   0  0  0  0  0  0  0  0  0  0  0  0
    8.0774    2.2852    0.0288 C   0  0  0  0  0  0  0  0  0  0  0  0
    7.6384    1.4614   -2.2933 C   0  0  0  0  0  0  0  0  0  0  0  0
   -2.0850   -0.0864    1.4155 H   0  0  0  0  0  0  0  0  0  0  0  0
    1.3369   -0.1193   -0.3693 H   0  0  0  0  0  0  0  0  0  0  0  0
   -4.2725   -0.6588    0.8350 H   0  0  0  0  0  0  0  0  0  0  0  0
   -2.6495   -2.4377    0.4062 H   0  0  0  0  0  0  0  0  0  0  0  0
   -2.0876   -2.7915   -1.1984 H   0  0  0  0  0  0  0  0  0  0  0  0
   -0.3390    1.8379   -0.1647 H   0  0  0  0  0  0  0  0  0  0  0  0
   -1.0289    2.1097    1.4081 H   0  0  0  0  0  0  0  0  0  0  0  0
    2.1927   -1.3945    2.2351 H   0  0  0  0  0  0  0  0  0  0  0  0
    0.3117    0.3821    2.4418 H   0  0  0  0  0  0  0  0  0  0  0  0
    0.9859   -2.4686   -1.3079 H   0  0  0  0  0  0  0  0  0  0  0  0
    0.3254   -3.6707   -0.2052 H   0  0  0  0  0  0  0  0  0  0  0  0
   -3.6179   -1.0418   -2.1185 H   0  0  0  0  0  0  0  0  0  0  0  0
    2.1829   -3.4499    1.2358 H   0  0  0  0  0  0  0  0  0  0  0  0
    2.9544   -2.9143   -0.2421 H   0  0  0  0  0  0  0  0  0  0  0  0
   -2.9891    2.8587    0.9681 H   0  0  0  0  0  0  0  0  0  0  0  0
   -3.5994    1.5433    1.9622 H   0  0  0  0  0  0  0  0  0  0  0  0
   -0.0746    0.2701   -1.8262 H   0  0  0  0  0  0  0  0  0  0  0  0
   -1.6194   -0.2418   -2.4577 H   0  0  0  0  0  0  0  0  0  0  0  0
   -0.3528   -1.3938   -2.3502 H   0  0  0  0  0  0  0  0  0  0  0  0
   -1.0677   -1.4797    2.4218 H   0  0  0  0  0  0  0  0  0  0  0  0
    0.3346   -2.5109    2.4333 H   0  0  0  0  0  0  0  0  0  0  0  0
   -1.1174   -3.0719    1.6599 H   0  0  0  0  0  0  0  0  0  0  0  0
   -3.6007    2.5795   -1.5200 H   0  0  0  0  0  0  0  0  0  0  0  0
   -3.1799    1.0830   -2.3047 H   0  0  0  0  0  0  0  0  0  0  0  0
   -1.9438    2.0820   -1.5432 H   0  0  0  0  0  0  0  0  0  0  0  0
   -6.1283    0.8711    1.6454 H   0  0  0  0  0  0  0  0  0  0  0  0
   -5.3454    3.1547    1.5616 H   0  0  0  0  0  0  0  0  0  0  0  0
   -5.1402    3.1187   -0.1578 H   0  0  0  0  0  0  0  0  0  0  0  0
   -7.0754    0.9135   -2.0100 H   0  0  0  0  0  0  0  0  0  0  0  0
   -6.7893   -1.5908   -1.0117 H   0  0  0  0  0  0  0  0  0  0  0  0
   -6.5041   -1.4587    0.7394 H   0  0  0  0  0  0  0  0  0  0  0  0
   -5.5307    1.7312   -2.0407 H   0  0  0  0  0  0  0  0  0  0  0  0
   -5.6549    0.0534   -2.5879 H   0  0  0  0  0  0  0  0  0  0  0  0
   -7.7704   -0.5188   -0.0504 H   0  0  0  0  0  0  0  0  0  0  0  0
    1.2156    2.4178    2.0579 H   0  0  0  0  0  0  0  0  0  0  0  0
   -4.3064   -3.1285   -1.7365 H   0  0  0  0  0  0  0  0  0  0  0  0
    3.2717    0.6682   -0.8897 H   0  0  0  0  0  0  0  0  0  0  0  0
    3.3301   -1.0387   -1.2867 H   0  0  0  0  0  0  0  0  0  0  0  0
    5.7344   -0.9885    1.4294 H   0  0  0  0  0  0  0  0  0  0  0  0
    4.5654   -1.8480    2.3672 H   0  0  0  0  0  0  0  0  0  0  0  0
    4.9268   -2.4024    0.7318 H   0  0  0  0  0  0  0  0  0  0  0  0
   -7.5613    2.5370    1.1230 H   0  0  0  0  0  0  0  0  0  0  0  0
    3.2827    1.3037    1.0657 H   0  0  0  0  0  0  0  0  0  0  0  0
    5.7756   -1.0810   -1.0398 H   0  0  0  0  0  0  0  0  0  0  0  0
    5.1993    0.0757   -2.2239 H   0  0  0  0  0  0  0  0  0  0  0  0
    5.4280    1.9484   -0.6410 H   0  0  0  0  0  0  0  0  0  0  0  0
    5.9176    0.8815    0.6566 H   0  0  0  0  0  0  0  0  0  0  0  0
    8.0137    2.0565    1.0988 H   0  0  0  0  0  0  0  0  0  0  0  0
    9.1443    2.3902   -0.1993 H   0  0  0  0  0  0  0  0  0  0  0  0
    7.5890    3.2485   -0.1509 H   0  0  0  0  0  0  0  0  0  0  0  0
    7.3337    0.6117   -2.9132 H   0  0  0  0  0  0  0  0  0  0  0  0
    8.6970    1.6330   -2.5221 H   0  0  0  0  0  0  0  0  0  0  0  0
    7.0739    2.3458   -2.6059 H   0  0  0  0  0  0  0  0  0  0  0  0
    9.0761    0.0797   -0.7425 H   0  0  0  0  0  0  0  0  0  0  0  0
  1 15  1  0  0  0  0
  1 70  1  0  0  0  0
  2 17  1  0  0  0  0
  2 71  1  0  0  0  0
  3 24  1  0  0  0  0
  3 77  1  0  0  0  0
  4 25  1  0  0  0  0
  4 78  1  0  0  0  0
  5 33  1  0  0  0  0
  5 89  1  0  0  0  0
  6  7  1  0  0  0  0
  6  8  1  0  0  0  0
  6 12  1  0  0  0  0
  6 21  1  0  0  0  0
  7 10  1  0  0  0  0
  7 16  1  0  0  0  0
  7 22  1  0  0  0  0
  8  9  1  0  0  0  0
  8 13  1  0  0  0  0
  8 36  1  0  0  0  0
  9 11  1  0  0  0  0
  9 20  1  0  0  0  0
  9 23  1  0  0  0  0
 10 14  1  0  0  0  0
 10 15  1  0  0  0  0
 10 37  1  0  0  0  0
 11 17  1  0  0  0  0
 11 18  1  0  0  0  0
 11 38  1  0  0  0  0
 12 17  1  0  0  0  0
 12 39  1  0  0  0  0
 12 40  1  0  0  0  0
 13 15  1  0  0  0  0
 13 41  1  0  0  0  0
 13 42  1  0  0  0  0
 14 19  1  0  0  0  0
 14 25  1  0  0  0  0
 14 43  1  0  0  0  0
 15 44  1  0  0  0  0
 16 19  1  0  0  0  0
 16 45  1  0  0  0  0
 16 46  1  0  0  0  0
 17 47  1  0  0  0  0
 18 24  1  0  0  0  0
 18 27  1  0  0  0  0
 18 28  1  0  0  0  0
 19 48  1  0  0  0  0
 19 49  1  0  0  0  0
 20 26  1  0  0  0  0
 20 50  1  0  0  0  0
 20 51  1  0  0  0  0
 21 52  1  0  0  0  0
 21 53  1  0  0  0  0
 21 54  1  0  0  0  0
 22 55  1  0  0  0  0
 22 56  1  0  0  0  0
 22 57  1  0  0  0  0
 23 58  1  0  0  0  0
 23 59  1  0  0  0  0
 23 60  1  0  0  0  0
 24 26  1  0  0  0  0
 24 61  1  0  0  0  0
 25 29  1  0  0  0  0
 25 30  1  0  0  0  0
 26 62  1  0  0  0  0
 26 63  1  0  0  0  0
 27 65  1  0  0  0  0
 27 66  1  0  0  0  0
 27 69  1  0  0  0  0
 28 64  1  0  0  0  0
 28 67  1  0  0  0  0
 28 68  1  0  0  0  0
 29 31  1  0  0  0  0
 29 72  1  0  0  0  0
 29 73  1  0  0  0  0
 30 74  1  0  0  0  0
 30 75  1  0  0  0  0
 30 76  1  0  0  0  0
 31 32  1  0  0  0  0
 31 79  1  0  0  0  0
 31 80  1  0  0  0  0
 32 33  1  0  0  0  0
 32 81  1  0  0  0  0
 32 82  1  0  0  0  0
 33 34  1  0  0  0  0
 33 35  1  0  0  0  0
 34 83  1  0  0  0  0
 34 84  1  0  0  0  0
 34 85  1  0  0  0  0
 35 86  1  0  0  0  0
 35 87  1  0  0  0  0
 35 88  1  0  0  0  0
M  END
> <PUBCHEM_COMPOUND_CID>
133613138

> <PUBCHEM_CONFORMER_RMSD>
1

> <PUBCHEM_CONFORMER_DIVERSEORDER>
3
6
12
14
1
10
2
4
7
8
11
9
13
5
15

> <PUBCHEM_MMFF94_PARTIAL_CHARGES>
15
1 -0.68
15 0.28
17 0.28
2 -0.68
24 0.28
25 0.28
3 -0.68
33 0.28
4 -0.68
5 -0.68
70 0.4
71 0.4
77 0.4
78 0.4
89 0.4

> <PUBCHEM_EFFECTIVE_ROTOR_COUNT>
7.2

> <PUBCHEM_PHARMACOPHORE_FEATURES>
16
1 1 acceptor
1 1 donor
1 2 acceptor
1 2 donor
1 3 acceptor
1 3 donor
1 4 acceptor
1 4 donor
1 5 acceptor
1 5 donor
3 18 27 28 hydrophobe
3 33 34 35 hydrophobe
5 7 10 14 16 19 rings
6 6 7 8 10 13 15 rings
6 6 8 9 11 12 17 rings
6 9 11 18 20 24 26 rings

> <PUBCHEM_HEAVY_ATOM_COUNT>
35

> <PUBCHEM_ATOM_DEF_STEREO_COUNT>
11

> <PUBCHEM_ATOM_UDEF_STEREO_COUNT>
0

> <PUBCHEM_BOND_DEF_STEREO_COUNT>
0

> <PUBCHEM_BOND_UDEF_STEREO_COUNT>
0

> <PUBCHEM_ISOTOPIC_ATOM_COUNT>
0

> <PUBCHEM_COMPONENT_COUNT>
1

> <PUBCHEM_CACTVS_TAUTO_COUNT>
1

> <PUBCHEM_CONFORMER_ID>
07F6C65200000003

> <PUBCHEM_MMFF94_ENERGY>
175.3564

> <PUBCHEM_FEATURE_SELFOVERLAP>
81.346

> <PUBCHEM_SHAPE_FINGERPRINT>
10 15 17095243609479336217
10076449 9 18130232661391627555
10165383 225 18335141981459471300
10190206 1 17632026264507926032
10369192 42 18341896294157562469
10670039 82 18272088270840556952
10906281 52 18409736140196210762
11007060 377 18341897428071373497
11273773 42 18333737939834459012
11578080 2 17824809054549808621
12236239 1 18333729087870087691
12760667 363 11240001148481752410
12788726 201 16915940661276321793
12838863 1 8502363405018910889
13690498 29 17915735582027502639
13782708 43 13397758689568140957
13811026 1 17775288236504246206
14394314 77 18334580122718699413
14787075 74 18334574599558730339
14790565 3 18342735170543835515
14840074 17 18113618975823017253
14856354 85 18272650182224068423
150020 25 17489593394427784956
15082195 135 17918281957079508720
15131766 46 17676767686344298828
15183329 4 17917994971121375232
15301273 46 13190339046513457482
15685185 35 17896613962856289388
1577012 14 18408882914856411715
1601671 61 18130497540350942971
16728433 281 16485302616932414209
16992752 21 18269835488429226071
16994733 274 17749104487278997044
17349148 13 9439109997181386067
18393751 57 16805326613067109602
18608769 82 18339365274615951683
19319366 153 18188765046552994755
20105231 36 17988647428239373047
21033648 29 16414324850750031643
21298829 104 18187651340738404244
21304303 64 17822012034022668796
21792961 116 17131843049439879270
23522609 53 18338531732769094088
23559900 14 17917139619399310512
23569943 247 12103574047715529941
23576562 1 18058159708250332917
25269216 80 17632007646098549975
255183 313 13984663702512039728
335352 9 18202558476617297013
350125 39 18341326722150703057
392239 28 13551195476408443438
397830 11 15936704730415984168
4058900 60 18335704923118929162
4073 2 18259990340938588291
4098825 35 18271811194653922374
4258327 124 17459202913914319910
445580 37 18272371979347454259
508180 173 18060140976895710136
513202 73 13110977404736858618
5265222 85 17988641938663799110
54039377 194 10447939369703619952
5776283 40 18342459291741356432
59755656 215 18131064905730963999
6201320 82 17969224434532716997
6328613 192 18411418397560853517

> <PUBCHEM_SHAPE_MULTIPOLES>
690.94
20.57
2.74
1.66
22.12
0.59
0.26
-13.52
6.47
-0.36
-0.3
0.62
-0.19
-2.19

> <PUBCHEM_SHAPE_SELFOVERLAP>
1436.187

> <PUBCHEM_SHAPE_VOLUME>
389.1

> <PUBCHEM_COORDINATE_TYPE>
2
5
10

$$$$
