REMARK  Name = 133668
REMARK  8 active torsions:
REMARK  status: ('A' for Active; 'I' for Inactive)
REMARK    1  A    between atoms: CA_3  and  C_10
REMARK    2  A    between atoms: C_7  and  CA_18
REMARK    3  A    between atoms: N_9  and  CA_12
REMARK    4  A    between atoms: CA_12  and  C_15
REMARK    5  A    between atoms: C_15  and  O_16
REMARK    6  A    between atoms: CA_18  and  N_19
REMARK    7  A    between atoms: CA_18  and  CB_23
REMARK    8  A    between atoms: CB_23  and  CG_24
REMARK                            x       y       z     vdW  Elec       q    Type
REMARK                         _______ _______ _______ _____ _____    ______ ____
ROOT
ATOM      1  O   PHE A   1      -0.376   1.318  -1.974  0.00  0.00    -0.277 OA
ATOM      2  N   PRO A   2      -0.372   1.560   0.328  0.00  0.00    -0.275 N 
ATOM      3  CA  PRO A   2       1.075   1.606   0.488  0.00  0.00    +0.152 C 
ATOM      4  CB  PRO A   2       1.292   2.135   1.901  0.00  0.00    +0.031 C 
ATOM      5  CG  PRO A   2       0.050   1.661   2.651  0.00  0.00    +0.024 C 
ATOM      6  CD  PRO A   2      -1.050   1.762   1.605  0.00  0.00    +0.094 C 
ATOM      7  C   PHE A   1      -0.982   1.490  -0.915  0.00  0.00    +0.206 C 
ENDROOT
BRANCH   3  10
ATOM      8  O   PRO A   2       0.900  -0.770   0.645  0.00  0.00    -0.273 OA
ATOM      9  N   ALA A   3       2.874   0.164  -0.161  0.00  0.00    -0.295 N 
ATOM     10  C   PRO A   2       1.582   0.203   0.334  0.00  0.00    +0.241 C 
ATOM     11  H   ALA A   3       3.320   1.016  -0.375  0.00  0.00    +0.150 HD
BRANCH   9  12
ATOM     12  CA  ALA A   3       3.600  -1.066  -0.380  0.00  0.00    +0.171 C 
ATOM     13  CB  ALA A   3       3.352  -1.591  -1.786  0.00  0.00    +0.033 C 
BRANCH  12  15
ATOM     14  OXT ALA A   3       5.889  -1.820  -0.196  0.00  0.00    -0.248 OA
ATOM     15  C   ALA A   3       5.090  -0.892  -0.136  0.00  0.00    +0.332 C 
BRANCH  15  16
ATOM     16  O   ALA A   3       5.470   0.373   0.167  0.00  0.00    -0.479 OA
ATOM     17  H   ALA A   3       4.831   1.058   0.204  0.00  0.00    +0.295 HD
ENDBRANCH  15  16
ENDBRANCH  12  15
ENDBRANCH   9  12
ENDBRANCH   3  10
BRANCH   7  18
ATOM     18  CA  PHE A   1      -2.483   1.629  -0.911  0.00  0.00    +0.018 C 
BRANCH  18  19
ATOM     19  N   PHE A   1      -2.762   2.840  -1.672  0.00  0.00    +0.388 N 
ATOM     20  H1  PHE A   1      -2.305   3.635  -1.226  0.00  0.00    -0.089 HD
ATOM     21  H2  PHE A   1      -3.769   2.999  -1.701  0.00  0.00    -0.089 HD
ATOM     22  H3  PHE A   1      -2.407   2.733  -2.623  0.00  0.00    -0.089 HD
ENDBRANCH  18  19
BRANCH  18  23
ATOM     23  CB  PHE A   1      -3.152   0.411  -1.548  0.00  0.00    +0.013 C 
BRANCH  23  24
ATOM     24  CG  PHE A   1      -3.247  -0.764  -0.603  0.00  0.00    -0.024 C 
ATOM     25  CD1 PHE A   1      -2.212  -1.683  -0.559  0.00  0.00    -0.004 C 
ATOM     26  CD2 PHE A   1      -4.366  -0.898   0.202  0.00  0.00    -0.004 C 
ATOM     27  CE1 PHE A   1      -2.299  -2.768   0.314  0.00  0.00    -0.000 C 
ATOM     28  CE2 PHE A   1      -4.453  -1.983   1.075  0.00  0.00    -0.000 C 
ATOM     29  CZ  PHE A   1      -3.419  -2.918   1.131  0.00  0.00    -0.000 C 
ENDBRANCH  23  24
ENDBRANCH  18  23
ENDBRANCH   7  18
TORSDOF 8
