REMARK  Name = 13366
REMARK  11 active torsions:
REMARK  status: ('A' for Active; 'I' for Inactive)
REMARK    1  A    between atoms: C_1  and  N_3
REMARK    2  A    between atoms: C_1  and  C_11
REMARK    3  A    between atoms: C_4  and  C_6
REMARK    4  A    between atoms: C_6  and  S_7
REMARK    5  A    between atoms: S_7  and  C_8
REMARK    6  A    between atoms: C_8  and  C_10
REMARK    7  A    between atoms: C_11  and  N_13
REMARK    8  A    between atoms: C_14  and  C_16
REMARK    9  A    between atoms: C_16  and  S_17
REMARK   10  A    between atoms: S_17  and  C_18
REMARK   11  A    between atoms: C_18  and  C_20
REMARK                            x       y       z     vdW  Elec       q    Type
REMARK                         _______ _______ _______ _____ _____    ______ ____
ROOT
ATOM      1  C   UNL     1      -0.089   2.629   0.397  0.00  0.00    +0.111 C 
ENDROOT
BRANCH   1   3
ATOM      2  O   UNL     1       2.802   2.583   0.279  0.00  0.00    -0.274 OA
ATOM      3  N   UNL     1       0.793   1.630   0.955  0.00  0.00    -0.302 N 
ATOM      4  C   UNL     1       2.173   1.693   0.848  0.00  0.00    +0.234 C 
ATOM      5  H   UNL     1       0.395   0.868   1.435  0.00  0.00    +0.150 HD
BRANCH   4   6
ATOM      6  C   UNL     1       2.868   0.520   1.499  0.00  0.00    +0.142 C 
BRANCH   6   7
ATOM      7  S   UNL     1       3.855  -0.343   0.253  0.00  0.00    -0.129 S 
BRANCH   7   8
ATOM      8  C   UNL     1       2.530  -1.296  -0.526  0.00  0.00    +0.076 C 
BRANCH   8  10
ATOM      9 CL   UNL     1       1.743  -3.208  -2.332  0.00  0.00    -0.113 Cl
ATOM     10  C   UNL     1       3.046  -2.233  -1.609  0.00  0.00    +0.106 C 
ENDBRANCH   8  10
ENDBRANCH   7   8
ENDBRANCH   6   7
ENDBRANCH   4   6
ENDBRANCH   1   3
BRANCH   1  11
ATOM     11  C   UNL     1      -0.500   2.298  -1.028  0.00  0.00    +0.111 C 
BRANCH  11  13
ATOM     12  O   UNL     1      -3.357   1.891  -0.810  0.00  0.00    -0.274 OA
ATOM     13  N   UNL     1      -1.210   1.050  -1.109  0.00  0.00    -0.302 N 
ATOM     14  C   UNL     1      -2.591   0.947  -0.993  0.00  0.00    +0.234 C 
ATOM     15  H   UNL     1      -0.691   0.227  -1.254  0.00  0.00    +0.150 HD
BRANCH  14  16
ATOM     16  C   UNL     1      -3.091  -0.474  -1.094  0.00  0.00    +0.142 C 
BRANCH  16  17
ATOM     17  S   UNL     1      -3.979  -0.894   0.425  0.00  0.00    -0.129 S 
BRANCH  17  18
ATOM     18  C   UNL     1      -2.554  -1.252   1.480  0.00  0.00    +0.076 C 
BRANCH  18  20
ATOM     19 CL   UNL     1      -0.501  -2.932   2.185  0.00  0.00    -0.113 Cl
ATOM     20  C   UNL     1      -1.937  -2.611   1.181  0.00  0.00    +0.106 C 
ENDBRANCH  18  20
ENDBRANCH  17  18
ENDBRANCH  16  17
ENDBRANCH  14  16
ENDBRANCH  11  13
ENDBRANCH   1  11
TORSDOF 11
