REMARK  Name = 133622
REMARK  13 active torsions:
REMARK  status: ('A' for Active; 'I' for Inactive)
REMARK    1  A    between atoms: C_1  and  C_2
REMARK    2  A    between atoms: C_1  and  C_12
REMARK    3  A    between atoms: C_2  and  C_3
REMARK    4  A    between atoms: C_3  and  O_4
REMARK    5  A    between atoms: O_4  and  S_5
REMARK    6  A    between atoms: S_5  and  C_8
REMARK    7  A    between atoms: C_8  and  C_9
REMARK    8  A    between atoms: C_9  and  O_10
REMARK    9  A    between atoms: C_12  and  O_13
REMARK   10  A    between atoms: O_13  and  S_14
REMARK   11  A    between atoms: S_14  and  C_17
REMARK   12  A    between atoms: C_17  and  C_18
REMARK   13  A    between atoms: C_18  and  O_19
REMARK                            x       y       z     vdW  Elec       q    Type
REMARK                         _______ _______ _______ _____ _____    ______ ____
ROOT
ATOM      1  C   UNL     1       0.645   0.407  -0.036  0.00  0.00    +0.037 C 
ENDROOT
BRANCH   1   2
ATOM      2  C   UNL     1      -0.645  -0.407  -0.053  0.00  0.00    +0.037 C 
BRANCH   2   3
ATOM      3  C   UNL     1      -1.875   0.489  -0.069  0.00  0.00    +0.172 C 
BRANCH   3   4
ATOM      4  O   UNL     1      -3.038  -0.327  -0.070  0.00  0.00    -0.242 OA
BRANCH   4   5
ATOM      5  S   UNL     1      -4.503   0.395  -0.086  0.00  0.00    -0.004 S 
ATOM      6  O   UNL     1      -4.717   1.078   1.174  0.00  0.00    -0.072 OA
ATOM      7  O   UNL     1      -4.700   1.055  -1.361  0.00  0.00    -0.072 OA
BRANCH   5   8
ATOM      8  C   UNL     1      -5.468  -1.094  -0.079  0.00  0.00    +0.187 C 
BRANCH   8   9
ATOM      9  C   UNL     1      -6.945  -0.806  -0.263  0.00  0.00    +0.163 C 
BRANCH   9  10
ATOM     10  O   UNL     1      -7.427   0.012   0.795  0.00  0.00    -0.380 OA
ATOM     11  H   UNL     1      -8.372   0.187   0.664  0.00  0.00    +0.211 HD
ENDBRANCH   9  10
ENDBRANCH   8   9
ENDBRANCH   5   8
ENDBRANCH   4   5
ENDBRANCH   3   4
ENDBRANCH   2   3
ENDBRANCH   1   2
BRANCH   1  12
ATOM     12  C   UNL     1       1.875  -0.489  -0.063  0.00  0.00    +0.172 C 
BRANCH  12  13
ATOM     13  O   UNL     1       3.038   0.327  -0.060  0.00  0.00    -0.242 OA
BRANCH  13  14
ATOM     14  S   UNL     1       4.502  -0.395  -0.087  0.00  0.00    -0.004 S 
ATOM     15  O   UNL     1       4.720  -1.087   1.167  0.00  0.00    -0.072 OA
ATOM     16  O   UNL     1       4.696  -1.044  -1.367  0.00  0.00    -0.072 OA
BRANCH  14  17
ATOM     17  C   UNL     1       5.468   1.095  -0.071  0.00  0.00    +0.187 C 
BRANCH  17  18
ATOM     18  C   UNL     1       6.944   0.808  -0.262  0.00  0.00    +0.163 C 
BRANCH  18  19
ATOM     19  O   UNL     1       7.430  -0.018   0.789  0.00  0.00    -0.380 OA
ATOM     20  H   UNL     1       8.374  -0.192   0.653  0.00  0.00    +0.211 HD
ENDBRANCH  18  19
ENDBRANCH  17  18
ENDBRANCH  14  17
ENDBRANCH  13  14
ENDBRANCH  12  13
ENDBRANCH   1  12
TORSDOF 13
