REMARK  Name = 133710
REMARK  9 active torsions:
REMARK  status: ('A' for Active; 'I' for Inactive)
REMARK    1  A    between atoms: C_2  and  O_3
REMARK    2  A    between atoms: C_2  and  C_20
REMARK    3  A    between atoms: O_3  and  C_9
REMARK    4  A    between atoms: C_5  and  O_10
REMARK    5  A    between atoms: C_6  and  O_12
REMARK    6  A    between atoms: C_7  and  O_14
REMARK    7  A    between atoms: C_8  and  C_17
REMARK    8  A    between atoms: C_17  and  O_18
REMARK    9  A    between atoms: C_20  and  C_23
REMARK                            x       y       z     vdW  Elec       q    Type
REMARK                         _______ _______ _______ _____ _____    ______ ____
ROOT
ATOM      1  O   UNL     1      -1.296   0.253  -0.350  0.00  0.00    -0.250 OA
ATOM      2  C   UNL     1      -1.462  -0.574   0.537  0.00  0.00    +0.323 C 
ENDROOT
BRANCH   2   3
ATOM      3  O   UNL     1      -2.627  -1.238   0.801  0.00  0.00    -0.421 OA
BRANCH   3   9
ATOM      4  O   UNL     1      -4.016   0.477   0.045  0.00  0.00    -0.307 OA
ATOM      5  C   UNL     1      -6.189  -1.354  -0.375  0.00  0.00    +0.173 C 
ATOM      6  C   UNL     1      -6.383   0.162  -0.402  0.00  0.00    +0.178 C 
ATOM      7  C   UNL     1      -4.930  -1.742   0.401  0.00  0.00    +0.211 C 
ATOM      8  C   UNL     1      -5.092   0.865  -0.801  0.00  0.00    +0.246 C 
ATOM      9  C   UNL     1      -3.725  -0.915  -0.050  0.00  0.00    +0.321 C 
BRANCH   5  10
ATOM     10  O   UNL     1      -7.333  -1.935   0.251  0.00  0.00    -0.379 OA
ATOM     11  H   UNL     1      -8.132  -1.689  -0.242  0.00  0.00    +0.211 HD
ENDBRANCH   5  10
BRANCH   6  12
ATOM     12  O   UNL     1      -7.394   0.486  -1.355  0.00  0.00    -0.379 OA
ATOM     13  H   UNL     1      -8.222   0.043  -1.111  0.00  0.00    +0.211 HD
ENDBRANCH   6  12
BRANCH   7  14
ATOM     14  O   UNL     1      -4.638  -3.120   0.172  0.00  0.00    -0.377 OA
ATOM     15  H   UNL     1      -5.393  -3.661   0.453  0.00  0.00    +0.211 HD
ENDBRANCH   7  14
BRANCH   8  17
ATOM     16  O   UNL     1      -4.511   2.976   0.214  0.00  0.00    -0.247 OA
ATOM     17  C   UNL     1      -5.193   2.339  -0.574  0.00  0.00    +0.344 C 
BRANCH  17  18
ATOM     18  O   UNL     1      -6.152   2.880  -1.365  0.00  0.00    -0.478 OA
ATOM     19  H   UNL     1      -6.640   2.334  -1.949  0.00  0.00    +0.295 HD
ENDBRANCH  17  18
ENDBRANCH   8  17
ENDBRANCH   3   9
ENDBRANCH   2   3
BRANCH   2  20
ATOM     20  C   UNL     1      -0.395  -1.021   1.517  0.00  0.00    +0.136 C 
BRANCH  20  23
ATOM     21  O   UNL     1       4.436   1.836   0.878  0.00  0.00    -0.471 OA
ATOM     22  O   UNL     1       3.696  -1.779  -1.322  0.00  0.00    -0.286 OA
ATOM     23  C   UNL     1       0.905  -0.311   1.346  0.00  0.00    -0.011 C 
ATOM     24  C   UNL     1       3.104  -0.165   0.288  0.00  0.00    +0.073 C 
ATOM     25  C   UNL     1       1.876  -0.827   0.485  0.00  0.00    +0.002 C 
ATOM     26  C   UNL     1       3.324   1.044   0.962  0.00  0.00    +0.142 C 
ATOM     27  C   UNL     1       1.147   0.871   2.033  0.00  0.00    -0.001 C 
ATOM     28  C   UNL     1       5.526  -0.549  -0.623  0.00  0.00    +0.039 C 
ATOM     29  C   UNL     1       5.989   0.767  -0.559  0.00  0.00    +0.024 C 
ATOM     30  C   UNL     1       4.083  -0.866  -0.595  0.00  0.00    +0.198 C 
ATOM     31  C   UNL     1       2.352   1.541   1.845  0.00  0.00    +0.037 C 
ATOM     32  C   UNL     1       5.026   1.900  -0.415  0.00  0.00    +0.232 C 
ATOM     33  C   UNL     1       6.432  -1.609  -0.772  0.00  0.00    +0.003 C 
ATOM     34  C   UNL     1       7.369   1.009  -0.623  0.00  0.00    -0.001 C 
ATOM     35  C   UNL     1       7.802  -1.355  -0.835  0.00  0.00    +0.000 C 
ATOM     36  C   UNL     1       8.270  -0.047  -0.759  0.00  0.00    -0.000 C 
ENDBRANCH  20  23
ENDBRANCH   2  20
TORSDOF 9
