REMARK  Name = 133759
REMARK  9 active torsions:
REMARK  status: ('A' for Active; 'I' for Inactive)
REMARK    1  A    between atoms: N_2  and  C_3
REMARK    2  A    between atoms: N_2  and  C_5
REMARK    3  A    between atoms: C_3  and  C_4
REMARK    4  A    between atoms: C_3  and  C_12
REMARK    5  A    between atoms: C_8  and  O_10
REMARK    6  A    between atoms: C_12  and  CA_13
REMARK    7  A    between atoms: CA_13  and  N_14
REMARK    8  A    between atoms: CA_13  and  C_19
REMARK    9  A    between atoms: C_19  and  O_20
REMARK                            x       y       z     vdW  Elec       q    Type
REMARK                         _______ _______ _______ _____ _____    ______ ____
ROOT
ATOM      1  CA  UNL     1       2.735   0.145   0.433  0.00  0.00    +0.037 C 
ENDROOT
BRANCH   1   2
ATOM      2  N   UNL     1       4.142   0.445   0.524  0.00  0.00    +0.389 N 
ATOM      3  H1  UNL     1       4.265   1.418   0.802  0.00  0.00    -0.088 HD
ATOM      4  H2  UNL     1       4.581   0.292  -0.384  0.00  0.00    -0.088 HD
ATOM      5  H3  UNL     1       4.575  -0.164   1.218  0.00  0.00    -0.088 HD
ENDBRANCH   1   2
BRANCH   1   7
ATOM      6  OXT UNL     1       3.247  -1.899  -0.754  0.00  0.00    -0.253 OA
ATOM      7  C   UNL     1       2.507  -1.302   0.020  0.00  0.00    +0.293 C 
BRANCH   7   8
ATOM      8  O   UNL     1       1.422  -1.889   0.580  0.00  0.00    -0.482 OA
ATOM      9  H   UNL     1       0.877  -1.403   1.167  0.00  0.00    +0.295 HD
ENDBRANCH   7   8
ENDBRANCH   1   7
BRANCH   1  10
ATOM     10  C   UNL     1       2.031   1.088  -0.551  0.00  0.00    +0.008 C 
BRANCH  10  11
ATOM     11  C   UNL     1       0.544   1.187  -0.311  0.00  0.00    +0.090 C 
BRANCH  11  13
ATOM     12  N   UNL     1      -1.573   0.908  -0.317  0.00  0.00    -0.130 NA
ATOM     13  C   UNL     1      -0.419   0.411  -0.856  0.00  0.00    +0.126 C 
ENDBRANCH  11  13
BRANCH  11  14
ATOM     14  N   UNL     1       0.073   2.135   0.531  0.00  0.00    -0.223 NA
ATOM     15  C   UNL     1      -1.227   1.942   0.509  0.00  0.00    +0.114 C 
ENDBRANCH  11  14
ENDBRANCH  10  11
ENDBRANCH   1  10
TORSDOF 7
REMARK  Name = 133759
REMARK  9 active torsions:
REMARK  status: ('A' for Active; 'I' for Inactive)
REMARK    1  A    between atoms: N_2  and  C_3
REMARK    2  A    between atoms: N_2  and  C_5
REMARK    3  A    between atoms: C_3  and  C_4
REMARK    4  A    between atoms: C_3  and  C_12
REMARK    5  A    between atoms: C_8  and  O_10
REMARK    6  A    between atoms: C_12  and  CA_13
REMARK    7  A    between atoms: CA_13  and  N_14
REMARK    8  A    between atoms: CA_13  and  C_19
REMARK    9  A    between atoms: C_19  and  O_20
REMARK                            x       y       z     vdW  Elec       q    Type
REMARK                         _______ _______ _______ _____ _____    ______ ____
ROOT
ATOM      1  C   UNL     1      -2.910   0.432  -0.574  0.00  0.00    +0.032 C 
ATOM      2  C   UNL     1      -3.343  -0.667   0.400  0.00  0.00    +0.111 C 
ATOM      3  C   UNL     1      -4.753  -1.147   0.084  0.00  0.00    +0.032 C 
ENDROOT
BRANCH   2   4
ATOM      4  O   UNL     1      -2.474  -1.791   0.283  0.00  0.00    -0.384 OA
ATOM      5  H   UNL     1      -1.564  -1.519   0.479  0.00  0.00    +0.210 HD
ENDBRANCH   2   4
TORSDOF 1
