REMARK  Name = 133727
REMARK  11 active torsions:
REMARK  status: ('A' for Active; 'I' for Inactive)
REMARK    1  A    between atoms: C_1  and  N_18
REMARK    2  A    between atoms: C_4  and  O_7
REMARK    3  A    between atoms: C_6  and  N_9
REMARK    4  A    between atoms: N_9  and  N_10
REMARK    5  A    between atoms: N_10  and  C_13
REMARK    6  A    between atoms: N_18  and  C_19
REMARK    7  A    between atoms: N_18  and  C_26
REMARK    8  A    between atoms: C_19  and  C_20
REMARK    9  A    between atoms: C_20  and  C_21
REMARK   10  A    between atoms: C_21  and  S_22
REMARK   11  A    between atoms: C_26  and  C_27
REMARK                            x       y       z     vdW  Elec       q    Type
REMARK                         _______ _______ _______ _____ _____    ______ ____
ROOT
ATOM      1  C   UNL     1       1.422  -1.086  -0.010  0.00  0.00    +0.051 C 
ATOM      2  C   UNL     1       0.991   0.144  -0.517  0.00  0.00    +0.053 C 
ATOM      3  C   UNL     1       0.516  -1.904   0.673  0.00  0.00    +0.016 C 
ATOM      4  C   UNL     1      -0.332   0.551  -0.344  0.00  0.00    +0.151 C 
ATOM      5  C   UNL     1      -0.807  -1.497   0.846  0.00  0.00    +0.022 C 
ATOM      6  C   UNL     1      -1.231  -0.269   0.338  0.00  0.00    +0.123 C 
ENDROOT
BRANCH   4   7
ATOM      7  O   UNL     1      -0.730   1.754  -0.847  0.00  0.00    -0.504 OA
ATOM      8  H   UNL     1      -0.118   2.296  -1.303  0.00  0.00    +0.292 HD
ENDBRANCH   4   7
BRANCH   6   9
ATOM      9  N   UNL     1      -2.562   0.127   0.518  0.00  0.00    -0.124 NA
BRANCH   9  10
ATOM     10  N   UNL     1      -3.260  -0.274  -0.442  0.00  0.00    -0.109 NA
BRANCH  10  13
ATOM     11 BR   UNL     1      -9.005   1.256   0.428  0.00  0.00    -0.047 Br
ATOM     12  N   UNL     1      -5.378  -0.747   0.411  0.00  0.00    -0.225 NA
ATOM     13  C   UNL     1      -4.596   0.124  -0.261  0.00  0.00    +0.170 C 
ATOM     14  C   UNL     1      -5.024   1.339  -0.760  0.00  0.00    +0.038 C 
ATOM     15  C   UNL     1      -6.355   1.688  -0.556  0.00  0.00    +0.011 C 
ATOM     16  C   UNL     1      -6.665  -0.373   0.590  0.00  0.00    +0.107 C 
ATOM     17  C   UNL     1      -7.197   0.821   0.131  0.00  0.00    +0.054 C 
ENDBRANCH  10  13
ENDBRANCH   9  10
ENDBRANCH   6   9
BRANCH   1  18
ATOM     18  N   UNL     1       2.752  -1.496  -0.183  0.00  0.00    -0.307 N 
BRANCH  18  19
ATOM     19  C   UNL     1       3.705  -0.678  -0.895  0.00  0.00    +0.093 C 
BRANCH  19  20
ATOM     20  C   UNL     1       4.285   0.401   0.014  0.00  0.00    +0.047 C 
BRANCH  20  21
ATOM     21  C   UNL     1       5.328   1.259  -0.689  0.00  0.00    +0.160 C 
BRANCH  21  22
ATOM     22  S   UNL     1       5.997   2.477   0.401  0.00  0.00    +0.023 S 
ATOM     23  O   UNL     1       7.165   3.032  -0.593  0.00  0.00    -0.069 OA
ATOM     24  O   UNL     1       6.621   1.808   1.527  0.00  0.00    -0.069 OA
ATOM     25  O   UNL     1       5.010   3.524   0.591  0.00  0.00    -0.069 OA
ENDBRANCH  21  22
ENDBRANCH  20  21
ENDBRANCH  19  20
ENDBRANCH  18  19
BRANCH  18  26
ATOM     26  C   UNL     1       3.196  -2.784   0.351  0.00  0.00    +0.091 C 
BRANCH  26  27
ATOM     27  C   UNL     1       2.837  -3.918  -0.605  0.00  0.00    +0.021 C 
ATOM     28  C   UNL     1       3.318  -5.277  -0.116  0.00  0.00    +0.002 C 
ENDBRANCH  26  27
ENDBRANCH  18  26
ENDBRANCH   1  18
TORSDOF 11
