133759
  -OEChem-03292013323D

 30 30  0     1  0  0  0  0  0999 V2000
   -2.4745   -1.7912    0.2826 O   0  0  0  0  0  0  0  0  0  0  0  0
    1.4220   -1.8889    0.5797 O   0  0  0  0  0  0  0  0  0  0  0  0
    3.2474   -1.8993   -0.7536 O   0  0  0  0  0  0  0  0  0  0  0  0
   -1.5728    0.9085   -0.3172 N   0  0  0  0  0  0  0  0  0  0  0  0
    0.0728    2.1352    0.5311 N   0  0  0  0  0  0  0  0  0  0  0  0
    4.1418    0.4446    0.5239 N   0  0  0  0  0  0  0  0  0  0  0  0
   -2.9098    0.4324   -0.5740 C   0  0  0  0  0  0  0  0  0  0  0  0
    2.0310    1.0879   -0.5515 C   0  0  0  0  0  0  0  0  0  0  0  0
    0.5438    1.1872   -0.3115 C   0  0  0  0  0  0  0  0  0  0  0  0
   -3.3434   -0.6667    0.4002 C   0  0  1  0  0  0  0  0  0  0  0  0
    2.7347    0.1451    0.4332 C   0  0  1  0  0  0  0  0  0  0  0  0
   -0.4195    0.4114   -0.8558 C   0  0  0  0  0  0  0  0  0  0  0  0
   -1.2273    1.9419    0.5087 C   0  0  0  0  0  0  0  0  0  0  0  0
   -4.7530   -1.1466    0.0838 C   0  0  0  0  0  0  0  0  0  0  0  0
    2.5069   -1.3017    0.0204 C   0  0  0  0  0  0  0  0  0  0  0  0
   -2.9213    0.0643   -1.6074 H   0  0  0  0  0  0  0  0  0  0  0  0
   -3.5868    1.2927   -0.5184 H   0  0  0  0  0  0  0  0  0  0  0  0
    2.4398    2.1036   -0.4595 H   0  0  0  0  0  0  0  0  0  0  0  0
    2.2111    0.7747   -1.5884 H   0  0  0  0  0  0  0  0  0  0  0  0
   -3.2898   -0.3123    1.4352 H   0  0  0  0  0  0  0  0  0  0  0  0
    2.3177    0.2638    1.4411 H   0  0  0  0  0  0  0  0  0  0  0  0
   -0.4077   -0.4175   -1.5499 H   0  0  0  0  0  0  0  0  0  0  0  0
   -1.9590    2.5121    1.0648 H   0  0  0  0  0  0  0  0  0  0  0  0
   -5.0421   -1.9557    0.7633 H   0  0  0  0  0  0  0  0  0  0  0  0
   -5.4792   -0.3339    0.1815 H   0  0  0  0  0  0  0  0  0  0  0  0
   -4.8158   -1.5520   -0.9322 H   0  0  0  0  0  0  0  0  0  0  0  0
    4.2751    1.4054    0.8376 H   0  0  0  0  0  0  0  0  0  0  0  0
    4.5714    0.3923   -0.3993 H   0  0  0  0  0  0  0  0  0  0  0  0
   -2.5016   -2.0974   -0.6401 H   0  0  0  0  0  0  0  0  0  0  0  0
    1.3153   -2.8186    0.2857 H   0  0  0  0  0  0  0  0  0  0  0  0
  1 10  1  0  0  0  0
  1 29  1  0  0  0  0
  2 15  1  0  0  0  0
  2 30  1  0  0  0  0
  3 15  2  0  0  0  0
  4  7  1  0  0  0  0
  4 12  1  0  0  0  0
  4 13  1  0  0  0  0
  5  9  1  0  0  0  0
  5 13  2  0  0  0  0
  6 11  1  0  0  0  0
  6 27  1  0  0  0  0
  6 28  1  0  0  0  0
  7 10  1  0  0  0  0
  7 16  1  0  0  0  0
  7 17  1  0  0  0  0
  8  9  1  0  0  0  0
  8 11  1  0  0  0  0
  8 18  1  0  0  0  0
  8 19  1  0  0  0  0
  9 12  2  0  0  0  0
 10 14  1  0  0  0  0
 10 20  1  0  0  0  0
 11 15  1  0  0  0  0
 11 21  1  0  0  0  0
 12 22  1  0  0  0  0
 13 23  1  0  0  0  0
 14 24  1  0  0  0  0
 14 25  1  0  0  0  0
 14 26  1  0  0  0  0
M  END
> <PUBCHEM_COMPOUND_CID>
133759

> <PUBCHEM_CONFORMER_RMSD>
0.6

> <PUBCHEM_CONFORMER_DIVERSEORDER>
1
110
159
242
23
186
221
54
249
198
42
240
156
253
134
210
214
112
183
86
106
194
35
130
256
226
28
17
200
181
233
203
211
241
177
165
160
50
105
113
150
10
231
45
70
89
201
60
187
218
71
12
243
235
190
219
43
92
142
27
188
153
168
51
228
36
44
207
151
182
140
136
34
148
257
123
178
195
19
67
239
259
103
161
260
15
4
147
114
78
94
124
48
109
163
192
264
8
237
139
65
258
222
37
117
184
9
20
64
255
81
174
225
26
80
116
131
144
189
6
22
132
59
129
263
87
149
77
93
90
206
216
213
164
212
104
3
204
154
230
76
24
185
127
126
68
61
66
220
29
107
57
41
158
180
143
152
145
47
79
14
73
96
52
157
229
21
223
254
122
251
97
125
55
100
56
88
16
250
232
111
102
7
162
193
69
137
133
95
2
208
30
38
244
72
13
261
224
167
236
196
18
75
118
141
49
197
62
58
83
63
115
155
170
108
234
46
146
179
191
138
101
74
205
84
32
252
40
121
202
33
173
135
217
53
169
248
82
39
245
85
25
166
209
171
11
262
5
266
91
120
172
246
119
98
31
176
99
175
238
215
227
247
199
128
265

> <PUBCHEM_MMFF94_PARTIAL_CHARGES>
20
1 -0.68
10 0.28
11 0.33
12 -0.3
13 0.04
15 0.66
2 -0.65
22 0.15
23 0.15
27 0.36
28 0.36
29 0.4
3 -0.57
30 0.5
4 0.05
5 -0.57
6 -0.99
7 0.26
8 0.18
9 0.05

> <PUBCHEM_EFFECTIVE_ROTOR_COUNT>
5

> <PUBCHEM_PHARMACOPHORE_FEATURES>
9
1 1 acceptor
1 1 donor
1 2 acceptor
1 3 acceptor
1 6 cation
1 6 donor
3 2 3 15 anion
3 4 5 13 cation
5 4 5 9 12 13 rings

> <PUBCHEM_HEAVY_ATOM_COUNT>
15

> <PUBCHEM_ATOM_DEF_STEREO_COUNT>
1

> <PUBCHEM_ATOM_UDEF_STEREO_COUNT>
1

> <PUBCHEM_BOND_DEF_STEREO_COUNT>
0

> <PUBCHEM_BOND_UDEF_STEREO_COUNT>
0

> <PUBCHEM_ISOTOPIC_ATOM_COUNT>
0

> <PUBCHEM_COMPONENT_COUNT>
1

> <PUBCHEM_CACTVS_TAUTO_COUNT>
1

> <PUBCHEM_CONFORMER_ID>
00020A7F00000001

> <PUBCHEM_MMFF94_ENERGY>
13.4321

> <PUBCHEM_FEATURE_SELFOVERLAP>
45.73

> <PUBCHEM_SHAPE_FINGERPRINT>
10618630 7 18410012108950403359
11769659 78 18333729100491122085
11806522 49 18407760339623605852
12506688 2 18410576231614642865
13296908 3 18340204098517832829
14178342 30 18191857934307091760
14251705 54 18410296908374641687
14251710 61 18339648840882766519
14251717 144 18336826493624533195
14252887 29 17988652907946956510
14350558 41 18260552250786957573
15001771 113 18337395920108893100
15196674 1 18409448059585866891
15375462 189 18271239529705130109
17834074 16 18333730230362764207
19107657 162 18341611464996178246
19107657 46 18408602569519598351
20201158 50 18260828223952753555
20281475 54 18410300228690180261
20442098 301 18343295963870084982
20645477 70 18262233447500686215
20671657 53 17530679922451918765
20871998 22 18341899579870970253
21069387 34 15285910313453589712
21501925 9 18411134762025753933
22721475 48 18334016128913203051
23402539 116 15285626673734253332
23500284 5 18340488859413680241
23559900 14 18267295448563392320
25610 137 18411699885285413408
2871803 45 18260827081391349227
3312278 4 18410290281134576401
474229 33 18338232786619121312
58051976 378 18188496903185919172
8199 65 18335420200819544002
94968 8 18408326596348566558

> <PUBCHEM_SHAPE_MULTIPOLES>
276.14
7.3
2.2
0.82
2.86
0.19
-0.06
3.74
0.5
-0.29
0.22
-0.09
-0.05
0.29

> <PUBCHEM_SHAPE_SELFOVERLAP>
558.282

> <PUBCHEM_SHAPE_VOLUME>
163.3

> <PUBCHEM_COORDINATE_TYPE>
2
5
10

$$$$
