REMARK  Name = 133751
REMARK  7 active torsions:
REMARK  status: ('A' for Active; 'I' for Inactive)
REMARK    1  A    between atoms: P_1  and  N_17
REMARK    2  A    between atoms: C_5  and  O_9
REMARK    3  A    between atoms: O_9  and  N_11
REMARK    4  A    between atoms: N_17  and  C_18
REMARK    5  A    between atoms: N_17  and  C_21
REMARK    6  A    between atoms: C_18  and  C_20
REMARK    7  A    between atoms: C_21  and  C_23
REMARK                            x       y       z     vdW  Elec       q    Type
REMARK                         _______ _______ _______ _____ _____    ______ ____
ROOT
ATOM      1  P   UNL     1       0.734  -0.610   1.106  0.00  0.00    +0.350 P 
ATOM      2  O   UNL     1       0.924  -2.228   1.014  0.00  0.00    -0.292 OA
ATOM      3  O   UNL     1       1.101  -0.127   2.488  0.00  0.00    -0.254 OA
ATOM      4  N   UNL     1      -0.860  -0.361   0.686  0.00  0.00    -0.197 NA
ATOM      5  C   UNL     1      -1.368  -1.114  -0.462  0.00  0.00    +0.209 C 
ATOM      6  C   UNL     1      -1.099  -2.611  -0.278  0.00  0.00    +0.082 C 
ATOM      7  C   UNL     1       0.387  -2.916  -0.113  0.00  0.00    +0.156 C 
ATOM      8  H   UNL     1      -0.972   0.631   0.478  0.00  0.00    +0.136 HD
ENDROOT
BRANCH   5   9
ATOM      9  O   UNL     1      -2.769  -0.925  -0.626  0.00  0.00    -0.251 OA
BRANCH   9  11
ATOM     10  O   UNL     1      -5.090   0.185   0.184  0.00  0.00    -0.251 OA
ATOM     11  N   UNL     1      -3.012   0.449  -0.794  0.00  0.00    -0.176 N 
ATOM     12  N   UNL     1      -4.401   2.251  -0.537  0.00  0.00    -0.312 N 
ATOM     13  C   UNL     1      -4.232   0.894  -0.339  0.00  0.00    +0.320 C 
ATOM     14  H   UNL     1      -2.354   1.052  -1.210  0.00  0.00    +0.184 HD
ATOM     15  H   UNL     1      -5.235   2.690  -0.253  0.00  0.00    +0.147 HD
ATOM     16  H   UNL     1      -3.687   2.779  -0.962  0.00  0.00    +0.147 HD
ENDBRANCH   9  11
ENDBRANCH   5   9
BRANCH   1  17
ATOM     17  N   UNL     1       1.667   0.033  -0.108  0.00  0.00    -0.196 NA
BRANCH  17  18
ATOM     18  C   UNL     1       1.509   1.462  -0.369  0.00  0.00    +0.099 C 
BRANCH  18  20
ATOM     19 CL   UNL     1       2.024   4.012   0.401  0.00  0.00    -0.112 Cl
ATOM     20  C   UNL     1       2.229   2.269   0.700  0.00  0.00    +0.113 C 
ENDBRANCH  18  20
ENDBRANCH  17  18
BRANCH  17  21
ATOM     21  C   UNL     1       3.087  -0.313  -0.095  0.00  0.00    +0.099 C 
BRANCH  21  23
ATOM     22 CL   UNL     1       5.447  -0.393  -1.430  0.00  0.00    -0.112 Cl
ATOM     23  C   UNL     1       3.721   0.043  -1.431  0.00  0.00    +0.113 C 
ENDBRANCH  21  23
ENDBRANCH  17  21
ENDBRANCH   1  17
TORSDOF 7
