REMARK  Name = 133737
REMARK  9 active torsions:
REMARK  status: ('A' for Active; 'I' for Inactive)
REMARK    1  A    between atoms: C_3  and  C_20
REMARK    2  A    between atoms: C_4  and  C_9
REMARK    3  A    between atoms: C_8  and  C_11
REMARK    4  A    between atoms: C_11  and  C_12
REMARK    5  A    between atoms: C_12  and  N_14
REMARK    6  A    between atoms: N_19  and  C_22
REMARK    7  A    between atoms: C_22  and  C_23
REMARK    8  A    between atoms: C_23  and  C_24
REMARK    9  A    between atoms: C_24  and  S_25
REMARK                            x       y       z     vdW  Elec       q    Type
REMARK                         _______ _______ _______ _____ _____    ______ ____
ROOT
ATOM      1  S   UNL     1      -0.853  -1.833   1.193  0.00  0.00    -0.072 S 
ATOM      2  N   UNL     1       0.790  -0.525  -0.315  0.00  0.00    -0.392 NA
ATOM      3  C   UNL     1       1.436  -1.669   0.113  0.00  0.00    +0.174 C 
ATOM      4  C   UNL     1      -0.422  -0.507   0.193  0.00  0.00    +0.183 C 
ATOM      5  C   UNL     1       0.706  -2.501   0.937  0.00  0.00    +0.128 C 
ENDROOT
BRANCH   4   9
ATOM      6  S   UNL     1      -2.371   2.748  -0.978  0.00  0.00    -0.079 S 
ATOM      7  N   UNL     1      -2.640   0.611   0.452  0.00  0.00    -0.400 NA
ATOM      8  C   UNL     1      -3.260   1.698   0.048  0.00  0.00    +0.136 C 
ATOM      9  C   UNL     1      -1.367   0.598  -0.083  0.00  0.00    +0.156 C 
ATOM     10  C   UNL     1      -1.039   1.672  -0.884  0.00  0.00    +0.126 C 
BRANCH   8  11
ATOM     11  C   UNL     1      -4.646   2.057   0.418  0.00  0.00    +0.087 C 
BRANCH  11  12
ATOM     12  C   UNL     1      -5.705   1.512  -0.557  0.00  0.00    +0.097 C 
BRANCH  12  14
ATOM     13  O   UNL     1      -7.188  -0.388   1.062  0.00  0.00    -0.275 OA
ATOM     14  N   UNL     1      -5.676   0.076  -0.646  0.00  0.00    -0.304 N 
ATOM     15  C   UNL     1      -6.423  -0.756   0.175  0.00  0.00    +0.223 C 
ATOM     16  C   UNL     1      -6.225  -2.213  -0.148  0.00  0.00    +0.095 C 
ATOM     17  H   UNL     1      -5.095  -0.337  -1.326  0.00  0.00    +0.149 HD
ENDBRANCH  12  14
ENDBRANCH  11  12
ENDBRANCH   8  11
ENDBRANCH   4   9
BRANCH   3  20
ATOM     18  O   UNL     1       3.401  -2.968   0.040  0.00  0.00    -0.268 OA
ATOM     19  N   UNL     1       3.396  -0.988  -1.144  0.00  0.00    -0.299 N 
ATOM     20  C   UNL     1       2.817  -1.942  -0.309  0.00  0.00    +0.272 C 
ATOM     21  H   UNL     1       2.874  -0.189  -1.385  0.00  0.00    +0.150 HD
BRANCH  19  22
ATOM     22  C   UNL     1       4.728  -1.128  -1.665  0.00  0.00    +0.091 C 
BRANCH  22  23
ATOM     23  C   UNL     1       5.787  -0.512  -0.755  0.00  0.00    +0.032 C 
BRANCH  23  24
ATOM     24  C   UNL     1       5.559   0.976  -0.516  0.00  0.00    +0.050 C 
BRANCH  24  25
ATOM     25  S   UNL     1       6.859   1.657   0.562  0.00  0.00    -0.178 S 
ATOM     26  C   UNL     1       6.151   3.313   0.698  0.00  0.00    +0.059 C 
ATOM     27  C   UNL     1       6.184   1.013   2.109  0.00  0.00    +0.059 C 
ENDBRANCH  24  25
ENDBRANCH  23  24
ENDBRANCH  22  23
ENDBRANCH  19  22
ENDBRANCH   3  20
TORSDOF 9
