1337
  -OEChem-03292013323D

 36 36  0     0  0  0  0  0  0999 V2000
    5.3539    0.1223    0.0221 S   0  0  0  0  0  0  0  0  0  0  0  0
   -5.3539    0.1221   -0.0220 S   0  0  0  0  0  0  0  0  0  0  0  0
    7.1261   -1.8256    0.0069 N   0  0  0  0  0  0  0  0  0  0  0  0
   -7.1257   -1.8262   -0.0070 N   0  0  0  0  0  0  0  0  0  0  0  0
    4.8622   -2.4971   -0.0311 N   0  0  0  0  0  0  0  0  0  0  0  0
   -4.8617   -2.4971    0.0311 N   0  0  0  0  0  0  0  0  0  0  0  0
    1.3947    1.4357    0.0009 C   0  0  0  0  0  0  0  0  0  0  0  0
   -1.3950    1.4364   -0.0008 C   0  0  0  0  0  0  0  0  0  0  0  0
    2.8858    1.4357    0.0019 C   0  0  0  0  0  0  0  0  0  0  0  0
   -2.8862    1.4361   -0.0018 C   0  0  0  0  0  0  0  0  0  0  0  0
    0.6981    1.4360   -1.2075 C   0  0  0  0  0  0  0  0  0  0  0  0
   -0.6968    1.4363   -1.2084 C   0  0  0  0  0  0  0  0  0  0  0  0
    0.6965    1.4359    1.2084 C   0  0  0  0  0  0  0  0  0  0  0  0
   -0.6984    1.4361    1.2076 C   0  0  0  0  0  0  0  0  0  0  0  0
    3.5362    0.0420    0.0021 C   0  0  0  0  0  0  0  0  0  0  0  0
   -3.5362    0.0423   -0.0021 C   0  0  0  0  0  0  0  0  0  0  0  0
    5.7810   -1.5852   -0.0050 C   0  0  0  0  0  0  0  0  0  0  0  0
   -5.7807   -1.5856    0.0050 C   0  0  0  0  0  0  0  0  0  0  0  0
    3.2379    2.0030    0.8748 H   0  0  0  0  0  0  0  0  0  0  0  0
    3.2406    2.0038   -0.8693 H   0  0  0  0  0  0  0  0  0  0  0  0
   -3.2384    2.0034   -0.8746 H   0  0  0  0  0  0  0  0  0  0  0  0
   -3.2410    2.0039    0.8695 H   0  0  0  0  0  0  0  0  0  0  0  0
    1.2305    1.4330   -2.1550 H   0  0  0  0  0  0  0  0  0  0  0  0
   -1.2279    1.4336   -2.1566 H   0  0  0  0  0  0  0  0  0  0  0  0
    1.2276    1.4329    2.1566 H   0  0  0  0  0  0  0  0  0  0  0  0
   -1.2308    1.4332    2.1551 H   0  0  0  0  0  0  0  0  0  0  0  0
    3.1979   -0.5185    0.8809 H   0  0  0  0  0  0  0  0  0  0  0  0
    3.2150   -0.5083   -0.8896 H   0  0  0  0  0  0  0  0  0  0  0  0
   -3.1977   -0.5180   -0.8810 H   0  0  0  0  0  0  0  0  0  0  0  0
   -3.2148   -0.5080    0.8895 H   0  0  0  0  0  0  0  0  0  0  0  0
    7.4948   -2.7703   -0.0053 H   0  0  0  0  0  0  0  0  0  0  0  0
    7.7964   -1.0648    0.0287 H   0  0  0  0  0  0  0  0  0  0  0  0
   -7.4942   -2.7709    0.0048 H   0  0  0  0  0  0  0  0  0  0  0  0
   -7.7961   -1.0655   -0.0293 H   0  0  0  0  0  0  0  0  0  0  0  0
    5.3116   -3.4192   -0.0424 H   0  0  0  0  0  0  0  0  0  0  0  0
   -5.3108   -3.4194    0.0423 H   0  0  0  0  0  0  0  0  0  0  0  0
  1 15  1  0  0  0  0
  1 17  1  0  0  0  0
  2 16  1  0  0  0  0
  2 18  1  0  0  0  0
  3 17  1  0  0  0  0
  3 31  1  0  0  0  0
  3 32  1  0  0  0  0
  4 18  1  0  0  0  0
  4 33  1  0  0  0  0
  4 34  1  0  0  0  0
  5 17  2  0  0  0  0
  5 35  1  0  0  0  0
  6 18  2  0  0  0  0
  6 36  1  0  0  0  0
  7  9  1  0  0  0  0
  7 11  2  0  0  0  0
  7 13  1  0  0  0  0
  8 10  1  0  0  0  0
  8 12  2  0  0  0  0
  8 14  1  0  0  0  0
  9 15  1  0  0  0  0
  9 19  1  0  0  0  0
  9 20  1  0  0  0  0
 10 16  1  0  0  0  0
 10 21  1  0  0  0  0
 10 22  1  0  0  0  0
 11 12  1  0  0  0  0
 11 23  1  0  0  0  0
 12 24  1  0  0  0  0
 13 14  2  0  0  0  0
 13 25  1  0  0  0  0
 14 26  1  0  0  0  0
 15 27  1  0  0  0  0
 15 28  1  0  0  0  0
 16 29  1  0  0  0  0
 16 30  1  0  0  0  0
M  END
> <PUBCHEM_COMPOUND_CID>
1337

> <PUBCHEM_CONFORMER_RMSD>
0.8

> <PUBCHEM_CONFORMER_DIVERSEORDER>
1
38
5
62
67
120
71
49
113
73
69
35
133
112
26
50
53
74
2
75
87
59
100
47
13
27
31
142
41
99
132
11
101
70
124
25
125
45
68
33
39
21
76
136
57
130
44
77
144
63
106
83
36
95
123
29
116
105
19
3
51
121
110
61
32
109
93
134
104
4
94
118
143
8
91
28
107
96
146
42
17
97
81
90
86
72
140
89
145
128
23
7
135
102
108
117
127
129
141
84
126
98
30
139
52
56
131
24
40
82
18
111
80
15
37
66
64
20
88
55
138
103
137
78
92
46
10
122
43
147
119
34
54
22
148
14
48
65
60
114
115
16
79
58
85
12
6
9

> <PUBCHEM_MMFF94_PARTIAL_CHARGES>
28
1 -0.37
10 0.14
11 -0.15
12 -0.15
13 -0.15
14 -0.15
15 0.23
16 0.23
17 0.64
18 0.64
2 -0.37
23 0.15
24 0.15
25 0.15
26 0.15
3 -0.85
31 0.4
32 0.4
33 0.4
34 0.4
35 0.4
36 0.4
4 -0.85
5 -0.85
6 -0.85
7 -0.14
8 -0.14
9 0.14

> <PUBCHEM_EFFECTIVE_ROTOR_COUNT>
8

> <PUBCHEM_PHARMACOPHORE_FEATURES>
7
1 3 donor
1 4 donor
1 5 donor
1 6 donor
3 3 5 17 cation
3 4 6 18 cation
6 7 8 11 12 13 14 rings

> <PUBCHEM_HEAVY_ATOM_COUNT>
18

> <PUBCHEM_ATOM_DEF_STEREO_COUNT>
0

> <PUBCHEM_ATOM_UDEF_STEREO_COUNT>
0

> <PUBCHEM_BOND_DEF_STEREO_COUNT>
0

> <PUBCHEM_BOND_UDEF_STEREO_COUNT>
0

> <PUBCHEM_ISOTOPIC_ATOM_COUNT>
0

> <PUBCHEM_COMPONENT_COUNT>
1

> <PUBCHEM_CACTVS_TAUTO_COUNT>
1

> <PUBCHEM_CONFORMER_ID>
0000053900000001

> <PUBCHEM_MMFF94_ENERGY>
37.182

> <PUBCHEM_FEATURE_SELFOVERLAP>
35.599

> <PUBCHEM_SHAPE_FINGERPRINT>
117890 112 10015863184875116120
11796584 16 18339922597824241205
12596602 18 17846499206171808800
12633257 1 16486694791946882205
12895836 83 11746943108886500817
13288520 33 18409449154934630069
13533116 47 18341333383376285136
13668630 136 17749387135604329067
13955234 65 17914328232629033416
14123256 34 18411141333204579322
14178000 29 18186522115772656300
14211702 104 18201165360154826086
14216079 64 18411418440975036055
14251751 18 18410576184443764831
14251764 30 18410853265399893028
15238133 3 11599714117446076658
15475509 35 18202278121914758050
17959699 21 8574422128469051196
19784866 240 18408045117346004885
20281389 69 10591769783122805781
20398071 356 18411144614628347179
20526848 3 9439401337207397594
20567600 247 18410291423590557099
21304253 335 10231754513281259066
21637258 2 18410568491888571873
21641784 216 14634856527547452055
22224240 67 14189574135441110717
23379529 103 17679595699033978643
23559900 14 18339071692321761841
25122255 55 18410581690539415303
2838139 119 8358250428286391618
2916195 48 10375871887822580741
3014063 24 18411979187172293799
316301 35 18055913440602171367
33382 64 18413109467745025960
3472631 163 8790887384569942113
465052 167 18273497879560453684
5104073 3 15625398804557433942
559249 180 18411419506321571517
59682541 35 18129929136706863098
76465 3 18410577287981775969
77188 2 18411418444579744777
7808743 9 9079116640167790533

> <PUBCHEM_SHAPE_MULTIPOLES>
358.21
17.57
2.67
0.94
0.01
1.62
0
18.95
0
0
0
0
-0.48
0.04

> <PUBCHEM_SHAPE_SELFOVERLAP>
691.99

> <PUBCHEM_SHAPE_VOLUME>
218.2

> <PUBCHEM_COORDINATE_TYPE>
2
5
10

$$$$
