REMARK  Name = 1337
REMARK  8 active torsions:
REMARK  status: ('A' for Active; 'I' for Inactive)
REMARK    1  A    between atoms: C_1  and  C_7
REMARK    2  A    between atoms: C_2  and  C_16
REMARK    3  A    between atoms: C_7  and  C_8
REMARK    4  A    between atoms: C_8  and  S_9
REMARK    5  A    between atoms: S_9  and  C_12
REMARK    6  A    between atoms: C_16  and  C_17
REMARK    7  A    between atoms: C_17  and  S_18
REMARK    8  A    between atoms: S_18  and  C_21
REMARK                            x       y       z     vdW  Elec       q    Type
REMARK                         _______ _______ _______ _____ _____    ______ ____
ROOT
ATOM      1  C   UNL     1       1.395   1.436   0.001  0.00  0.00    -0.021 C 
ATOM      2  C   UNL     1      -1.395   1.436  -0.001  0.00  0.00    -0.021 C 
ATOM      3  C   UNL     1       0.698   1.436  -1.208  0.00  0.00    -0.005 C 
ATOM      4  C   UNL     1      -0.697   1.436  -1.208  0.00  0.00    -0.005 C 
ATOM      5  C   UNL     1       0.697   1.436   1.208  0.00  0.00    -0.005 C 
ATOM      6  C   UNL     1      -0.698   1.436   1.208  0.00  0.00    -0.005 C 
ENDROOT
BRANCH   1   7
ATOM      7  C   UNL     1       2.886   1.436   0.002  0.00  0.00    +0.038 C 
BRANCH   7   8
ATOM      8  C   UNL     1       3.536   0.042   0.002  0.00  0.00    +0.070 C 
BRANCH   8   9
ATOM      9  S   UNL     1       5.354   0.122   0.022  0.00  0.00    -0.081 S 
BRANCH   9  12
ATOM     10  N   UNL     1       7.126  -1.826   0.007  0.00  0.00    -0.338 N 
ATOM     11  N   UNL     1       4.862  -2.497  -0.031  0.00  0.00    -0.280 NA
ATOM     12  C   UNL     1       5.781  -1.585  -0.005  0.00  0.00    +0.145 C 
ATOM     13  H   UNL     1       7.760  -1.073   0.027  0.00  0.00    +0.144 HD
ATOM     14  H   UNL     1       7.461  -2.751  -0.005  0.00  0.00    +0.144 HD
ATOM     15  H   UNL     1       3.912  -2.239  -0.038  0.00  0.00    +0.189 HD
ENDBRANCH   9  12
ENDBRANCH   8   9
ENDBRANCH   7   8
ENDBRANCH   1   7
BRANCH   2  16
ATOM     16  C   UNL     1      -2.886   1.436  -0.002  0.00  0.00    +0.038 C 
BRANCH  16  17
ATOM     17  C   UNL     1      -3.536   0.042  -0.002  0.00  0.00    +0.070 C 
BRANCH  17  18
ATOM     18  S   UNL     1      -5.354   0.122  -0.022  0.00  0.00    -0.081 S 
BRANCH  18  21
ATOM     19  N   UNL     1      -7.126  -1.826  -0.007  0.00  0.00    -0.338 N 
ATOM     20  N   UNL     1      -4.862  -2.497   0.031  0.00  0.00    -0.280 NA
ATOM     21  C   UNL     1      -5.781  -1.586   0.005  0.00  0.00    +0.145 C 
ATOM     22  H   UNL     1      -7.760  -1.074  -0.027  0.00  0.00    +0.144 HD
ATOM     23  H   UNL     1      -7.460  -2.752   0.004  0.00  0.00    +0.144 HD
ATOM     24  H   UNL     1      -3.912  -2.238   0.038  0.00  0.00    +0.189 HD
ENDBRANCH  18  21
ENDBRANCH  17  18
ENDBRANCH  16  17
ENDBRANCH   2  16
TORSDOF 8
