REMARK  Name = 133719
REMARK  8 active torsions:
REMARK  status: ('A' for Active; 'I' for Inactive)
REMARK    1  A    between atoms: C_1  and  N_6
REMARK    2  A    between atoms: C_2  and  C_22
REMARK    3  A    between atoms: C_4  and  O_18
REMARK    4  A    between atoms: C_5  and  O_20
REMARK    5  A    between atoms: C_22  and  O_23
REMARK    6  A    between atoms: O_23  and  C_25
REMARK    7  A    between atoms: C_25  and  C_26
REMARK    8  A    between atoms: C_26  and  O_27
REMARK                            x       y       z     vdW  Elec       q    Type
REMARK                         _______ _______ _______ _____ _____    ______ ____
ROOT
ATOM      1  C   UNL     1       1.276  -2.078  -0.700  0.00  0.00    +0.105 C 
ATOM      2  C   UNL     1      -1.136  -2.490  -0.512  0.00  0.00    +0.075 C 
ATOM      3  C   UNL     1      -0.075  -1.860  -1.421  0.00  0.00    +0.029 C 
ATOM      4  C   UNL     1       0.920  -2.695   0.672  0.00  0.00    +0.155 C 
ATOM      5  C   UNL     1      -0.547  -2.343   0.889  0.00  0.00    +0.142 C 
ENDROOT
BRANCH   1   6
ATOM      6  N   UNL     1       2.117  -0.883  -0.665  0.00  0.00    -0.271 N 
ATOM      7  N   UNL     1       3.871   0.438  -1.032  0.00  0.00    -0.242 NA
ATOM      8  N   UNL     1       0.704   0.633   0.599  0.00  0.00    -0.228 NA
ATOM      9  N   UNL     1       1.776   2.807   0.887  0.00  0.00    -0.229 NA
ATOM     10  C   UNL     1       1.819   0.308  -0.072  0.00  0.00    +0.151 C 
ATOM     11  C   UNL     1       3.357  -0.759  -1.228  0.00  0.00    +0.221 C 
ATOM     12  C   UNL     1       2.919   1.115  -0.311  0.00  0.00    +0.140 C 
ATOM     13  C   UNL     1       2.873   2.409   0.198  0.00  0.00    +0.143 C 
ATOM     14  C   UNL     1       0.774   1.908   1.043  0.00  0.00    +0.253 C 
ATOM     15  N   UNL     1       3.945   3.297   0.001  0.00  0.00    -0.342 N 
ATOM     16  H   UNL     1       3.900   4.210   0.366  0.00  0.00    +0.144 HD
ATOM     17  H   UNL     1       4.740   3.005  -0.501  0.00  0.00    +0.144 HD
ENDBRANCH   1   6
BRANCH   4  18
ATOM     18  O   UNL     1       1.718  -2.230   1.745  0.00  0.00    -0.380 OA
ATOM     19  H   UNL     1       2.645  -2.466   1.584  0.00  0.00    +0.211 HD
ENDBRANCH   4  18
BRANCH   5  20
ATOM     20  O   UNL     1      -1.162  -3.251   1.788  0.00  0.00    -0.382 OA
ATOM     21  H   UNL     1      -2.093  -3.006   1.909  0.00  0.00    +0.210 HD
ENDBRANCH   5  20
BRANCH   2  22
ATOM     22  C   UNL     1      -2.505  -1.843  -0.655  0.00  0.00    +0.211 C 
BRANCH  22  23
ATOM     23  O   UNL     1      -2.400  -0.473  -0.307  0.00  0.00    -0.447 OA
BRANCH  23  25
ATOM     24  O   UNL     1      -4.650  -0.174  -0.723  0.00  0.00    -0.247 OA
ATOM     25  C   UNL     1      -3.557   0.258  -0.384  0.00  0.00    +0.348 C 
BRANCH  25  26
ATOM     26  C   UNL     1      -3.279   1.684   0.014  0.00  0.00    +0.252 C 
BRANCH  26  27
ATOM     27  O   UNL     1      -4.474   2.430  -0.095  0.00  0.00    -0.340 OA
ATOM     28  C   UNL     1      -4.282   3.793   0.268  0.00  0.00    +0.175 C 
ENDBRANCH  26  27
ENDBRANCH  25  26
ENDBRANCH  23  25
ENDBRANCH  22  23
ENDBRANCH   2  22
TORSDOF 8
