133895
  -OEChem-03292013323D

 37 38  0     1  0  0  0  0  0999 V2000
    5.5395    0.2894    0.9482 O   0  0  0  0  0  0  0  0  0  0  0  0
   -1.0012    2.5809   -1.0668 O   0  0  0  0  0  0  0  0  0  0  0  0
   -1.6828   -2.0182   -1.2874 O   0  5  0  0  0  0  0  0  0  0  0  0
   -1.7859   -2.5808    0.8320 O   0  0  0  0  0  0  0  0  0  0  0  0
    1.9717    0.6267   -0.0267 N   0  0  2  0  0  0  0  0  0  0  0  0
   -2.3443    0.5663    0.5020 N   0  0  0  0  0  0  0  0  0  0  0  0
   -4.1566   -0.6191    0.1003 N   0  0  0  0  0  0  0  0  0  0  0  0
   -2.0782   -1.7872   -0.1083 N   0  3  0  0  0  0  0  0  0  0  0  0
    3.3574    1.0398    0.2293 C   0  0  0  0  0  0  0  0  0  0  0  0
    4.1893   -0.1259    0.7718 C   0  0  1  0  0  0  0  0  0  0  0  0
    1.9171   -0.4785   -0.9942 C   0  0  0  0  0  0  0  0  0  0  0  0
    4.1428   -1.3263   -0.1700 C   0  0  0  0  0  0  0  0  0  0  0  0
    2.7001   -1.6936   -0.4926 C   0  0  0  0  0  0  0  0  0  0  0  0
    1.1779    1.7608   -0.4990 C   0  0  0  0  0  0  0  0  0  0  0  0
   -0.3041    1.4028   -0.6547 C   0  0  1  0  0  0  0  0  0  0  0  0
   -0.9297    0.9095    0.6559 C   0  0  0  0  0  0  0  0  0  0  0  0
   -2.8436   -0.6459    0.1573 C   0  0  0  0  0  0  0  0  0  0  0  0
   -3.3751    1.4283    0.6789 C   0  0  0  0  0  0  0  0  0  0  0  0
   -4.4943    0.6711    0.4239 C   0  0  0  0  0  0  0  0  0  0  0  0
    3.3816    1.8507    0.9689 H   0  0  0  0  0  0  0  0  0  0  0  0
    3.8286    1.4428   -0.6779 H   0  0  0  0  0  0  0  0  0  0  0  0
    3.8039   -0.4164    1.7573 H   0  0  0  0  0  0  0  0  0  0  0  0
    2.3091   -0.1645   -1.9706 H   0  0  0  0  0  0  0  0  0  0  0  0
    0.8948   -0.8315   -1.1488 H   0  0  0  0  0  0  0  0  0  0  0  0
    4.6635   -2.1804    0.2787 H   0  0  0  0  0  0  0  0  0  0  0  0
    4.6875   -1.0943   -1.0943 H   0  0  0  0  0  0  0  0  0  0  0  0
    2.6813   -2.4853   -1.2501 H   0  0  0  0  0  0  0  0  0  0  0  0
    2.2157   -2.0983    0.4053 H   0  0  0  0  0  0  0  0  0  0  0  0
    1.5606    2.1519   -1.4517 H   0  0  0  0  0  0  0  0  0  0  0  0
    1.2551    2.5932    0.2139 H   0  0  0  0  0  0  0  0  0  0  0  0
   -0.4539    0.6781   -1.4608 H   0  0  0  0  0  0  0  0  0  0  0  0
   -0.8885    1.6938    1.4222 H   0  0  0  0  0  0  0  0  0  0  0  0
   -0.4209    0.0271    1.0566 H   0  0  0  0  0  0  0  0  0  0  0  0
    6.0367   -0.4702    1.2966 H   0  0  0  0  0  0  0  0  0  0  0  0
   -1.8611    2.3077   -1.4287 H   0  0  0  0  0  0  0  0  0  0  0  0
   -3.2446    2.4644    0.9588 H   0  0  0  0  0  0  0  0  0  0  0  0
   -5.5260    0.9895    0.4572 H   0  0  0  0  0  0  0  0  0  0  0  0
  1 10  1  0  0  0  0
  1 34  1  0  0  0  0
  2 15  1  0  0  0  0
  2 35  1  0  0  0  0
  3  8  1  0  0  0  0
  4  8  2  0  0  0  0
  5  9  1  0  0  0  0
  5 11  1  0  0  0  0
  5 14  1  0  0  0  0
  6 16  1  0  0  0  0
  6 17  1  0  0  0  0
  6 18  1  0  0  0  0
  7 17  2  0  0  0  0
  7 19  1  0  0  0  0
  8 17  1  0  0  0  0
  9 10  1  0  0  0  0
  9 20  1  0  0  0  0
  9 21  1  0  0  0  0
 10 12  1  0  0  0  0
 10 22  1  0  0  0  0
 11 13  1  0  0  0  0
 11 23  1  0  0  0  0
 11 24  1  0  0  0  0
 12 13  1  0  0  0  0
 12 25  1  0  0  0  0
 12 26  1  0  0  0  0
 13 27  1  0  0  0  0
 13 28  1  0  0  0  0
 14 15  1  0  0  0  0
 14 29  1  0  0  0  0
 14 30  1  0  0  0  0
 15 16  1  0  0  0  0
 15 31  1  0  0  0  0
 16 32  1  0  0  0  0
 16 33  1  0  0  0  0
 18 19  2  0  0  0  0
 18 36  1  0  0  0  0
 19 37  1  0  0  0  0
M  CHG  2   3  -1   8   1
M  END
> <PUBCHEM_COMPOUND_CID>
133895

> <PUBCHEM_CONFORMER_RMSD>
0.8

> <PUBCHEM_CONFORMER_DIVERSEORDER>
1
118
79
131
147
151
41
23
125
51
139
143
39
60
67
150
76
133
144
46
97
126
15
128
140
113
148
10
112
98
62
48
105
20
93
55
127
122
86
149
73
145
40
45
66
92
120
99
130
9
88
94
57
47
101
82
34
59
136
56
31
4
24
117
37
43
121
72
52
111
114
90
77
135
38
74
146
2
71
142
42
44
63
119
109
28
95
116
124
89
104
102
26
78
53
49
103
5
137
61
36
100
7
108
80
54
115
107
132
84
129
141
35
3
25
87
65
96
106
17
68
16
64
81
6
134
69
12
19
70
8
110
58
32
22
30
138
85
91
33
18
29
123
11
21
13
75
50
83
27
14

> <PUBCHEM_MMFF94_PARTIAL_CHARGES>
21
1 -0.68
10 0.28
11 0.27
14 0.27
15 0.28
16 0.26
17 0.27
18 -0.3
19 0.08
2 -0.68
3 -0.52
34 0.4
35 0.4
36 0.15
37 0.15
4 -0.52
5 -0.81
6 0.05
7 -0.57
8 0.96
9 0.27

> <PUBCHEM_EFFECTIVE_ROTOR_COUNT>
6.2

> <PUBCHEM_PHARMACOPHORE_FEATURES>
10
1 1 acceptor
1 1 donor
1 2 acceptor
1 2 donor
1 3 acceptor
1 4 acceptor
1 5 cation
4 6 7 8 17 cation
5 6 7 17 18 19 rings
6 5 9 10 11 12 13 rings

> <PUBCHEM_HEAVY_ATOM_COUNT>
19

> <PUBCHEM_ATOM_DEF_STEREO_COUNT>
0

> <PUBCHEM_ATOM_UDEF_STEREO_COUNT>
2

> <PUBCHEM_BOND_DEF_STEREO_COUNT>
0

> <PUBCHEM_BOND_UDEF_STEREO_COUNT>
0

> <PUBCHEM_ISOTOPIC_ATOM_COUNT>
0

> <PUBCHEM_COMPONENT_COUNT>
1

> <PUBCHEM_CACTVS_TAUTO_COUNT>
1

> <PUBCHEM_CONFORMER_ID>
00020B0700000001

> <PUBCHEM_MMFF94_ENERGY>
30.3913

> <PUBCHEM_FEATURE_SELFOVERLAP>
50.828

> <PUBCHEM_SHAPE_FINGERPRINT>
10366900 7 17203605982476594864
10616163 171 18268156537671324806
11045977 3 17988918994599418168
11132069 177 18413390929963383062
11370993 70 18060700563393897858
12251169 10 18344145899506943204
12500047 106 18201434779100210529
12553582 1 18335433360699351668
12633257 1 18344149189478318160
13551218 46 18337955588849933171
14115302 16 16515698748635057904
15196674 1 18341615897281231663
15375358 24 18131071519495303238
15536298 74 18272939284313519078
17977361 122 18260259746239441227
1813 80 17458350727709518788
19141452 34 18411982455673736001
21673915 165 18412823590711842274
22959321 94 18187080637772394554
23402539 116 18335975415489197509
23557571 272 18340494353172892932
23559900 14 18201720639470612984
23728640 28 18272652402374247135
57005193 9 18413666920124529479
69090 78 18342457019608100003
9709674 26 18271815630669499031

> <PUBCHEM_SHAPE_MULTIPOLES>
347.61
9.42
2.37
0.99
4.31
0.56
0.09
0.78
-2.75
-0.87
0.43
0.18
-0.02
0.16

> <PUBCHEM_SHAPE_SELFOVERLAP>
713.034

> <PUBCHEM_SHAPE_VOLUME>
201.1

> <PUBCHEM_COORDINATE_TYPE>
2
5
10

$$$$
