REMARK  Name = 133890
REMARK  12 active torsions:
REMARK  status: ('A' for Active; 'I' for Inactive)
REMARK    1  A    between atoms: O_1  and  C_7
REMARK    2  A    between atoms: O_1  and  C_19
REMARK    3  A    between atoms: C_3  and  O_8
REMARK    4  A    between atoms: C_4  and  O_10
REMARK    5  A    between atoms: C_5  and  O_12
REMARK    6  A    between atoms: C_6  and  C_15
REMARK    7  A    between atoms: C_15  and  O_16
REMARK    8  A    between atoms: C_19  and  C_20
REMARK    9  A    between atoms: C_23  and  O_26
REMARK   10  A    between atoms: O_26  and  C_27
REMARK   11  A    between atoms: C_27  and  C_28
REMARK   12  A    between atoms: C_28  and  N_29
REMARK                            x       y       z     vdW  Elec       q    Type
REMARK                         _______ _______ _______ _____ _____    ______ ____
ROOT
ATOM      1  O   UNL     1       1.438   0.207  -0.305  0.00  0.00    -0.419 OA
ENDROOT
BRANCH   1   7
ATOM      2  O   UNL     1       3.613  -0.539   0.086  0.00  0.00    -0.307 OA
ATOM      3  C   UNL     1       4.675   2.107  -0.273  0.00  0.00    +0.173 C 
ATOM      4  C   UNL     1       5.507   0.967   0.315  0.00  0.00    +0.178 C 
ATOM      5  C   UNL     1       3.177   1.838  -0.123  0.00  0.00    +0.211 C 
ATOM      6  C   UNL     1       5.002  -0.382  -0.181  0.00  0.00    +0.246 C 
ATOM      7  C   UNL     1       2.818   0.429  -0.594  0.00  0.00    +0.321 C 
BRANCH   3   8
ATOM      8  O   UNL     1       5.016   3.307   0.421  0.00  0.00    -0.379 OA
ATOM      9  H   UNL     1       5.966   3.477   0.326  0.00  0.00    +0.211 HD
ENDBRANCH   3   8
BRANCH   4  10
ATOM     10  O   UNL     1       6.866   1.125  -0.090  0.00  0.00    -0.379 OA
ATOM     11  H   UNL     1       7.199   1.981   0.220  0.00  0.00    +0.211 HD
ENDBRANCH   4  10
BRANCH   5  12
ATOM     12  O   UNL     1       2.447   2.775  -0.916  0.00  0.00    -0.377 OA
ATOM     13  H   UNL     1       2.663   3.676  -0.632  0.00  0.00    +0.211 HD
ENDBRANCH   5  12
BRANCH   6  15
ATOM     14  O   UNL     1       5.023  -2.290   1.298  0.00  0.00    -0.247 OA
ATOM     15  C   UNL     1       5.628  -1.502   0.585  0.00  0.00    +0.344 C 
BRANCH  15  16
ATOM     16  O   UNL     1       6.969  -1.528   0.386  0.00  0.00    -0.478 OA
ATOM     17  H   UNL     1       7.371  -0.894  -0.174  0.00  0.00    +0.295 HD
ENDBRANCH  15  16
ENDBRANCH   6  15
ENDBRANCH   1   7
BRANCH   1  19
ATOM     18  O   UNL     1       1.575  -1.917  -1.181  0.00  0.00    -0.245 OA
ATOM     19  C   UNL     1       0.948  -1.012  -0.653  0.00  0.00    +0.343 C 
BRANCH  19  20
ATOM     20  C   UNL     1      -0.491  -1.115  -0.302  0.00  0.00    +0.076 C 
ATOM     21  C   UNL     1      -1.308  -1.921  -1.069  0.00  0.00    +0.010 C 
ATOM     22  C   UNL     1      -0.968  -0.403   0.779  0.00  0.00    +0.010 C 
ATOM     23  C   UNL     1      -3.166  -1.309   0.349  0.00  0.00    +0.139 C 
ATOM     24  C   UNL     1      -2.660  -2.019  -0.740  0.00  0.00    +0.037 C 
ATOM     25  C   UNL     1      -2.320  -0.501   1.109  0.00  0.00    +0.037 C 
BRANCH  23  26
ATOM     26  O   UNL     1      -4.485  -1.406   0.671  0.00  0.00    -0.474 OA
BRANCH  26  27
ATOM     27  C   UNL     1      -5.398  -1.652  -0.398  0.00  0.00    +0.227 C 
BRANCH  27  28
ATOM     28  C   UNL     1      -6.751  -1.034  -0.069  0.00  0.00    +0.144 C 
BRANCH  28  29
ATOM     29  N   UNL     1      -6.680   0.417   0.090  0.00  0.00    -0.264 N 
ATOM     30  N   UNL     1      -6.723   2.554  -0.442  0.00  0.00    -0.225 NA
ATOM     31  C   UNL     1      -6.438   1.074   1.250  0.00  0.00    +0.088 C 
ATOM     32  C   UNL     1      -6.845   1.328  -0.901  0.00  0.00    +0.168 C 
ATOM     33  C   UNL     1      -6.469   2.403   0.898  0.00  0.00    +0.117 C 
ENDBRANCH  28  29
ENDBRANCH  27  28
ENDBRANCH  26  27
ENDBRANCH  23  26
ENDBRANCH  19  20
ENDBRANCH   1  19
TORSDOF 12
