REMARK  Name = 133822
REMARK  10 active torsions:
REMARK  status: ('A' for Active; 'I' for Inactive)
REMARK    1  A    between atoms: N_2  and  C_19
REMARK    2  A    between atoms: C_3  and  C_5
REMARK    3  A    between atoms: C_5  and  N_7
REMARK    4  A    between atoms: C_5  and  C_12
REMARK    5  A    between atoms: C_8  and  O_10
REMARK    6  A    between atoms: C_12  and  C_13
REMARK    7  A    between atoms: C_19  and  C_21
REMARK    8  A    between atoms: C_21  and  O_22
REMARK    9  A    between atoms: O_22  and  C_23
REMARK   10  A    between atoms: C_26  and  N_31
REMARK                            x       y       z     vdW  Elec       q    Type
REMARK                         _______ _______ _______ _____ _____    ______ ____
ROOT
ATOM      1  O   UNL     1       1.088   1.151  -2.411  0.00  0.00    -0.273 OA
ATOM      2  N   UNL     1       0.839   2.140  -0.324  0.00  0.00    -0.294 N 
ATOM      3  C   UNL     1       1.407   1.253  -1.228  0.00  0.00    +0.241 C 
ATOM      4  H   UNL     1       1.170   2.139   0.603  0.00  0.00    +0.150 HD
ENDROOT
BRANCH   3   5
ATOM      5  C   UNL     1       2.454   0.360  -0.571  0.00  0.00    +0.155 C 
BRANCH   5   7
ATOM      6  O   UNL     1       0.691  -1.808   0.221  0.00  0.00    -0.226 OA
ATOM      7  N   UNL     1       2.336  -0.946  -1.169  0.00  0.00    -0.264 N 
ATOM      8  C   UNL     1       1.465  -1.920  -0.724  0.00  0.00    +0.402 C 
ATOM      9  H   UNL     1       2.911  -1.155  -1.941  0.00  0.00    +0.153 HD
BRANCH   8  10
ATOM     10  O   UNL     1       1.591  -3.041  -1.495  0.00  0.00    -0.431 OA
ATOM     11  C   UNL     1       0.742  -4.139  -1.143  0.00  0.00    +0.257 C 
ENDBRANCH   8  10
ENDBRANCH   5   7
BRANCH   5  12
ATOM     12  C   UNL     1       3.854   0.957  -0.754  0.00  0.00    +0.055 C 
BRANCH  12  13
ATOM     13  C   UNL     1       4.859   0.398   0.224  0.00  0.00    -0.020 C 
ATOM     14  C   UNL     1       5.584  -0.732  -0.119  0.00  0.00    -0.004 C 
ATOM     15  C   UNL     1       5.040   1.025   1.446  0.00  0.00    -0.004 C 
ATOM     16  C   UNL     1       6.513  -1.249   0.784  0.00  0.00    -0.000 C 
ATOM     17  C   UNL     1       5.969   0.508   2.349  0.00  0.00    -0.000 C 
ATOM     18  C   UNL     1       6.705  -0.629   2.018  0.00  0.00    -0.000 C 
ENDBRANCH  12  13
ENDBRANCH   5  12
ENDBRANCH   3   5
BRANCH   2  19
ATOM     19  C   UNL     1      -0.214   3.065  -0.675  0.00  0.00    +0.201 C 
BRANCH  19  21
ATOM     20  O   UNL     1      -2.615   3.129  -0.734  0.00  0.00    -0.248 OA
ATOM     21  C   UNL     1      -1.598   2.490  -0.480  0.00  0.00    +0.342 C 
BRANCH  21  22
ATOM     22  O   UNL     1      -1.550   1.190   0.004  0.00  0.00    -0.423 OA
BRANCH  22  23
ATOM     23  C   UNL     1      -2.814   0.627   0.196  0.00  0.00    +0.149 C 
ATOM     24  C   UNL     1      -3.397  -0.061  -0.845  0.00  0.00    +0.039 C 
ATOM     25  C   UNL     1      -3.428   0.781   1.419  0.00  0.00    +0.039 C 
ATOM     26  C   UNL     1      -5.304  -0.485   0.575  0.00  0.00    +0.143 C 
ATOM     27  C   UNL     1      -4.658  -0.624  -0.653  0.00  0.00    +0.027 C 
ATOM     28  C   UNL     1      -4.689   0.217   1.611  0.00  0.00    +0.027 C 
BRANCH  26  31
ATOM     29  O   UNL     1      -7.126  -1.682  -0.176  0.00  0.00    -0.126 OA
ATOM     30  O   UNL     1      -7.154  -0.920   1.882  0.00  0.00    -0.126 OA
ATOM     31  N   UNL     1      -6.590  -1.056   0.770  0.00  0.00    +0.058 N 
ENDBRANCH  26  31
ENDBRANCH  22  23
ENDBRANCH  21  22
ENDBRANCH  19  21
ENDBRANCH   2  19
TORSDOF 10
