REMARK  Name = 133885
REMARK  9 active torsions:
REMARK  status: ('A' for Active; 'I' for Inactive)
REMARK    1  A    between atoms: CA_1  and  C_8
REMARK    2  A    between atoms: CA_1  and  N_19
REMARK    3  A    between atoms: CA_1  and  CB_29
REMARK    4  A    between atoms: CA_4  and  C_11
REMARK    5  A    between atoms: N_10  and  CA_13
REMARK    6  A    between atoms: CA_13  and  C_15
REMARK    7  A    between atoms: C_15  and  O_16
REMARK    8  A    between atoms: C_20  and  CA_23
REMARK    9  A    between atoms: CB_29  and  CG_30
REMARK                            x       y       z     vdW  Elec       q    Type
REMARK                         _______ _______ _______ _____ _____    ______ ____
ROOT
ATOM      1  CA  GLY A   2       0.588  -0.347  -0.244  0.00  0.00    +0.153 C 
ENDROOT
BRANCH   1   8
ATOM      2  O   GLY A   2      -1.134   1.064   0.603  0.00  0.00    -0.273 OA
ATOM      3  N   PRO A   1      -1.621  -0.179  -1.288  0.00  0.00    -0.272 N 
ATOM      4  CA  PRO A   1      -2.925   0.416  -1.547  0.00  0.00    +0.152 C 
ATOM      5  CB  PRO A   1      -3.266  -0.002  -2.973  0.00  0.00    +0.031 C 
ATOM      6  CD  PRO A   1      -1.262  -1.136  -2.331  0.00  0.00    +0.094 C 
ATOM      7  CG  PRO A   1      -2.539  -1.334  -3.135  0.00  0.00    +0.024 C 
ATOM      8  C   GLY A   2      -0.796   0.253  -0.262  0.00  0.00    +0.244 C 
BRANCH   4  11
ATOM      9  O   PRO A   1      -3.738  -1.300  -0.100  0.00  0.00    -0.273 OA
ATOM     10  N   GLY A   2      -4.917   0.702  -0.248  0.00  0.00    -0.294 N 
ATOM     11  C   PRO A   1      -3.883  -0.167  -0.552  0.00  0.00    +0.241 C 
ATOM     12  H   GLY A   2      -4.925   1.589  -0.676  0.00  0.00    +0.150 HD
BRANCH  10  13
ATOM     13  CA  GLY A   2      -5.984   0.371   0.668  0.00  0.00    +0.200 C 
BRANCH  13  15
ATOM     14  OXT GLY A   2      -6.444   0.549   3.024  0.00  0.00    -0.248 OA
ATOM     15  C   GLY A   2      -5.675   0.752   2.093  0.00  0.00    +0.334 C 
BRANCH  15  16
ATOM     16  O   GLY A   2      -4.466   1.341   2.245  0.00  0.00    -0.479 OA
ATOM     17  H   GLY A   2      -3.913   1.474   1.501  0.00  0.00    +0.295 HD
ENDBRANCH  15  16
ENDBRANCH  13  15
ENDBRANCH  10  13
ENDBRANCH   4  11
ENDBRANCH   1   8
BRANCH   1  19
ATOM     18  O   PRO A   1       2.678   1.050  -1.694  0.00  0.00    -0.277 OA
ATOM     19  N   GLY A   2       1.413   0.724   0.234  0.00  0.00    -0.300 N 
ATOM     20  C   PRO A   1       2.395   1.338  -0.534  0.00  0.00    +0.203 C 
ATOM     21  H   GLY A   2       1.276   1.042   1.156  0.00  0.00    +0.150 HD
BRANCH  20  23
ATOM     22  N   PRO A   1       4.245   1.852   0.874  0.00  0.00    +0.391 N 
ATOM     23  CA  PRO A   1       3.090   2.441   0.196  0.00  0.00    +0.017 C 
ATOM     24  CB  PRO A   1       3.649   3.509  -0.740  0.00  0.00    -0.015 C 
ATOM     25  CG  PRO A   1       5.153   3.476  -0.511  0.00  0.00    -0.025 C 
ATOM     26  CD  PRO A   1       5.286   2.875   0.872  0.00  0.00    -0.081 C 
ATOM     27  H1  PRO A   1       4.563   1.022   0.374  0.00  0.00    -0.084 HD
ATOM     28  H2  PRO A   1       4.009   1.565   1.824  0.00  0.00    -0.084 HD
ENDBRANCH  20  23
ENDBRANCH   1  19
BRANCH   1  29
ATOM     29  CB  GLY A   2       0.616  -1.577   0.655  0.00  0.00    +0.055 C 
BRANCH  29  30
ATOM     30  CG  GLY A   2       1.988  -2.201   0.721  0.00  0.00    -0.020 C 
ATOM     31  CD1 GLY A   2       2.349  -3.188  -0.196  0.00  0.00    -0.004 C 
ATOM     32  CD2 GLY A   2       2.894  -1.791   1.699  0.00  0.00    -0.004 C 
ATOM     33  CE1 GLY A   2       3.618  -3.765  -0.135  0.00  0.00    -0.000 C 
ATOM     34  CE2 GLY A   2       4.163  -2.369   1.760  0.00  0.00    -0.000 C 
ATOM     35  CZ  GLY A   2       4.524  -3.356   0.843  0.00  0.00    -0.000 C 
ENDBRANCH  29  30
ENDBRANCH   1  29
TORSDOF 9
