REMARK  Name = 133863
REMARK  8 active torsions:
REMARK  status: ('A' for Active; 'I' for Inactive)
REMARK    1  A    between atoms: N_2  and  C_14
REMARK    2  A    between atoms: C_3  and  C_7
REMARK    3  A    between atoms: C_5  and  C_25
REMARK    4  A    between atoms: C_7  and  C_11
REMARK    5  A    between atoms: C_7  and  O_12
REMARK    6  A    between atoms: C_14  and  C_18
REMARK    7  A    between atoms: C_25  and  C_26
REMARK    8  A    between atoms: C_26  and  O_27
REMARK                            x       y       z     vdW  Elec       q    Type
REMARK                         _______ _______ _______ _____ _____    ______ ____
ROOT
ATOM      1  S   UNL     1      -2.814  -0.405   0.249  0.00  0.00    -0.095 S 
ATOM      2  N   UNL     1      -0.706   0.086  -1.016  0.00  0.00    -0.297 N 
ATOM      3  C   UNL     1      -1.328  -0.849  -0.397  0.00  0.00    +0.161 C 
ATOM      4  C   UNL     1      -1.396   1.278  -1.024  0.00  0.00    +0.028 C 
ATOM      5  C   UNL     1      -2.598   1.188  -0.363  0.00  0.00    +0.016 C 
ATOM      6  C   UNL     1      -0.791   2.432  -1.706  0.00  0.00    +0.047 C 
ENDROOT
BRANCH   3   7
ATOM      7  C   UNL     1      -0.793  -2.273  -0.232  0.00  0.00    +0.208 C 
ATOM      8  C   UNL     1      -1.101  -3.107  -1.473  0.00  0.00    +0.044 C 
BRANCH   7  11
ATOM      9  O   UNL     1      -0.602  -2.698   2.114  0.00  0.00    -0.243 OA
ATOM     10  O   UNL     1      -2.419  -3.506   0.994  0.00  0.00    -0.243 OA
ATOM     11  C   UNL     1      -1.320  -2.886   1.091  0.00  0.00    +0.391 C 
ENDBRANCH   7  11
BRANCH   7  12
ATOM     12  O   UNL     1       0.634  -2.236  -0.109  0.00  0.00    -0.374 OA
ATOM     13  H   UNL     1       1.019  -1.859  -0.915  0.00  0.00    +0.211 HD
ENDBRANCH   7  12
ENDBRANCH   3   7
BRANCH   2  14
ATOM     14  C   UNL     1       0.583  -0.080  -1.649  0.00  0.00    +0.124 C 
BRANCH  14  18
ATOM     15  N   UNL     1       3.987   0.459  -0.101  0.00  0.00    -0.340 NA
ATOM     16  N   UNL     1       2.288   0.922   1.544  0.00  0.00    -0.186 NA
ATOM     17  N   UNL     1       3.378  -0.215  -2.291  0.00  0.00    -0.332 N 
ATOM     18  C   UNL     1       1.674   0.241  -0.665  0.00  0.00    +0.062 C 
ATOM     19  C   UNL     1       3.006   0.173  -0.981  0.00  0.00    +0.187 C 
ATOM     20  C   UNL     1       1.358   0.622   0.613  0.00  0.00    +0.111 C 
ATOM     21  C   UNL     1       3.564   0.822   1.125  0.00  0.00    +0.066 C 
ATOM     22  C   UNL     1       4.620   1.146   2.126  0.00  0.00    +0.129 C 
ATOM     23  H   UNL     1       4.330  -0.270  -2.536  0.00  0.00    +0.145 HD
ATOM     24  H   UNL     1       2.685  -0.431  -2.957  0.00  0.00    +0.145 HD
ENDBRANCH  14  18
ENDBRANCH   2  14
BRANCH   5  25
ATOM     25  C   UNL     1      -3.634   2.216  -0.136  0.00  0.00    +0.065 C 
BRANCH  25  26
ATOM     26  C   UNL     1      -3.429   3.016   1.161  0.00  0.00    +0.142 C 
BRANCH  26  27
ATOM     27  O   UNL     1      -2.160   3.656   1.125  0.00  0.00    -0.382 OA
ATOM     28  H   UNL     1      -2.030   4.162   1.943  0.00  0.00    +0.210 HD
ENDBRANCH  26  27
ENDBRANCH  25  26
ENDBRANCH   5  25
TORSDOF 8
