REMARK  Name = 133895
REMARK  6 active torsions:
REMARK  status: ('A' for Active; 'I' for Inactive)
REMARK    1  A    between atoms: C_1  and  O_2
REMARK    2  A    between atoms: C_1  and  C_4
REMARK    3  A    between atoms: C_1  and  C_14
REMARK    4  A    between atoms: C_4  and  N_5
REMARK    5  A    between atoms: C_7  and  O_12
REMARK    6  A    between atoms: C_14  and  N_17
REMARK                            x       y       z     vdW  Elec       q    Type
REMARK                         _______ _______ _______ _____ _____    ______ ____
ROOT
ATOM      1  C   UNL     1      -0.304   1.403  -0.655  0.00  0.00    +0.110 C 
ENDROOT
BRANCH   1   2
ATOM      2  O   UNL     1      -1.001   2.581  -1.067  0.00  0.00    -0.385 OA
ATOM      3  H   UNL     1      -0.619   2.909  -1.896  0.00  0.00    +0.210 HD
ENDBRANCH   1   2
BRANCH   1   4
ATOM      4  C   UNL     1       1.178   1.761  -0.499  0.00  0.00    -0.046 C 
BRANCH   4   5
ATOM      5  N   UNL     1       1.972   0.627  -0.027  0.00  0.00    +0.390 N 
ATOM      6  C   UNL     1       3.357   1.040   0.229  0.00  0.00    -0.047 C 
ATOM      7  C   UNL     1       4.189  -0.126   0.772  0.00  0.00    +0.090 C 
ATOM      8  C   UNL     1       1.917  -0.478  -0.994  0.00  0.00    -0.077 C 
ATOM      9  C   UNL     1       4.143  -1.326  -0.170  0.00  0.00    +0.025 C 
ATOM     10  C   UNL     1       2.700  -1.694  -0.493  0.00  0.00    -0.020 C 
ATOM     11  H   UNL     1       1.575   0.295   0.852  0.00  0.00    -0.080 HD
BRANCH   7  12
ATOM     12  O   UNL     1       5.540   0.289   0.948  0.00  0.00    -0.387 OA
ATOM     13  H   UNL     1       5.568   1.052   1.547  0.00  0.00    +0.210 HD
ENDBRANCH   7  12
ENDBRANCH   4   5
ENDBRANCH   1   4
BRANCH   1  14
ATOM     14  C   UNL     1      -0.930   0.909   0.656  0.00  0.00    +0.126 C 
BRANCH  14  17
ATOM     15  O   UNL     1      -1.683  -2.018  -1.287  0.00  0.00    -0.123 OA
ATOM     16  O   UNL     1      -1.786  -2.581   0.832  0.00  0.00    -0.123 OA
ATOM     17  N   UNL     1      -2.344   0.566   0.502  0.00  0.00    -0.249 N 
ATOM     18  N   UNL     1      -4.157  -0.619   0.100  0.00  0.00    -0.207 NA
ATOM     19  N   UNL     1      -2.078  -1.787  -0.108  0.00  0.00    +0.091 N 
ATOM     20  C   UNL     1      -2.844  -0.646   0.157  0.00  0.00    +0.284 C 
ATOM     21  C   UNL     1      -3.375   1.428   0.679  0.00  0.00    +0.089 C 
ATOM     22  C   UNL     1      -4.494   0.671   0.424  0.00  0.00    +0.118 C 
ENDBRANCH  14  17
ENDBRANCH   1  14
TORSDOF 6
