133822
  -OEChem-03292013323D

 48 49  0     1  0  0  0  0  0999 V2000
    1.0883    1.1513   -2.4108 O   0  0  0  0  0  0  0  0  0  0  0  0
    1.5912   -3.0411   -1.4947 O   0  0  0  0  0  0  0  0  0  0  0  0
   -1.5497    1.1898    0.0043 O   0  0  0  0  0  0  0  0  0  0  0  0
    0.6908   -1.8080    0.2210 O   0  0  0  0  0  0  0  0  0  0  0  0
   -2.6150    3.1289   -0.7335 O   0  0  0  0  0  0  0  0  0  0  0  0
   -7.1264   -1.6824   -0.1761 O   0  5  0  0  0  0  0  0  0  0  0  0
   -7.1538   -0.9199    1.8823 O   0  0  0  0  0  0  0  0  0  0  0  0
    2.3364   -0.9455   -1.1691 N   0  0  0  0  0  0  0  0  0  0  0  0
    0.8392    2.1401   -0.3241 N   0  0  0  0  0  0  0  0  0  0  0  0
   -6.5899   -1.0564    0.7698 N   0  3  0  0  0  0  0  0  0  0  0  0
    2.4537    0.3605   -0.5710 C   0  0  1  0  0  0  0  0  0  0  0  0
    3.8539    0.9574   -0.7537 C   0  0  0  0  0  0  0  0  0  0  0  0
    4.8589    0.3982    0.2235 C   0  0  0  0  0  0  0  0  0  0  0  0
    1.4072    1.2532   -1.2281 C   0  0  0  0  0  0  0  0  0  0  0  0
    5.5840   -0.7324   -0.1193 C   0  0  0  0  0  0  0  0  0  0  0  0
    5.0396    1.0251    1.4464 C   0  0  0  0  0  0  0  0  0  0  0  0
   -0.2141    3.0654   -0.6753 C   0  0  0  0  0  0  0  0  0  0  0  0
    6.5131   -1.2491    0.7837 C   0  0  0  0  0  0  0  0  0  0  0  0
    5.9688    0.5084    2.3495 C   0  0  0  0  0  0  0  0  0  0  0  0
    1.4653   -1.9200   -0.7235 C   0  0  0  0  0  0  0  0  0  0  0  0
    6.7055   -0.6286    2.0180 C   0  0  0  0  0  0  0  0  0  0  0  0
   -1.5984    2.4899   -0.4805 C   0  0  0  0  0  0  0  0  0  0  0  0
   -2.8142    0.6268    0.1962 C   0  0  0  0  0  0  0  0  0  0  0  0
   -3.3966   -0.0611   -0.8449 C   0  0  0  0  0  0  0  0  0  0  0  0
   -3.4277    0.7807    1.4194 C   0  0  0  0  0  0  0  0  0  0  0  0
   -5.3044   -0.4850    0.5752 C   0  0  0  0  0  0  0  0  0  0  0  0
   -4.6582   -0.6243   -0.6529 C   0  0  0  0  0  0  0  0  0  0  0  0
   -4.6892    0.2175    1.6114 C   0  0  0  0  0  0  0  0  0  0  0  0
    0.7418   -4.1392   -1.1432 C   0  0  0  0  0  0  0  0  0  0  0  0
    2.2140    0.2625    0.4957 H   0  0  0  0  0  0  0  0  0  0  0  0
    4.2118    0.8052   -1.7812 H   0  0  0  0  0  0  0  0  0  0  0  0
    3.8174    2.0481   -0.6261 H   0  0  0  0  0  0  0  0  0  0  0  0
    2.8883   -1.1515   -1.9967 H   0  0  0  0  0  0  0  0  0  0  0  0
    5.4423   -1.2228   -1.0781 H   0  0  0  0  0  0  0  0  0  0  0  0
    4.4687    1.9094    1.7147 H   0  0  0  0  0  0  0  0  0  0  0  0
    1.1593    2.1419    0.6399 H   0  0  0  0  0  0  0  0  0  0  0  0
   -0.1060    3.9402   -0.0281 H   0  0  0  0  0  0  0  0  0  0  0  0
   -0.1028    3.3540   -1.7246 H   0  0  0  0  0  0  0  0  0  0  0  0
    7.0868   -2.1345    0.5257 H   0  0  0  0  0  0  0  0  0  0  0  0
    6.1180    0.9910    3.3109 H   0  0  0  0  0  0  0  0  0  0  0  0
    7.4288   -1.0310    2.7212 H   0  0  0  0  0  0  0  0  0  0  0  0
   -2.8920   -0.1703   -1.7998 H   0  0  0  0  0  0  0  0  0  0  0  0
   -2.9479    1.3266    2.2256 H   0  0  0  0  0  0  0  0  0  0  0  0
   -5.1067   -1.1647   -1.4826 H   0  0  0  0  0  0  0  0  0  0  0  0
   -5.1627    0.3463    2.5814 H   0  0  0  0  0  0  0  0  0  0  0  0
    0.9430   -4.9599   -1.8369 H   0  0  0  0  0  0  0  0  0  0  0  0
    0.9617   -4.4769   -0.1260 H   0  0  0  0  0  0  0  0  0  0  0  0
   -0.3093   -3.8496   -1.2367 H   0  0  0  0  0  0  0  0  0  0  0  0
  1 14  2  0  0  0  0
  2 20  1  0  0  0  0
  2 29  1  0  0  0  0
  3 22  1  0  0  0  0
  3 23  1  0  0  0  0
  4 20  2  0  0  0  0
  5 22  2  0  0  0  0
  6 10  1  0  0  0  0
  7 10  2  0  0  0  0
  8 11  1  0  0  0  0
  8 20  1  0  0  0  0
  8 33  1  0  0  0  0
  9 14  1  0  0  0  0
  9 17  1  0  0  0  0
  9 36  1  0  0  0  0
 10 26  1  0  0  0  0
 11 12  1  0  0  0  0
 11 14  1  0  0  0  0
 11 30  1  0  0  0  0
 12 13  1  0  0  0  0
 12 31  1  0  0  0  0
 12 32  1  0  0  0  0
 13 15  2  0  0  0  0
 13 16  1  0  0  0  0
 15 18  1  0  0  0  0
 15 34  1  0  0  0  0
 16 19  2  0  0  0  0
 16 35  1  0  0  0  0
 17 22  1  0  0  0  0
 17 37  1  0  0  0  0
 17 38  1  0  0  0  0
 18 21  2  0  0  0  0
 18 39  1  0  0  0  0
 19 21  1  0  0  0  0
 19 40  1  0  0  0  0
 21 41  1  0  0  0  0
 23 24  2  0  0  0  0
 23 25  1  0  0  0  0
 24 27  1  0  0  0  0
 24 42  1  0  0  0  0
 25 28  2  0  0  0  0
 25 43  1  0  0  0  0
 26 27  2  0  0  0  0
 26 28  1  0  0  0  0
 27 44  1  0  0  0  0
 28 45  1  0  0  0  0
 29 46  1  0  0  0  0
 29 47  1  0  0  0  0
 29 48  1  0  0  0  0
M  CHG  2   6  -1  10   1
M  END
> <PUBCHEM_COMPOUND_CID>
133822

> <PUBCHEM_CONFORMER_RMSD>
1

> <PUBCHEM_CONFORMER_DIVERSEORDER>
1
255
244
23
143
263
304
106
185
284
132
12
315
98
318
177
123
308
220
286
240
81
225
257
166
206
235
14
265
29
266
49
195
159
113
37
169
26
245
276
120
115
87
162
129
57
237
13
140
311
52
307
149
20
70
112
78
17
111
39
277
321
11
102
68
215
103
187
114
59
305
173
213
216
288
64
222
243
69
202
41
109
5
180
278
95
16
200
51
233
182
283
319
174
198
189
242
296
126
33
28
251
183
151
302
32
10
89
231
229
203
163
228
54
158
291
246
259
128
117
184
192
292
34
66
261
133
264
92
247
168
75
148
135
272
175
62
181
171
219
298
46
155
281
178
104
238
269
320
60
306
223
25
165
150
241
30
138
172
176
82
139
153
270
313
86
210
42
21
207
164
279
124
130
72
36
27
234
156
44
100
91
18
301
218
144
300
58
273
47
90
31
55
3
101
147
7
282
61
214
294
48
141
303
80
154
190
131
125
35
53
50
127
116
204
6
221
209
145
196
217
258
310
193
287
188
297
79
134
110
285
167
191
248
295
88
65
232
119
226
85
252
186
271
142
67
122
254
83
73
316
56
230
211
205
224
9
197
293
317
107
170
105
146
280
161
299
309
121
212
76
43
97
253
71
24
22
256
236
74
38
93
290
45
312
84
108
152
8
262
96
250
201
249
275
2
63
227
136
40
94
208
199
77
314
194
239
274
179
267
268
157
289
137
15
118
260
19
4
160
99

> <PUBCHEM_MMFF94_PARTIAL_CHARGES>
40
1 -0.57
10 0.91
11 0.36
12 0.14
13 -0.14
14 0.57
15 -0.15
16 -0.15
17 0.36
18 -0.15
19 -0.15
2 -0.43
20 0.78
21 -0.15
22 0.66
23 0.08
24 -0.15
25 -0.15
26 0.13
27 -0.15
28 -0.15
29 0.28
3 -0.23
33 0.37
34 0.15
35 0.15
36 0.37
39 0.15
4 -0.57
40 0.15
41 0.15
42 0.15
43 0.15
44 0.15
45 0.15
5 -0.57
6 -0.52
7 -0.52
8 -0.73
9 -0.73

> <PUBCHEM_EFFECTIVE_ROTOR_COUNT>
12

> <PUBCHEM_PHARMACOPHORE_FEATURES>
10
1 1 acceptor
1 4 acceptor
1 5 acceptor
1 6 acceptor
1 6 anion
1 7 acceptor
1 8 donor
1 9 donor
6 13 15 16 18 19 21 rings
6 23 24 25 26 27 28 rings

> <PUBCHEM_HEAVY_ATOM_COUNT>
29

> <PUBCHEM_ATOM_DEF_STEREO_COUNT>
1

> <PUBCHEM_ATOM_UDEF_STEREO_COUNT>
0

> <PUBCHEM_BOND_DEF_STEREO_COUNT>
0

> <PUBCHEM_BOND_UDEF_STEREO_COUNT>
0

> <PUBCHEM_ISOTOPIC_ATOM_COUNT>
0

> <PUBCHEM_COMPONENT_COUNT>
1

> <PUBCHEM_CACTVS_TAUTO_COUNT>
4

> <PUBCHEM_CONFORMER_ID>
00020ABE00000001

> <PUBCHEM_MMFF94_ENERGY>
77.6124

> <PUBCHEM_FEATURE_SELFOVERLAP>
50.829

> <PUBCHEM_SHAPE_FINGERPRINT>
11607047 141 16126716737997364351
11646440 116 18411423924951551345
11719270 70 18411420613500500719
12166972 35 16805326612544896412
12422481 6 18335976459815097118
12596602 18 16845304817251139051
12838863 1 18261385680917868763
12839892 36 18338227168675219756
13944108 23 10015049516222089619
13947930 73 17532107140401514883
14178342 30 18266466395295592852
14863182 85 18338533983484503062
14910700 183 18341044224744760552
15183329 4 13190332457305884856
15188451 53 17894903019473037056
16728300 4 17751337531313366642
17349148 13 17895204272663317340
1979834 28 18342189855220034535
20028762 73 18343586260926218182
21304304 249 18186521003613308354
21315764 119 14345790565724606649
21585482 310 17531261564451328291
22956985 138 17901103024051517610
23559900 14 17977669715084356348
392239 28 17917983993074651752
4340502 62 17775567537794942558
444735 79 18409725145665157362
465052 167 17967251997087600828
5104073 3 18198625427948453913
563151 248 17632570557318586038
59682541 52 12757418450062386176
7808743 9 12895067409907209129

> <PUBCHEM_SHAPE_MULTIPOLES>
540.78
17.84
3.25
1.86
5.88
1.41
0.51
6.16
12.72
0.42
-1.81
-1.06
-0.01
0.86

> <PUBCHEM_SHAPE_SELFOVERLAP>
1137.281

> <PUBCHEM_SHAPE_VOLUME>
302

> <PUBCHEM_COORDINATE_TYPE>
2
5
10

$$$$
