133885
  -OEChem-03292013323D

 58 60  0     1  0  0  0  0  0999 V2000
   -1.1336    1.0636    0.6028 O   0  0  0  0  0  0  0  0  0  0  0  0
   -3.7376   -1.2996   -0.0999 O   0  0  0  0  0  0  0  0  0  0  0  0
    2.6783    1.0499   -1.6941 O   0  0  0  0  0  0  0  0  0  0  0  0
   -4.4659    1.3406    2.2452 O   0  0  0  0  0  0  0  0  0  0  0  0
   -6.4443    0.5488    3.0241 O   0  0  0  0  0  0  0  0  0  0  0  0
   -1.6209   -0.1789   -1.2880 N   0  0  0  0  0  0  0  0  0  0  0  0
    4.2445    1.8522    0.8744 N   0  0  0  0  0  0  0  0  0  0  0  0
    1.4126    0.7244    0.2342 N   0  0  0  0  0  0  0  0  0  0  0  0
   -4.9166    0.7022   -0.2476 N   0  0  0  0  0  0  0  0  0  0  0  0
   -2.9253    0.4165   -1.5469 C   0  0  1  0  0  0  0  0  0  0  0  0
   -3.2659   -0.0018   -2.9725 C   0  0  0  0  0  0  0  0  0  0  0  0
   -1.2622   -1.1361   -2.3314 C   0  0  0  0  0  0  0  0  0  0  0  0
   -2.5387   -1.3344   -3.1347 C   0  0  0  0  0  0  0  0  0  0  0  0
    0.5875   -0.3473   -0.2436 C   0  0  2  0  0  0  0  0  0  0  0  0
   -0.7956    0.2531   -0.2615 C   0  0  0  0  0  0  0  0  0  0  0  0
    3.0897    2.4408    0.1957 C   0  0  1  0  0  0  0  0  0  0  0  0
    3.6493    3.5086   -0.7399 C   0  0  0  0  0  0  0  0  0  0  0  0
    5.1531    3.4757   -0.5112 C   0  0  0  0  0  0  0  0  0  0  0  0
   -3.8828   -0.1668   -0.5518 C   0  0  0  0  0  0  0  0  0  0  0  0
    5.2861    2.8747    0.8722 C   0  0  0  0  0  0  0  0  0  0  0  0
    0.6155   -1.5765    0.6552 C   0  0  0  0  0  0  0  0  0  0  0  0
    2.3953    1.3381   -0.5342 C   0  0  0  0  0  0  0  0  0  0  0  0
    1.9876   -2.2011    0.7213 C   0  0  0  0  0  0  0  0  0  0  0  0
   -5.9843    0.3709    0.6681 C   0  0  0  0  0  0  0  0  0  0  0  0
    2.3495   -3.1882   -0.1955 C   0  0  0  0  0  0  0  0  0  0  0  0
    2.8944   -1.7912    1.6989 C   0  0  0  0  0  0  0  0  0  0  0  0
    3.6178   -3.7655   -0.1346 C   0  0  0  0  0  0  0  0  0  0  0  0
    4.1628   -2.3685    1.7597 C   0  0  0  0  0  0  0  0  0  0  0  0
   -5.6748    0.7516    2.0929 C   0  0  0  0  0  0  0  0  0  0  0  0
    4.5244   -3.3557    0.8429 C   0  0  0  0  0  0  0  0  0  0  0  0
   -2.8642    1.5045   -1.4339 H   0  0  0  0  0  0  0  0  0  0  0  0
   -4.3398   -0.0911   -3.1624 H   0  0  0  0  0  0  0  0  0  0  0  0
   -2.8506    0.7248   -3.6815 H   0  0  0  0  0  0  0  0  0  0  0  0
   -0.8873   -2.0689   -1.9031 H   0  0  0  0  0  0  0  0  0  0  0  0
   -0.4832   -0.6838   -2.9549 H   0  0  0  0  0  0  0  0  0  0  0  0
   -2.3418   -1.5868   -4.1804 H   0  0  0  0  0  0  0  0  0  0  0  0
   -3.1375   -2.1427   -2.6987 H   0  0  0  0  0  0  0  0  0  0  0  0
    0.9242   -0.6081   -1.2497 H   0  0  0  0  0  0  0  0  0  0  0  0
    2.4143    2.9040    0.9244 H   0  0  0  0  0  0  0  0  0  0  0  0
    3.4077    3.3796   -1.7993 H   0  0  0  0  0  0  0  0  0  0  0  0
    3.2649    4.4907   -0.4372 H   0  0  0  0  0  0  0  0  0  0  0  0
    5.6055    4.4691   -0.5827 H   0  0  0  0  0  0  0  0  0  0  0  0
    5.6293    2.8278   -1.2575 H   0  0  0  0  0  0  0  0  0  0  0  0
    6.2779    2.4480    1.0474 H   0  0  0  0  0  0  0  0  0  0  0  0
    5.0869    3.6197    1.6509 H   0  0  0  0  0  0  0  0  0  0  0  0
    4.5887    1.0558    0.3352 H   0  0  0  0  0  0  0  0  0  0  0  0
    1.2463    1.0630    1.1780 H   0  0  0  0  0  0  0  0  0  0  0  0
    0.2914   -1.3170    1.6728 H   0  0  0  0  0  0  0  0  0  0  0  0
   -0.1083   -2.3261    0.3114 H   0  0  0  0  0  0  0  0  0  0  0  0
   -4.9365    1.6228   -0.6768 H   0  0  0  0  0  0  0  0  0  0  0  0
   -6.8722    0.9205    0.3437 H   0  0  0  0  0  0  0  0  0  0  0  0
   -6.1697   -0.7066    0.6280 H   0  0  0  0  0  0  0  0  0  0  0  0
    1.6523   -3.5137   -0.9631 H   0  0  0  0  0  0  0  0  0  0  0  0
    2.6254   -1.0242    2.4202 H   0  0  0  0  0  0  0  0  0  0  0  0
    3.8999   -4.5335   -0.8490 H   0  0  0  0  0  0  0  0  0  0  0  0
    4.8689   -2.0490    2.5205 H   0  0  0  0  0  0  0  0  0  0  0  0
    5.5121   -3.8049    0.8899 H   0  0  0  0  0  0  0  0  0  0  0  0
   -4.2883    1.5789    3.1800 H   0  0  0  0  0  0  0  0  0  0  0  0
  1 15  2  0  0  0  0
  2 19  2  0  0  0  0
  3 22  2  0  0  0  0
  4 29  1  0  0  0  0
  4 58  1  0  0  0  0
  5 29  2  0  0  0  0
  6 10  1  0  0  0  0
  6 12  1  0  0  0  0
  6 15  1  0  0  0  0
  7 16  1  0  0  0  0
  7 20  1  0  0  0  0
  7 46  1  0  0  0  0
  8 14  1  0  0  0  0
  8 22  1  0  0  0  0
  8 47  1  0  0  0  0
  9 19  1  0  0  0  0
  9 24  1  0  0  0  0
  9 50  1  0  0  0  0
 10 11  1  0  0  0  0
 10 19  1  0  0  0  0
 10 31  1  0  0  0  0
 11 13  1  0  0  0  0
 11 32  1  0  0  0  0
 11 33  1  0  0  0  0
 12 13  1  0  0  0  0
 12 34  1  0  0  0  0
 12 35  1  0  0  0  0
 13 36  1  0  0  0  0
 13 37  1  0  0  0  0
 14 15  1  0  0  0  0
 14 21  1  0  0  0  0
 14 38  1  0  0  0  0
 16 17  1  0  0  0  0
 16 22  1  0  0  0  0
 16 39  1  0  0  0  0
 17 18  1  0  0  0  0
 17 40  1  0  0  0  0
 17 41  1  0  0  0  0
 18 20  1  0  0  0  0
 18 42  1  0  0  0  0
 18 43  1  0  0  0  0
 20 44  1  0  0  0  0
 20 45  1  0  0  0  0
 21 23  1  0  0  0  0
 21 48  1  0  0  0  0
 21 49  1  0  0  0  0
 23 25  2  0  0  0  0
 23 26  1  0  0  0  0
 24 29  1  0  0  0  0
 24 51  1  0  0  0  0
 24 52  1  0  0  0  0
 25 27  1  0  0  0  0
 25 53  1  0  0  0  0
 26 28  2  0  0  0  0
 26 54  1  0  0  0  0
 27 30  2  0  0  0  0
 27 55  1  0  0  0  0
 28 30  1  0  0  0  0
 28 56  1  0  0  0  0
 30 57  1  0  0  0  0
M  END
> <PUBCHEM_COMPOUND_CID>
133885

> <PUBCHEM_CONFORMER_RMSD>
1.2

> <PUBCHEM_CONFORMER_DIVERSEORDER>
1
17
6
18
14
19
27
32
9
20
11
13
10
21
8
26
28
5
15
16
25
4
7
12
31
22
24
2
23
30
29
3

> <PUBCHEM_MMFF94_PARTIAL_CHARGES>
35
1 -0.57
10 0.36
12 0.3
14 0.36
15 0.57
16 0.33
19 0.57
2 -0.57
20 0.27
21 0.14
22 0.57
23 -0.14
24 0.36
25 -0.15
26 -0.15
27 -0.15
28 -0.15
29 0.66
3 -0.57
30 -0.15
4 -0.65
46 0.36
47 0.37
5 -0.57
50 0.37
53 0.15
54 0.15
55 0.15
56 0.15
57 0.15
58 0.5
6 -0.66
7 -0.9
8 -0.73
9 -0.73

> <PUBCHEM_EFFECTIVE_ROTOR_COUNT>
13

> <PUBCHEM_PHARMACOPHORE_FEATURES>
13
1 1 acceptor
1 2 acceptor
1 3 acceptor
1 4 acceptor
1 5 acceptor
1 7 cation
1 7 donor
1 8 donor
1 9 donor
3 4 5 29 anion
5 6 10 11 12 13 rings
5 7 16 17 18 20 rings
6 23 25 26 27 28 30 rings

> <PUBCHEM_HEAVY_ATOM_COUNT>
30

> <PUBCHEM_ATOM_DEF_STEREO_COUNT>
3

> <PUBCHEM_ATOM_UDEF_STEREO_COUNT>
0

> <PUBCHEM_BOND_DEF_STEREO_COUNT>
0

> <PUBCHEM_BOND_UDEF_STEREO_COUNT>
0

> <PUBCHEM_ISOTOPIC_ATOM_COUNT>
0

> <PUBCHEM_COMPONENT_COUNT>
1

> <PUBCHEM_CACTVS_TAUTO_COUNT>
4

> <PUBCHEM_CONFORMER_ID>
00020AFD00000001

> <PUBCHEM_MMFF94_ENERGY>
64.859

> <PUBCHEM_FEATURE_SELFOVERLAP>
66.031

> <PUBCHEM_SHAPE_FINGERPRINT>
10006869 2 18271535187070878953
10369192 42 17677903516126183836
10838868 217 17475235695844779577
1200032 147 17774463653368167913
12342043 65 17386577838558893867
12422481 6 17843123598031761993
12633257 1 18338240362968441707
13540713 4 17604134944534968069
13540713 5 18058713797722990175
13782708 43 17241049790889538971
14347329 18 16343441535103733329
14739800 52 17846210085557654169
14950920 106 18262530191339283865
14955137 171 17978797813650327038
15021287 119 18197771098834702283
15131766 46 18267295607683820405
15238133 3 17132114594193589531
15328829 1 17989211413062894536
15842332 3 17988063578489201743
17913733 40 18334857276678007832
1813 80 18125430922267290150
18785283 64 18260544528820777110
19319366 153 18270409398416194585
21033650 10 16200147750822636663
21421861 104 18272089362262981136
21796203 349 18264770961461350514
21927370 108 18048592622055466354
22122407 14 18265608780947993901
22182313 1 17240751870303235943
22849341 161 18198905803688128782
244849 19 17458612372727096103
249057 25 17917703558096808673
25147074 1 17988065773365163503
38570 142 18200610188387164684
437795 51 18187658985590085190
46194498 28 17829284143572507990
5385378 56 18408323315637189336
563151 74 18338247049598772707
5912855 24 18200025282935817167
59755656 520 18265337390269222380
6823239 73 16226334720171090567
7495541 125 17168714015803488522

> <PUBCHEM_SHAPE_MULTIPOLES>
568.12
13.58
4.36
2.6
12.57
0.41
-0.52
-5.51
7.7
-11.75
0.37
4.99
0.24
-2.64

> <PUBCHEM_SHAPE_SELFOVERLAP>
1192.445

> <PUBCHEM_SHAPE_VOLUME>
319.9

> <PUBCHEM_COORDINATE_TYPE>
2
5
10

$$$$
