REMARK  Name = 133868
REMARK  12 active torsions:
REMARK  status: ('A' for Active; 'I' for Inactive)
REMARK    1  A    between atoms: C_3  and  C_16
REMARK    2  A    between atoms: C_4  and  C_33
REMARK    3  A    between atoms: C_6  and  O_14
REMARK    4  A    between atoms: C_16  and  O_17
REMARK    5  A    between atoms: O_17  and  C_19
REMARK    6  A    between atoms: C_20  and  O_24
REMARK    7  A    between atoms: C_21  and  O_26
REMARK    8  A    between atoms: C_22  and  C_30
REMARK    9  A    between atoms: C_23  and  O_28
REMARK   10  A    between atoms: C_30  and  O_31
REMARK   11  A    between atoms: C_33  and  C_34
REMARK   12  A    between atoms: C_34  and  C_37
REMARK                            x       y       z     vdW  Elec       q    Type
REMARK                         _______ _______ _______ _____ _____    ______ ____
ROOT
ATOM      1  C   UNL     1       1.471   1.110  -0.151  0.00  0.00    +0.004 C 
ATOM      2  C   UNL     1       0.953  -0.379  -0.187  0.00  0.00    +0.005 C 
ATOM      3  C   UNL     1      -0.378  -0.671   0.607  0.00  0.00    +0.052 C 
ATOM      4  C   UNL     1       2.919   1.183  -0.786  0.00  0.00    +0.019 C 
ATOM      5  C   UNL     1       1.491   1.606   1.316  0.00  0.00    +0.003 C 
ATOM      6  C   UNL     1      -0.269  -0.053   2.033  0.00  0.00    +0.113 C 
ATOM      7  C   UNL     1       0.977  -0.946  -1.627  0.00  0.00    +0.005 C 
ATOM      8  C   UNL     1       0.163   1.412   2.041  0.00  0.00    +0.029 C 
ATOM      9  C   UNL     1       0.587   2.089  -0.976  0.00  0.00    +0.000 C 
ATOM     10  C   UNL     1       2.363  -0.835  -2.269  0.00  0.00    +0.022 C 
ATOM     11  C   UNL     1       2.917   0.561  -2.173  0.00  0.00    -0.045 C 
ATOM     12  C   UNL     1      -0.540  -2.208   0.787  0.00  0.00    +0.005 C 
ATOM     13  C   UNL     1       3.357   1.224  -3.254  0.00  0.00    -0.009 C 
ENDROOT
BRANCH   6  14
ATOM     14  O   UNL     1      -1.511  -0.168   2.726  0.00  0.00    -0.384 OA
ATOM     15  H   UNL     1      -1.796  -1.096   2.728  0.00  0.00    +0.210 HD
ENDBRANCH   6  14
BRANCH   3  16
ATOM     16  C   UNL     1      -1.661  -0.200  -0.110  0.00  0.00    +0.147 C 
BRANCH  16  17
ATOM     17  O   UNL     1      -2.749  -0.913   0.435  0.00  0.00    -0.329 OA
BRANCH  17  19
ATOM     18  O   UNL     1      -4.460   0.670   0.351  0.00  0.00    -0.326 OA
ATOM     19  C   UNL     1      -3.984  -0.561  -0.188  0.00  0.00    +0.266 C 
ATOM     20  C   UNL     1      -4.984  -1.686   0.080  0.00  0.00    +0.196 C 
ATOM     21  C   UNL     1      -6.380  -1.320  -0.425  0.00  0.00    +0.172 C 
ATOM     22  C   UNL     1      -5.686   1.094  -0.249  0.00  0.00    +0.176 C 
ATOM     23  C   UNL     1      -6.790   0.076   0.044  0.00  0.00    +0.169 C 
BRANCH  20  24
ATOM     24  O   UNL     1      -4.528  -2.858  -0.594  0.00  0.00    -0.378 OA
ATOM     25  H   UNL     1      -3.642  -3.091  -0.275  0.00  0.00    +0.211 HD
ENDBRANCH  20  24
BRANCH  21  26
ATOM     26  O   UNL     1      -7.330  -2.256   0.087  0.00  0.00    -0.379 OA
ATOM     27  H   UNL     1      -7.090  -3.151  -0.199  0.00  0.00    +0.211 HD
ENDBRANCH  21  26
BRANCH  23  28
ATOM     28  O   UNL     1      -7.983   0.468  -0.630  0.00  0.00    -0.379 OA
ATOM     29  H   UNL     1      -8.685  -0.176  -0.446  0.00  0.00    +0.211 HD
ENDBRANCH  23  28
BRANCH  22  30
ATOM     30  C   UNL     1      -6.022   2.470   0.314  0.00  0.00    +0.169 C 
BRANCH  30  31
ATOM     31  O   UNL     1      -4.956   3.353   0.016  0.00  0.00    -0.379 OA
ATOM     32  H   UNL     1      -5.157   4.234   0.369  0.00  0.00    +0.211 HD
ENDBRANCH  30  31
ENDBRANCH  22  30
ENDBRANCH  17  19
ENDBRANCH  16  17
ENDBRANCH   3  16
BRANCH   4  33
ATOM     33  C   UNL     1       4.048   0.556   0.048  0.00  0.00    +0.009 C 
BRANCH  33  34
ATOM     34  C   UNL     1       5.405   0.834  -0.581  0.00  0.00    +0.033 C 
BRANCH  34  37
ATOM     35  O   UNL     1       8.012  -1.371   0.922  0.00  0.00    -0.441 OA
ATOM     36  O   UNL     1       6.582  -1.935  -0.787  0.00  0.00    -0.245 OA
ATOM     37  C   UNL     1       6.508   0.233   0.222  0.00  0.00    +0.053 C 
ATOM     38  C   UNL     1       7.231   0.760   1.207  0.00  0.00    +0.023 C 
ATOM     39  C   UNL     1       7.003  -1.137   0.032  0.00  0.00    +0.337 C 
ATOM     40  C   UNL     1       8.223  -0.201   1.719  0.00  0.00    +0.235 C 
ENDBRANCH  34  37
ENDBRANCH  33  34
ENDBRANCH   4  33
TORSDOF 12
