133995
  -OEChem-03292013323D

 25 26  0     0  0  0  0  0  0999 V2000
   -2.4380   -2.1388   -0.9364 O   0  0  0  0  0  0  0  0  0  0  0  0
    2.6662    2.4971    0.8016 O   0  0  0  0  0  0  0  0  0  0  0  0
   -2.6617    2.4436   -0.1178 O   0  5  0  0  0  0  0  0  0  0  0  0
   -3.4099    0.3847    0.0259 O   0  0  0  0  0  0  0  0  0  0  0  0
    2.8350   -0.6821   -0.1657 N   0  0  0  0  0  0  0  0  0  0  0  0
    2.2544    2.1014   -0.2978 N   0  0  0  0  0  0  0  0  0  0  0  0
   -2.4674    1.2068   -0.0573 N   0  3  0  0  0  0  0  0  0  0  0  0
   -2.3570   -1.9989    1.3511 N   0  0  0  0  0  0  0  0  0  0  0  0
    3.1362   -2.0011   -0.7367 C   0  0  0  0  0  0  0  0  0  0  0  0
    3.2491   -1.7726    0.7265 C   0  0  0  0  0  0  0  0  0  0  0  0
    1.5064   -0.1884   -0.1397 C   0  0  0  0  0  0  0  0  0  0  0  0
    0.4565   -1.1018   -0.0466 C   0  0  0  0  0  0  0  0  0  0  0  0
    1.2378    1.1788   -0.2051 C   0  0  0  0  0  0  0  0  0  0  0  0
   -0.8623   -0.6480   -0.0190 C   0  0  0  0  0  0  0  0  0  0  0  0
   -0.0809    1.6326   -0.1773 C   0  0  0  0  0  0  0  0  0  0  0  0
   -1.1310    0.7192   -0.0843 C   0  0  0  0  0  0  0  0  0  0  0  0
   -1.9333   -1.6325    0.0788 C   0  0  0  0  0  0  0  0  0  0  0  0
    4.0441   -1.9985   -1.3250 H   0  0  0  0  0  0  0  0  0  0  0  0
    2.3196   -2.5748   -1.1437 H   0  0  0  0  0  0  0  0  0  0  0  0
    2.4947   -2.1598    1.3942 H   0  0  0  0  0  0  0  0  0  0  0  0
    4.2312   -1.6129    1.1485 H   0  0  0  0  0  0  0  0  0  0  0  0
    0.6161   -2.1740    0.0254 H   0  0  0  0  0  0  0  0  0  0  0  0
   -0.2689    2.7038   -0.2298 H   0  0  0  0  0  0  0  0  0  0  0  0
   -1.9498   -1.5994    2.1907 H   0  0  0  0  0  0  0  0  0  0  0  0
   -3.0945   -2.6838    1.4785 H   0  0  0  0  0  0  0  0  0  0  0  0
  1 17  2  0  0  0  0
  2  6  2  0  0  0  0
  3  7  1  0  0  0  0
  4  7  2  0  0  0  0
  5  9  1  0  0  0  0
  5 10  1  0  0  0  0
  5 11  1  0  0  0  0
  6 13  1  0  0  0  0
  7 16  1  0  0  0  0
  8 17  1  0  0  0  0
  8 24  1  0  0  0  0
  8 25  1  0  0  0  0
  9 10  1  0  0  0  0
  9 18  1  0  0  0  0
  9 19  1  0  0  0  0
 10 20  1  0  0  0  0
 10 21  1  0  0  0  0
 11 12  1  0  0  0  0
 11 13  2  0  0  0  0
 12 14  2  0  0  0  0
 12 22  1  0  0  0  0
 13 15  1  0  0  0  0
 14 16  1  0  0  0  0
 14 17  1  0  0  0  0
 15 16  2  0  0  0  0
 15 23  1  0  0  0  0
M  CHG  2   3  -1   7   1
M  END
> <PUBCHEM_COMPOUND_CID>
133995

> <PUBCHEM_CONFORMER_RMSD>
0.6

> <PUBCHEM_CONFORMER_DIVERSEORDER>
1
6
5
2
4
7
3
8

> <PUBCHEM_MMFF94_PARTIAL_CHARGES>
25
1 -0.57
10 -0.03
11 0.1
12 -0.15
13 0.3
14 0.09
15 -0.15
16 0.13
17 0.54
18 0.1
19 0.1
2 -0.16
20 0.1
21 0.1
22 0.15
23 0.15
24 0.37
25 0.37
3 -0.52
4 -0.52
5 -0.44
6 -0.14
7 0.91
8 -0.8
9 -0.03

> <PUBCHEM_EFFECTIVE_ROTOR_COUNT>
4.6

> <PUBCHEM_PHARMACOPHORE_FEATURES>
7
1 1 acceptor
1 3 acceptor
1 3 anion
1 4 acceptor
1 5 cation
1 8 donor
6 11 12 13 14 15 16 rings

> <PUBCHEM_HEAVY_ATOM_COUNT>
17

> <PUBCHEM_ATOM_DEF_STEREO_COUNT>
0

> <PUBCHEM_ATOM_UDEF_STEREO_COUNT>
0

> <PUBCHEM_BOND_DEF_STEREO_COUNT>
0

> <PUBCHEM_BOND_UDEF_STEREO_COUNT>
0

> <PUBCHEM_ISOTOPIC_ATOM_COUNT>
0

> <PUBCHEM_COMPONENT_COUNT>
1

> <PUBCHEM_CACTVS_TAUTO_COUNT>
2

> <PUBCHEM_CONFORMER_ID>
00020B6B00000001

> <PUBCHEM_MMFF94_ENERGY>
81.4112

> <PUBCHEM_FEATURE_SELFOVERLAP>
35.604

> <PUBCHEM_SHAPE_FINGERPRINT>
10130415 120 18189898608897010762
10608611 8 18411135852799844900
10967382 1 18410575071910247292
11578080 2 17201900726157797595
11680986 33 18410013255722716560
13083527 12 17979602913981443602
13140716 1 18410013229931606225
13380535 21 18337121153892334268
14022347 108 17977681805216794870
14115302 16 17970082066480956086
14223421 5 18265900331252718922
14648413 74 18411419509915087816
15279308 51 18341608222153458143
15422964 175 17755036515893640555
15442244 35 18410854317819854860
16945 1 18267584615383340573
17804303 29 18337399222896305478
17990270 104 18411699902702620518
193761 8 18410855494604120196
20510252 161 17621592818594166216
20511035 2 18413106169252470652
20588541 1 18122911923578531054
20645476 183 17388850515950128894
20645477 70 18267861860081788687
21501502 16 18411698824211992732
21524375 3 18119249463684946229
22802520 49 18409175427973043115
23184049 29 18409445903549116602
2334 1 18337674238300231652
23366157 5 18113335345395170180
23388829 49 17907853255891496517
23402539 116 17910940358293705638
23419403 2 16753451671099841888
23552423 10 18261678180826954590
23558518 356 18261392282081460275
23559900 14 18342166761586896888
2748010 2 18409167752771435812
3084891 72 17834672695398917322
34934 24 18264482885066794106
43471831 8 18120929770765587608
589210 1 18410856598415989932
5902787 121 18334851676547081922
7364860 26 18342738546393547476
74978 22 18410856529675251854
8809292 202 18334583395087438179
9709674 26 18411417332060960487

> <PUBCHEM_SHAPE_MULTIPOLES>
306.45
5.38
2.97
0.82
0.6
0.73
0.1
-1.18
0.19
0.21
0.19
0.04
-0.32
0.37

> <PUBCHEM_SHAPE_SELFOVERLAP>
658.828

> <PUBCHEM_SHAPE_VOLUME>
170.4

> <PUBCHEM_COORDINATE_TYPE>
2
5
10

$$$$
