133997
  -OEChem-03292013323D

 52 56  0     0  0  0  0  0  0999 V2000
    0.0436   -4.2797    0.2864 O   0  0  0  0  0  0  0  0  0  0  0  0
   -4.4673    2.6641   -0.3443 O   0  0  0  0  0  0  0  0  0  0  0  0
   -2.2709    3.6525   -0.3847 O   0  0  0  0  0  0  0  0  0  0  0  0
   -3.8694   -2.4805    0.0757 O   0  0  0  0  0  0  0  0  0  0  0  0
   -4.9371   -0.1074   -0.1323 O   0  0  0  0  0  0  0  0  0  0  0  0
    1.9391   -2.9737    0.2164 O   0  0  0  0  0  0  0  0  0  0  0  0
    3.8658    0.6929   -2.4439 O   0  0  0  0  0  0  0  0  0  0  0  0
    3.7791    1.0757    2.3293 O   0  0  0  0  0  0  0  0  0  0  0  0
    5.1149    1.3998   -0.0751 O   0  0  0  0  0  0  0  0  0  0  0  0
   -0.0821   -0.6849   -0.0022 C   0  0  0  0  0  0  0  0  0  0  0  0
   -1.2162    0.1367   -0.0872 C   0  0  0  0  0  0  0  0  0  0  0  0
   -0.2741   -2.0503    0.1033 C   0  0  0  0  0  0  0  0  0  0  0  0
   -2.5270   -0.4538   -0.0631 C   0  0  0  0  0  0  0  0  0  0  0  0
   -1.5234   -2.6294    0.1276 C   0  0  0  0  0  0  0  0  0  0  0  0
   -2.6624   -1.8494    0.0457 C   0  0  0  0  0  0  0  0  0  0  0  0
   -1.3932   -4.0928    0.2469 C   0  0  0  0  0  0  0  0  0  0  0  0
   -3.6623    0.3690   -0.1479 C   0  0  0  0  0  0  0  0  0  0  0  0
    1.2662   -0.1428   -0.0213 C   0  0  0  0  0  0  0  0  0  0  0  0
   -1.0813    1.5306   -0.1955 C   0  0  0  0  0  0  0  0  0  0  0  0
   -3.4786    1.7328   -0.2532 C   0  0  0  0  0  0  0  0  0  0  0  0
   -2.2265    2.2964   -0.2764 C   0  0  0  0  0  0  0  0  0  0  0  0
    0.7307   -3.0971    0.2044 C   0  0  0  0  0  0  0  0  0  0  0  0
    1.8857    0.2102    1.1736 C   0  0  0  0  0  0  0  0  0  0  0  0
    1.9290    0.0185   -1.2343 C   0  0  0  0  0  0  0  0  0  0  0  0
   -3.6943    3.8787   -0.4270 C   0  0  0  0  0  0  0  0  0  0  0  0
    3.2235    0.5376   -1.2525 C   0  0  0  0  0  0  0  0  0  0  0  0
    3.1801    0.7295    1.1556 C   0  0  0  0  0  0  0  0  0  0  0  0
    3.8492    0.8931   -0.0575 C   0  0  0  0  0  0  0  0  0  0  0  0
   -5.7866    0.3450    0.9209 C   0  0  0  0  0  0  0  0  0  0  0  0
    4.6442   -0.4080   -2.9088 C   0  0  0  0  0  0  0  0  0  0  0  0
    3.5888    2.4140    2.7838 C   0  0  0  0  0  0  0  0  0  0  0  0
    6.1128    0.6727    0.6377 C   0  0  0  0  0  0  0  0  0  0  0  0
   -1.8215   -4.4790    1.1756 H   0  0  0  0  0  0  0  0  0  0  0  0
   -1.7906   -4.6228   -0.6227 H   0  0  0  0  0  0  0  0  0  0  0  0
   -0.1208    2.0349   -0.2187 H   0  0  0  0  0  0  0  0  0  0  0  0
    1.3714    0.0850    2.1240 H   0  0  0  0  0  0  0  0  0  0  0  0
    1.4480   -0.2558   -2.1706 H   0  0  0  0  0  0  0  0  0  0  0  0
   -3.9717    4.5288    0.4107 H   0  0  0  0  0  0  0  0  0  0  0  0
   -3.9412    4.3887   -1.3653 H   0  0  0  0  0  0  0  0  0  0  0  0
   -4.5818   -1.8692   -0.1635 H   0  0  0  0  0  0  0  0  0  0  0  0
   -5.2238    0.5829    1.8303 H   0  0  0  0  0  0  0  0  0  0  0  0
   -6.4889   -0.4604    1.1557 H   0  0  0  0  0  0  0  0  0  0  0  0
   -6.3651    1.2125    0.5914 H   0  0  0  0  0  0  0  0  0  0  0  0
    5.4449   -0.6420   -2.2004 H   0  0  0  0  0  0  0  0  0  0  0  0
    5.0944   -0.1294   -3.8654 H   0  0  0  0  0  0  0  0  0  0  0  0
    4.0106   -1.2872   -3.0630 H   0  0  0  0  0  0  0  0  0  0  0  0
    2.5276    2.6084    2.9691 H   0  0  0  0  0  0  0  0  0  0  0  0
    3.9798    3.1291    2.0530 H   0  0  0  0  0  0  0  0  0  0  0  0
    4.1365    2.5382    3.7219 H   0  0  0  0  0  0  0  0  0  0  0  0
    7.0553    0.7709    0.0910 H   0  0  0  0  0  0  0  0  0  0  0  0
    5.8733   -0.3938    0.7149 H   0  0  0  0  0  0  0  0  0  0  0  0
    6.2529    1.1046    1.6325 H   0  0  0  0  0  0  0  0  0  0  0  0
  1 16  1  0  0  0  0
  1 22  1  0  0  0  0
  2 20  1  0  0  0  0
  2 25  1  0  0  0  0
  3 21  1  0  0  0  0
  3 25  1  0  0  0  0
  4 15  1  0  0  0  0
  4 40  1  0  0  0  0
  5 17  1  0  0  0  0
  5 29  1  0  0  0  0
  6 22  2  0  0  0  0
  7 26  1  0  0  0  0
  7 30  1  0  0  0  0
  8 27  1  0  0  0  0
  8 31  1  0  0  0  0
  9 28  1  0  0  0  0
  9 32  1  0  0  0  0
 10 11  1  0  0  0  0
 10 12  2  0  0  0  0
 10 18  1  0  0  0  0
 11 13  1  0  0  0  0
 11 19  2  0  0  0  0
 12 14  1  0  0  0  0
 12 22  1  0  0  0  0
 13 15  1  0  0  0  0
 13 17  2  0  0  0  0
 14 15  2  0  0  0  0
 14 16  1  0  0  0  0
 16 33  1  0  0  0  0
 16 34  1  0  0  0  0
 17 20  1  0  0  0  0
 18 23  2  0  0  0  0
 18 24  1  0  0  0  0
 19 21  1  0  0  0  0
 19 35  1  0  0  0  0
 20 21  2  0  0  0  0
 23 27  1  0  0  0  0
 23 36  1  0  0  0  0
 24 26  2  0  0  0  0
 24 37  1  0  0  0  0
 25 38  1  0  0  0  0
 25 39  1  0  0  0  0
 26 28  1  0  0  0  0
 27 28  2  0  0  0  0
 29 41  1  0  0  0  0
 29 42  1  0  0  0  0
 29 43  1  0  0  0  0
 30 44  1  0  0  0  0
 30 45  1  0  0  0  0
 30 46  1  0  0  0  0
 31 47  1  0  0  0  0
 31 48  1  0  0  0  0
 31 49  1  0  0  0  0
 32 50  1  0  0  0  0
 32 51  1  0  0  0  0
 32 52  1  0  0  0  0
M  END
> <PUBCHEM_COMPOUND_CID>
133997

> <PUBCHEM_CONFORMER_RMSD>
0.8

> <PUBCHEM_CONFORMER_DIVERSEORDER>
1
2

> <PUBCHEM_MMFF94_PARTIAL_CHARGES>
32
1 -0.43
12 0.09
14 -0.14
15 0.08
16 0.42
17 0.08
19 -0.15
2 -0.36
20 0.08
21 0.08
22 0.63
23 -0.15
24 -0.15
25 0.56
26 0.08
27 0.08
28 0.08
29 0.28
3 -0.36
30 0.28
31 0.28
32 0.28
35 0.15
36 0.15
37 0.15
4 -0.53
40 0.45
5 -0.36
6 -0.57
7 -0.36
8 -0.36
9 -0.36

> <PUBCHEM_EFFECTIVE_ROTOR_COUNT>
6

> <PUBCHEM_PHARMACOPHORE_FEATURES>
13
1 2 acceptor
1 3 acceptor
1 4 donor
1 5 acceptor
1 6 acceptor
1 7 acceptor
1 8 acceptor
1 9 acceptor
5 1 12 14 16 22 rings
5 2 3 20 21 25 rings
6 10 11 12 13 14 15 rings
6 11 13 17 19 20 21 rings
6 18 23 24 26 27 28 rings

> <PUBCHEM_HEAVY_ATOM_COUNT>
32

> <PUBCHEM_ATOM_DEF_STEREO_COUNT>
0

> <PUBCHEM_ATOM_UDEF_STEREO_COUNT>
0

> <PUBCHEM_BOND_DEF_STEREO_COUNT>
0

> <PUBCHEM_BOND_UDEF_STEREO_COUNT>
0

> <PUBCHEM_ISOTOPIC_ATOM_COUNT>
0

> <PUBCHEM_COMPONENT_COUNT>
1

> <PUBCHEM_CACTVS_TAUTO_COUNT>
3

> <PUBCHEM_CONFORMER_ID>
00020B6D00000001

> <PUBCHEM_MMFF94_ENERGY>
146.8891

> <PUBCHEM_FEATURE_SELFOVERLAP>
66.262

> <PUBCHEM_SHAPE_FINGERPRINT>
10165383 225 18124063176624801793
10319926 262 18269254916255942968
10411042 1 17616814774235363843
10670039 82 18261404307900530756
1100329 8 18192153909272696005
11049842 53 18261689069165630126
11582403 64 17056070231122757978
11725454 13 17631430410894159730
12107183 9 18189602862302956906
12173636 292 18409163299185827183
12236239 1 17531240720958806510
12553582 1 18119815969708264891
12788726 201 17899150578598133870
13140716 1 18192152818461623305
13617811 41 18334296487747439717
13911987 19 18261104214931331213
13965767 371 17898553303123826952
14955137 171 17684961345821548059
15131766 46 15359689931494677334
15230672 131 18336541613715047522
15297060 5 18266199256518692301
15324884 4 17700147778822602390
15328829 1 17385720340207008092
16752209 62 18263083360929809806
18681886 176 18114759186867241708
20511986 3 17313375768817550492
20600515 1 18052534666938989313
20642791 178 17829621564793182686
21033648 29 18341600517214868104
21033650 10 18116736152134514292
21133410 127 17608093070585060356
21792961 116 17845953892087723956
22122407 14 15647048265854718189
22149856 69 18192163595184253737
22393880 68 18196944278964558405
23366157 5 17753614533889551747
23557571 272 18198909299844060300
23559900 14 17831855759894234335
24771293 8 17840582927587712315
350125 39 18264774255226142063
469060 322 18264506125355970425
508706 21 18341334487087785382
5104073 3 18118127974762414153
5252454 2 18196948677454706865
5265222 85 18266468779840510710
6700243 42 17405753570682186694
7808743 9 18336828710054680112
9849439 229 18193829358687978913
9981440 41 18334014956566538315

> <PUBCHEM_SHAPE_MULTIPOLES>
605.72
10.88
4.55
1.68
3.38
2.4
0.16
-6.91
0.05
-4.32
-0.55
3.65
-0.86
1.77

> <PUBCHEM_SHAPE_SELFOVERLAP>
1372.728

> <PUBCHEM_SHAPE_VOLUME>
322.3

> <PUBCHEM_COORDINATE_TYPE>
2
5
10

$$$$
