13391465
  -OEChem-03292013303D

 33 34  0     1  0  0  0  0  0999 V2000
   -1.2272   -0.3096    1.2980 O   0  0  0  0  0  0  0  0  0  0  0  0
   -0.9832    2.1014   -1.3453 O   0  0  0  0  0  0  0  0  0  0  0  0
   -3.1739    1.7053    0.2302 O   0  0  0  0  0  0  0  0  0  0  0  0
   -3.6515   -2.1618   -0.6884 O   0  0  0  0  0  0  0  0  0  0  0  0
    3.4462   -1.0829   -1.5171 O   0  0  0  0  0  0  0  0  0  0  0  0
    1.8208    2.3004    0.4978 O   0  0  0  0  0  0  0  0  0  0  0  0
    0.8783    0.1760    0.4059 N   0  0  0  0  0  0  0  0  0  0  0  0
    3.2040    0.5260    0.1538 N   0  0  0  0  0  0  0  0  0  0  0  0
   -0.4673    0.6539    0.5504 C   0  0  1  0  0  0  0  0  0  0  0  0
   -1.1714    0.8180   -0.7854 C   0  0  1  0  0  0  0  0  0  0  0  0
   -2.6161    0.5596   -0.4129 C   0  0  1  0  0  0  0  0  0  0  0  0
   -2.4847   -0.5447    0.6272 C   0  0  1  0  0  0  0  0  0  0  0  0
    1.0380   -1.2579    0.1630 C   0  0  0  0  0  0  0  0  0  0  0  0
    2.4218   -1.7491    0.5572 C   0  0  0  0  0  0  0  0  0  0  0  0
   -2.4450   -1.9410    0.0208 C   0  0  0  0  0  0  0  0  0  0  0  0
    1.9480    1.0806    0.3566 C   0  0  0  0  0  0  0  0  0  0  0  0
    3.4631   -0.8740   -0.1118 C   0  0  1  0  0  0  0  0  0  0  0  0
   -0.4585    1.5950    1.1127 H   0  0  0  0  0  0  0  0  0  0  0  0
   -0.8432    0.0724   -1.5185 H   0  0  0  0  0  0  0  0  0  0  0  0
   -3.2523    0.3239   -1.2693 H   0  0  0  0  0  0  0  0  0  0  0  0
   -3.2867   -0.4861    1.3720 H   0  0  0  0  0  0  0  0  0  0  0  0
    0.8508   -1.4407   -0.9008 H   0  0  0  0  0  0  0  0  0  0  0  0
    0.3210   -1.8423    0.7439 H   0  0  0  0  0  0  0  0  0  0  0  0
    2.5333   -1.6887    1.6469 H   0  0  0  0  0  0  0  0  0  0  0  0
    2.5399   -2.7966    0.2589 H   0  0  0  0  0  0  0  0  0  0  0  0
   -2.3418   -2.6966    0.8070 H   0  0  0  0  0  0  0  0  0  0  0  0
   -1.6071   -2.0675   -0.6705 H   0  0  0  0  0  0  0  0  0  0  0  0
    4.4655   -1.1103    0.2587 H   0  0  0  0  0  0  0  0  0  0  0  0
    3.9925    1.1640    0.1086 H   0  0  0  0  0  0  0  0  0  0  0  0
   -0.0281    2.2238   -1.4799 H   0  0  0  0  0  0  0  0  0  0  0  0
   -2.6849    1.8773    1.0520 H   0  0  0  0  0  0  0  0  0  0  0  0
   -3.6067   -3.0605   -1.0569 H   0  0  0  0  0  0  0  0  0  0  0  0
    4.0061   -0.3913   -1.9089 H   0  0  0  0  0  0  0  0  0  0  0  0
  1  9  1  0  0  0  0
  1 12  1  0  0  0  0
  2 10  1  0  0  0  0
  2 30  1  0  0  0  0
  3 11  1  0  0  0  0
  3 31  1  0  0  0  0
  4 15  1  0  0  0  0
  4 32  1  0  0  0  0
  5 17  1  0  0  0  0
  5 33  1  0  0  0  0
  6 16  2  0  0  0  0
  7  9  1  0  0  0  0
  7 13  1  0  0  0  0
  7 16  1  0  0  0  0
  8 16  1  0  0  0  0
  8 17  1  0  0  0  0
  8 29  1  0  0  0  0
  9 10  1  0  0  0  0
  9 18  1  0  0  0  0
 10 11  1  0  0  0  0
 10 19  1  0  0  0  0
 11 12  1  0  0  0  0
 11 20  1  0  0  0  0
 12 15  1  0  0  0  0
 12 21  1  0  0  0  0
 13 14  1  0  0  0  0
 13 22  1  0  0  0  0
 13 23  1  0  0  0  0
 14 17  1  0  0  0  0
 14 24  1  0  0  0  0
 14 25  1  0  0  0  0
 15 26  1  0  0  0  0
 15 27  1  0  0  0  0
 17 28  1  0  0  0  0
M  END
> <PUBCHEM_COMPOUND_CID>
13391465

> <PUBCHEM_CONFORMER_RMSD>
0.6

> <PUBCHEM_CONFORMER_DIVERSEORDER>
3
41
10
34
39
43
21
13
29
37
23
32
14
24
26
27
33
36
12
38
4
8
9
17
42
15
30
25
20
35
5
19
7
31
6
16
22
1
18
28
11
40
2

> <PUBCHEM_MMFF94_PARTIAL_CHARGES>
21
1 -0.56
10 0.28
11 0.28
12 0.28
13 0.3
15 0.28
16 0.69
17 0.58
2 -0.68
29 0.37
3 -0.68
30 0.4
31 0.4
32 0.4
33 0.4
4 -0.68
5 -0.68
6 -0.57
7 -0.66
8 -0.73
9 0.58

> <PUBCHEM_EFFECTIVE_ROTOR_COUNT>
4

> <PUBCHEM_PHARMACOPHORE_FEATURES>
13
1 1 acceptor
1 2 acceptor
1 2 donor
1 3 acceptor
1 3 donor
1 4 acceptor
1 4 donor
1 5 acceptor
1 5 donor
1 6 acceptor
1 8 donor
5 1 9 10 11 12 rings
6 7 8 13 14 16 17 rings

> <PUBCHEM_HEAVY_ATOM_COUNT>
17

> <PUBCHEM_ATOM_DEF_STEREO_COUNT>
3

> <PUBCHEM_ATOM_UDEF_STEREO_COUNT>
2

> <PUBCHEM_BOND_DEF_STEREO_COUNT>
0

> <PUBCHEM_BOND_UDEF_STEREO_COUNT>
0

> <PUBCHEM_ISOTOPIC_ATOM_COUNT>
0

> <PUBCHEM_COMPONENT_COUNT>
1

> <PUBCHEM_CACTVS_TAUTO_COUNT>
2

> <PUBCHEM_CONFORMER_ID>
00CC566900000003

> <PUBCHEM_MMFF94_ENERGY>
40.3433

> <PUBCHEM_FEATURE_SELFOVERLAP>
66.033

> <PUBCHEM_SHAPE_FINGERPRINT>
10608611 8 18408879642102310536
11206711 2 18259706679132225406
11769659 78 18343017830462293979
12596599 1 17987815037348336842
12932764 1 18260267408545200938
13296908 3 18272369758991936474
14178342 30 18268977726907494258
15219456 202 18409165523704716088
15375462 6 18266175217607205084
15775835 57 18261398788872686458
16945 1 18263630775986313617
18186145 218 18339638932366704344
20201158 50 18336826377528261722
20645477 70 18199744907280583183
21501502 16 18335415764033509043
21524375 3 17174321396646342221
221490 88 18339084899150719330
22802520 49 18259987054555019537
23402539 116 17240480282662798830
23559900 14 18271515472526723313
2748010 2 18262797492143221273
2871803 45 18336537334935700647
58051976 378 18122342643027931660
69090 78 18336540509227236049
7364860 26 18129662049063588968
74978 22 18342176631010286585
8030462 33 17313095345811797954
81228 2 17894904140322441965
8809292 202 18261958444675895274
93112 12 18411416198321177241
9709674 26 18339924934318397563

> <PUBCHEM_SHAPE_MULTIPOLES>
304.67
6.04
2.29
1.03
0.92
0.07
-0.19
-1.97
-0.91
-0.72
-0.23
0.08
0.03
0.26

> <PUBCHEM_SHAPE_SELFOVERLAP>
631.363

> <PUBCHEM_SHAPE_VOLUME>
173

> <PUBCHEM_COORDINATE_TYPE>
2
5
10

$$$$
