REMARK  Name = 133954
REMARK  10 active torsions:
REMARK  status: ('A' for Active; 'I' for Inactive)
REMARK    1  A    between atoms: C_1  and  C_4
REMARK    2  A    between atoms: C_1  and  N_22
REMARK    3  A    between atoms: C_1  and  C_31
REMARK    4  A    between atoms: N_3  and  C_12
REMARK    5  A    between atoms: N_6  and  C_19
REMARK    6  A    between atoms: C_23  and  C_25
REMARK    7  A    between atoms: C_31  and  C_32
REMARK    8  A    between atoms: C_32  and  C_33
REMARK    9  A    between atoms: C_33  and  N_34
REMARK   10  A    between atoms: N_34  and  C_37
REMARK                            x       y       z     vdW  Elec       q    Type
REMARK                         _______ _______ _______ _____ _____    ______ ____
ROOT
ATOM      1  C   UNL     1      -2.171  -0.062  -1.336  0.00  0.00    +0.149 C 
ENDROOT
BRANCH   1   4
ATOM      2  O   UNL     1      -0.603  -1.087   0.185  0.00  0.00    -0.273 OA
ATOM      3  N   UNL     1       0.229   0.237  -1.570  0.00  0.00    -0.283 N 
ATOM      4  C   UNL     1      -0.773  -0.367  -0.795  0.00  0.00    +0.244 C 
ATOM      5  H   UNL     1      -0.082   0.765  -2.340  0.00  0.00    +0.155 HD
BRANCH   3  12
ATOM      6  N   UNL     1       5.654  -0.117  -0.643  0.00  0.00    -0.327 N 
ATOM      7  C   UNL     1       4.351   0.088  -1.035  0.00  0.00    +0.060 A 
ATOM      8  C   UNL     1       3.537  -0.598  -0.135  0.00  0.00    +0.018 A 
ATOM      9  C   UNL     1       5.708  -0.911   0.478  0.00  0.00    +0.060 A 
ATOM     10  C   UNL     1       4.394  -1.230   0.822  0.00  0.00    +0.017 A 
ATOM     11  C   UNL     1       2.139  -0.548  -0.317  0.00  0.00    +0.016 C 
ATOM     12  C   UNL     1       1.612   0.184  -1.387  0.00  0.00    +0.050 C 
ATOM     13  C   UNL     1       3.840   0.824  -2.110  0.00  0.00    +0.018 C 
ATOM     14  C   UNL     1       6.813  -1.366   1.206  0.00  0.00    +0.017 C 
ATOM     15  C   UNL     1       4.171  -2.045   1.951  0.00  0.00    +0.001 C 
ATOM     16  C   UNL     1       2.452   0.859  -2.269  0.00  0.00    +0.016 C 
ATOM     17  C   UNL     1       6.567  -2.172   2.320  0.00  0.00    +0.001 C 
ATOM     18  C   UNL     1       5.266  -2.508   2.689  0.00  0.00    +0.000 C 
BRANCH   6  19
ATOM     19  C   UNL     1       6.812   0.431  -1.321  0.00  0.00    +0.106 C 
ATOM     20  C   UNL     1       7.207   1.793  -0.775  0.00  0.00    +0.026 C 
ENDBRANCH   6  19
ENDBRANCH   3  12
ENDBRANCH   1   4
BRANCH   1  22
ATOM     21  O   UNL     1      -4.603  -1.187  -2.367  0.00  0.00    -0.270 OA
ATOM     22  N   UNL     1      -3.137  -0.841  -0.604  0.00  0.00    -0.295 N 
ATOM     23  C   UNL     1      -4.289  -1.346  -1.190  0.00  0.00    +0.246 C 
ATOM     24  H   UNL     1      -2.973  -1.022   0.350  0.00  0.00    +0.150 HD
BRANCH  23  25
ATOM     25  C   UNL     1      -5.197  -2.107  -0.293  0.00  0.00    +0.053 C 
ATOM     26  C   UNL     1      -6.563  -2.168  -0.572  0.00  0.00    +0.005 C 
ATOM     27  C   UNL     1      -4.684  -2.761   0.827  0.00  0.00    +0.005 C 
ATOM     28  C   UNL     1      -7.415  -2.882   0.270  0.00  0.00    +0.000 C 
ATOM     29  C   UNL     1      -5.537  -3.475   1.669  0.00  0.00    +0.000 C 
ATOM     30  C   UNL     1      -6.902  -3.536   1.390  0.00  0.00    +0.000 C 
ENDBRANCH  23  25
ENDBRANCH   1  22
BRANCH   1  31
ATOM     31  C   UNL     1      -2.506   1.435  -1.309  0.00  0.00    +0.031 C 
BRANCH  31  32
ATOM     32  C   UNL     1      -2.421   2.071   0.084  0.00  0.00    +0.029 C 
BRANCH  32  33
ATOM     33  C   UNL     1      -2.705   3.568   0.024  0.00  0.00    +0.129 C 
BRANCH  33  34
ATOM     34  N   UNL     1      -2.609   4.122   1.376  0.00  0.00    -0.240 NA
BRANCH  34  37
ATOM     35  N   UNL     1      -3.096   6.308   0.506  0.00  0.00    -0.370 N 
ATOM     36  N   UNL     1      -2.734   5.996   2.735  0.00  0.00    -0.370 N 
ATOM     37  C   UNL     1      -2.806   5.398   1.498  0.00  0.00    +0.189 C 
ATOM     38  H   UNL     1      -3.176   6.008  -0.428  0.00  0.00    +0.159 HD
ATOM     39  H   UNL     1      -3.224   7.258   0.731  0.00  0.00    +0.159 HD
ATOM     40  H   UNL     1      -2.532   5.455   3.532  0.00  0.00    +0.159 HD
ATOM     41  H   UNL     1      -2.884   6.965   2.822  0.00  0.00    +0.159 HD
ENDBRANCH  34  37
ENDBRANCH  33  34
ENDBRANCH  32  33
ENDBRANCH  31  32
ENDBRANCH   1  31
TORSDOF 10
