REMARK  Name = 133995
REMARK  4 active torsions:
REMARK  status: ('A' for Active; 'I' for Inactive)
REMARK    1  A    between atoms: C_1  and  N_15
REMARK    2  A    between atoms: C_3  and  N_19
REMARK    3  A    between atoms: C_4  and  C_9
REMARK    4  A    between atoms: C_6  and  N_14
REMARK                            x       y       z     vdW  Elec       q    Type
REMARK                         _______ _______ _______ _____ _____    ______ ____
ROOT
ATOM      1  C   UNL     1       1.506  -0.188  -0.140  0.00  0.00    +0.068 C 
ATOM      2  C   UNL     1       0.457  -1.102  -0.047  0.00  0.00    +0.022 C 
ATOM      3  C   UNL     1       1.238   1.179  -0.205  0.00  0.00    +0.126 C 
ATOM      4  C   UNL     1      -0.862  -0.648  -0.019  0.00  0.00    +0.077 C 
ATOM      5  C   UNL     1      -0.081   1.633  -0.177  0.00  0.00    +0.047 C 
ATOM      6  C   UNL     1      -1.131   0.719  -0.084  0.00  0.00    +0.149 C 
ENDROOT
BRANCH   4   9
ATOM      7  O   UNL     1      -2.438  -2.139  -0.936  0.00  0.00    -0.270 OA
ATOM      8  N   UNL     1      -2.357  -1.999   1.351  0.00  0.00    -0.325 N 
ATOM      9  C   UNL     1      -1.933  -1.633   0.079  0.00  0.00    +0.244 C 
ATOM     10  H   UNL     1      -3.078  -2.661   1.458  0.00  0.00    +0.145 HD
ATOM     11  H   UNL     1      -1.936  -1.597   2.145  0.00  0.00    +0.145 HD
ENDBRANCH   4   9
BRANCH   6  14
ATOM     12  O   UNL     1      -2.662   2.444  -0.118  0.00  0.00    -0.126 OA
ATOM     13  O   UNL     1      -3.410   0.385   0.026  0.00  0.00    -0.126 OA
ATOM     14  N   UNL     1      -2.467   1.207  -0.057  0.00  0.00    +0.058 N 
ENDBRANCH   6  14
BRANCH   1  15
ATOM     15  N   UNL     1       2.835  -0.682  -0.166  0.00  0.00    -0.303 N 
ATOM     16  C   UNL     1       3.136  -2.001  -0.737  0.00  0.00    +0.112 C 
ATOM     17  C   UNL     1       3.249  -1.773   0.727  0.00  0.00    +0.112 C 
ENDBRANCH   1  15
BRANCH   3  19
ATOM     18  O   UNL     1       2.666   2.497   0.802  0.00  0.00    -0.060 OA
ATOM     19  N   UNL     1       2.254   2.101  -0.298  0.00  0.00    -0.095 NA
ENDBRANCH   3  19
TORSDOF 4
