REMARK  Name = 133957
REMARK  10 active torsions:
REMARK  status: ('A' for Active; 'I' for Inactive)
REMARK    1  A    between atoms: S_1  and  C_2
REMARK    2  A    between atoms: S_1  and  C_14
REMARK    3  A    between atoms: C_2  and  C_3
REMARK    4  A    between atoms: C_3  and  N_4
REMARK    5  A    between atoms: N_4  and  C_6
REMARK    6  A    between atoms: C_6  and  N_11
REMARK    7  A    between atoms: C_7  and  N_10
REMARK    8  A    between atoms: C_14  and  C_17
REMARK    9  A    between atoms: C_18  and  C_20
REMARK   10  A    between atoms: C_20  and  N_21
REMARK                            x       y       z     vdW  Elec       q    Type
REMARK                         _______ _______ _______ _____ _____    ______ ____
ROOT
ATOM      1  S   UNL     1       0.558  -1.576   0.291  0.00  0.00    -0.131 S 
ENDROOT
BRANCH   1   2
ATOM      2  C   UNL     1      -0.755  -2.501  -0.564  0.00  0.00    +0.079 C 
BRANCH   2   3
ATOM      3  C   UNL     1      -1.962  -1.629  -0.886  0.00  0.00    +0.100 C 
BRANCH   3   4
ATOM      4  N   UNL     1      -2.571  -1.108   0.315  0.00  0.00    -0.319 N 
ATOM      5  H   UNL     1      -2.151  -1.359   1.169  0.00  0.00    +0.148 HD
BRANCH   4   6
ATOM      6  C   UNL     1      -3.696  -0.283   0.388  0.00  0.00    +0.118 C 
ATOM      7  C   UNL     1      -4.363   0.128  -0.713  0.00  0.00    +0.194 C 
BRANCH   7  10
ATOM      8  O   UNL     1      -5.343   2.069  -0.049  0.00  0.00    -0.126 OA
ATOM      9  O   UNL     1      -6.576   0.536  -1.039  0.00  0.00    -0.126 OA
ATOM     10  N   UNL     1      -5.502   0.966  -0.592  0.00  0.00    +0.062 N 
ENDBRANCH   7  10
BRANCH   6  11
ATOM     11  N   UNL     1      -4.159   0.140   1.639  0.00  0.00    -0.319 N 
ATOM     12  C   UNL     1      -3.619  -0.159   2.944  0.00  0.00    +0.109 C 
ATOM     13  H   UNL     1      -4.956   0.717   1.627  0.00  0.00    +0.148 HD
ENDBRANCH   6  11
ENDBRANCH   4   6
ENDBRANCH   3   4
ENDBRANCH   2   3
ENDBRANCH   1   2
BRANCH   1  14
ATOM     14  C   UNL     1       1.227  -0.697  -1.139  0.00  0.00    +0.113 C 
BRANCH  14  17
ATOM     15  S   UNL     1       3.833   2.120  -0.015  0.00  0.00    -0.082 S 
ATOM     16  N   UNL     1       3.645  -0.341  -0.784  0.00  0.00    -0.409 NA
ATOM     17  C   UNL     1       2.368   0.186  -0.753  0.00  0.00    +0.109 C 
ATOM     18  C   UNL     1       4.497   0.589  -0.414  0.00  0.00    +0.113 C 
ATOM     19  C   UNL     1       2.270   1.505  -0.361  0.00  0.00    +0.119 C 
BRANCH  18  20
ATOM     20  C   UNL     1       5.961   0.394  -0.325  0.00  0.00    -0.014 C 
BRANCH  20  21
ATOM     21  N   UNL     1       6.374  -0.074   1.005  0.00  0.00    +0.387 N 
ATOM     22  C   UNL     1       7.813  -0.264   1.054  0.00  0.00    -0.105 C 
ATOM     23  H   UNL     1       5.911  -0.960   1.208  0.00  0.00    -0.084 HD
ATOM     24  H   UNL     1       6.110   0.627   1.698  0.00  0.00    -0.084 HD
ENDBRANCH  20  21
ENDBRANCH  18  20
ENDBRANCH  14  17
ENDBRANCH   1  14
TORSDOF 10
