REMARK  Name = 133923
REMARK  10 active torsions:
REMARK  status: ('A' for Active; 'I' for Inactive)
REMARK    1  A    between atoms: C_1  and  O_2
REMARK    2  A    between atoms: C_1  and  C_19
REMARK    3  A    between atoms: O_2  and  C_4
REMARK    4  A    between atoms: C_4  and  C_5
REMARK    5  A    between atoms: C_8  and  O_11
REMARK    6  A    between atoms: O_11  and  C_12
REMARK    7  A    between atoms: C_12  and  C_13
REMARK    8  A    between atoms: C_19  and  O_20
REMARK    9  A    between atoms: C_19  and  C_22
REMARK   10  A    between atoms: C_22  and  N_25
REMARK                            x       y       z     vdW  Elec       q    Type
REMARK                         _______ _______ _______ _____ _____    ______ ____
ROOT
ATOM      1  C   UNL     1       1.980   3.555   0.339  0.00  0.00    +0.239 C 
ENDROOT
BRANCH   1   2
ATOM      2  O   UNL     1       0.737   2.861   0.315  0.00  0.00    -0.443 OA
BRANCH   2   4
ATOM      3  O   UNL     1      -0.404   4.860   0.287  0.00  0.00    -0.245 OA
ATOM      4  C   UNL     1      -0.379   3.639   0.290  0.00  0.00    +0.341 C 
BRANCH   4   5
ATOM      5  C   UNL     1      -1.603   2.799   0.269  0.00  0.00    +0.076 C 
ATOM      6  C   UNL     1      -2.756   3.287   0.850  0.00  0.00    +0.010 C 
ATOM      7  C   UNL     1      -1.551   1.558  -0.331  0.00  0.00    +0.010 C 
ATOM      8  C   UNL     1      -3.880   1.240   0.229  0.00  0.00    +0.139 C 
ATOM      9  C   UNL     1      -3.907   2.499   0.829  0.00  0.00    +0.037 C 
ATOM     10  C   UNL     1      -2.702   0.770  -0.352  0.00  0.00    +0.037 C 
BRANCH   8  11
ATOM     11  O   UNL     1      -5.003   0.472   0.207  0.00  0.00    -0.471 OA
BRANCH  11  12
ATOM     12  C   UNL     1      -4.905  -0.804  -0.423  0.00  0.00    +0.232 C 
BRANCH  12  13
ATOM     13  C   UNL     1      -6.244  -1.480  -0.373  0.00  0.00    +0.021 C 
ATOM     14  C   UNL     1      -6.565  -2.291   0.710  0.00  0.00    -0.001 C 
ATOM     15  C   UNL     1      -7.151  -1.289  -1.409  0.00  0.00    -0.001 C 
ATOM     16  C   UNL     1      -7.809  -2.920   0.757  0.00  0.00    -0.000 C 
ATOM     17  C   UNL     1      -8.396  -1.917  -1.362  0.00  0.00    -0.000 C 
ATOM     18  C   UNL     1      -8.725  -2.733  -0.279  0.00  0.00    -0.000 C 
ENDBRANCH  12  13
ENDBRANCH  11  12
ENDBRANCH   8  11
ENDBRANCH   4   5
ENDBRANCH   2   4
ENDBRANCH   1   2
BRANCH   1  19
ATOM     19  C   UNL     1       3.114   2.534   0.364  0.00  0.00    +0.170 C 
BRANCH  19  20
ATOM     20  O   UNL     1       4.357   3.239   0.336  0.00  0.00    -0.379 OA
ATOM     21  H   UNL     1       5.089   2.603   0.352  0.00  0.00    +0.211 HD
ENDBRANCH  19  20
BRANCH  19  22
ATOM     22  C   UNL     1       3.050   1.613  -0.856  0.00  0.00    +0.108 C 
BRANCH  22  25
ATOM     23  O   UNL     1       1.980  -0.814   0.638  0.00  0.00    -0.272 OA
ATOM     24  O   UNL     1       5.061  -4.342   0.920  0.00  0.00    -0.252 OA
ATOM     25  N   UNL     1       4.117   0.641  -0.867  0.00  0.00    -0.237 NA
ATOM     26  N   UNL     1       5.712  -2.403  -0.189  0.00  0.00    -0.228 N 
ATOM     27  N   UNL     1       3.506  -2.595   0.792  0.00  0.00    -0.211 N 
ATOM     28  N   UNL     1       6.118  -0.243  -1.296  0.00  0.00    -0.240 NA
ATOM     29  C   UNL     1       4.107  -0.610  -0.319  0.00  0.00    +0.192 C 
ATOM     30  C   UNL     1       5.343  -1.128  -0.596  0.00  0.00    +0.136 C 
ATOM     31  C   UNL     1       3.083  -1.297   0.398  0.00  0.00    +0.254 C 
ATOM     32  C   UNL     1       5.348   0.816  -1.444  0.00  0.00    +0.203 C 
ATOM     33  C   UNL     1       4.788  -3.200   0.533  0.00  0.00    +0.318 C 
ATOM     34  C   UNL     1       7.038  -2.919  -0.503  0.00  0.00    +0.123 C 
ATOM     35  C   UNL     1       2.542  -3.399   1.536  0.00  0.00    +0.124 C 
ENDBRANCH  22  25
ENDBRANCH  19  22
ENDBRANCH   1  19
TORSDOF 10
