REMARK  Name = 133971
REMARK  2 active torsions:
REMARK  status: ('A' for Active; 'I' for Inactive)
REMARK    1  A    between atoms: N_5  and  O_29
REMARK    2  A    between atoms: N_6  and  O_31
REMARK                            x       y       z     vdW  Elec       q    Type
REMARK                         _______ _______ _______ _____ _____    ______ ____
ROOT
ATOM      1  O   UNL     1      -1.648  -0.068   1.578  0.00  0.00    -0.273 OA
ATOM      2  O   UNL     1       2.491   1.773  -1.438  0.00  0.00    -0.273 OA
ATOM      3  O   UNL     1       1.357  -1.133  -2.249  0.00  0.00    -0.275 OA
ATOM      4  O   UNL     1      -1.808   3.096   0.701  0.00  0.00    -0.275 OA
ATOM      5  N   UNL     1      -2.783  -2.000   1.099  0.00  0.00    -0.172 N 
ATOM      6  N   UNL     1       3.168   1.704   0.752  0.00  0.00    -0.172 N 
ATOM      7  N   UNL     1       2.064  -2.717  -0.706  0.00  0.00    -0.304 N 
ATOM      8  N   UNL     1      -2.546   2.180  -1.302  0.00  0.00    -0.304 N 
ATOM      9  C   UNL     1      -4.406  -0.181  -0.802  0.00  0.00    +0.004 C 
ATOM     10  C   UNL     1       4.145  -1.172   0.823  0.00  0.00    +0.004 C 
ATOM     11  C   UNL     1      -4.951  -1.310   0.080  0.00  0.00    +0.024 C 
ATOM     12  C   UNL     1       4.967   0.049   1.253  0.00  0.00    +0.024 C 
ATOM     13  C   UNL     1      -4.509   1.202  -0.151  0.00  0.00    +0.021 C 
ATOM     14  C   UNL     1       4.218  -1.463  -0.678  0.00  0.00    +0.021 C 
ATOM     15  C   UNL     1      -4.152  -1.577   1.360  0.00  0.00    +0.124 C 
ATOM     16  C   UNL     1       4.575   1.368   0.581  0.00  0.00    +0.124 C 
ATOM     17  C   UNL     1       3.469  -2.737  -1.073  0.00  0.00    +0.089 C 
ATOM     18  C   UNL     1      -3.970   2.314  -1.053  0.00  0.00    +0.089 C 
ATOM     19  C   UNL     1      -0.352  -1.888   0.745  0.00  0.00    +0.097 C 
ATOM     20  C   UNL     1       0.855   2.307   0.241  0.00  0.00    +0.097 C 
ATOM     21  C   UNL     1      -0.275  -2.084  -0.768  0.00  0.00    +0.095 C 
ATOM     22  C   UNL     1      -0.179   2.269  -0.881  0.00  0.00    +0.095 C 
ATOM     23  C   UNL     1      -1.653  -1.233   1.176  0.00  0.00    +0.248 C 
ATOM     24  C   UNL     1       2.241   1.904  -0.239  0.00  0.00    +0.248 C 
ATOM     25  C   UNL     1       1.127  -1.904  -1.320  0.00  0.00    +0.223 C 
ATOM     26  C   UNL     1      -1.581   2.566  -0.383  0.00  0.00    +0.223 C 
ATOM     27  H   UNL     1       1.763  -3.313   0.018  0.00  0.00    +0.149 HD
ATOM     28  H   UNL     1      -2.252   1.799  -2.160  0.00  0.00    +0.149 HD
ENDROOT
BRANCH   5  29
ATOM     29  O   UNL     1      -2.704  -3.298   0.582  0.00  0.00    -0.292 OA
ATOM     30  H   UNL     1      -3.584  -3.706   0.595  0.00  0.00    +0.242 HD
ENDBRANCH   5  29
BRANCH   6  31
ATOM     31  O   UNL     1       2.838   2.033   2.073  0.00  0.00    -0.292 OA
ATOM     32  H   UNL     1       3.590   1.836   2.653  0.00  0.00    +0.242 HD
ENDBRANCH   6  31
TORSDOF 2
