REMARK  Name = 133974
REMARK  8 active torsions:
REMARK  status: ('A' for Active; 'I' for Inactive)
REMARK    1  A    between atoms: C_7  and  O_20
REMARK    2  A    between atoms: C_9  and  C_28
REMARK    3  A    between atoms: C_13  and  O_24
REMARK    4  A    between atoms: C_17  and  C_19
REMARK    5  A    between atoms: O_20  and  C_22
REMARK    6  A    between atoms: O_24  and  C_26
REMARK    7  A    between atoms: C_28  and  O_29
REMARK    8  A    between atoms: O_29  and  C_32
REMARK                            x       y       z     vdW  Elec       q    Type
REMARK                         _______ _______ _______ _____ _____    ______ ____
ROOT
ATOM      1  O   UNL     1      -1.109  -0.511  -1.245  0.00  0.00    -0.220 OA
ATOM      2  O   UNL     1      -3.538   3.338   1.252  0.00  0.00    -0.275 OA
ATOM      3  N   UNL     1      -2.807   1.643  -0.177  0.00  0.00    -0.272 N 
ATOM      4  N   UNL     1      -0.226   0.489  -1.701  0.00  0.00    -0.234 N 
ATOM      5  C   UNL     1      -1.664   1.103   0.505  0.00  0.00    +0.162 C 
ATOM      6  C   UNL     1      -1.517   2.159  -0.534  0.00  0.00    +0.124 C 
ATOM      7  C   UNL     1      -1.252  -0.324   0.182  0.00  0.00    +0.279 C 
ATOM      8  C   UNL     1      -0.930   1.766  -1.861  0.00  0.00    +0.154 C 
ATOM      9  C   UNL     1       0.105  -0.720   0.841  0.00  0.00    +0.138 C 
ATOM     10  C   UNL     1       1.263  -0.011   0.153  0.00  0.00    +0.039 C 
ATOM     11  C   UNL     1       1.058   0.574  -1.115  0.00  0.00    +0.082 C 
ATOM     12  C   UNL     1      -3.758   2.414   0.472  0.00  0.00    +0.226 C 
ATOM     13  C   UNL     1       2.518   0.086   0.768  0.00  0.00    +0.146 C 
ATOM     14  C   UNL     1       2.114   1.249  -1.740  0.00  0.00    +0.022 C 
ATOM     15  C   UNL     1      -5.157   1.980   0.131  0.00  0.00    +0.095 C 
ATOM     16  C   UNL     1       3.562   0.754   0.132  0.00  0.00    +0.041 C 
ATOM     17  C   UNL     1       3.361   1.334  -1.120  0.00  0.00    +0.047 C 
ENDROOT
BRANCH  17  19
ATOM     18  O   UNL     1       4.339   2.569  -2.885  0.00  0.00    -0.283 OA
ATOM     19  C   UNL     1       4.453   2.033  -1.779  0.00  0.00    +0.234 C 
ENDBRANCH  17  19
BRANCH   7  20
ATOM     20  O   UNL     1      -2.267  -1.201   0.681  0.00  0.00    -0.426 OA
BRANCH  20  22
ATOM     21  O   UNL     1      -3.611  -0.687  -1.125  0.00  0.00    -0.250 OA
ATOM     22  C   UNL     1      -3.396  -1.283  -0.079  0.00  0.00    +0.319 C 
ATOM     23  C   UNL     1      -4.363  -2.232   0.562  0.00  0.00    +0.121 C 
ENDBRANCH  20  22
ENDBRANCH   7  20
BRANCH  13  24
ATOM     24  O   UNL     1       2.742  -0.447   2.003  0.00  0.00    -0.424 OA
BRANCH  24  26
ATOM     25  O   UNL     1       2.054   1.578   2.955  0.00  0.00    -0.250 OA
ATOM     26  C   UNL     1       2.462   0.429   3.063  0.00  0.00    +0.322 C 
ATOM     27  C   UNL     1       2.739  -0.247   4.373  0.00  0.00    +0.122 C 
ENDBRANCH  24  26
ENDBRANCH  13  24
BRANCH   9  28
ATOM     28  C   UNL     1       0.348  -2.237   0.788  0.00  0.00    +0.221 C 
BRANCH  28  29
ATOM     29  O   UNL     1       0.414  -2.622  -0.568  0.00  0.00    -0.434 OA
BRANCH  29  32
ATOM     30  O   UNL     1       0.762  -4.812   0.051  0.00  0.00    -0.227 OA
ATOM     31  N   UNL     1       0.673  -4.207  -2.166  0.00  0.00    -0.295 N 
ATOM     32  C   UNL     1       0.628  -3.955  -0.817  0.00  0.00    +0.398 C 
ATOM     33  H   UNL     1       0.557  -3.470  -2.808  0.00  0.00    +0.148 HD
ATOM     34  H   UNL     1       0.821  -5.124  -2.491  0.00  0.00    +0.148 HD
ENDBRANCH  29  32
ENDBRANCH  28  29
ENDBRANCH   9  28
TORSDOF 8
