REMARK  Name = 133985
REMARK  8 active torsions:
REMARK  status: ('A' for Active; 'I' for Inactive)
REMARK    1  A    between atoms: CA_5  and  C_34
REMARK    2  A    between atoms: CA_9  and  N_18
REMARK    3  A    between atoms: C_19  and  C_21
REMARK    4  A    between atoms: C_21  and  S_22
REMARK    5  A    between atoms: C_21  and  C_26
REMARK    6  A    between atoms: S_22  and  C_24
REMARK    7  A    between atoms: C_26  and  C_27
REMARK    8  A    between atoms: C_34  and  O_35
REMARK                            x       y       z     vdW  Elec       q    Type
REMARK                         _______ _______ _______ _____ _____    ______ ____
ROOT
ATOM      1  O   UNL     1       0.025   1.193  -1.663  0.00  0.00    -0.273 OA
ATOM      2  N   UNL     1       1.789   1.305  -0.149  0.00  0.00    -0.268 N 
ATOM      3  C   UNL     1       2.381   0.847   1.131  0.00  0.00    +0.098 C 
ATOM      4  C   UNL     1       3.184   1.973   1.817  0.00  0.00    +0.024 C 
ATOM      5  CA  UNL     1       2.581   2.169  -1.035  0.00  0.00    +0.175 C 
ATOM      6  C   UNL     1       4.147   2.695   0.885  0.00  0.00    +0.004 C 
ATOM      7  C   UNL     1       3.392   3.240  -0.318  0.00  0.00    +0.031 C 
ATOM      8  C   UNL     1       3.023  -0.527   0.979  0.00  0.00    -0.008 C 
ATOM      9  CA  UNL     1      -0.012  -0.345   0.191  0.00  0.00    +0.153 C 
ATOM     10  C   UNL     1       0.568   0.803  -0.627  0.00  0.00    +0.244 C 
ATOM     11  C   UNL     1       0.836  -1.608   0.024  0.00  0.00    +0.055 C 
ATOM     12  C   UNL     1       2.282  -1.632   0.491  0.00  0.00    -0.022 C 
ATOM     13  C   UNL     1       4.365  -0.743   1.353  0.00  0.00    -0.003 C 
ATOM     14  C   UNL     1       2.919  -2.889   0.382  0.00  0.00    -0.004 C 
ATOM     15  C   UNL     1       4.971  -1.995   1.240  0.00  0.00    -0.000 C 
ATOM     16  C   UNL     1       4.248  -3.071   0.752  0.00  0.00    -0.000 C 
ENDROOT
BRANCH   9  18
ATOM     17  O   UNL     1      -2.243  -1.278   1.738  0.00  0.00    -0.274 OA
ATOM     18  N   UNL     1      -1.357  -0.576  -0.287  0.00  0.00    -0.297 N 
ATOM     19  C   UNL     1      -2.372  -1.029   0.541  0.00  0.00    +0.233 C 
ATOM     20  H   UNL     1      -1.559  -0.404  -1.235  0.00  0.00    +0.150 HD
BRANCH  19  21
ATOM     21  C   UNL     1      -3.692  -1.220  -0.200  0.00  0.00    +0.135 C 
BRANCH  21  22
ATOM     22  S   UNL     1      -4.072  -3.007  -0.150  0.00  0.00    -0.068 S 
BRANCH  22  24
ATOM     23  O   UNL     1      -2.040  -3.025  -1.845  0.00  0.00    -0.284 OA
ATOM     24  C   UNL     1      -2.655  -3.638  -0.980  0.00  0.00    +0.200 C 
ATOM     25  C   UNL     1      -2.270  -5.015  -0.522  0.00  0.00    +0.085 C 
ENDBRANCH  22  24
ENDBRANCH  21  22
BRANCH  21  26
ATOM     26  C   UNL     1      -4.839  -0.431   0.446  0.00  0.00    +0.047 C 
BRANCH  26  27
ATOM     27  C   UNL     1      -4.607   1.062   0.391  0.00  0.00    -0.021 C 
ATOM     28  C   UNL     1      -3.936   1.681   1.433  0.00  0.00    -0.004 C 
ATOM     29  C   UNL     1      -5.069   1.780  -0.699  0.00  0.00    -0.004 C 
ATOM     30  C   UNL     1      -3.722   3.058   1.383  0.00  0.00    -0.000 C 
ATOM     31  C   UNL     1      -4.855   3.157  -0.749  0.00  0.00    -0.000 C 
ATOM     32  C   UNL     1      -4.181   3.796   0.292  0.00  0.00    -0.000 C 
ENDBRANCH  26  27
ENDBRANCH  21  26
ENDBRANCH  19  21
ENDBRANCH   9  18
BRANCH   5  34
ATOM     33  OXT UNL     1       3.191   0.099  -2.131  0.00  0.00    -0.248 OA
ATOM     34  C   UNL     1       3.450   1.262  -1.858  0.00  0.00    +0.332 C 
BRANCH  34  35
ATOM     35  O   UNL     1       4.572   1.908  -2.258  0.00  0.00    -0.479 OA
ATOM     36  H   UNL     1       4.711   2.802  -2.014  0.00  0.00    +0.295 HD
ENDBRANCH  34  35
ENDBRANCH   5  34
TORSDOF 8
