133960
  -OEChem-03292013323D

 31 32  0     1  0  0  0  0  0999 V2000
   -0.5582   -0.7000    0.5343 O   0  0  0  0  0  0  0  0  0  0  0  0
    1.2224    1.5896    0.3697 O   0  0  0  0  0  0  0  0  0  0  0  0
   -1.6477    1.4191    0.5471 O   0  0  0  0  0  0  0  0  0  0  0  0
    1.3172   -2.4968   -0.3513 O   0  0  0  0  0  0  0  0  0  0  0  0
    3.6914   -1.1272    0.5200 O   0  0  0  0  0  0  0  0  0  0  0  0
    3.2899    1.3162   -0.7492 O   0  0  0  0  0  0  0  0  0  0  0  0
   -3.6917    0.4661   -0.6896 O   0  0  0  0  0  0  0  0  0  0  0  0
   -2.8073   -1.6287   -0.8511 O   0  0  0  0  0  0  0  0  0  0  0  0
    0.1970   -0.3833   -0.6435 C   0  0  1  0  0  0  0  0  0  0  0  0
    0.4045    1.1311   -0.7197 C   0  0  1  0  0  0  0  0  0  0  0  0
    1.5438   -1.1071   -0.5711 C   0  0  1  0  0  0  0  0  0  0  0  0
    2.4008   -0.5273    0.5533 C   0  0  2  0  0  0  0  0  0  0  0  0
   -0.9351    1.8501   -0.6119 C   0  0  0  0  0  0  0  0  0  0  0  0
    2.5198    0.9918    0.4072 C   0  0  2  0  0  0  0  0  0  0  0  0
   -1.7891    0.0062    0.6255 C   0  0  2  0  0  0  0  0  0  0  0  0
   -2.3621   -0.2979    2.0082 C   0  0  0  0  0  0  0  0  0  0  0  0
   -2.7956   -0.5021   -0.3779 C   0  0  0  0  0  0  0  0  0  0  0  0
   -0.3568   -0.7496   -1.5160 H   0  0  0  0  0  0  0  0  0  0  0  0
    0.8884    1.4134   -1.6623 H   0  0  0  0  0  0  0  0  0  0  0  0
    2.0717   -1.0218   -1.5280 H   0  0  0  0  0  0  0  0  0  0  0  0
    1.9516   -0.7694    1.5244 H   0  0  0  0  0  0  0  0  0  0  0  0
   -0.7829    2.9296   -0.5090 H   0  0  0  0  0  0  0  0  0  0  0  0
   -1.5430    1.6831   -1.5074 H   0  0  0  0  0  0  0  0  0  0  0  0
    3.0560    1.3927    1.2746 H   0  0  0  0  0  0  0  0  0  0  0  0
   -2.5102   -1.3738    2.1547 H   0  0  0  0  0  0  0  0  0  0  0  0
   -1.6737    0.0440    2.7902 H   0  0  0  0  0  0  0  0  0  0  0  0
   -3.3177    0.2128    2.1722 H   0  0  0  0  0  0  0  0  0  0  0  0
    0.8233   -2.5888    0.4815 H   0  0  0  0  0  0  0  0  0  0  0  0
    3.5674   -2.0892    0.5917 H   0  0  0  0  0  0  0  0  0  0  0  0
    3.6886    2.1888   -0.5916 H   0  0  0  0  0  0  0  0  0  0  0  0
   -4.3541    0.1556   -1.3430 H   0  0  0  0  0  0  0  0  0  0  0  0
  1  9  1  0  0  0  0
  1 15  1  0  0  0  0
  2 10  1  0  0  0  0
  2 14  1  0  0  0  0
  3 13  1  0  0  0  0
  3 15  1  0  0  0  0
  4 11  1  0  0  0  0
  4 28  1  0  0  0  0
  5 12  1  0  0  0  0
  5 29  1  0  0  0  0
  6 14  1  0  0  0  0
  6 30  1  0  0  0  0
  7 17  1  0  0  0  0
  7 31  1  0  0  0  0
  8 17  2  0  0  0  0
  9 10  1  0  0  0  0
  9 11  1  0  0  0  0
  9 18  1  0  0  0  0
 10 13  1  0  0  0  0
 10 19  1  0  0  0  0
 11 12  1  0  0  0  0
 11 20  1  0  0  0  0
 12 14  1  0  0  0  0
 12 21  1  0  0  0  0
 13 22  1  0  0  0  0
 13 23  1  0  0  0  0
 14 24  1  0  0  0  0
 15 16  1  0  0  0  0
 15 17  1  0  0  0  0
 16 25  1  0  0  0  0
 16 26  1  0  0  0  0
 16 27  1  0  0  0  0
M  END
> <PUBCHEM_COMPOUND_CID>
133960

> <PUBCHEM_CONFORMER_RMSD>
0.6

> <PUBCHEM_CONFORMER_DIVERSEORDER>
1
2

> <PUBCHEM_MMFF94_PARTIAL_CHARGES>
20
1 -0.56
10 0.28
11 0.28
12 0.28
13 0.28
14 0.56
15 0.62
17 0.66
2 -0.56
28 0.4
29 0.4
3 -0.56
30 0.4
31 0.5
4 -0.68
5 -0.68
6 -0.68
7 -0.65
8 -0.57
9 0.28

> <PUBCHEM_EFFECTIVE_ROTOR_COUNT>
2.6

> <PUBCHEM_PHARMACOPHORE_FEATURES>
14
1 1 acceptor
1 2 acceptor
1 3 acceptor
1 4 acceptor
1 4 donor
1 5 acceptor
1 5 donor
1 6 acceptor
1 6 donor
1 7 acceptor
1 8 acceptor
3 7 8 17 anion
6 1 3 9 10 13 15 rings
6 2 9 10 11 12 14 rings

> <PUBCHEM_HEAVY_ATOM_COUNT>
17

> <PUBCHEM_ATOM_DEF_STEREO_COUNT>
6

> <PUBCHEM_ATOM_UDEF_STEREO_COUNT>
0

> <PUBCHEM_BOND_DEF_STEREO_COUNT>
0

> <PUBCHEM_BOND_UDEF_STEREO_COUNT>
0

> <PUBCHEM_ISOTOPIC_ATOM_COUNT>
0

> <PUBCHEM_COMPONENT_COUNT>
1

> <PUBCHEM_CACTVS_TAUTO_COUNT>
1

> <PUBCHEM_CONFORMER_ID>
00020B4800000001

> <PUBCHEM_MMFF94_ENERGY>
44.2135

> <PUBCHEM_FEATURE_SELFOVERLAP>
71.331

> <PUBCHEM_SHAPE_FINGERPRINT>
10219947 1 18408887368853542228
11132069 177 18341606027725726554
11471102 22 18408610262006297450
12251169 10 18201443519289793771
13296908 3 17603591849777421387
13581323 91 14490189423336577937
14787075 74 16624033844152575009
14993402 34 18267585886931167260
15207287 21 18114449137061140451
15309172 13 18340775943612235672
15775835 57 18272939357317335624
16945 1 18271815613452336177
17990270 104 18265332807412276346
200 152 18059280003166227517
20201158 50 18335980865770963154
20645477 70 18335415755523052983
21501502 16 18337392638875341220
22721475 48 18263087621674238052
23388829 49 18339644563211351749
23419403 2 14645196377723618545
23463225 33 18408600349332573740
23559900 14 17168142326466663874
2748010 2 17835807391488498686
296302 2 17385720348079504980
3286 77 17632003213449706674
5084963 1 18059851774929740210
63268167 104 18412826918894576873
69090 78 18268139860856880245
74978 22 16298394564777012973
81228 2 17897731959295378157

> <PUBCHEM_SHAPE_MULTIPOLES>
302.9
5.29
1.92
1.16
0.28
0.16
-0.42
0.6
-0.14
0.61
0.36
-0.68
0.1
-0.12

> <PUBCHEM_SHAPE_SELFOVERLAP>
636.992

> <PUBCHEM_SHAPE_VOLUME>
166

> <PUBCHEM_COORDINATE_TYPE>
2
5
10

$$$$
