REMARK  Name = 133919
REMARK  9 active torsions:
REMARK  status: ('A' for Active; 'I' for Inactive)
REMARK    1  A    between atoms: C_4  and  C_7
REMARK    2  A    between atoms: C_5  and  C_21
REMARK    3  A    between atoms: C_7  and  N_8
REMARK    4  A    between atoms: C_7  and  C_12
REMARK    5  A    between atoms: C_12  and  C_13
REMARK    6  A    between atoms: C_18  and  O_19
REMARK    7  A    between atoms: C_21  and  N_23
REMARK    8  A    between atoms: C_24  and  C_26
REMARK    9  A    between atoms: C_26  and  N_27
REMARK                            x       y       z     vdW  Elec       q    Type
REMARK                         _______ _______ _______ _____ _____    ______ ____
ROOT
ATOM      1  O   UNL     1      -1.187   2.493  -1.272  0.00  0.00    -0.277 OA
ATOM      2  O   UNL     1       1.493   2.085  -0.558  0.00  0.00    -0.273 OA
ATOM      3  N   UNL     1      -0.390   1.190   0.488  0.00  0.00    -0.256 N 
ATOM      4  C   UNL     1      -1.387   1.750  -0.313  0.00  0.00    +0.208 C 
ATOM      5  C   UNL     1       0.981   1.391   0.316  0.00  0.00    +0.248 C 
ATOM      6  H   UNL     1      -0.675   0.609   1.230  0.00  0.00    +0.157 HD
ENDROOT
BRANCH   4   7
ATOM      7  C   UNL     1      -2.789   1.363   0.156  0.00  0.00    +0.021 C 
BRANCH   7   8
ATOM      8  N   UNL     1      -3.672   2.501  -0.104  0.00  0.00    +0.390 N 
ATOM      9  C   UNL     1      -3.520   3.515   0.928  0.00  0.00    -0.105 C 
ATOM     10  H   UNL     1      -4.640   2.179  -0.117  0.00  0.00    -0.084 HD
ATOM     11  H   UNL     1      -3.424   2.911  -1.005  0.00  0.00    -0.084 HD
ENDBRANCH   7   8
BRANCH   7  12
ATOM     12  C   UNL     1      -3.300   0.128  -0.602  0.00  0.00    +0.014 C 
BRANCH  12  13
ATOM     13  C   UNL     1      -2.458  -1.103  -0.364  0.00  0.00    -0.024 C 
ATOM     14  C   UNL     1      -2.763  -1.963   0.690  0.00  0.00    -0.001 C 
ATOM     15  C   UNL     1      -1.375  -1.379  -1.199  0.00  0.00    -0.001 C 
ATOM     16  C   UNL     1      -1.986  -3.100   0.910  0.00  0.00    +0.036 C 
ATOM     17  C   UNL     1      -0.597  -2.516  -0.979  0.00  0.00    +0.036 C 
ATOM     18  C   UNL     1      -0.902  -3.377   0.076  0.00  0.00    +0.134 C 
BRANCH  18  19
ATOM     19  O   UNL     1      -0.143  -4.486   0.291  0.00  0.00    -0.506 OA
ATOM     20  H   UNL     1      -0.348  -5.064   0.999  0.00  0.00    +0.292 HD
ENDBRANCH  18  19
ENDBRANCH  12  13
ENDBRANCH   7  12
ENDBRANCH   4   7
BRANCH   5  21
ATOM     21  C   UNL     1       1.784   0.588   1.317  0.00  0.00    +0.176 C 
BRANCH  21  23
ATOM     22  O   UNL     1       3.597  -0.858  -0.413  0.00  0.00    -0.277 OA
ATOM     23  N   UNL     1       3.181   0.838   1.121  0.00  0.00    -0.298 N 
ATOM     24  C   UNL     1       3.988   0.090   0.264  0.00  0.00    +0.201 C 
ATOM     25  H   UNL     1       3.595   1.579   1.619  0.00  0.00    +0.150 HD
BRANCH  24  26
ATOM     26  C   UNL     1       5.429   0.557   0.277  0.00  0.00    +0.001 C 
BRANCH  26  27
ATOM     27  N   UNL     1       6.018   0.294  -1.028  0.00  0.00    +0.386 N 
ATOM     28  H   UNL     1       6.990   0.605  -1.031  0.00  0.00    -0.089 HD
ATOM     29  H   UNL     1       5.497   0.801  -1.744  0.00  0.00    -0.089 HD
ATOM     30  H   UNL     1       5.980  -0.706  -1.223  0.00  0.00    -0.089 HD
ENDBRANCH  26  27
ENDBRANCH  24  26
ENDBRANCH  21  23
ENDBRANCH   5  21
TORSDOF 9
