133952
  -OEChem-03292013323D

 34 34  0     1  0  0  0  0  0999 V2000
    0.2154   -0.3955    2.0109 O   0  0  0  0  0  0  0  0  0  0  0  0
    0.6943    2.5897   -1.0503 O   0  0  0  0  0  0  0  0  0  0  0  0
    3.1323   -1.0771   -1.2686 O   0  0  0  0  0  0  0  0  0  0  0  0
   -6.4572    0.3869   -0.1061 O   0  5  0  0  0  0  0  0  0  0  0  0
   -5.9293   -1.6337   -0.7823 O   0  0  0  0  0  0  0  0  0  0  0  0
    2.1919    0.4422    0.2119 N   0  0  0  0  0  0  0  0  0  0  0  0
   -5.6098   -0.5159   -0.3098 N   0  3  0  0  0  0  0  0  0  0  0  0
    5.6115   -0.6828   -0.3502 N   0  0  0  0  0  0  0  0  0  0  0  0
    6.7653   -0.4989    0.0824 N   0  3  0  0  0  0  0  0  0  0  0  0
    7.8233   -0.3336    0.4754 N   0  5  0  0  0  0  0  0  0  0  0  0
    0.8224    0.2863   -0.2401 C   0  0  1  0  0  0  0  0  0  0  0  0
   -0.1419    0.4938    0.9477 C   0  0  1  0  0  0  0  0  0  0  0  0
   -1.5919    0.2255    0.6144 C   0  0  0  0  0  0  0  0  0  0  0  0
    0.5683    1.2242   -1.4261 C   0  0  0  0  0  0  0  0  0  0  0  0
   -2.5318    1.2177    0.8367 C   0  0  0  0  0  0  0  0  0  0  0  0
   -1.9504   -1.0064    0.0933 C   0  0  0  0  0  0  0  0  0  0  0  0
    3.2383   -0.2653   -0.3530 C   0  0  0  0  0  0  0  0  0  0  0  0
   -3.8698    0.9706    0.5289 C   0  0  0  0  0  0  0  0  0  0  0  0
   -3.2883   -1.2533   -0.2146 C   0  0  0  0  0  0  0  0  0  0  0  0
   -4.2480   -0.2649    0.0032 C   0  0  0  0  0  0  0  0  0  0  0  0
    4.5554    0.0907    0.2964 C   0  0  0  0  0  0  0  0  0  0  0  0
    0.7354   -0.7448   -0.6040 H   0  0  0  0  0  0  0  0  0  0  0  0
   -0.0263    1.5101    1.3447 H   0  0  0  0  0  0  0  0  0  0  0  0
    1.2892    1.0315   -2.2285 H   0  0  0  0  0  0  0  0  0  0  0  0
   -0.4354    1.0728   -1.8359 H   0  0  0  0  0  0  0  0  0  0  0  0
    2.3904    1.1467    0.9170 H   0  0  0  0  0  0  0  0  0  0  0  0
   -2.2492    2.1837    1.2447 H   0  0  0  0  0  0  0  0  0  0  0  0
   -1.2200   -1.7927   -0.0709 H   0  0  0  0  0  0  0  0  0  0  0  0
    1.1498   -0.2333    2.2255 H   0  0  0  0  0  0  0  0  0  0  0  0
   -4.5899    1.7641    0.7117 H   0  0  0  0  0  0  0  0  0  0  0  0
   -3.5468   -2.2283   -0.6199 H   0  0  0  0  0  0  0  0  0  0  0  0
    0.5196    3.1220   -1.8452 H   0  0  0  0  0  0  0  0  0  0  0  0
    4.4997   -0.1476    1.3649 H   0  0  0  0  0  0  0  0  0  0  0  0
    4.7332    1.1653    0.1735 H   0  0  0  0  0  0  0  0  0  0  0  0
  1 12  1  0  0  0  0
  1 29  1  0  0  0  0
  2 14  1  0  0  0  0
  2 32  1  0  0  0  0
  3 17  2  0  0  0  0
  4  7  1  0  0  0  0
  5  7  2  0  0  0  0
  6 11  1  0  0  0  0
  6 17  1  0  0  0  0
  6 26  1  0  0  0  0
  7 20  1  0  0  0  0
  8  9  2  0  0  0  0
  8 21  1  0  0  0  0
  9 10  2  0  0  0  0
 11 12  1  0  0  0  0
 11 14  1  0  0  0  0
 11 22  1  0  0  0  0
 12 13  1  0  0  0  0
 12 23  1  0  0  0  0
 13 15  2  0  0  0  0
 13 16  1  0  0  0  0
 14 24  1  0  0  0  0
 14 25  1  0  0  0  0
 15 18  1  0  0  0  0
 15 27  1  0  0  0  0
 16 19  2  0  0  0  0
 16 28  1  0  0  0  0
 17 21  1  0  0  0  0
 18 20  2  0  0  0  0
 18 30  1  0  0  0  0
 19 20  1  0  0  0  0
 19 31  1  0  0  0  0
 21 33  1  0  0  0  0
 21 34  1  0  0  0  0
M  CHG  4   4  -1   7   1   9   1  10  -1
M  END
> <PUBCHEM_COMPOUND_CID>
133952

> <PUBCHEM_CONFORMER_RMSD>
0.8

> <PUBCHEM_CONFORMER_DIVERSEORDER>
1
47
30
88
11
69
54
52
70
102
107
49
86
105
23
76
24
42
85
64
19
80
28
16
31
108
79
46
38
106
25
17
82
98
45
97
26
81
48
104
18
61
29
66
96
50
92
71
75
33
83
41
40
68
55
84
72
10
53
13
91
78
39
100
60
43
20
77
51
22
5
94
58
44
37
87
90
2
34
14
103
74
95
3
6
73
56
89
35
32
65
7
4
93
101
67
62
36
99
57
63
9
12
27
15
59
8
21

> <PUBCHEM_MMFF94_PARTIAL_CHARGES>
28
1 -0.68
10 -0.37
11 0.3
12 0.42
13 -0.14
14 0.28
15 -0.15
16 -0.15
17 0.57
18 -0.15
19 -0.15
2 -0.68
20 0.13
21 0.31
26 0.37
27 0.15
28 0.15
29 0.4
3 -0.57
30 0.15
31 0.15
32 0.4
4 -0.52
5 -0.52
6 -0.73
7 0.91
8 -0.56
9 0.69

> <PUBCHEM_EFFECTIVE_ROTOR_COUNT>
8

> <PUBCHEM_PHARMACOPHORE_FEATURES>
10
1 1 acceptor
1 1 donor
1 2 acceptor
1 2 donor
1 3 acceptor
1 4 acceptor
1 4 anion
1 5 acceptor
1 6 donor
6 13 15 16 18 19 20 rings

> <PUBCHEM_HEAVY_ATOM_COUNT>
21

> <PUBCHEM_ATOM_DEF_STEREO_COUNT>
0

> <PUBCHEM_ATOM_UDEF_STEREO_COUNT>
2

> <PUBCHEM_BOND_DEF_STEREO_COUNT>
0

> <PUBCHEM_BOND_UDEF_STEREO_COUNT>
0

> <PUBCHEM_ISOTOPIC_ATOM_COUNT>
0

> <PUBCHEM_COMPONENT_COUNT>
1

> <PUBCHEM_CACTVS_TAUTO_COUNT>
2

> <PUBCHEM_CONFORMER_ID>
00020B4000000001

> <PUBCHEM_MMFF94_ENERGY>
45.764

> <PUBCHEM_FEATURE_SELFOVERLAP>
50.835

> <PUBCHEM_SHAPE_FINGERPRINT>
10 15 17346587587898759426
106641 1 14405178495348777678
10670039 82 14707195609642366071
10968037 39 18202283610809076335
11315181 36 18131354119969827585
12236239 1 18335421287730768585
12516196 113 17489870436333107880
13288520 33 18202563982274487225
14251752 14 16370719318871369478
14251764 46 18131350808565781762
15716309 27 17275101726399737582
17834072 8 14996284717196727830
18006028 8 18114180835318955724
18186145 218 17313659477714616629
187816 3 17095244713660412720
19489759 90 18272934907694164064
200 152 17060339600028649002
20612939 158 17458634457586433292
21267235 1 18260833735171078923
22079108 93 17203319019243822970
22224240 67 13110959829403395301
23198884 109 13912321274236921559
23402539 116 18334858294558804940
23559900 14 18200867508330665969
26918003 58 17775287170613728802
3009799 131 16805322202188398724
347723 3 16298105380555655920
34797466 226 17274834596703927580
4325135 7 18273216409453443884
465052 167 15769779073867544404
5758199 1 11024107655285440732
59682541 35 16415190217919482298
59755656 520 11095879354873393684
67856867 119 18270400632182292788
7495541 125 17131831018830125969

> <PUBCHEM_SHAPE_MULTIPOLES>
377.92
16.01
1.43
1.13
16.01
0.45
0.09
-5.55
-0.41
-0.91
-0.45
0.15
0.18
-0.56

> <PUBCHEM_SHAPE_SELFOVERLAP>
776.762

> <PUBCHEM_SHAPE_VOLUME>
215.7

> <PUBCHEM_COORDINATE_TYPE>
2
5
10

$$$$
