REMARK  Name = 133940
REMARK  9 active torsions:
REMARK  status: ('A' for Active; 'I' for Inactive)
REMARK    1  A    between atoms: N_1  and  C1*_15
REMARK    2  A    between atoms: C_9  and  O_25
REMARK    3  A    between atoms: C2*_14  and  O2*_18
REMARK    4  A    between atoms: C3*_16  and  O3*_20
REMARK    5  A    between atoms: C4*_17  and  C5*_22
REMARK    6  A    between atoms: C5*_22  and  O5*_23
REMARK    7  A    between atoms: O_25  and  C_26
REMARK    8  A    between atoms: C_26  and  C_27
REMARK    9  A    between atoms: C_27  and  C_28
REMARK                            x       y       z     vdW  Elec       q    Type
REMARK                         _______ _______ _______ _____ _____    ______ ____
ROOT
ATOM      1  N   UNL     1       1.147   0.061   0.210  0.00  0.00    -0.236 N 
ATOM      2  N   UNL     1      -0.461   1.568  -0.143  0.00  0.00    -0.239 NA
ATOM      3  N   UNL     1      -0.211  -1.928   0.526  0.00  0.00    -0.311 NA
ATOM      4  N   UNL     1      -2.590  -1.420   0.327  0.00  0.00    -0.289 NA
ATOM      5  N   UNL     1      -1.836  -3.594   0.769  0.00  0.00    -0.283 N 
ATOM      6  C   UNL     1      -0.036  -0.620   0.287  0.00  0.00    +0.223 C 
ATOM      7  C   UNL     1       0.838   1.372  -0.049  0.00  0.00    +0.224 C 
ATOM      8  C   UNL     1      -1.019   0.331   0.065  0.00  0.00    +0.190 C 
ATOM      9  C   UNL     1      -2.338  -0.110   0.090  0.00  0.00    +0.311 C 
ATOM     10  C   UNL     1      -1.526  -2.236   0.527  0.00  0.00    +0.200 C 
ATOM     11  H   UNL     1      -1.113  -4.244   0.923  0.00  0.00    +0.156 HD
ATOM     12  H   UNL     1      -2.775  -3.889   0.784  0.00  0.00    +0.156 HD
ENDROOT
BRANCH   1  15
ATOM     13  O4* UNL     1       3.344   0.492   1.000  0.00  0.00    -0.333 OA
ATOM     14  C2* UNL     1       3.151  -0.902  -0.945  0.00  0.00    +0.187 C 
ATOM     15  C1* UNL     1       2.493  -0.492   0.374  0.00  0.00    +0.226 C 
ATOM     16  C3* UNL     1       4.131   0.228  -1.197  0.00  0.00    +0.171 C 
ATOM     17  C4* UNL     1       4.538   0.623   0.211  0.00  0.00    +0.175 C 
BRANCH  14  18
ATOM     18  O2* UNL     1       3.830  -2.144  -0.764  0.00  0.00    -0.378 OA
ATOM     19  H2* UNL     1       3.181  -2.847  -0.605  0.00  0.00    +0.211 HD
ENDBRANCH  14  18
BRANCH  16  20
ATOM     20  O3* UNL     1       5.240  -0.154  -1.983  0.00  0.00    -0.379 OA
ATOM     21  H3* UNL     1       4.937  -0.398  -2.872  0.00  0.00    +0.211 HD
ENDBRANCH  16  20
BRANCH  17  22
ATOM     22  C5* UNL     1       5.067   2.043   0.313  0.00  0.00    +0.169 C 
BRANCH  22  23
ATOM     23  O5* UNL     1       5.404   2.306   1.664  0.00  0.00    -0.379 OA
ATOM     24  H5* UNL     1       5.743   3.212   1.742  0.00  0.00    +0.211 HD
ENDBRANCH  22  23
ENDBRANCH  17  22
ENDBRANCH   1  15
BRANCH   9  25
ATOM     25  O   UNL     1      -3.400   0.733  -0.114  0.00  0.00    -0.450 OA
BRANCH  25  26
ATOM     26  C   UNL     1      -4.697   0.152  -0.062  0.00  0.00    +0.208 C 
BRANCH  26  27
ATOM     27  C   UNL     1      -5.732   1.234  -0.331  0.00  0.00    +0.047 C 
BRANCH  27  28
ATOM     28  C   UNL     1      -7.153   0.681  -0.274  0.00  0.00    +0.004 C 
ATOM     29  C   UNL     1      -8.186   1.774  -0.500  0.00  0.00    +0.000 C 
ENDBRANCH  27  28
ENDBRANCH  26  27
ENDBRANCH  25  26
ENDBRANCH   9  25
TORSDOF 9
