REMARK  Name = 133960
REMARK  5 active torsions:
REMARK  status: ('A' for Active; 'I' for Inactive)
REMARK    1  A    between atoms: C_6  and  O_12
REMARK    2  A    between atoms: C_7  and  O_14
REMARK    3  A    between atoms: C_9  and  O_16
REMARK    4  A    between atoms: C_10  and  C_19
REMARK    5  A    between atoms: C_19  and  O_20
REMARK                            x       y       z     vdW  Elec       q    Type
REMARK                         _______ _______ _______ _____ _____    ______ ____
ROOT
ATOM      1  O   UNL     1      -0.558  -0.700   0.534  0.00  0.00    -0.323 OA
ATOM      2  O   UNL     1       1.222   1.590   0.370  0.00  0.00    -0.326 OA
ATOM      3  O   UNL     1      -1.648   1.419   0.547  0.00  0.00    -0.323 OA
ATOM      4  C   UNL     1       0.197  -0.383  -0.643  0.00  0.00    +0.177 C 
ATOM      5  C   UNL     1       0.405   1.131  -0.720  0.00  0.00    +0.177 C 
ATOM      6  C   UNL     1       1.544  -1.107  -0.571  0.00  0.00    +0.172 C 
ATOM      7  C   UNL     1       2.401  -0.527   0.553  0.00  0.00    +0.196 C 
ATOM      8  C   UNL     1      -0.935   1.850  -0.612  0.00  0.00    +0.177 C 
ATOM      9  C   UNL     1       2.520   0.992   0.407  0.00  0.00    +0.262 C 
ATOM     10  C   UNL     1      -1.789   0.006   0.625  0.00  0.00    +0.280 C 
ATOM     11  C   UNL     1      -2.362  -0.298   2.008  0.00  0.00    +0.074 C 
ENDROOT
BRANCH   6  12
ATOM     12  O   UNL     1       1.317  -2.497  -0.351  0.00  0.00    -0.379 OA
ATOM     13  H   UNL     1       0.773  -2.853  -1.071  0.00  0.00    +0.211 HD
ENDBRANCH   6  12
BRANCH   7  14
ATOM     14  O   UNL     1       3.691  -1.127   0.520  0.00  0.00    -0.378 OA
ATOM     15  H   UNL     1       3.604  -2.089   0.613  0.00  0.00    +0.211 HD
ENDBRANCH   7  14
BRANCH   9  16
ATOM     16  O   UNL     1       3.290   1.316  -0.749  0.00  0.00    -0.358 OA
ATOM     17  H   UNL     1       3.359   2.280  -0.832  0.00  0.00    +0.213 HD
ENDBRANCH   9  16
BRANCH  10  19
ATOM     18  O   UNL     1      -2.807  -1.629  -0.851  0.00  0.00    -0.245 OA
ATOM     19  C   UNL     1      -2.796  -0.502  -0.378  0.00  0.00    +0.366 C 
BRANCH  19  20
ATOM     20  O   UNL     1      -3.692   0.466  -0.690  0.00  0.00    -0.477 OA
ATOM     21  H   UNL     1      -3.626   1.311  -0.290  0.00  0.00    +0.295 HD
ENDBRANCH  19  20
ENDBRANCH  10  19
TORSDOF 5
