REMARK  Name = 133952
REMARK  7 active torsions:
REMARK  status: ('A' for Active; 'I' for Inactive)
REMARK    1  A    between atoms: C_1  and  C_2
REMARK    2  A    between atoms: C_1  and  O_11
REMARK    3  A    between atoms: C_1  and  CA_13
REMARK    4  A    between atoms: C_7  and  N_10
REMARK    5  A    between atoms: CA_13  and  N_15
REMARK    6  A    between atoms: CA_13  and  C_19
REMARK    7  A    between atoms: C_19  and  O_20
REMARK                            x       y       z     vdW  Elec       q    Type
REMARK                         _______ _______ _______ _____ _____    ______ ____
ROOT
ATOM      1  C   UNL     1      -0.142   0.494   0.948  0.00  0.00    +0.153 C 
ENDROOT
BRANCH   1   2
ATOM      2  C   UNL     1      -1.592   0.226   0.614  0.00  0.00    +0.006 C 
ATOM      3  C   UNL     1      -2.532   1.218   0.837  0.00  0.00    -0.000 C 
ATOM      4  C   UNL     1      -1.950  -1.006   0.093  0.00  0.00    -0.000 C 
ATOM      5  C   UNL     1      -3.870   0.971   0.529  0.00  0.00    +0.024 C 
ATOM      6  C   UNL     1      -3.288  -1.253  -0.215  0.00  0.00    +0.024 C 
ATOM      7  C   UNL     1      -4.248  -0.265   0.003  0.00  0.00    +0.143 C 
BRANCH   7  10
ATOM      8  O   UNL     1      -6.457   0.387  -0.106  0.00  0.00    -0.126 OA
ATOM      9  O   UNL     1      -5.929  -1.634  -0.782  0.00  0.00    -0.126 OA
ATOM     10  N   UNL     1      -5.610  -0.516  -0.310  0.00  0.00    +0.058 N 
ENDBRANCH   7  10
ENDBRANCH   1   2
BRANCH   1  11
ATOM     11  O   UNL     1       0.215  -0.396   2.011  0.00  0.00    -0.378 OA
ATOM     12  H   UNL     1       1.144  -0.253   2.254  0.00  0.00    +0.211 HD
ENDBRANCH   1  11
BRANCH   1  13
ATOM     13  CA  UNL     1       0.822   0.286  -0.240  0.00  0.00    +0.132 C 
BRANCH  13  15
ATOM     14  O   UNL     1       3.132  -1.077  -1.269  0.00  0.00    -0.275 OA
ATOM     15  N   UNL     1       2.192   0.442   0.212  0.00  0.00    -0.301 N 
ATOM     16  C   UNL     1       3.238  -0.265  -0.353  0.00  0.00    +0.223 C 
ATOM     17  C   UNL     1       4.555   0.091   0.296  0.00  0.00    +0.095 C 
ATOM     18  H   UNL     1       2.383   1.072   0.944  0.00  0.00    +0.150 HD
ENDBRANCH  13  15
BRANCH  13  19
ATOM     19  C   UNL     1       0.568   1.224  -1.426  0.00  0.00    +0.159 C 
BRANCH  19  20
ATOM     20  O   UNL     1       0.694   2.590  -1.050  0.00  0.00    -0.380 OA
ATOM     21  H   UNL     1       0.528   3.154  -1.822  0.00  0.00    +0.211 HD
ENDBRANCH  19  20
ENDBRANCH  13  19
ENDBRANCH   1  13
TORSDOF 7
REMARK  Name = 133952
REMARK  7 active torsions:
REMARK  status: ('A' for Active; 'I' for Inactive)
REMARK    1  A    between atoms: C_1  and  C_2
REMARK    2  A    between atoms: C_1  and  O_11
REMARK    3  A    between atoms: C_1  and  CA_13
REMARK    4  A    between atoms: C_7  and  N_10
REMARK    5  A    between atoms: CA_13  and  N_15
REMARK    6  A    between atoms: CA_13  and  C_19
REMARK    7  A    between atoms: C_19  and  O_20
REMARK                            x       y       z     vdW  Elec       q    Type
REMARK                         _______ _______ _______ _____ _____    ______ ____
ROOT
ATOM      1  N   UNL     1       6.765  -0.499   0.082  0.00  0.00    +0.000 NA
ATOM      2  N   UNL     1       7.823  -0.334   0.475  0.00  0.00    +0.000 NA
ENDROOT
TORSDOF 0
