REMARK  Name = 133997
REMARK  6 active torsions:
REMARK  status: ('A' for Active; 'I' for Inactive)
REMARK    1  A    between atoms: C_5  and  C_18
REMARK    2  A    between atoms: C_10  and  O_30
REMARK    3  A    between atoms: C_12  and  O_32
REMARK    4  A    between atoms: C_21  and  O_24
REMARK    5  A    between atoms: C_22  and  O_26
REMARK    6  A    between atoms: C_23  and  O_28
REMARK                            x       y       z     vdW  Elec       q    Type
REMARK                         _______ _______ _______ _____ _____    ______ ____
ROOT
ATOM      1  O   UNL     1       0.044  -4.280   0.286  0.00  0.00    -0.440 OA
ATOM      2  O   UNL     1      -4.467   2.664  -0.344  0.00  0.00    -0.431 OA
ATOM      3  O   UNL     1      -2.271   3.652  -0.385  0.00  0.00    -0.435 OA
ATOM      4  O   UNL     1       1.939  -2.974   0.216  0.00  0.00    -0.245 OA
ATOM      5  C   UNL     1      -0.082  -0.685  -0.002  0.00  0.00    +0.007 A 
ATOM      6  C   UNL     1      -1.216   0.137  -0.087  0.00  0.00    +0.009 A 
ATOM      7  C   UNL     1      -0.274  -2.050   0.103  0.00  0.00    +0.078 A 
ATOM      8  C   UNL     1      -2.527  -0.454  -0.063  0.00  0.00    +0.071 A 
ATOM      9  C   UNL     1      -1.523  -2.629   0.128  0.00  0.00    +0.061 A 
ATOM     10  C   UNL     1      -2.662  -1.849   0.046  0.00  0.00    +0.136 A 
ATOM     11  C   UNL     1      -1.393  -4.093   0.247  0.00  0.00    +0.239 C 
ATOM     12  C   UNL     1      -3.662   0.369  -0.148  0.00  0.00    +0.178 C 
ATOM     13  C   UNL     1      -1.081   1.531  -0.196  0.00  0.00    +0.040 C 
ATOM     14  C   UNL     1      -3.479   1.733  -0.253  0.00  0.00    +0.210 C 
ATOM     15  C   UNL     1      -2.227   2.296  -0.276  0.00  0.00    +0.179 C 
ATOM     16  C   UNL     1       0.731  -3.097   0.204  0.00  0.00    +0.341 C 
ATOM     17  C   UNL     1      -3.694   3.879  -0.427  0.00  0.00    +0.429 C 
ENDROOT
BRANCH   5  18
ATOM     18  C   UNL     1       1.266  -0.143  -0.021  0.00  0.00    +0.006 C 
ATOM     19  C   UNL     1       1.886   0.210   1.174  0.00  0.00    +0.040 C 
ATOM     20  C   UNL     1       1.929   0.018  -1.234  0.00  0.00    +0.040 C 
ATOM     21  C   UNL     1       3.224   0.538  -1.252  0.00  0.00    +0.175 C 
ATOM     22  C   UNL     1       3.180   0.730   1.156  0.00  0.00    +0.175 C 
ATOM     23  C   UNL     1       3.849   0.893  -0.058  0.00  0.00    +0.206 C 
BRANCH  21  24
ATOM     24  O   UNL     1       3.866   0.693  -2.444  0.00  0.00    -0.468 OA
ATOM     25  C   UNL     1       4.644  -0.408  -2.909  0.00  0.00    +0.253 C 
ENDBRANCH  21  24
BRANCH  22  26
ATOM     26  O   UNL     1       3.779   1.076   2.329  0.00  0.00    -0.468 OA
ATOM     27  C   UNL     1       3.589   2.414   2.784  0.00  0.00    +0.253 C 
ENDBRANCH  22  26
BRANCH  23  28
ATOM     28  O   UNL     1       5.115   1.400  -0.075  0.00  0.00    -0.465 OA
ATOM     29  C   UNL     1       6.113   0.673   0.638  0.00  0.00    +0.253 C 
ENDBRANCH  23  28
ENDBRANCH   5  18
BRANCH  10  30
ATOM     30  O   UNL     1      -3.869  -2.481   0.076  0.00  0.00    -0.506 OA
ATOM     31  H   UNL     1      -4.661  -1.981   0.022  0.00  0.00    +0.292 HD
ENDBRANCH  10  30
BRANCH  12  32
ATOM     32  O   UNL     1      -4.937  -0.107  -0.132  0.00  0.00    -0.468 OA
ATOM     33  C   UNL     1      -5.787   0.345   0.921  0.00  0.00    +0.253 C 
ENDBRANCH  12  32
TORSDOF 6
