REMARK  Name = 13391465
REMARK  6 active torsions:
REMARK  status: ('A' for Active; 'I' for Inactive)
REMARK    1  A    between atoms: C1*_2  and  N1_7
REMARK    2  A    between atoms: C2*_3  and  O2*_16
REMARK    3  A    between atoms: C3*_4  and  O3*_18
REMARK    4  A    between atoms: C4*_5  and  C5*_20
REMARK    5  A    between atoms: C4_12  and  O4_14
REMARK    6  A    between atoms: C5*_20  and  O5*_21
REMARK                            x       y       z     vdW  Elec       q    Type
REMARK                         _______ _______ _______ _____ _____    ______ ____
ROOT
ATOM      1  O4* U   A   1      -1.227  -0.310   1.298  0.00  0.00    -0.333 OA
ATOM      2  C1* U   A   1      -0.467   0.654   0.550  0.00  0.00    +0.225 C 
ATOM      3  C2* U   A   1      -1.171   0.818  -0.785  0.00  0.00    +0.187 C 
ATOM      4  C3* U   A   1      -2.616   0.560  -0.413  0.00  0.00    +0.171 C 
ATOM      5  C4* U   A   1      -2.485  -0.545   0.627  0.00  0.00    +0.175 C 
ENDROOT
BRANCH   2   7
ATOM      6  O2  U   A   1       1.821   2.300   0.498  0.00  0.00    -0.252 OA
ATOM      7  N1  U   A   1       0.878   0.176   0.406  0.00  0.00    -0.240 N 
ATOM      8  N3  U   A   1       3.204   0.526   0.154  0.00  0.00    -0.267 N 
ATOM      9  C6  U   A   1       1.038  -1.258   0.163  0.00  0.00    +0.102 C 
ATOM     10  C5  U   A   1       2.422  -1.749   0.557  0.00  0.00    +0.072 C 
ATOM     11  C2  U   A   1       1.948   1.081   0.357  0.00  0.00    +0.307 C 
ATOM     12  C4  U   A   1       3.463  -0.874  -0.112  0.00  0.00    +0.190 C 
ATOM     13  H3  U   A   1       3.979   1.131   0.194  0.00  0.00    +0.153 HD
BRANCH  12  14
ATOM     14  O4  U   A   1       3.446  -1.083  -1.517  0.00  0.00    -0.367 OA
ATOM     15  H4  U   A   1       4.115  -0.519  -1.936  0.00  0.00    +0.212 HD
ENDBRANCH  12  14
ENDBRANCH   2   7
BRANCH   3  16
ATOM     16  O2* U   A   1      -0.983   2.101  -1.345  0.00  0.00    -0.378 OA
ATOM     17  H2* U   A   1      -0.047   2.223  -1.568  0.00  0.00    +0.211 HD
ENDBRANCH   3  16
BRANCH   4  18
ATOM     18  O3* U   A   1      -3.174   1.705   0.230  0.00  0.00    -0.379 OA
ATOM     19  H3* U   A   1      -3.267   2.424  -0.414  0.00  0.00    +0.211 HD
ENDBRANCH   4  18
BRANCH   5  20
ATOM     20  C5* U   A   1      -2.445  -1.941   0.021  0.00  0.00    +0.169 C 
BRANCH  20  21
ATOM     21  O5* U   A   1      -3.651  -2.162  -0.688  0.00  0.00    -0.379 OA
ATOM     22  H5* U   A   1      -3.639  -3.049  -1.080  0.00  0.00    +0.211 HD
ENDBRANCH  20  21
ENDBRANCH   5  20
TORSDOF 6
