REMARK  Name = 134089
REMARK  3 active torsions:
REMARK  status: ('A' for Active; 'I' for Inactive)
REMARK    1  A    between atoms: C_18  and  N_25
REMARK    2  A    between atoms: C_22  and  O_29
REMARK    3  A    between atoms: C_23  and  O_31
REMARK                            x       y       z     vdW  Elec       q    Type
REMARK                         _______ _______ _______ _____ _____    ______ ____
ROOT
ATOM      1  O   UNL     1       0.284  -0.001   1.944  0.00  0.00    -0.440 OA
ATOM      2  O   UNL     1       3.237   0.001  -0.865  0.00  0.00    -0.454 OA
ATOM      3  O   UNL     1      -1.665  -0.003   3.192  0.00  0.00    -0.245 OA
ATOM      4  C   UNL     1       0.672   0.000   0.534  0.00  0.00    +0.198 C 
ATOM      5  C   UNL     1      -0.659  -0.001  -0.145  0.00  0.00    +0.028 C 
ATOM      6  C   UNL     1       1.472   1.259   0.264  0.00  0.00    +0.056 C 
ATOM      7  C   UNL     1       1.474  -1.258   0.264  0.00  0.00    +0.056 C 
ATOM      8  C   UNL     1      -1.668  -0.001   0.802  0.00  0.00    +0.077 C 
ATOM      9  C   UNL     1       2.686   1.182  -0.428  0.00  0.00    +0.148 C 
ATOM     10  C   UNL     1       2.687  -1.180  -0.429  0.00  0.00    +0.148 C 
ATOM     11  C   UNL     1      -1.075  -0.001   2.131  0.00  0.00    +0.342 C 
ATOM     12  C   UNL     1      -0.972   0.000  -1.495  0.00  0.00    +0.001 C 
ATOM     13  C   UNL     1       1.014   2.526   0.666  0.00  0.00    +0.006 C 
ATOM     14  C   UNL     1       1.016  -2.526   0.665  0.00  0.00    +0.006 C 
ATOM     15  C   UNL     1      -3.009  -0.002   0.466  0.00  0.00    +0.021 C 
ATOM     16  C   UNL     1       3.417   2.337  -0.722  0.00  0.00    +0.074 C 
ATOM     17  C   UNL     1       3.421  -2.334  -0.722  0.00  0.00    +0.074 C 
ATOM     18  C   UNL     1      -3.331  -0.001  -0.891  0.00  0.00    +0.050 C 
ATOM     19  C   UNL     1      -2.320  -0.001  -1.866  0.00  0.00    +0.014 C 
ATOM     20  C   UNL     1       1.747   3.679   0.380  0.00  0.00    +0.037 C 
ATOM     21  C   UNL     1       1.751  -3.678   0.378  0.00  0.00    +0.037 C 
ATOM     22  C   UNL     1       2.948   3.584  -0.316  0.00  0.00    +0.137 C 
ATOM     23  C   UNL     1       2.953  -3.582  -0.317  0.00  0.00    +0.137 C 
ENDROOT
BRANCH  18  25
ATOM     24  O   UNL     1      -5.853   0.001   0.754  0.00  0.00    -0.275 OA
ATOM     25  N   UNL     1      -4.670  -0.001  -1.285  0.00  0.00    -0.284 N 
ATOM     26  C   UNL     1      -5.811  -0.002  -0.472  0.00  0.00    +0.227 C 
ATOM     27  C   UNL     1      -7.079  -0.001  -1.288  0.00  0.00    +0.095 C 
ATOM     28  H   UNL     1      -4.833   0.000  -2.256  0.00  0.00    +0.155 HD
ENDBRANCH  18  25
BRANCH  22  29
ATOM     29  O   UNL     1       3.663   4.707  -0.599  0.00  0.00    -0.505 OA
ATOM     30  H   UNL     1       4.471   4.642  -1.068  0.00  0.00    +0.292 HD
ENDBRANCH  22  29
BRANCH  23  31
ATOM     31  O   UNL     1       3.668  -4.704  -0.600  0.00  0.00    -0.505 OA
ATOM     32  H   UNL     1       4.477  -4.638  -1.068  0.00  0.00    +0.292 HD
ENDBRANCH  23  31
TORSDOF 3
