REMARK  Name = 134090
REMARK  8 active torsions:
REMARK  status: ('A' for Active; 'I' for Inactive)
REMARK    1  A    between atoms: CA_1  and  N_3
REMARK    2  A    between atoms: CA_1  and  C_15
REMARK    3  A    between atoms: CA_1  and  CB_23
REMARK    4  A    between atoms: C_4  and  CA_8
REMARK    5  A    between atoms: N_14  and  CA_17
REMARK    6  A    between atoms: CA_17  and  C_20
REMARK    7  A    between atoms: C_20  and  O_21
REMARK    8  A    between atoms: CB_23  and  CG_26
REMARK                            x       y       z     vdW  Elec       q    Type
REMARK                         _______ _______ _______ _____ _____    ______ ____
ROOT
ATOM      1  CA  UNL     1       0.241  -1.062  -0.151  0.00  0.00    +0.154 C 
ENDROOT
BRANCH   1   3
ATOM      2  O   UNL     1      -2.021  -0.149   1.422  0.00  0.00    -0.273 OA
ATOM      3  N   UNL     1      -1.151  -1.376  -0.355  0.00  0.00    -0.297 N 
ATOM      4  C   ACE A   1      -2.167  -0.890   0.454  0.00  0.00    +0.241 C 
ATOM      5  H   UNL     1      -1.392  -1.966  -1.106  0.00  0.00    +0.150 HD
BRANCH   4   8
ATOM      6  O   UNL     1      -5.944   1.045   0.946  0.00  0.00    -0.275 OA
ATOM      7  N   UNL     1      -4.470  -0.774   0.915  0.00  0.00    -0.298 N 
ATOM      8  CA  UNL     1      -3.518  -1.349   0.007  0.00  0.00    +0.149 C 
ATOM      9  C   UNL     1      -3.915  -0.779  -1.342  0.00  0.00    +0.039 C 
ATOM     10  C   UNL     1      -4.586   0.553  -1.007  0.00  0.00    +0.087 C 
ATOM     11  C   UNL     1      -5.120   0.337   0.388  0.00  0.00    +0.223 C 
ATOM     12  H   UNL     1      -4.645  -1.129   1.816  0.00  0.00    +0.150 HD
ENDBRANCH   4   8
ENDBRANCH   1   3
BRANCH   1  15
ATOM     13  O   UNL     1      -0.013   0.547  -1.946  0.00  0.00    -0.273 OA
ATOM     14  N   UNL     1       1.418   1.048  -0.186  0.00  0.00    -0.295 N 
ATOM     15  C   UNL     1       0.527   0.244  -0.884  0.00  0.00    +0.241 C 
ATOM     16  H   UNL     1       1.794   0.708   0.657  0.00  0.00    +0.150 HD
BRANCH  14  17
ATOM     17  CA  UNL     1       1.820   2.361  -0.638  0.00  0.00    +0.171 C 
ATOM     18  CB  UNL     1       3.049   2.260  -1.528  0.00  0.00    +0.033 C 
BRANCH  17  20
ATOM     19  OXT UNL     1       2.377   4.484   0.374  0.00  0.00    -0.248 OA
ATOM     20  C   UNL     1       2.086   3.303   0.525  0.00  0.00    +0.332 C 
BRANCH  20  21
ATOM     21  O   UNL     1       1.988   2.732   1.750  0.00  0.00    -0.479 OA
ATOM     22  H   UNL     1       1.763   1.826   1.828  0.00  0.00    +0.295 HD
ENDBRANCH  20  21
ENDBRANCH  17  20
ENDBRANCH  14  17
ENDBRANCH   1  15
BRANCH   1  23
ATOM     23  CB  UNL     1       1.163  -2.175  -0.664  0.00  0.00    +0.071 C 
BRANCH  23  26
ATOM     24  ND1 UNL     1       3.682  -2.014  -0.772  0.00  0.00    -0.319 N 
ATOM     25  NE2 UNL     1       4.327  -2.076   1.352  0.00  0.00    -0.315 N 
ATOM     26  CG  UNL     1       2.536  -2.120  -0.036  0.00  0.00    +0.040 C 
ATOM     27  CD2 UNL     1       2.959  -2.157   1.272  0.00  0.00    +0.069 C 
ATOM     28  CE1 UNL     1       4.731  -1.991   0.104  0.00  0.00    +0.182 C 
ATOM     29  HD1 UNL     1       3.742  -1.964  -1.753  0.00  0.00    +0.148 HD
ATOM     30  HE2 UNL     1       4.882  -2.080   2.165  0.00  0.00    +0.148 HD
ENDBRANCH  23  26
ENDBRANCH   1  23
TORSDOF 8
