134005
  -OEChem-03292013323D

 33 34  0     1  0  0  0  0  0999 V2000
    1.1118    1.1627   -0.6012 O   0  0  0  0  0  0  0  0  0  0  0  0
    3.3452   -0.8962    1.2997 O   0  0  0  0  0  0  0  0  0  0  0  0
    1.8109   -3.3051    0.7117 O   0  0  0  0  0  0  0  0  0  0  0  0
    3.1184    3.1374   -0.4566 O   0  0  0  0  0  0  0  0  0  0  0  0
   -1.7962   -1.4974   -1.7081 O   0  0  0  0  0  0  0  0  0  0  0  0
   -0.9587    0.1177   -0.2883 N   0  0  0  0  0  0  0  0  0  0  0  0
   -3.3159   -0.3766   -0.4488 N   0  0  0  0  0  0  0  0  0  0  0  0
   -4.8681    0.7766    0.8430 N   0  0  0  0  0  0  0  0  0  0  0  0
    1.1416   -1.0553    0.2654 C   0  0  1  0  0  0  0  0  0  0  0  0
    2.5621   -0.5274    0.1823 C   0  0  1  0  0  0  0  0  0  0  0  0
    0.4107   -0.0912   -0.6639 C   0  0  2  0  0  0  0  0  0  0  0  0
    2.3164    0.9730    0.1584 C   0  0  1  0  0  0  0  0  0  0  0  0
    1.0002   -2.5143   -0.1407 C   0  0  0  0  0  0  0  0  0  0  0  0
    3.4508    1.7588   -0.4744 C   0  0  0  0  0  0  0  0  0  0  0  0
   -1.2491    1.0846    0.6624 C   0  0  0  0  0  0  0  0  0  0  0  0
   -2.0186   -0.6320   -0.8595 C   0  0  0  0  0  0  0  0  0  0  0  0
   -2.4896    1.3459    1.0698 C   0  0  0  0  0  0  0  0  0  0  0  0
   -3.5718    0.5385    0.4490 C   0  0  0  0  0  0  0  0  0  0  0  0
    0.7984   -0.9559    1.3054 H   0  0  0  0  0  0  0  0  0  0  0  0
    3.0594   -0.8643   -0.7356 H   0  0  0  0  0  0  0  0  0  0  0  0
    0.4591   -0.4323   -1.7051 H   0  0  0  0  0  0  0  0  0  0  0  0
    2.1288    1.3623    1.1675 H   0  0  0  0  0  0  0  0  0  0  0  0
    1.3231   -2.6756   -1.1745 H   0  0  0  0  0  0  0  0  0  0  0  0
   -0.0366   -2.8486   -0.0396 H   0  0  0  0  0  0  0  0  0  0  0  0
    3.6074    1.4687   -1.5185 H   0  0  0  0  0  0  0  0  0  0  0  0
    4.3863    1.6205    0.0751 H   0  0  0  0  0  0  0  0  0  0  0  0
    3.3959   -1.8670    1.3141 H   0  0  0  0  0  0  0  0  0  0  0  0
   -0.4241    1.6317    1.1031 H   0  0  0  0  0  0  0  0  0  0  0  0
    1.7019   -4.2303    0.4333 H   0  0  0  0  0  0  0  0  0  0  0  0
    2.2819    3.2438   -0.9411 H   0  0  0  0  0  0  0  0  0  0  0  0
   -2.7219    2.0923    1.8177 H   0  0  0  0  0  0  0  0  0  0  0  0
   -5.0988    1.4803    1.5367 H   0  0  0  0  0  0  0  0  0  0  0  0
   -5.6382    0.2496    0.4453 H   0  0  0  0  0  0  0  0  0  0  0  0
  1 11  1  0  0  0  0
  1 12  1  0  0  0  0
  2 10  1  0  0  0  0
  2 27  1  0  0  0  0
  3 13  1  0  0  0  0
  3 29  1  0  0  0  0
  4 14  1  0  0  0  0
  4 30  1  0  0  0  0
  5 16  2  0  0  0  0
  6 11  1  0  0  0  0
  6 15  1  0  0  0  0
  6 16  1  0  0  0  0
  7 16  1  0  0  0  0
  7 18  2  0  0  0  0
  8 18  1  0  0  0  0
  8 32  1  0  0  0  0
  8 33  1  0  0  0  0
  9 10  1  0  0  0  0
  9 11  1  0  0  0  0
  9 13  1  0  0  0  0
  9 19  1  0  0  0  0
 10 12  1  0  0  0  0
 10 20  1  0  0  0  0
 11 21  1  0  0  0  0
 12 14  1  0  0  0  0
 12 22  1  0  0  0  0
 13 23  1  0  0  0  0
 13 24  1  0  0  0  0
 14 25  1  0  0  0  0
 14 26  1  0  0  0  0
 15 17  2  0  0  0  0
 15 28  1  0  0  0  0
 17 18  1  0  0  0  0
 17 31  1  0  0  0  0
M  END
> <PUBCHEM_COMPOUND_CID>
134005

> <PUBCHEM_CONFORMER_RMSD>
0.6

> <PUBCHEM_CONFORMER_DIVERSEORDER>
1
14
23
22
3
33
30
17
29
8
31
13
4
27
11
28
32
6
24
5
18
9
21
12
20
16
2
15
10
7
19
26
25

> <PUBCHEM_MMFF94_PARTIAL_CHARGES>
24
1 -0.56
10 0.28
11 0.58
12 0.28
13 0.28
14 0.28
15 -0.04
16 0.84
17 -0.14
18 0.49
2 -0.68
27 0.4
28 0.15
29 0.4
3 -0.68
30 0.4
31 0.15
32 0.4
33 0.4
4 -0.68
5 -0.57
6 -0.47
7 -0.66
8 -0.85

> <PUBCHEM_EFFECTIVE_ROTOR_COUNT>
4

> <PUBCHEM_PHARMACOPHORE_FEATURES>
12
1 1 acceptor
1 2 acceptor
1 2 donor
1 3 acceptor
1 3 donor
1 4 acceptor
1 4 donor
1 5 acceptor
1 7 donor
1 8 donor
5 1 9 10 11 12 rings
6 6 7 15 16 17 18 rings

> <PUBCHEM_HEAVY_ATOM_COUNT>
18

> <PUBCHEM_ATOM_DEF_STEREO_COUNT>
3

> <PUBCHEM_ATOM_UDEF_STEREO_COUNT>
1

> <PUBCHEM_BOND_DEF_STEREO_COUNT>
0

> <PUBCHEM_BOND_UDEF_STEREO_COUNT>
0

> <PUBCHEM_ISOTOPIC_ATOM_COUNT>
0

> <PUBCHEM_COMPONENT_COUNT>
1

> <PUBCHEM_CACTVS_TAUTO_COUNT>
3

> <PUBCHEM_CONFORMER_ID>
00020B7500000001

> <PUBCHEM_MMFF94_ENERGY>
51.3419

> <PUBCHEM_FEATURE_SELFOVERLAP>
60.952

> <PUBCHEM_SHAPE_FINGERPRINT>
12202030 40 16444197395843588883
12251169 10 18270115708467656091
12553582 1 18119801427012258698
12644460 14 18336279945818549001
12788726 201 17691399037830851638
13140716 1 18335136544299991162
13538477 17 18131346431957164533
13965767 371 17268089946859119905
14787075 74 17836367421033145575
15279307 12 18343865528168042223
15309172 13 18188770672980510620
15342168 16 17970357120281618964
15375462 189 18272930518791559987
15490181 8 18411699932820411958
15669948 3 17846494893750395077
15775835 57 18272094928129399985
16945 1 18336540513095000518
1813 80 18120941607901521574
18186145 218 18410571825147177868
201361 129 18412270518819191840
204376 136 18189622815967055260
20510252 161 17907583884227746778
20559304 39 18341335470318564040
20645477 70 18114165420296247479
21524375 3 18271813466359312172
22445834 79 18268709420295341691
2255824 54 18409733932957222294
22854114 111 18410857654893633265
23419403 2 13269075056465806506
23557571 272 15697422464069377139
23558518 356 17621878016722563904
23566358 27 18411707564550165718
23598291 2 18344142592123506973
283562 15 16963512509468518472
31174 14 18115307756847739843
4340502 62 18041287642740603115
458136 41 18261402164954273622
474 4 18408887368843304608
633830 44 18342463689666132412
7097593 13 18198054777208763611
7364860 26 18270688558415672830
77492 1 18271517680234774493
8272917 22 18337118869196287321
9981440 41 17267773696339451640
9999458 23 18337122193537781214

> <PUBCHEM_SHAPE_MULTIPOLES>
326.14
6.78
2.72
1.09
4.27
0.77
-0.07
-2.92
1.23
-2.96
0.04
0.25
0.21
-1.59

> <PUBCHEM_SHAPE_SELFOVERLAP>
682.372

> <PUBCHEM_SHAPE_VOLUME>
183.9

> <PUBCHEM_COORDINATE_TYPE>
2
5
10

$$$$
