REMARK  Name = 134096
REMARK  5 active torsions:
REMARK  status: ('A' for Active; 'I' for Inactive)
REMARK    1  A    between atoms: C_7  and  C_16
REMARK    2  A    between atoms: C_8  and  O_24
REMARK    3  A    between atoms: O_24  and  P_25
REMARK    4  A    between atoms: P_25  and  O_27
REMARK    5  A    between atoms: P_25  and  O_29
REMARK                            x       y       z     vdW  Elec       q    Type
REMARK                         _______ _______ _______ _____ _____    ______ ____
ROOT
ATOM      1  S   UNL     1      -1.477   2.115  -0.765  0.00  0.00    +0.077 S 
ATOM      2  O   UNL     1      -1.795   3.520  -0.599  0.00  0.00    -0.150 OA
ATOM      3  O   UNL     1      -1.130   1.573  -2.065  0.00  0.00    -0.150 OA
ATOM      4  N   UNL     1      -0.288   1.655   0.400  0.00  0.00    -0.181 N 
ATOM      5  C   UNL     1      -2.848   1.176  -0.193  0.00  0.00    +0.128 C 
ATOM      6  C   UNL     1      -2.581  -0.069   0.389  0.00  0.00    +0.055 C 
ATOM      7  C   UNL     1      -0.112   0.228   0.505  0.00  0.00    +0.157 C 
ATOM      8  C   UNL     1      -1.193  -0.578   0.500  0.00  0.00    +0.169 C 
ATOM      9  C   UNL     1      -4.138   1.691  -0.311  0.00  0.00    +0.020 C 
ATOM     10  C   UNL     1      -0.315   2.378   1.705  0.00  0.00    +0.139 C 
ATOM     11  C   UNL     1      -3.678  -0.813   0.847  0.00  0.00    +0.004 C 
ATOM     12  C   UNL     1      -5.209   0.935   0.155  0.00  0.00    +0.001 C 
ATOM     13  C   UNL     1      -4.981  -0.314   0.732  0.00  0.00    +0.000 C 
ENDROOT
BRANCH   7  16
ATOM     14  O   UNL     1       1.513  -1.218   1.350  0.00  0.00    -0.268 OA
ATOM     15  N   UNL     1       2.173   0.606   0.014  0.00  0.00    -0.265 N 
ATOM     16  C   UNL     1       1.274  -0.218   0.676  0.00  0.00    +0.269 C 
ATOM     17  H   UNL     1       1.786   1.366  -0.477  0.00  0.00    +0.157 HD
ATOM     18  N   UNL     1       4.271   1.394  -0.742  0.00  0.00    -0.229 NA
ATOM     19  C   UNL     1       3.583   0.480  -0.037  0.00  0.00    +0.134 C 
ATOM     20  C   UNL     1       4.138  -0.581   0.645  0.00  0.00    +0.034 C 
ATOM     21  C   UNL     1       5.521  -0.715   0.601  0.00  0.00    +0.004 C 
ATOM     22  C   UNL     1       5.613   1.232  -0.763  0.00  0.00    +0.100 C 
ATOM     23  C   UNL     1       6.280   0.205  -0.115  0.00  0.00    +0.021 C 
ENDBRANCH   7  16
BRANCH   8  24
ATOM     24  O   UNL     1      -1.122  -1.954   0.617  0.00  0.00    -0.401 OA
BRANCH  24  25
ATOM     25  P   UNL     1      -1.009  -2.914  -0.656  0.00  0.00    +0.528 P 
ATOM     26  O   UNL     1      -2.133  -2.846  -1.648  0.00  0.00    -0.216 OA
BRANCH  25  27
ATOM     27  O   UNL     1      -0.809  -4.367   0.026  0.00  0.00    -0.293 OA
ATOM     28  H   UNL     1      -0.068  -4.332   0.652  0.00  0.00    +0.223 HD
ENDBRANCH  25  27
BRANCH  25  29
ATOM     29  O   UNL     1       0.455  -2.602  -1.270  0.00  0.00    -0.293 OA
ATOM     30  H   UNL     1       1.121  -2.667  -0.567  0.00  0.00    +0.223 HD
ENDBRANCH  25  29
ENDBRANCH  24  25
ENDBRANCH   8  24
TORSDOF 5
