REMARK  Name = 134063731
REMARK  9 active torsions:
REMARK  status: ('A' for Active; 'I' for Inactive)
REMARK    1  A    between atoms: C_1  and  O_23
REMARK    2  A    between atoms: C_3  and  O_25
REMARK    3  A    between atoms: C_5  and  O_31
REMARK    4  A    between atoms: C_6  and  C_21
REMARK    5  A    between atoms: C_6  and  O_27
REMARK    6  A    between atoms: C_19  and  O_29
REMARK    7  A    between atoms: O_31  and  C_33
REMARK    8  A    between atoms: C_33  and  C_34
REMARK    9  A    between atoms: C_35  and  C_37
REMARK                            x       y       z     vdW  Elec       q    Type
REMARK                         _______ _______ _______ _____ _____    ______ ____
ROOT
ATOM      1  C   UNL     1       0.980  -2.295   0.009  0.00  0.00    +0.117 C 
ATOM      2  C   UNL     1      -0.437  -1.785  -0.424  0.00  0.00    +0.090 C 
ATOM      3  C   UNL     1       2.167  -1.359  -0.388  0.00  0.00    +0.115 C 
ATOM      4  C   UNL     1       1.926   0.119   0.017  0.00  0.00    +0.034 C 
ATOM      5  C   UNL     1      -0.597  -0.284  -0.020  0.00  0.00    +0.174 C 
ATOM      6  C   UNL     1      -1.369  -2.708   0.430  0.00  0.00    +0.144 C 
ATOM      7  C   UNL     1       3.118   1.098  -0.366  0.00  0.00    +0.017 C 
ATOM      8  C   UNL     1       0.558   0.600  -0.501  0.00  0.00    +0.047 C 
ATOM      9  C   UNL     1       0.822  -2.518   1.530  0.00  0.00    +0.032 C 
ATOM     10  C   UNL     1      -0.652  -2.874   1.775  0.00  0.00    +0.037 C 
ATOM     11  C   UNL     1       3.505  -1.867   0.193  0.00  0.00    +0.055 C 
ATOM     12  C   UNL     1      -0.762  -1.983  -1.924  0.00  0.00    +0.009 C 
ATOM     13  C   UNL     1       4.479   0.435  -0.134  0.00  0.00    -0.047 C 
ATOM     14  C   UNL     1       3.022   2.351   0.563  0.00  0.00    +0.006 C 
ATOM     15  C   UNL     1       4.623  -0.876   0.120  0.00  0.00    -0.032 C 
ATOM     16  C   UNL     1       3.049   1.571  -1.840  0.00  0.00    +0.004 C 
ATOM     17  C   UNL     1       5.694   1.334  -0.163  0.00  0.00    +0.051 C 
ATOM     18  C   UNL     1       4.234   3.281   0.499  0.00  0.00    +0.030 C 
ATOM     19  C   UNL     1       5.531   2.525   0.777  0.00  0.00    +0.115 C 
ENDROOT
BRANCH   6  21
ATOM     20  O   UNL     1      -3.091  -1.493   1.549  0.00  0.00    -0.294 OA
ATOM     21  C   UNL     1      -2.773  -2.214   0.604  0.00  0.00    +0.175 C 
ATOM     22  C   UNL     1      -3.775  -2.643  -0.433  0.00  0.00    +0.075 C 
ENDBRANCH   6  21
BRANCH   1  23
ATOM     23  O   UNL     1       1.233  -3.598  -0.540  0.00  0.00    -0.384 OA
ATOM     24  H   UNL     1       1.343  -3.528  -1.502  0.00  0.00    +0.210 HD
ENDBRANCH   1  23
BRANCH   3  25
ATOM     25  O   UNL     1       2.344  -1.466  -1.811  0.00  0.00    -0.384 OA
ATOM     26  H   UNL     1       1.540  -1.163  -2.260  0.00  0.00    +0.210 HD
ENDBRANCH   3  25
BRANCH   6  27
ATOM     27  O   UNL     1      -1.552  -3.994  -0.161  0.00  0.00    -0.380 OA
ATOM     28  H   UNL     1      -0.687  -4.404  -0.316  0.00  0.00    +0.211 HD
ENDBRANCH   6  27
BRANCH  19  29
ATOM     29  O   UNL     1       6.639   3.401   0.596  0.00  0.00    -0.384 OA
ATOM     30  H   UNL     1       7.463   2.920   0.773  0.00  0.00    +0.210 HD
ENDBRANCH  19  29
BRANCH   5  31
ATOM     31  O   UNL     1      -1.811   0.248  -0.554  0.00  0.00    -0.449 OA
BRANCH  31  33
ATOM     32  O   UNL     1      -1.982   1.700   1.233  0.00  0.00    -0.245 OA
ATOM     33  C   UNL     1      -2.393   1.236   0.182  0.00  0.00    +0.341 C 
BRANCH  33  34
ATOM     34  C   UNL     1      -3.637   1.637  -0.518  0.00  0.00    +0.073 C 
ATOM     35  C   UNL     1      -4.753   2.097   0.080  0.00  0.00    -0.038 C 
ATOM     36  C   UNL     1      -4.912   2.279   1.568  0.00  0.00    +0.027 C 
BRANCH  35  37
ATOM     37  C   UNL     1      -5.953   2.475  -0.789  0.00  0.00    +0.019 C 
ATOM     38  C   UNL     1      -6.300   3.962  -0.668  0.00  0.00    +0.004 C 
ATOM     39  C   UNL     1      -7.177   1.605  -0.494  0.00  0.00    +0.004 C 
ENDBRANCH  35  37
ENDBRANCH  33  34
ENDBRANCH  31  33
ENDBRANCH   5  31
TORSDOF 9
