REMARK  Name = 134019
REMARK  8 active torsions:
REMARK  status: ('A' for Active; 'I' for Inactive)
REMARK    1  A    between atoms: C_6  and  N_17
REMARK    2  A    between atoms: C_7  and  N_25
REMARK    3  A    between atoms: N_17  and  C_19
REMARK    4  A    between atoms: C_19  and  C_20
REMARK    5  A    between atoms: C_20  and  N_21
REMARK    6  A    between atoms: N_25  and  C_27
REMARK    7  A    between atoms: C_27  and  C_28
REMARK    8  A    between atoms: C_28  and  N_29
REMARK                            x       y       z     vdW  Elec       q    Type
REMARK                         _______ _______ _______ _____ _____    ______ ____
ROOT
ATOM      1  O   UNL     1       2.655   1.310  -0.009  0.00  0.00    -0.287 OA
ATOM      2  O   UNL     1      -2.688   1.232   0.015  0.00  0.00    -0.286 OA
ATOM      3  N   UNL     1      -0.794   4.898   0.001  0.00  0.00    -0.242 NA
ATOM      4  C   UNL     1       0.702  -0.037  -0.003  0.00  0.00    +0.056 C 
ATOM      5  C   UNL     1      -0.695  -0.059   0.004  0.00  0.00    +0.056 C 
ATOM      6  C   UNL     1       1.419  -1.239  -0.007  0.00  0.00    +0.048 C 
ATOM      7  C   UNL     1      -1.375  -1.282   0.006  0.00  0.00    +0.048 C 
ATOM      8  C   UNL     1       1.433   1.249  -0.005  0.00  0.00    +0.197 C 
ATOM      9  C   UNL     1      -1.464   1.203   0.008  0.00  0.00    +0.198 C 
ATOM     10  C   UNL     1       0.662   2.508  -0.003  0.00  0.00    +0.045 C 
ATOM     11  C   UNL     1      -0.729   2.481   0.003  0.00  0.00    +0.061 C 
ATOM     12  C   UNL     1       0.737  -2.457  -0.005  0.00  0.00    +0.016 C 
ATOM     13  C   UNL     1      -0.656  -2.478   0.002  0.00  0.00    +0.016 C 
ATOM     14  C   UNL     1       1.327   3.734  -0.007  0.00  0.00    +0.024 C 
ATOM     15  C   UNL     1      -1.408   3.693   0.005  0.00  0.00    +0.102 C 
ATOM     16  C   UNL     1       0.557   4.886  -0.005  0.00  0.00    +0.099 C 
ENDROOT
BRANCH   6  17
ATOM     17  N   UNL     1       2.831  -1.297  -0.013  0.00  0.00    -0.335 N 
ATOM     18  H   UNL     1       3.338  -0.453  -0.015  0.00  0.00    +0.147 HD
BRANCH  17  19
ATOM     19  C   UNL     1       3.555  -2.529  -0.017  0.00  0.00    +0.063 C 
BRANCH  19  20
ATOM     20  C   UNL     1       5.051  -2.244   0.012  0.00  0.00    -0.065 C 
BRANCH  20  21
ATOM     21  N   UNL     1       5.805  -3.491   0.017  0.00  0.00    +0.382 N 
ATOM     22  H   UNL     1       6.803  -3.285   0.036  0.00  0.00    -0.089 HD
ATOM     23  H   UNL     1       5.584  -4.025  -0.824  0.00  0.00    -0.089 HD
ATOM     24  H   UNL     1       5.554  -4.036   0.842  0.00  0.00    -0.089 HD
ENDBRANCH  20  21
ENDBRANCH  19  20
ENDBRANCH  17  19
ENDBRANCH   6  17
BRANCH   7  25
ATOM     25  N   UNL     1      -2.785  -1.383   0.013  0.00  0.00    -0.335 N 
ATOM     26  H   UNL     1      -3.317  -0.554   0.016  0.00  0.00    +0.147 HD
BRANCH  25  27
ATOM     27  C   UNL     1      -3.471  -2.636   0.015  0.00  0.00    +0.063 C 
BRANCH  27  28
ATOM     28  C   UNL     1      -4.975  -2.396  -0.012  0.00  0.00    -0.065 C 
BRANCH  28  29
ATOM     29  N   UNL     1      -5.691  -3.666  -0.018  0.00  0.00    +0.382 N 
ATOM     30  H   UNL     1      -6.696  -3.489  -0.036  0.00  0.00    -0.089 HD
ATOM     31  H   UNL     1      -5.454  -4.194   0.822  0.00  0.00    -0.089 HD
ATOM     32  H   UNL     1      -5.425  -4.202  -0.844  0.00  0.00    -0.089 HD
ENDBRANCH  28  29
ENDBRANCH  27  28
ENDBRANCH  25  27
ENDBRANCH   7  25
TORSDOF 8
