134021
  -OEChem-03292013323D

 30 29  0     1  0  0  0  0  0999 V2000
   -0.7165   -1.5488    0.3694 P   0  0  1  0  0  0  0  0  0  0  0  0
   -1.4859   -0.2210    0.8688 O   0  0  0  0  0  0  0  0  0  0  0  0
    0.6491   -1.0106   -0.3135 O   0  0  0  0  0  0  0  0  0  0  0  0
    3.4334   -0.9798   -0.7580 O   0  0  0  0  0  0  0  0  0  0  0  0
   -0.2278   -2.2202    1.7587 O   0  0  0  0  0  0  0  0  0  0  0  0
   -1.7067    2.4832    1.4403 O   0  0  0  0  0  0  0  0  0  0  0  0
   -3.4846    0.8257   -2.0027 O   0  0  0  0  0  0  0  0  0  0  0  0
    4.7803    1.4350   -0.5509 O   0  0  0  0  0  0  0  0  0  0  0  0
   -1.5345   -2.4621   -0.4981 O   0  0  0  0  0  0  0  0  0  0  0  0
   -1.9784    0.6835   -0.1225 C   0  0  0  0  0  0  0  0  0  0  0  0
    2.7155    0.2180   -0.4521 C   0  0  1  0  0  0  0  0  0  0  0  0
    1.5072   -0.1411    0.4051 C   0  0  0  0  0  0  0  0  0  0  0  0
   -2.6569    1.8431    0.5950 C   0  0  0  0  0  0  0  0  0  0  0  0
   -2.9555   -0.0626   -1.0238 C   0  0  0  0  0  0  0  0  0  0  0  0
    3.6612    1.1576    0.2843 C   0  0  0  0  0  0  0  0  0  0  0  0
   -1.1309    1.0693   -0.7004 H   0  0  0  0  0  0  0  0  0  0  0  0
    2.4063    0.6503   -1.4102 H   0  0  0  0  0  0  0  0  0  0  0  0
    1.8312   -0.6567    1.3155 H   0  0  0  0  0  0  0  0  0  0  0  0
    0.9595    0.7632    0.6871 H   0  0  0  0  0  0  0  0  0  0  0  0
   -3.4804    1.4967    1.2284 H   0  0  0  0  0  0  0  0  0  0  0  0
   -3.0409    2.5885   -0.1071 H   0  0  0  0  0  0  0  0  0  0  0  0
   -3.7744   -0.5146   -0.4546 H   0  0  0  0  0  0  0  0  0  0  0  0
   -2.4622   -0.8344   -1.6090 H   0  0  0  0  0  0  0  0  0  0  0  0
    4.0416    0.7057    1.2065 H   0  0  0  0  0  0  0  0  0  0  0  0
    3.1710    2.1043    0.5296 H   0  0  0  0  0  0  0  0  0  0  0  0
    2.8152   -1.5820   -1.2065 H   0  0  0  0  0  0  0  0  0  0  0  0
    0.1496   -3.1254    1.7405 H   0  0  0  0  0  0  0  0  0  0  0  0
   -1.3605    1.8107    2.0516 H   0  0  0  0  0  0  0  0  0  0  0  0
   -4.1081    0.3142   -2.5460 H   0  0  0  0  0  0  0  0  0  0  0  0
    5.2010    0.5850   -0.7663 H   0  0  0  0  0  0  0  0  0  0  0  0
  1  2  1  0  0  0  0
  1  3  1  0  0  0  0
  1  5  1  0  0  0  0
  1  9  2  0  0  0  0
  2 10  1  0  0  0  0
  3 12  1  0  0  0  0
  4 11  1  0  0  0  0
  4 26  1  0  0  0  0
  5 27  1  0  0  0  0
  6 13  1  0  0  0  0
  6 28  1  0  0  0  0
  7 14  1  0  0  0  0
  7 29  1  0  0  0  0
  8 15  1  0  0  0  0
  8 30  1  0  0  0  0
 10 13  1  0  0  0  0
 10 14  1  0  0  0  0
 10 16  1  0  0  0  0
 11 12  1  0  0  0  0
 11 15  1  0  0  0  0
 11 17  1  0  0  0  0
 12 18  1  0  0  0  0
 12 19  1  0  0  0  0
 13 20  1  0  0  0  0
 13 21  1  0  0  0  0
 14 22  1  0  0  0  0
 14 23  1  0  0  0  0
 15 24  1  0  0  0  0
 15 25  1  0  0  0  0
M  END
> <PUBCHEM_COMPOUND_CID>
134021

> <PUBCHEM_CONFORMER_RMSD>
0.8

> <PUBCHEM_CONFORMER_DIVERSEORDER>
1
67
304
340
125
159
210
320
39
295
194
181
201
247
146
104
134
117
307
241
256
32
314
232
92
88
338
48
89
227
317
319
223
276
290
23
163
177
220
326
24
31
176
255
311
112
236
182
203
282
81
337
191
69
336
207
122
269
155
265
280
268
297
329
275
206
100
250
234
19
333
121
26
261
21
38
242
279
59
281
262
212
102
323
144
45
288
235
187
63
195
169
60
286
150
300
285
27
71
77
331
316
116
334
78
118
222
273
309
132
257
28
249
162
138
224
199
293
183
315
49
110
108
142
313
218
5
209
172
14
283
72
171
228
267
53
308
20
230
133
284
141
97
41
175
197
58
135
40
51
80
217
179
243
120
299
328
186
325
291
30
211
306
85
231
324
292
61
196
192
335
289
170
62
140
46
274
253
10
129
160
8
76
246
225
178
237
254
303
270
200
6
302
74
152
215
198
123
99
12
3
239
137
167
93
166
294
18
124
330
238
94
184
205
287
327
114
310
7
96
95
143
202
221
109
219
272
54
339
332
64
73
312
22
50
90
260
149
271
322
4
240
318
11
233
47
2
216
263
174
157
103
277
189
44
164
15
214
111
136
126
87
229
79
168
226
127
37
52
83
258
296
55
82
193
106
9
34
33
29
208
148
43
65
154
147
36
264
173
248
185
84
145
190
244
252
25
151
119
86
56
17
115
131
305
107
70
13
266
301
259
75
91
213
68
139
66
158
180
16
298
35
42
278
98
188
57
156
101
130
128
113
161
321
165
245
153
204
251
105

> <PUBCHEM_MMFF94_PARTIAL_CHARGES>
20
1 1.51
10 0.28
11 0.28
12 0.28
13 0.28
14 0.28
15 0.28
2 -0.55
26 0.4
27 0.5
28 0.4
29 0.4
3 -0.55
30 0.4
4 -0.68
5 -0.77
6 -0.68
7 -0.68
8 -0.68
9 -0.7

> <PUBCHEM_EFFECTIVE_ROTOR_COUNT>
8

> <PUBCHEM_PHARMACOPHORE_FEATURES>
10
1 4 acceptor
1 4 donor
1 5 acceptor
1 6 acceptor
1 6 donor
1 7 acceptor
1 7 donor
1 8 acceptor
1 8 donor
1 9 acceptor

> <PUBCHEM_HEAVY_ATOM_COUNT>
15

> <PUBCHEM_ATOM_DEF_STEREO_COUNT>
0

> <PUBCHEM_ATOM_UDEF_STEREO_COUNT>
1

> <PUBCHEM_BOND_DEF_STEREO_COUNT>
0

> <PUBCHEM_BOND_UDEF_STEREO_COUNT>
0

> <PUBCHEM_ISOTOPIC_ATOM_COUNT>
0

> <PUBCHEM_COMPONENT_COUNT>
1

> <PUBCHEM_CACTVS_TAUTO_COUNT>
1

> <PUBCHEM_CONFORMER_ID>
00020B8500000001

> <PUBCHEM_MMFF94_ENERGY>
10.8143

> <PUBCHEM_FEATURE_SELFOVERLAP>
50.771

> <PUBCHEM_SHAPE_FINGERPRINT>
14123260 362 18261685851939563652
15061688 2 17241028917463894757
15775835 57 17967803938338255109
18186145 218 18262242118786351774
20112054 60 18410019857298336640
20281475 54 8574418829702000602
20300324 65 17917989486100446260
20361792 2 11599711870576702755
20510252 161 18189621707601807619
20645477 56 18261400000243108106
20653085 51 18200325307290248746
20671657 53 14117225114686313386
20871999 31 18129080377627312759
21524375 3 18264497182522130355
228727 97 18199735982554449361
22926399 37 18410003317685540501
23402539 116 18202276992027090077
23557571 272 18197789996970236870
4028521 119 18408035225819908284
59027123 10 17775010020822066364
81228 2 17825127035999734611

> <PUBCHEM_SHAPE_MULTIPOLES>
265.59
6.96
2.41
1.34
7.16
0.31
0.03
-3.96
2.67
-1.06
-0.87
-1.09
-0.05
-0.26

> <PUBCHEM_SHAPE_SELFOVERLAP>
487.418

> <PUBCHEM_SHAPE_VOLUME>
168.1

> <PUBCHEM_COORDINATE_TYPE>
2
5
10

$$$$
