REMARK  Name = 134006
REMARK  3 active torsions:
REMARK  status: ('A' for Active; 'I' for Inactive)
REMARK    1  A    between atoms: C_5  and  C_16
REMARK    2  A    between atoms: C_7  and  C_10
REMARK    3  A    between atoms: C_16  and  N_18
REMARK                            x       y       z     vdW  Elec       q    Type
REMARK                         _______ _______ _______ _____ _____    ______ ____
ROOT
ATOM      1  S   UNL     1       1.031  -2.670  -0.016  0.00  0.00    -0.060 S 
ATOM      2  O   UNL     1      -0.916   1.529  -0.318  0.00  0.00    -0.270 OA
ATOM      3  N   UNL     1      -0.810  -0.803  -0.043  0.00  0.00    -0.251 N 
ATOM      4  N   UNL     1       1.485  -0.150  -0.375  0.00  0.00    -0.386 NA
ATOM      5  C   UNL     1       2.700  -0.806  -0.428  0.00  0.00    +0.125 C 
ATOM      6  C   UNL     1       0.563  -1.038  -0.165  0.00  0.00    +0.213 C 
ATOM      7  C   UNL     1      -1.465   0.433  -0.123  0.00  0.00    +0.252 C 
ATOM      8  C   UNL     1       2.655  -2.173  -0.255  0.00  0.00    +0.122 C 
ATOM      9  H   UNL     1      -1.378  -1.592   0.116  0.00  0.00    +0.158 HD
ENDROOT
BRANCH   7  10
ATOM     10  C   UNL     1      -2.912   0.387   0.010  0.00  0.00    +0.054 C 
ATOM     11  C   UNL     1      -3.699   1.373  -0.585  0.00  0.00    +0.005 C 
ATOM     12  C   UNL     1      -3.514  -0.643   0.733  0.00  0.00    +0.005 C 
ATOM     13  C   UNL     1      -5.088   1.329  -0.457  0.00  0.00    +0.000 C 
ATOM     14  C   UNL     1      -4.902  -0.687   0.860  0.00  0.00    +0.000 C 
ATOM     15  C   UNL     1      -5.689   0.299   0.265  0.00  0.00    +0.000 C 
ENDBRANCH   7  10
BRANCH   5  16
ATOM     16  C   UNL     1       3.918  -0.006  -0.661  0.00  0.00    +0.191 C 
BRANCH  16  18
ATOM     17  S   UNL     1       6.718   2.063   0.421  0.00  0.00    +0.020 S 
ATOM     18  N   UNL     1       4.491   0.438   0.618  0.00  0.00    -0.215 NA
ATOM     19  C   UNL     1       5.434   1.126   0.519  0.00  0.00    +0.037 C 
ENDBRANCH  16  18
ENDBRANCH   5  16
TORSDOF 3
