REMARK  Name = 134059
REMARK  9 active torsions:
REMARK  status: ('A' for Active; 'I' for Inactive)
REMARK    1  A    between atoms: N_2  and  CA_18
REMARK    2  A    between atoms: C_3  and  C_5
REMARK    3  A    between atoms: C_6  and  C_11
REMARK    4  A    between atoms: CA_18  and  C_19
REMARK    5  A    between atoms: CA_18  and  C_31
REMARK    6  A    between atoms: C_19  and  C_20
REMARK    7  A    between atoms: C_19  and  O_29
REMARK    8  A    between atoms: C_25  and  N_28
REMARK    9  A    between atoms: C_31  and  O_32
REMARK                            x       y       z     vdW  Elec       q    Type
REMARK                         _______ _______ _______ _____ _____    ______ ____
ROOT
ATOM      1  O   UNL     1      -0.860   0.084   1.996  0.00  0.00    -0.270 OA
ATOM      2  N   UNL     1      -0.054   0.357  -0.165  0.00  0.00    -0.298 N 
ATOM      3  C   UNL     1      -1.043   0.173   0.786  0.00  0.00    +0.246 C 
ATOM      4  H   UNL     1      -0.310   0.415  -1.114  0.00  0.00    +0.150 HD
ENDROOT
BRANCH   3   5
ATOM      5  C   UNL     1      -2.397   0.088   0.170  0.00  0.00    +0.058 C 
ATOM      6  C   UNL     1      -3.467  -0.090   0.946  0.00  0.00    +0.011 C 
BRANCH   6  11
ATOM      7  O   UNL     1      -5.107   2.185   0.605  0.00  0.00    -0.267 OA
ATOM      8  O   UNL     1      -8.629  -0.254  -1.051  0.00  0.00    -0.247 OA
ATOM      9  N   UNL     1      -6.697  -1.338  -0.453  0.00  0.00    -0.310 N 
ATOM     10  N   UNL     1      -6.868   0.973  -0.225  0.00  0.00    -0.275 N 
ATOM     11  C   UNL     1      -4.808  -0.183   0.416  0.00  0.00    +0.068 A 
ATOM     12  C   UNL     1      -5.407  -1.333   0.039  0.00  0.00    +0.042 A 
ATOM     13  C   UNL     1      -5.585   1.099   0.282  0.00  0.00    +0.262 A 
ATOM     14  C   UNL     1      -4.795  -2.709   0.091  0.00  0.00    +0.050 C 
ATOM     15  C   UNL     1      -7.481  -0.212  -0.609  0.00  0.00    +0.327 A 
ATOM     16  H   UNL     1      -7.084  -2.206  -0.712  0.00  0.00    +0.170 HD
ATOM     17  H   UNL     1      -7.393   1.800  -0.322  0.00  0.00    +0.173 HD
ENDBRANCH   6  11
ENDBRANCH   3   5
BRANCH   2  18
ATOM     18  CA  UNL     1       1.342   0.465   0.189  0.00  0.00    +0.132 C 
BRANCH  18  19
ATOM     19  C   UNL     1       2.211  -0.125  -0.942  0.00  0.00    +0.153 C 
BRANCH  19  20
ATOM     20  C   UNL     1       3.687  -0.180  -0.617  0.00  0.00    +0.006 C 
ATOM     21  C   UNL     1       4.589   0.441  -1.463  0.00  0.00    -0.000 C 
ATOM     22  C   UNL     1       4.105  -0.850   0.520  0.00  0.00    -0.000 C 
ATOM     23  C   UNL     1       5.951   0.390  -1.163  0.00  0.00    +0.024 C 
ATOM     24  C   UNL     1       5.466  -0.900   0.821  0.00  0.00    +0.024 C 
ATOM     25  C   UNL     1       6.389  -0.280  -0.021  0.00  0.00    +0.143 C 
BRANCH  25  28
ATOM     26  O   UNL     1       8.588   0.233  -0.487  0.00  0.00    -0.126 OA
ATOM     27  O   UNL     1       8.148  -0.939   1.316  0.00  0.00    -0.126 OA
ATOM     28  N   UNL     1       7.775  -0.331   0.284  0.00  0.00    +0.058 N 
ENDBRANCH  25  28
ENDBRANCH  19  20
BRANCH  19  29
ATOM     29  O   UNL     1       1.791  -1.466  -1.214  0.00  0.00    -0.378 OA
ATOM     30  H   UNL     1       0.845  -1.472  -1.428  0.00  0.00    +0.211 HD
ENDBRANCH  19  29
ENDBRANCH  18  19
BRANCH  18  31
ATOM     31  C   UNL     1       1.667   1.923   0.536  0.00  0.00    +0.159 C 
BRANCH  31  32
ATOM     32  O   UNL     1       1.489   2.780  -0.585  0.00  0.00    -0.380 OA
ATOM     33  H   UNL     1       1.703   3.691  -0.332  0.00  0.00    +0.211 HD
ENDBRANCH  31  32
ENDBRANCH  18  31
ENDBRANCH   2  18
TORSDOF 9
