134079
  -OEChem-03292013323D

 48 50  0     1  0  0  0  0  0999 V2000
   -4.0637    0.5521   -0.7619 O   0  0  0  0  0  0  0  0  0  0  0  0
   -5.7615   -1.5989    0.6597 O   0  0  0  0  0  0  0  0  0  0  0  0
   -5.3975    2.9971   -0.5197 O   0  0  0  0  0  0  0  0  0  0  0  0
    2.7734    0.2758   -0.6332 O   0  0  0  0  0  0  0  0  0  0  0  0
    3.5295   -0.8171    1.2613 O   0  0  0  0  0  0  0  0  0  0  0  0
   -1.8123    0.0198   -0.2368 N   0  0  0  0  0  0  0  0  0  0  0  0
   -0.0544    1.3934   -0.3284 N   0  0  0  0  0  0  0  0  0  0  0  0
   -0.6756   -2.1181   -0.4405 N   0  0  0  0  0  0  0  0  0  0  0  0
    1.7390   -1.8263   -0.6415 N   0  0  0  0  0  0  0  0  0  0  0  0
    4.8704    0.8093    0.2782 N   0  0  0  0  0  0  0  0  0  0  0  0
    0.7589   -3.9539   -0.6565 N   0  0  0  0  0  0  0  0  0  0  0  0
   -3.2012   -0.4127   -0.1345 C   0  0  1  0  0  0  0  0  0  0  0  0
   -5.1881   -0.3781    1.1223 C   0  0  1  0  0  0  0  0  0  0  0  0
   -3.7003   -0.5837    1.2931 C   0  0  0  0  0  0  0  0  0  0  0  0
   -5.2699    0.6740    0.0213 C   0  0  1  0  0  0  0  0  0  0  0  0
   -5.3351    2.0929    0.5692 C   0  0  0  0  0  0  0  0  0  0  0  0
   -0.7098   -0.7786   -0.3733 C   0  0  0  0  0  0  0  0  0  0  0  0
   -1.3639    1.3163   -0.2158 C   0  0  0  0  0  0  0  0  0  0  0  0
    0.3675    0.0913   -0.4276 C   0  0  0  0  0  0  0  0  0  0  0  0
    1.6293   -0.4779   -0.5669 C   0  0  0  0  0  0  0  0  0  0  0  0
    0.5966   -2.5518   -0.5747 C   0  0  0  0  0  0  0  0  0  0  0  0
    3.7186    0.0213    0.3805 C   0  0  0  0  0  0  0  0  0  0  0  0
    5.0865    1.7987   -0.7726 C   0  0  0  0  0  0  0  0  0  0  0  0
    5.9437    0.6665    1.2515 C   0  0  0  0  0  0  0  0  0  0  0  0
    4.5650    3.1617   -0.3672 C   0  0  0  0  0  0  0  0  0  0  0  0
    6.9548   -0.3730    0.8139 C   0  0  0  0  0  0  0  0  0  0  0  0
   -3.2915   -1.3449   -0.7047 H   0  0  0  0  0  0  0  0  0  0  0  0
   -5.7004   -0.0993    2.0467 H   0  0  0  0  0  0  0  0  0  0  0  0
   -3.4286   -1.5622    1.7010 H   0  0  0  0  0  0  0  0  0  0  0  0
   -3.2870    0.1935    1.9471 H   0  0  0  0  0  0  0  0  0  0  0  0
   -6.1103    0.4974   -0.6597 H   0  0  0  0  0  0  0  0  0  0  0  0
   -6.2240    2.2315    1.1924 H   0  0  0  0  0  0  0  0  0  0  0  0
   -4.4419    2.3368    1.1534 H   0  0  0  0  0  0  0  0  0  0  0  0
   -5.4242   -1.7887   -0.2315 H   0  0  0  0  0  0  0  0  0  0  0  0
   -2.0310    2.1612   -0.1119 H   0  0  0  0  0  0  0  0  0  0  0  0
   -5.4392    3.8937   -0.1459 H   0  0  0  0  0  0  0  0  0  0  0  0
    4.5731    1.4744   -1.6839 H   0  0  0  0  0  0  0  0  0  0  0  0
    6.1551    1.8495   -1.0083 H   0  0  0  0  0  0  0  0  0  0  0  0
    5.5141    0.3603    2.2121 H   0  0  0  0  0  0  0  0  0  0  0  0
    6.4271    1.6370    1.4075 H   0  0  0  0  0  0  0  0  0  0  0  0
    1.6868   -4.3412   -0.7583 H   0  0  0  0  0  0  0  0  0  0  0  0
   -0.0552   -4.5512   -0.6133 H   0  0  0  0  0  0  0  0  0  0  0  0
    4.7259    3.8861   -1.1715 H   0  0  0  0  0  0  0  0  0  0  0  0
    5.0725    3.5308    0.5299 H   0  0  0  0  0  0  0  0  0  0  0  0
    3.4921    3.1256   -0.1504 H   0  0  0  0  0  0  0  0  0  0  0  0
    7.7447   -0.4758    1.5644 H   0  0  0  0  0  0  0  0  0  0  0  0
    7.4225   -0.0974   -0.1367 H   0  0  0  0  0  0  0  0  0  0  0  0
    6.4825   -1.3520    0.6799 H   0  0  0  0  0  0  0  0  0  0  0  0
  1 12  1  0  0  0  0
  1 15  1  0  0  0  0
  2 13  1  0  0  0  0
  2 34  1  0  0  0  0
  3 16  1  0  0  0  0
  3 36  1  0  0  0  0
  4 20  1  0  0  0  0
  4 22  1  0  0  0  0
  5 22  2  0  0  0  0
  6 12  1  0  0  0  0
  6 17  1  0  0  0  0
  6 18  1  0  0  0  0
  7 18  2  0  0  0  0
  7 19  1  0  0  0  0
  8 17  1  0  0  0  0
  8 21  2  0  0  0  0
  9 20  2  0  0  0  0
  9 21  1  0  0  0  0
 10 22  1  0  0  0  0
 10 23  1  0  0  0  0
 10 24  1  0  0  0  0
 11 21  1  0  0  0  0
 11 41  1  0  0  0  0
 11 42  1  0  0  0  0
 12 14  1  0  0  0  0
 12 27  1  0  0  0  0
 13 14  1  0  0  0  0
 13 15  1  0  0  0  0
 13 28  1  0  0  0  0
 14 29  1  0  0  0  0
 14 30  1  0  0  0  0
 15 16  1  0  0  0  0
 15 31  1  0  0  0  0
 16 32  1  0  0  0  0
 16 33  1  0  0  0  0
 17 19  2  0  0  0  0
 18 35  1  0  0  0  0
 19 20  1  0  0  0  0
 23 25  1  0  0  0  0
 23 37  1  0  0  0  0
 23 38  1  0  0  0  0
 24 26  1  0  0  0  0
 24 39  1  0  0  0  0
 24 40  1  0  0  0  0
 25 43  1  0  0  0  0
 25 44  1  0  0  0  0
 25 45  1  0  0  0  0
 26 46  1  0  0  0  0
 26 47  1  0  0  0  0
 26 48  1  0  0  0  0
M  END
> <PUBCHEM_COMPOUND_CID>
134079

> <PUBCHEM_CONFORMER_RMSD>
0.8

> <PUBCHEM_CONFORMER_DIVERSEORDER>
1
288
143
370
90
236
50
196
393
331
319
92
306
380
400
81
290
298
394
127
71
365
373
399
249
346
117
147
155
35
377
221
353
102
314
51
359
258
368
335
183
184
15
311
275
350
241
227
389
315
118
388
93
116
338
52
364
22
339
197
122
402
129
149
168
247
83
297
186
323
172
115
371
28
61
82
105
398
375
291
17
41
214
384
256
316
32
269
326
198
310
74
240
202
300
167
285
305
301
329
207
40
148
103
272
106
191
125
55
212
87
307
385
47
381
273
265
13
318
204
174
152
358
193
271
171
57
268
180
33
345
270
2
175
403
34
66
173
91
351
162
77
113
260
144
312
150
235
213
192
248
137
201
218
107
238
225
254
177
234
153
304
332
27
123
292
121
266
26
250
372
39
244
317
395
78
363
136
369
24
279
295
10
179
138
313
303
219
6
119
276
354
392
63
45
120
347
257
343
170
53
188
199
278
49
327
68
189
274
296
21
356
156
321
352
367
112
382
324
282
70
42
387
109
349
3
205
251
355
187
280
84
130
237
261
132
46
330
362
151
215
224
9
308
210
5
262
194
253
16
336
101
284
294
252
44
229
139
135
357
325
228
299
80
397
267
98
182
142
131
341
23
245
302
73
48
391
401
85
38
72
337
376
110
79
94
31
126
390
185
396
322
43
25
374
111
65
97
360
146
95
133
320
141
217
62
166
293
378
14
108
159
340
164
161
328
56
231
4
334
181
230
283
383
69
114
226
104
379
100
157
255
169
366
54
206
37
96
140
30
203
124
246
29
76
333
259
12
160
195
223
154
277
211
264
243
88
99
178
342
233
309
176
348
145
75
232
11
287
158
36
134
239
386
220
286
86
67
263
59
344
242
222
216
289
361
163
64
200
18
208
190
20
8
128
60
19
165
209
7
58
89
281

> <PUBCHEM_MMFF94_PARTIAL_CHARGES>
28
1 -0.56
10 -0.66
11 -0.9
12 0.54
13 0.28
15 0.28
16 0.28
17 0.11
18 0.04
19 0.23
2 -0.68
20 0.39
21 0.72
22 0.78
23 0.3
24 0.3
3 -0.68
34 0.4
35 0.15
36 0.4
4 -0.23
41 0.4
42 0.4
5 -0.57
6 0.05
7 -0.57
8 -0.57
9 -0.62

> <PUBCHEM_EFFECTIVE_ROTOR_COUNT>
8

> <PUBCHEM_PHARMACOPHORE_FEATURES>
12
1 1 acceptor
1 11 donor
1 2 acceptor
1 2 donor
1 3 acceptor
1 3 donor
1 5 acceptor
3 6 7 18 cation
4 8 9 11 21 cation
5 1 12 13 14 15 rings
5 6 7 17 18 19 rings
6 8 9 17 19 20 21 rings

> <PUBCHEM_HEAVY_ATOM_COUNT>
26

> <PUBCHEM_ATOM_DEF_STEREO_COUNT>
3

> <PUBCHEM_ATOM_UDEF_STEREO_COUNT>
0

> <PUBCHEM_BOND_DEF_STEREO_COUNT>
0

> <PUBCHEM_BOND_UDEF_STEREO_COUNT>
0

> <PUBCHEM_ISOTOPIC_ATOM_COUNT>
0

> <PUBCHEM_COMPONENT_COUNT>
1

> <PUBCHEM_CACTVS_TAUTO_COUNT>
3

> <PUBCHEM_CONFORMER_ID>
00020BBF00000001

> <PUBCHEM_MMFF94_ENERGY>
59.1311

> <PUBCHEM_FEATURE_SELFOVERLAP>
61.034

> <PUBCHEM_SHAPE_FINGERPRINT>
10 15 18262244416657191321
10493431 412 18342458187602081134
10835480 77 18337668591199595981
10906281 52 18188228527801406117
11045977 3 17603587473722874056
12236239 1 18040435508017224092
12403259 118 18260269659366754317
12422481 6 17603584123232158957
12596602 18 17967533505707099873
12616971 3 18338227267496592380
13009979 54 12324247113995100127
13140716 1 18196091268400160347
13533116 47 17167854250025103320
13583140 156 17096345316093889550
13631057 29 17702370927389751135
13690498 29 10591753273996709001
13782708 43 13624072185815080504
13785724 45 17905605506892224970
14466204 15 18411138017811833793
14790565 3 18339364187783146660
17980427 23 17894638075735492629
1813 80 11891329829248285906
18222031 100 12107783025787436526
19784866 170 18410857633645357749
204376 136 18341615944520694782
20567600 247 8862937264736446937
21033648 29 18271793649000686680
21150785 3 14045730530779224185
21236236 1 18199465639753811711
21452121 103 18339924814175195334
21781055 127 17702686401516947872
22224240 67 18272650181791596891
23559900 14 18121224177720437303
23569917 315 18342458174976688542
2838139 119 17775276184103294392
34934 24 18271802381285883863
350125 39 18339645521548163046
474229 33 18410855486003805015
5104073 3 18263653874916570099

> <PUBCHEM_SHAPE_MULTIPOLES>
475.84
15.76
3.04
1.04
3.69
0.63
-0.25
-8.3
-5.24
0.01
0.9
0.27
0.09
0.07

> <PUBCHEM_SHAPE_SELFOVERLAP>
1006.378

> <PUBCHEM_SHAPE_VOLUME>
265.5

> <PUBCHEM_COORDINATE_TYPE>
2
5
10

$$$$
