REMARK  Name = 134004
REMARK  5 active torsions:
REMARK  status: ('A' for Active; 'I' for Inactive)
REMARK    1  A    between atoms: C_2  and  C_17
REMARK    2  A    between atoms: C_3  and  O_18
REMARK    3  A    between atoms: C_4  and  N_7
REMARK    4  A    between atoms: C_5  and  C_20
REMARK    5  A    between atoms: C_20  and  O_21
REMARK                            x       y       z     vdW  Elec       q    Type
REMARK                         _______ _______ _______ _____ _____    ______ ____
ROOT
ATOM      1  O   UNL     1       1.180   0.967  -0.679  0.00  0.00    -0.334 OA
ATOM      2  C   UNL     1       1.121  -1.002   0.659  0.00  0.00    +0.112 C 
ATOM      3  C   UNL     1       2.558  -0.535   0.513  0.00  0.00    +0.147 C 
ATOM      4  C   UNL     1       0.447  -0.255  -0.487  0.00  0.00    +0.211 C 
ATOM      5  C   UNL     1       2.355   0.927   0.147  0.00  0.00    +0.173 C 
ENDROOT
BRANCH   4   7
ATOM      6  O   UNL     1      -1.765  -1.814  -1.272  0.00  0.00    -0.193 OA
ATOM      7  N   UNL     1      -0.927   0.060  -0.217  0.00  0.00    -0.180 N 
ATOM      8  N   UNL     1      -3.291  -0.410  -0.348  0.00  0.00    -0.306 NA
ATOM      9  N   UNL     1      -4.850   1.033   0.598  0.00  0.00    -0.332 N 
ATOM     10  C   UNL     1      -1.220   1.220   0.484  0.00  0.00    +0.083 C 
ATOM     11  C   UNL     1      -1.990  -0.777  -0.645  0.00  0.00    +0.275 C 
ATOM     12  C   UNL     1      -2.465   1.591   0.778  0.00  0.00    +0.065 C 
ATOM     13  C   UNL     1      -3.549   0.687   0.314  0.00  0.00    +0.193 C 
ATOM     14  H   UNL     1      -5.589   0.454   0.303  0.00  0.00    +0.145 HD
ATOM     15  H   UNL     1      -5.042   1.860   1.096  0.00  0.00    +0.145 HD
ENDBRANCH   4   7
BRANCH   2  17
ATOM     16  F   UNL     1       1.383  -2.929  -0.633  0.00  0.00    -0.234 F 
ATOM     17  C   UNL     1       0.952  -2.512   0.583  0.00  0.00    +0.200 C 
ENDBRANCH   2  17
BRANCH   3  18
ATOM     18  O   UNL     1       3.296  -0.661   1.712  0.00  0.00    -0.382 OA
ATOM     19  H   UNL     1       3.412  -1.601   1.923  0.00  0.00    +0.210 HD
ENDBRANCH   3  18
BRANCH   5  20
ATOM     20  C   UNL     1       3.530   1.529  -0.603  0.00  0.00    +0.169 C 
BRANCH  20  21
ATOM     21  O   UNL     1       3.235   2.883  -0.904  0.00  0.00    -0.379 OA
ATOM     22  H   UNL     1       3.981   3.277  -1.384  0.00  0.00    +0.211 HD
ENDBRANCH  20  21
ENDBRANCH   5  20
TORSDOF 5
