REMARK  Name = 134088
REMARK  7 active torsions:
REMARK  status: ('A' for Active; 'I' for Inactive)
REMARK    1  A    between atoms: N_1  and  C1*_15
REMARK    2  A    between atoms: C_9  and  O_25
REMARK    3  A    between atoms: C2*_14  and  O2*_18
REMARK    4  A    between atoms: C3*_16  and  O3*_20
REMARK    5  A    between atoms: C4*_17  and  C5*_22
REMARK    6  A    between atoms: C5*_22  and  O5*_23
REMARK    7  A    between atoms: O_25  and  C_26
REMARK                            x       y       z     vdW  Elec       q    Type
REMARK                         _______ _______ _______ _____ _____    ______ ____
ROOT
ATOM      1  N   UNL     1       0.763   0.262   0.113  0.00  0.00    -0.236 N 
ATOM      2  N   UNL     1      -0.768   1.810  -0.376  0.00  0.00    -0.239 NA
ATOM      3  N   UNL     1      -0.685  -1.660   0.451  0.00  0.00    -0.311 NA
ATOM      4  N   UNL     1      -3.031  -1.073   0.124  0.00  0.00    -0.289 NA
ATOM      5  N   UNL     1      -2.383  -3.251   0.692  0.00  0.00    -0.283 N 
ATOM      6  C   UNL     1      -0.448  -0.371   0.165  0.00  0.00    +0.223 C 
ATOM      7  C   UNL     1       0.516   1.570  -0.215  0.00  0.00    +0.224 C 
ATOM      8  C   UNL     1      -1.383   0.606  -0.141  0.00  0.00    +0.190 C 
ATOM      9  C   UNL     1      -2.718   0.215  -0.156  0.00  0.00    +0.311 C 
ATOM     10  C   UNL     1      -2.010  -1.918   0.406  0.00  0.00    +0.200 C 
ATOM     11  H   UNL     1      -1.693  -3.920   0.906  0.00  0.00    +0.156 HD
ATOM     12  H   UNL     1      -3.332  -3.511   0.677  0.00  0.00    +0.156 HD
ENDROOT
BRANCH   1  15
ATOM     13  O4* UNL     1       2.946   0.646   0.959  0.00  0.00    -0.333 OA
ATOM     14  C2* UNL     1       2.782  -0.816  -0.897  0.00  0.00    +0.187 C 
ATOM     15  C1* UNL     1       2.075  -0.332   0.359  0.00  0.00    +0.226 C 
ATOM     16  C3* UNL     1       4.234  -0.760  -0.466  0.00  0.00    +0.171 C 
ATOM     17  C4* UNL     1       4.270   0.498   0.395  0.00  0.00    +0.175 C 
BRANCH  14  18
ATOM     18  O2* UNL     1       2.365  -2.114  -1.270  0.00  0.00    -0.378 OA
ATOM     19  H2* UNL     1       1.432  -2.090  -1.535  0.00  0.00    +0.211 HD
ENDBRANCH  14  18
BRANCH  16  20
ATOM     20  O3* UNL     1       4.530  -1.889   0.357  0.00  0.00    -0.379 OA
ATOM     21  H3* UNL     1       4.510  -2.696  -0.182  0.00  0.00    +0.211 HD
ENDBRANCH  16  20
BRANCH  17  22
ATOM     22  C5* UNL     1       4.594   1.754  -0.403  0.00  0.00    +0.169 C 
BRANCH  22  23
ATOM     23  O5* UNL     1       4.593   2.864   0.478  0.00  0.00    -0.379 OA
ATOM     24  H5* UNL     1       4.799   3.671  -0.019  0.00  0.00    +0.211 HD
ENDBRANCH  22  23
ENDBRANCH  17  22
ENDBRANCH   1  15
BRANCH   9  25
ATOM     25  O   UNL     1      -3.737   1.088  -0.444  0.00  0.00    -0.454 OA
BRANCH  25  26
ATOM     26  C   UNL     1      -4.992   0.829   0.171  0.00  0.00    +0.169 C 
ATOM     27  C   UNL     1      -5.712   2.147   0.415  0.00  0.00    +0.047 C 
ATOM     28  C   UNL     1      -5.803  -0.103  -0.718  0.00  0.00    +0.047 C 
ENDBRANCH  25  26
ENDBRANCH   9  25
TORSDOF 7
