REMARK  Name = 134093
REMARK  8 active torsions:
REMARK  status: ('A' for Active; 'I' for Inactive)
REMARK    1  A    between atoms: CA_1  and  N_3
REMARK    2  A    between atoms: CA_1  and  C_15
REMARK    3  A    between atoms: CA_1  and  C_22
REMARK    4  A    between atoms: C_4  and  CA_8
REMARK    5  A    between atoms: N_14  and  CA_17
REMARK    6  A    between atoms: CA_17  and  C_19
REMARK    7  A    between atoms: C_19  and  O_20
REMARK    8  A    between atoms: C_22  and  C_25
REMARK                            x       y       z     vdW  Elec       q    Type
REMARK                         _______ _______ _______ _____ _____    ______ ____
ROOT
ATOM      1  CA  UNL     1       0.906   0.329  -0.415  0.00  0.00    +0.154 C 
ENDROOT
BRANCH   1   3
ATOM      2  O   UNL     1      -1.141  -0.751   1.336  0.00  0.00    -0.273 OA
ATOM      3  N   UNL     1       0.066  -0.818  -0.653  0.00  0.00    -0.297 N 
ATOM      4  C   UNL     1      -0.890  -1.261   0.248  0.00  0.00    +0.241 C 
ATOM      5  H   UNL     1       0.177  -1.311  -1.498  0.00  0.00    +0.150 HD
BRANCH   4   8
ATOM      6  O   UNL     1      -4.879  -2.495   1.154  0.00  0.00    -0.275 OA
ATOM      7  N   UNL     1      -2.592  -2.802   0.757  0.00  0.00    -0.298 N 
ATOM      8  CA  UNL     1      -1.638  -2.453  -0.257  0.00  0.00    +0.149 C 
ATOM      9  C   UNL     1      -2.496  -2.139  -1.468  0.00  0.00    +0.039 C 
ATOM     10  C   UNL     1      -3.827  -1.676  -0.877  0.00  0.00    +0.087 C 
ATOM     11  C   UNL     1      -3.881  -2.374   0.460  0.00  0.00    +0.223 C 
ATOM     12  H   UNL     1      -2.358  -3.293   1.578  0.00  0.00    +0.150 HD
ENDBRANCH   4   8
ENDBRANCH   1   3
BRANCH   1  15
ATOM     13  O   UNL     1      -0.602   1.549  -1.869  0.00  0.00    -0.273 OA
ATOM     14  N   UNL     1       0.359   2.658  -0.069  0.00  0.00    -0.294 N 
ATOM     15  C   ACE A   2       0.144   1.561  -0.892  0.00  0.00    +0.241 C 
ATOM     16  H   UNL     1       0.979   2.559   0.689  0.00  0.00    +0.150 HD
BRANCH  14  17
ATOM     17  CA  UNL     1      -0.283   3.937  -0.271  0.00  0.00    +0.200 C 
BRANCH  17  19
ATOM     18  OXT UNL     1      -2.303   5.055   0.410  0.00  0.00    -0.248 OA
ATOM     19  C   UNL     1      -1.597   4.055   0.457  0.00  0.00    +0.334 C 
BRANCH  19  20
ATOM     20  O   UNL     1      -1.922   2.951   1.169  0.00  0.00    -0.479 OA
ATOM     21  H   UNL     1      -1.349   2.210   1.173  0.00  0.00    +0.295 HD
ENDBRANCH  19  20
ENDBRANCH  17  19
ENDBRANCH  14  17
ENDBRANCH   1  15
BRANCH   1  22
ATOM     22  C   UNL     1       2.251   0.218  -1.143  0.00  0.00    +0.071 C 
BRANCH  22  25
ATOM     23  N   UNL     1       4.103  -0.232   0.529  0.00  0.00    -0.291 N 
ATOM     24  N   UNL     1       4.456  -2.418   0.357  0.00  0.00    -0.314 N 
ATOM     25  C   UNL     1       3.225  -0.679  -0.418  0.00  0.00    +0.043 C 
ATOM     26  C   UNL     1       3.462  -2.031  -0.507  0.00  0.00    +0.069 C 
ATOM     27  C   UNL     1       4.820  -1.311   0.966  0.00  0.00    +0.185 C 
ATOM     28  C   UNL     1       4.257   1.125   0.995  0.00  0.00    +0.113 C 
ATOM     29  H   UNL     1       4.816  -3.324   0.492  0.00  0.00    +0.148 HD
ENDBRANCH  22  25
ENDBRANCH   1  22
TORSDOF 8
