REMARK  Name = 134010
REMARK  5 active torsions:
REMARK  status: ('A' for Active; 'I' for Inactive)
REMARK    1  A    between atoms: C_1  and  C_2
REMARK    2  A    between atoms: C_1  and  C_15
REMARK    3  A    between atoms: C_2  and  C_3
REMARK    4  A    between atoms: C_3  and  C_10
REMARK    5  A    between atoms: C_15  and  C_18
REMARK                            x       y       z     vdW  Elec       q    Type
REMARK                         _______ _______ _______ _____ _____    ______ ____
ROOT
ATOM      1  C   UNL     1      -0.237  -0.983  -0.250  0.00  0.00    +0.010 C 
ENDROOT
BRANCH   1   2
ATOM      2  C   UNL     1      -1.540  -0.844   0.538  0.00  0.00    +0.001 C 
BRANCH   2   3
ATOM      3  C   UNL     1      -2.723  -1.421  -0.238  0.00  0.00    +0.013 C 
BRANCH   3  10
ATOM      4  S   UNL     1      -5.438  -1.944  -0.373  0.00  0.00    -0.138 S 
ATOM      5  O   UNL     1      -5.385   2.687  -1.518  0.00  0.00    -0.253 OA
ATOM      6  N   UNL     1      -4.176   1.123  -0.260  0.00  0.00    -0.288 N 
ATOM      7  N   UNL     1      -6.390   1.316   0.094  0.00  0.00    -0.288 N 
ATOM      8  C   UNL     1      -4.444   0.190   0.818  0.00  0.00    +0.102 C 
ATOM      9  C   UNL     1      -5.976   0.267   1.005  0.00  0.00    +0.103 C 
ATOM     10  C   UNL     1      -4.025  -1.254   0.527  0.00  0.00    +0.067 C 
ATOM     11  C   UNL     1      -6.635  -1.066   0.657  0.00  0.00    +0.079 C 
ATOM     12  C   UNL     1      -5.325   1.811  -0.665  0.00  0.00    +0.301 C 
ATOM     13  H   UNL     1      -3.287   1.256  -0.661  0.00  0.00    +0.151 HD
ATOM     14  H   UNL     1      -7.316   1.643   0.019  0.00  0.00    +0.151 HD
ENDBRANCH   3  10
ENDBRANCH   2   3
ENDBRANCH   1   2
BRANCH   1  15
ATOM     15  C   UNL     1       0.941  -0.377   0.510  0.00  0.00    +0.085 C 
BRANCH  15  18
ATOM     16  O   UNL     1       2.332  -1.094  -1.322  0.00  0.00    -0.275 OA
ATOM     17  N   UNL     1       3.302   0.033   0.497  0.00  0.00    -0.259 N 
ATOM     18  C   UNL     1       2.261  -0.534  -0.233  0.00  0.00    +0.228 C 
ATOM     19  H   UNL     1       3.057   0.442   1.358  0.00  0.00    +0.157 HD
ATOM     20  N   UNL     1       5.517   0.687   1.001  0.00  0.00    -0.377 NA
ATOM     21  N   UNL     1       7.760   1.333   1.480  0.00  0.00    -0.336 N 
ATOM     22  C   UNL     1       4.671   0.088   0.145  0.00  0.00    +0.187 C 
ATOM     23  C   UNL     1       5.030  -0.481  -1.059  0.00  0.00    +0.044 C 
ATOM     24  C   UNL     1       6.374  -0.431  -1.413  0.00  0.00    -0.013 C 
ATOM     25  C   UNL     1       6.815   0.717   0.623  0.00  0.00    +0.160 C 
ATOM     26  C   UNL     1       7.290   0.177  -0.562  0.00  0.00    +0.100 C 
ATOM     27  H   UNL     1       7.467   1.729   2.332  0.00  0.00    +0.144 HD
ATOM     28  H   UNL     1       8.710   1.364   1.223  0.00  0.00    +0.144 HD
ENDBRANCH  15  18
ENDBRANCH   1  15
TORSDOF 5
