REMARK  Name = 134079
REMARK  8 active torsions:
REMARK  status: ('A' for Active; 'I' for Inactive)
REMARK    1  A    between atoms: N_1  and  C1*_14
REMARK    2  A    between atoms: C_9  and  O_23
REMARK    3  A    between atoms: C3*_15  and  O3*_18
REMARK    4  A    between atoms: C4*_17  and  C5*_20
REMARK    5  A    between atoms: C5*_20  and  O5*_21
REMARK    6  A    between atoms: O_23  and  C_26
REMARK    7  A    between atoms: N_25  and  C_27
REMARK    8  A    between atoms: N_25  and  C_29
REMARK                            x       y       z     vdW  Elec       q    Type
REMARK                         _______ _______ _______ _____ _____    ______ ____
ROOT
ATOM      1  N   UNL     1      -1.812   0.020  -0.237  0.00  0.00    -0.238 N 
ATOM      2  N   UNL     1      -0.054   1.393  -0.328  0.00  0.00    -0.239 NA
ATOM      3  N   UNL     1      -0.676  -2.118  -0.441  0.00  0.00    -0.311 NA
ATOM      4  N   UNL     1       1.739  -1.826  -0.641  0.00  0.00    -0.289 NA
ATOM      5  N   UNL     1       0.759  -3.954  -0.656  0.00  0.00    -0.283 N 
ATOM      6  C   UNL     1      -0.710  -0.779  -0.373  0.00  0.00    +0.223 C 
ATOM      7  C   UNL     1      -1.364   1.316  -0.216  0.00  0.00    +0.224 C 
ATOM      8  C   UNL     1       0.367   0.091  -0.428  0.00  0.00    +0.190 C 
ATOM      9  C   UNL     1       1.629  -0.478  -0.567  0.00  0.00    +0.318 C 
ATOM     10  C   UNL     1       0.597  -2.552  -0.575  0.00  0.00    +0.200 C 
ATOM     11  H   UNL     1      -0.028  -4.544  -0.615  0.00  0.00    +0.156 HD
ATOM     12  H   UNL     1       1.659  -4.340  -0.755  0.00  0.00    +0.156 HD
ENDROOT
BRANCH   1  14
ATOM     13  O4* UNL     1      -4.064   0.552  -0.762  0.00  0.00    -0.335 OA
ATOM     14  C1* UNL     1      -3.201  -0.413  -0.135  0.00  0.00    +0.198 C 
ATOM     15  C3* UNL     1      -5.188  -0.378   1.122  0.00  0.00    +0.144 C 
ATOM     16  C2* UNL     1      -3.700  -0.584   1.293  0.00  0.00    +0.083 C 
ATOM     17  C4* UNL     1      -5.270   0.674   0.021  0.00  0.00    +0.173 C 
BRANCH  15  18
ATOM     18  O3* UNL     1      -5.761  -1.599   0.660  0.00  0.00    -0.382 OA
ATOM     19  H3* UNL     1      -5.709  -2.267   1.361  0.00  0.00    +0.210 HD
ENDBRANCH  15  18
BRANCH  17  20
ATOM     20  C5* UNL     1      -5.335   2.093   0.569  0.00  0.00    +0.169 C 
BRANCH  20  21
ATOM     21  O5* UNL     1      -5.397   2.997  -0.520  0.00  0.00    -0.379 OA
ATOM     22  H5* UNL     1      -5.439   3.906  -0.183  0.00  0.00    +0.211 HD
ENDBRANCH  20  21
ENDBRANCH  17  20
ENDBRANCH   1  14
BRANCH   9  23
ATOM     23  O   UNL     1       2.773   0.276  -0.633  0.00  0.00    -0.379 OA
BRANCH  23  26
ATOM     24  O   UNL     1       3.530  -0.817   1.261  0.00  0.00    -0.226 OA
ATOM     25  N   UNL     1       4.870   0.809   0.278  0.00  0.00    -0.246 N 
ATOM     26  C   UNL     1       3.719   0.021   0.381  0.00  0.00    +0.411 C 
BRANCH  25  27
ATOM     27  C   UNL     1       5.087   1.799  -0.773  0.00  0.00    +0.097 C 
ATOM     28  C   UNL     1       4.565   3.162  -0.367  0.00  0.00    +0.023 C 
ENDBRANCH  25  27
BRANCH  25  29
ATOM     29  C   UNL     1       5.944   0.666   1.252  0.00  0.00    +0.097 C 
ATOM     30  C   UNL     1       6.955  -0.373   0.814  0.00  0.00    +0.023 C 
ENDBRANCH  25  29
ENDBRANCH  23  26
ENDBRANCH   9  23
TORSDOF 8
