REMARK  Name = 134021
REMARK  13 active torsions:
REMARK  status: ('A' for Active; 'I' for Inactive)
REMARK    1  A    between atoms: P_1  and  O_3
REMARK    2  A    between atoms: P_1  and  O_5
REMARK    3  A    between atoms: P_1  and  O_13
REMARK    4  A    between atoms: O_5  and  C_6
REMARK    5  A    between atoms: C_6  and  C_7
REMARK    6  A    between atoms: C_6  and  C_10
REMARK    7  A    between atoms: C_7  and  O_8
REMARK    8  A    between atoms: C_10  and  O_11
REMARK    9  A    between atoms: O_13  and  C_14
REMARK   10  A    between atoms: C_14  and  C_15
REMARK   11  A    between atoms: C_15  and  O_16
REMARK   12  A    between atoms: C_15  and  C_18
REMARK   13  A    between atoms: C_18  and  O_19
REMARK                            x       y       z     vdW  Elec       q    Type
REMARK                         _______ _______ _______ _____ _____    ______ ____
ROOT
ATOM      1  P   UNL     1      -0.717  -1.549   0.369  0.00  0.00    +0.476 P 
ATOM      2  O   UNL     1      -1.534  -2.462  -0.498  0.00  0.00    -0.227 OA
ENDROOT
BRANCH   1   3
ATOM      3  O   UNL     1      -0.228  -2.220   1.759  0.00  0.00    -0.302 OA
ATOM      4  H   UNL     1       0.292  -1.576   2.264  0.00  0.00    +0.222 HD
ENDBRANCH   1   3
BRANCH   1   5
ATOM      5  O   UNL     1      -1.486  -0.221   0.869  0.00  0.00    -0.271 OA
BRANCH   5   6
ATOM      6  C   UNL     1      -1.978   0.683  -0.122  0.00  0.00    +0.184 C 
BRANCH   6   7
ATOM      7  C   UNL     1      -2.657   1.843   0.595  0.00  0.00    +0.170 C 
BRANCH   7   8
ATOM      8  O   UNL     1      -1.707   2.483   1.440  0.00  0.00    -0.379 OA
ATOM      9  H   UNL     1      -2.131   3.224   1.901  0.00  0.00    +0.211 HD
ENDBRANCH   7   8
ENDBRANCH   6   7
BRANCH   6  10
ATOM     10  C   UNL     1      -2.955  -0.063  -1.024  0.00  0.00    +0.170 C 
BRANCH  10  11
ATOM     11  O   UNL     1      -3.485   0.826  -2.003  0.00  0.00    -0.379 OA
ATOM     12  H   UNL     1      -4.105   0.346  -2.573  0.00  0.00    +0.211 HD
ENDBRANCH  10  11
ENDBRANCH   6  10
ENDBRANCH   5   6
ENDBRANCH   1   5
BRANCH   1  13
ATOM     13  O   UNL     1       0.649  -1.011  -0.314  0.00  0.00    -0.271 OA
BRANCH  13  14
ATOM     14  C   UNL     1       1.507  -0.141   0.405  0.00  0.00    +0.185 C 
BRANCH  14  15
ATOM     15  C   UNL     1       2.716   0.218  -0.452  0.00  0.00    +0.170 C 
BRANCH  15  16
ATOM     16  O   UNL     1       3.433  -0.980  -0.758  0.00  0.00    -0.379 OA
ATOM     17  H   UNL     1       2.850  -1.595  -1.229  0.00  0.00    +0.211 HD
ENDBRANCH  15  16
BRANCH  15  18
ATOM     18  C   UNL     1       3.661   1.158   0.284  0.00  0.00    +0.169 C 
BRANCH  18  19
ATOM     19  O   UNL     1       4.780   1.435  -0.551  0.00  0.00    -0.379 OA
ATOM     20  H   UNL     1       5.388   2.033  -0.089  0.00  0.00    +0.211 HD
ENDBRANCH  18  19
ENDBRANCH  15  18
ENDBRANCH  14  15
ENDBRANCH  13  14
ENDBRANCH   1  13
TORSDOF 13
