134010
  -OEChem-03292013323D

 44 46  0     1  0  0  0  0  0999 V2000
   -5.4379   -1.9444   -0.3732 S   0  0  0  0  0  0  0  0  0  0  0  0
   -5.3847    2.6866   -1.5178 O   0  0  0  0  0  0  0  0  0  0  0  0
    2.3321   -1.0937   -1.3222 O   0  0  0  0  0  0  0  0  0  0  0  0
   -4.1758    1.1227   -0.2602 N   0  0  0  0  0  0  0  0  0  0  0  0
   -6.3903    1.3162    0.0942 N   0  0  0  0  0  0  0  0  0  0  0  0
    3.3017    0.0327    0.4966 N   0  0  0  0  0  0  0  0  0  0  0  0
    5.5174    0.6874    1.0012 N   0  0  0  0  0  0  0  0  0  0  0  0
    7.7604    1.3326    1.4799 N   0  0  0  0  0  0  0  0  0  0  0  0
   -4.4440    0.1901    0.8181 C   0  0  1  0  0  0  0  0  0  0  0  0
   -5.9758    0.2667    1.0046 C   0  0  2  0  0  0  0  0  0  0  0  0
   -4.0254   -1.2536    0.5273 C   0  0  2  0  0  0  0  0  0  0  0  0
   -6.6347   -1.0662    0.6570 C   0  0  0  0  0  0  0  0  0  0  0  0
   -2.7232   -1.4206   -0.2381 C   0  0  0  0  0  0  0  0  0  0  0  0
   -1.5395   -0.8438    0.5378 C   0  0  0  0  0  0  0  0  0  0  0  0
   -5.3249    1.8108   -0.6655 C   0  0  0  0  0  0  0  0  0  0  0  0
   -0.2366   -0.9834   -0.2504 C   0  0  0  0  0  0  0  0  0  0  0  0
    0.9409   -0.3769    0.5097 C   0  0  0  0  0  0  0  0  0  0  0  0
    2.2606   -0.5339   -0.2332 C   0  0  0  0  0  0  0  0  0  0  0  0
    4.6713    0.0884    0.1447 C   0  0  0  0  0  0  0  0  0  0  0  0
    5.0301   -0.4807   -1.0586 C   0  0  0  0  0  0  0  0  0  0  0  0
    6.3737   -0.4311   -1.4131 C   0  0  0  0  0  0  0  0  0  0  0  0
    6.8150    0.7166    0.6229 C   0  0  0  0  0  0  0  0  0  0  0  0
    7.2896    0.1772   -0.5619 C   0  0  0  0  0  0  0  0  0  0  0  0
   -3.9233    0.5755    1.7022 H   0  0  0  0  0  0  0  0  0  0  0  0
   -6.2547    0.5852    2.0146 H   0  0  0  0  0  0  0  0  0  0  0  0
   -3.9633   -1.8036    1.4746 H   0  0  0  0  0  0  0  0  0  0  0  0
   -7.5936   -0.9561    0.1421 H   0  0  0  0  0  0  0  0  0  0  0  0
   -6.7922   -1.6591    1.5638 H   0  0  0  0  0  0  0  0  0  0  0  0
   -2.5376   -2.4880   -0.4175 H   0  0  0  0  0  0  0  0  0  0  0  0
   -2.7812   -0.9475   -1.2265 H   0  0  0  0  0  0  0  0  0  0  0  0
   -3.2505    1.3280   -0.6236 H   0  0  0  0  0  0  0  0  0  0  0  0
   -7.3415    1.6631    0.0212 H   0  0  0  0  0  0  0  0  0  0  0  0
   -1.4438   -1.3626    1.4995 H   0  0  0  0  0  0  0  0  0  0  0  0
   -1.7014    0.2161    0.7613 H   0  0  0  0  0  0  0  0  0  0  0  0
   -0.3375   -0.4889   -1.2246 H   0  0  0  0  0  0  0  0  0  0  0  0
   -0.0411   -2.0439   -0.4526 H   0  0  0  0  0  0  0  0  0  0  0  0
    0.7661    0.6928    0.6772 H   0  0  0  0  0  0  0  0  0  0  0  0
    1.0413   -0.8604    1.4889 H   0  0  0  0  0  0  0  0  0  0  0  0
    3.0828    0.4643    1.3912 H   0  0  0  0  0  0  0  0  0  0  0  0
    4.3835   -0.9675   -1.7686 H   0  0  0  0  0  0  0  0  0  0  0  0
    6.7082   -0.8653   -2.3507 H   0  0  0  0  0  0  0  0  0  0  0  0
    8.3398    0.2188   -0.8317 H   0  0  0  0  0  0  0  0  0  0  0  0
    8.5907    1.7401    1.0676 H   0  0  0  0  0  0  0  0  0  0  0  0
    7.4082    1.7307    2.3416 H   0  0  0  0  0  0  0  0  0  0  0  0
  1 11  1  0  0  0  0
  1 12  1  0  0  0  0
  2 15  2  0  0  0  0
  3 18  2  0  0  0  0
  4  9  1  0  0  0  0
  4 15  1  0  0  0  0
  4 31  1  0  0  0  0
  5 10  1  0  0  0  0
  5 15  1  0  0  0  0
  5 32  1  0  0  0  0
  6 18  1  0  0  0  0
  6 19  1  0  0  0  0
  6 39  1  0  0  0  0
  7 19  1  0  0  0  0
  7 22  2  0  0  0  0
  8 22  1  0  0  0  0
  8 43  1  0  0  0  0
  8 44  1  0  0  0  0
  9 10  1  0  0  0  0
  9 11  1  0  0  0  0
  9 24  1  0  0  0  0
 10 12  1  0  0  0  0
 10 25  1  0  0  0  0
 11 13  1  0  0  0  0
 11 26  1  0  0  0  0
 12 27  1  0  0  0  0
 12 28  1  0  0  0  0
 13 14  1  0  0  0  0
 13 29  1  0  0  0  0
 13 30  1  0  0  0  0
 14 16  1  0  0  0  0
 14 33  1  0  0  0  0
 14 34  1  0  0  0  0
 16 17  1  0  0  0  0
 16 35  1  0  0  0  0
 16 36  1  0  0  0  0
 17 18  1  0  0  0  0
 17 37  1  0  0  0  0
 17 38  1  0  0  0  0
 19 20  2  0  0  0  0
 20 21  1  0  0  0  0
 20 40  1  0  0  0  0
 21 23  2  0  0  0  0
 21 41  1  0  0  0  0
 22 23  1  0  0  0  0
 23 42  1  0  0  0  0
M  END
> <PUBCHEM_COMPOUND_CID>
134010

> <PUBCHEM_CONFORMER_RMSD>
0.8

> <PUBCHEM_CONFORMER_DIVERSEORDER>
1
112
17
25
60
111
6
92
64
65
104
2
12
106
94
19
36
58
9
3
96
107
31
42
14
5
54
86
90
62
100
45
101
47
32
52
59
95
70
4
105
51
40
21
39
13
91
66
23
93
82
67
72
38
35
49
83
56
97
69
76
11
18
22
68
16
115
71
114
50
20
57
108
84
81
30
15
8
85
61
48
77
78
98
102
26
87
55
80
103
37
28
99
89
44
74
73
24
109
33
46
29
88
7
10
41
43
53
113
34
110
79
75
63
27

> <PUBCHEM_MMFF94_PARTIAL_CHARGES>
28
1 -0.46
10 0.3
11 0.23
12 0.23
15 0.69
17 0.06
18 0.57
19 0.43
2 -0.57
20 -0.15
21 -0.15
22 0.41
23 -0.15
3 -0.57
31 0.37
32 0.37
39 0.37
4 -0.73
40 0.15
41 0.15
42 0.15
43 0.4
44 0.4
5 -0.73
6 -0.55
7 -0.62
8 -0.9
9 0.3

> <PUBCHEM_EFFECTIVE_ROTOR_COUNT>
8

> <PUBCHEM_PHARMACOPHORE_FEATURES>
11
1 2 acceptor
1 3 acceptor
1 4 donor
1 5 donor
1 6 donor
1 8 donor
3 7 8 22 cation
4 13 14 16 17 hydrophobe
5 1 9 10 11 12 rings
5 4 5 9 10 15 rings
6 7 19 20 21 22 23 rings

> <PUBCHEM_HEAVY_ATOM_COUNT>
23

> <PUBCHEM_ATOM_DEF_STEREO_COUNT>
3

> <PUBCHEM_ATOM_UDEF_STEREO_COUNT>
0

> <PUBCHEM_BOND_DEF_STEREO_COUNT>
0

> <PUBCHEM_BOND_UDEF_STEREO_COUNT>
0

> <PUBCHEM_ISOTOPIC_ATOM_COUNT>
0

> <PUBCHEM_COMPONENT_COUNT>
1

> <PUBCHEM_CACTVS_TAUTO_COUNT>
27

> <PUBCHEM_CONFORMER_ID>
00020B7A00000001

> <PUBCHEM_MMFF94_ENERGY>
65.9769

> <PUBCHEM_FEATURE_SELFOVERLAP>
56.385

> <PUBCHEM_SHAPE_FINGERPRINT>
10 15 18259706679701795019
10066227 112 17917990594465512632
10087517 78 18040433278913555597
10299344 5 16515686658734636362
10411042 1 17902518413808236787
10638233 991 17531256105378875628
10730089 173 18335143077087477957
11315181 36 17203332226273663251
11719270 70 17132120113580597142
11761917 142 18189892011590965524
12091667 2 18260552238387495235
125118 31 18411703214465622040
13073987 5 18113617850847819947
13533116 47 18334294224437130098
13668630 136 10087922977930914640
14251764 18 16805606983825755386
14598715 104 18341599421987476112
14729087 3 18412260636030794192
14849402 71 16371585807270359876
14933364 13 18202568392826247970
15183329 4 18186522115661327378
15419008 47 18272650155742693009
15461852 350 18410289238301503967
155225 5 18118963590451774101
15716309 27 13767926836098947987
16079462 125 18273492377628076578
17093844 174 18410011057311384499
17780758 139 16370733638877864489
18336668 15 17821733840728318973
20157964 124 17203615891752116910
20281389 69 18409167705674521058
21150785 3 13830128404137759432
21315759 40 15864077606466503027
22288116 15 14979665641729316261
23081809 10 17676202472737526482
23522609 53 16081956779139560662
23559900 14 17203321251719709707
3663271 9 17022619762631808537
4073 2 18271528723287548806
44280117 145 17916302913453928079
444735 82 18266177417654717576
58083652 198 15502372369940852558
999808 66 7853571331362453369

> <PUBCHEM_SHAPE_MULTIPOLES>
440.54
25.26
1.78
1.2
21.24
0.66
-0.14
7.09
1.45
-3.76
-0.55
0.78
0.29
2.42

> <PUBCHEM_SHAPE_SELFOVERLAP>
910.691

> <PUBCHEM_SHAPE_VOLUME>
254.1

> <PUBCHEM_COORDINATE_TYPE>
2
5
10

$$$$
