REMARK  Name = 134013
REMARK  8 active torsions:
REMARK  status: ('A' for Active; 'I' for Inactive)
REMARK    1  A    between atoms: N_4  and  C_14
REMARK    2  A    between atoms: N_5  and  C_18
REMARK    3  A    between atoms: C_6  and  O_10
REMARK    4  A    between atoms: C_6  and  O_12
REMARK    5  A    between atoms: C_14  and  C_15
REMARK    6  A    between atoms: C_15  and  C_16
REMARK    7  A    between atoms: C_18  and  C_19
REMARK    8  A    between atoms: C_19  and  C_20
REMARK                            x       y       z     vdW  Elec       q    Type
REMARK                         _______ _______ _______ _____ _____    ______ ____
ROOT
ATOM      1  S   UNL     1       0.026   2.496  -0.935  0.00  0.00    -0.018 S 
ATOM      2  O   UNL     1       1.913  -1.446   1.690  0.00  0.00    -0.269 OA
ATOM      3  O   UNL     1      -2.276  -1.910   0.192  0.00  0.00    -0.269 OA
ATOM      4  N   UNL     1       1.066   0.335   0.420  0.00  0.00    -0.237 N 
ATOM      5  N   UNL     1      -1.187   0.081  -0.400  0.00  0.00    -0.237 N 
ATOM      6  C   UNL     1       0.110  -1.896   0.194  0.00  0.00    +0.327 C 
ATOM      7  C   UNL     1      -0.028   0.917  -0.298  0.00  0.00    +0.150 C 
ATOM      8  C   UNL     1       1.119  -1.002   0.860  0.00  0.00    +0.291 C 
ATOM      9  C   UNL     1      -1.244  -1.263   0.011  0.00  0.00    +0.291 C 
ENDROOT
BRANCH   6  10
ATOM     10  O   UNL     1       0.677  -2.153  -1.083  0.00  0.00    -0.319 OA
ATOM     11  C   UNL     1      -0.155  -2.998  -1.866  0.00  0.00    +0.178 C 
ENDBRANCH   6  10
BRANCH   6  12
ATOM     12  O   UNL     1      -0.010  -3.097   0.926  0.00  0.00    -0.351 OA
ATOM     13  H   UNL     1       0.867  -3.496   1.038  0.00  0.00    +0.214 HD
ENDBRANCH   6  12
BRANCH   4  14
ATOM     14  C   UNL     1       2.204   1.175   0.820  0.00  0.00    +0.100 C 
BRANCH  14  15
ATOM     15  C   UNL     1       3.366   1.087  -0.163  0.00  0.00    +0.022 C 
BRANCH  15  16
ATOM     16  C   UNL     1       4.564   1.939   0.265  0.00  0.00    +0.002 C 
ATOM     17  C   UNL     1       5.728   1.785  -0.701  0.00  0.00    +0.000 C 
ENDBRANCH  15  16
ENDBRANCH  14  15
ENDBRANCH   4  14
BRANCH   5  18
ATOM     18  C   UNL     1      -2.455   0.648  -0.877  0.00  0.00    +0.100 C 
BRANCH  18  19
ATOM     19  C   UNL     1      -3.300   1.220   0.256  0.00  0.00    +0.022 C 
BRANCH  19  20
ATOM     20  C   UNL     1      -4.635   1.787  -0.234  0.00  0.00    +0.002 C 
ATOM     21  C   UNL     1      -5.480   2.295   0.924  0.00  0.00    +0.000 C 
ENDBRANCH  19  20
ENDBRANCH  18  19
ENDBRANCH   5  18
TORSDOF 8
