134089
  -OEChem-03292013323D

 44 48  0     0  0  0  0  0  0999 V2000
    0.2840   -0.0009    1.9441 O   0  0  0  0  0  0  0  0  0  0  0  0
    3.2370    0.0014   -0.8651 O   0  0  0  0  0  0  0  0  0  0  0  0
   -1.6655   -0.0026    3.1920 O   0  0  0  0  0  0  0  0  0  0  0  0
    3.6626    4.7073   -0.5992 O   0  0  0  0  0  0  0  0  0  0  0  0
    3.6684   -4.7041   -0.6000 O   0  0  0  0  0  0  0  0  0  0  0  0
   -5.8531    0.0008    0.7542 O   0  0  0  0  0  0  0  0  0  0  0  0
   -4.6701   -0.0009   -1.2849 N   0  0  0  0  0  0  0  0  0  0  0  0
    0.6725   -0.0002    0.5337 C   0  0  0  0  0  0  0  0  0  0  0  0
   -0.6593   -0.0005   -0.1448 C   0  0  0  0  0  0  0  0  0  0  0  0
    1.4725    1.2590    0.2643 C   0  0  0  0  0  0  0  0  0  0  0  0
    1.4738   -1.2583    0.2635 C   0  0  0  0  0  0  0  0  0  0  0  0
   -1.6676   -0.0014    0.8021 C   0  0  0  0  0  0  0  0  0  0  0  0
    2.6860    1.1817   -0.4285 C   0  0  0  0  0  0  0  0  0  0  0  0
    2.6874   -1.1797   -0.4289 C   0  0  0  0  0  0  0  0  0  0  0  0
   -1.0749   -0.0014    2.1307 C   0  0  0  0  0  0  0  0  0  0  0  0
   -0.9716   -0.0001   -1.4951 C   0  0  0  0  0  0  0  0  0  0  0  0
    1.0138    2.5259    0.6664 C   0  0  0  0  0  0  0  0  0  0  0  0
    1.0164   -2.5259    0.6651 C   0  0  0  0  0  0  0  0  0  0  0  0
   -3.0089   -0.0018    0.4664 C   0  0  0  0  0  0  0  0  0  0  0  0
    3.4175    2.3375   -0.7221 C   0  0  0  0  0  0  0  0  0  0  0  0
    3.4205   -2.3345   -0.7223 C   0  0  0  0  0  0  0  0  0  0  0  0
   -3.3313   -0.0012   -0.8908 C   0  0  0  0  0  0  0  0  0  0  0  0
   -2.3195   -0.0006   -1.8657 C   0  0  0  0  0  0  0  0  0  0  0  0
    1.7472    3.6785    0.3796 C   0  0  0  0  0  0  0  0  0  0  0  0
    1.7513   -3.6777    0.3784 C   0  0  0  0  0  0  0  0  0  0  0  0
    2.9482    3.5842   -0.3164 C   0  0  0  0  0  0  0  0  0  0  0  0
    2.9526   -3.5820   -0.3169 C   0  0  0  0  0  0  0  0  0  0  0  0
   -5.8110   -0.0015   -0.4717 C   0  0  0  0  0  0  0  0  0  0  0  0
   -7.0791   -0.0009   -1.2880 C   0  0  0  0  0  0  0  0  0  0  0  0
   -0.1948    0.0006   -2.2524 H   0  0  0  0  0  0  0  0  0  0  0  0
    0.0745    2.6302    1.2036 H   0  0  0  0  0  0  0  0  0  0  0  0
    0.0770   -2.6313    1.2019 H   0  0  0  0  0  0  0  0  0  0  0  0
   -3.7264   -0.0025    1.2725 H   0  0  0  0  0  0  0  0  0  0  0  0
    4.3565    2.2567   -1.2650 H   0  0  0  0  0  0  0  0  0  0  0  0
    4.3603   -2.2597   -1.2643 H   0  0  0  0  0  0  0  0  0  0  0  0
   -2.5742   -0.0002   -2.9231 H   0  0  0  0  0  0  0  0  0  0  0  0
    1.3721    4.6468    0.6996 H   0  0  0  0  0  0  0  0  0  0  0  0
    1.3714   -4.6433    0.7009 H   0  0  0  0  0  0  0  0  0  0  0  0
   -4.8267   -0.0006   -2.2907 H   0  0  0  0  0  0  0  0  0  0  0  0
    4.4664    4.4558   -1.0858 H   0  0  0  0  0  0  0  0  0  0  0  0
    3.1965   -5.4770   -0.2450 H   0  0  0  0  0  0  0  0  0  0  0  0
   -7.1262    0.9066   -1.8964 H   0  0  0  0  0  0  0  0  0  0  0  0
   -7.9475   -0.0293   -0.6239 H   0  0  0  0  0  0  0  0  0  0  0  0
   -7.1021   -0.8794   -1.9390 H   0  0  0  0  0  0  0  0  0  0  0  0
  1  8  1  0  0  0  0
  1 15  1  0  0  0  0
  2 13  1  0  0  0  0
  2 14  1  0  0  0  0
  3 15  2  0  0  0  0
  4 26  1  0  0  0  0
  4 40  1  0  0  0  0
  5 27  1  0  0  0  0
  5 41  1  0  0  0  0
  6 28  2  0  0  0  0
  7 22  1  0  0  0  0
  7 28  1  0  0  0  0
  7 39  1  0  0  0  0
  8  9  1  0  0  0  0
  8 10  1  0  0  0  0
  8 11  1  0  0  0  0
  9 12  2  0  0  0  0
  9 16  1  0  0  0  0
 10 13  2  0  0  0  0
 10 17  1  0  0  0  0
 11 14  2  0  0  0  0
 11 18  1  0  0  0  0
 12 15  1  0  0  0  0
 12 19  1  0  0  0  0
 13 20  1  0  0  0  0
 14 21  1  0  0  0  0
 16 23  2  0  0  0  0
 16 30  1  0  0  0  0
 17 24  2  0  0  0  0
 17 31  1  0  0  0  0
 18 25  2  0  0  0  0
 18 32  1  0  0  0  0
 19 22  2  0  0  0  0
 19 33  1  0  0  0  0
 20 26  2  0  0  0  0
 20 34  1  0  0  0  0
 21 27  2  0  0  0  0
 21 35  1  0  0  0  0
 22 23  1  0  0  0  0
 23 36  1  0  0  0  0
 24 26  1  0  0  0  0
 24 37  1  0  0  0  0
 25 27  1  0  0  0  0
 25 38  1  0  0  0  0
 28 29  1  0  0  0  0
 29 42  1  0  0  0  0
 29 43  1  0  0  0  0
 29 44  1  0  0  0  0
M  END
> <PUBCHEM_COMPOUND_CID>
134089

> <PUBCHEM_CONFORMER_RMSD>
0.6

> <PUBCHEM_CONFORMER_DIVERSEORDER>
1
2

> <PUBCHEM_MMFF94_PARTIAL_CHARGES>
41
1 -0.43
10 -0.14
11 -0.14
12 0.09
13 0.08
14 0.08
15 0.63
16 -0.15
17 -0.15
18 -0.15
19 -0.15
2 -0.17
20 -0.15
21 -0.15
22 0.12
23 -0.15
24 -0.15
25 -0.15
26 0.08
27 0.08
28 0.57
29 0.06
3 -0.57
30 0.15
31 0.15
32 0.15
33 0.15
34 0.15
35 0.15
36 0.15
37 0.15
38 0.15
39 0.37
4 -0.53
40 0.45
41 0.45
5 -0.53
6 -0.57
7 -0.55
8 0.71
9 -0.14

> <PUBCHEM_EFFECTIVE_ROTOR_COUNT>
2.4

> <PUBCHEM_PHARMACOPHORE_FEATURES>
11
1 2 acceptor
1 3 acceptor
1 4 donor
1 5 donor
1 6 acceptor
1 7 donor
5 1 8 9 12 15 rings
6 10 13 17 20 24 26 rings
6 11 14 18 21 25 27 rings
6 2 8 10 11 13 14 rings
6 9 12 16 19 22 23 rings

> <PUBCHEM_HEAVY_ATOM_COUNT>
29

> <PUBCHEM_ATOM_DEF_STEREO_COUNT>
0

> <PUBCHEM_ATOM_UDEF_STEREO_COUNT>
0

> <PUBCHEM_BOND_DEF_STEREO_COUNT>
0

> <PUBCHEM_BOND_UDEF_STEREO_COUNT>
0

> <PUBCHEM_ISOTOPIC_ATOM_COUNT>
0

> <PUBCHEM_COMPONENT_COUNT>
1

> <PUBCHEM_CACTVS_TAUTO_COUNT>
10

> <PUBCHEM_CONFORMER_ID>
00020BC900000001

> <PUBCHEM_MMFF94_ENERGY>
89.9765

> <PUBCHEM_FEATURE_SELFOVERLAP>
55.969

> <PUBCHEM_SHAPE_FINGERPRINT>
10165383 225 17469089791212279548
10411042 1 18122623847448609246
105312 117 17831583446236624412
10693767 8 18130796616446843086
10721379 63 18343023285028620580
10930396 42 17971161843931408898
11101153 10 18121224170048692902
11115154 58 18048034078237181093
11578080 2 18043835262331461785
11582403 64 17317851953567839180
11725454 13 17605541344197239456
11763715 3 17834979481003526054
12107183 9 17983301418163469905
12236239 1 17704076170284965227
12293681 160 17629771329189136936
12553582 1 18050874142663024578
12730499 353 18262804085303116465
12788726 201 17181375798820083122
13009979 54 17631175169155758443
13533116 47 18411978058112586943
13911987 19 18189921780768176606
13955234 65 18410007745501221931
15219462 58 17903683757929010137
15324884 4 17606425351530010858
15950262 2 15287643307240891406
17980427 26 17909592519956919200
1813 80 17987238815666480974
18915476 22 18336558221266124795
19319366 153 18201152277620736103
22033318 11 17770810939256714345
22907989 373 16896238915881976148
23419403 2 17824573861507520722
23522609 53 17845956099627171545
23559900 14 18409721834292929275
238 59 18336547208970003406
244849 19 18041014946413249489
3004659 81 17632579327530657439
46194498 28 18261945285212286871
495365 180 18336540637522789424
57527295 17 17607247549920418699
58260988 587 18335424620731067341
6004065 56 18410007724380086162
6695519 79 17838632397917395667
70251023 43 18337954467979097539
9658208 31 17022627468646948667

> <PUBCHEM_SHAPE_MULTIPOLES>
556.61
9.94
4.81
1.69
21.61
0.01
-1.01
-0.01
4.31
-11.12
0.66
1.39
0
0

> <PUBCHEM_SHAPE_SELFOVERLAP>
1269.102

> <PUBCHEM_SHAPE_VOLUME>
288

> <PUBCHEM_COORDINATE_TYPE>
2
5
10

$$$$
