REMARK  Name = 134005
REMARK  6 active torsions:
REMARK  status: ('A' for Active; 'I' for Inactive)
REMARK    1  A    between atoms: C_2  and  C_18
REMARK    2  A    between atoms: C_3  and  O_16
REMARK    3  A    between atoms: C_4  and  N_7
REMARK    4  A    between atoms: C_5  and  C_21
REMARK    5  A    between atoms: C_18  and  O_19
REMARK    6  A    between atoms: C_21  and  O_22
REMARK                            x       y       z     vdW  Elec       q    Type
REMARK                         _______ _______ _______ _____ _____    ______ ____
ROOT
ATOM      1  O   UNL     1       1.112   1.163  -0.601  0.00  0.00    -0.334 OA
ATOM      2  C   UNL     1       1.142  -1.055   0.265  0.00  0.00    +0.106 C 
ATOM      3  C   UNL     1       2.562  -0.527   0.182  0.00  0.00    +0.147 C 
ATOM      4  C   UNL     1       0.411  -0.091  -0.664  0.00  0.00    +0.211 C 
ATOM      5  C   UNL     1       2.316   0.973   0.158  0.00  0.00    +0.173 C 
ENDROOT
BRANCH   4   7
ATOM      6  O   UNL     1      -1.796  -1.497  -1.708  0.00  0.00    -0.193 OA
ATOM      7  N   UNL     1      -0.959   0.118  -0.288  0.00  0.00    -0.180 N 
ATOM      8  N   UNL     1      -3.316  -0.377  -0.449  0.00  0.00    -0.306 NA
ATOM      9  N   UNL     1      -4.868   0.777   0.843  0.00  0.00    -0.332 N 
ATOM     10  C   UNL     1      -1.249   1.085   0.662  0.00  0.00    +0.083 C 
ATOM     11  C   UNL     1      -2.019  -0.632  -0.860  0.00  0.00    +0.275 C 
ATOM     12  C   UNL     1      -2.490   1.346   1.070  0.00  0.00    +0.065 C 
ATOM     13  C   UNL     1      -3.572   0.538   0.449  0.00  0.00    +0.193 C 
ATOM     14  H   UNL     1      -5.606   0.257   0.449  0.00  0.00    +0.145 HD
ATOM     15  H   UNL     1      -5.058   1.467   1.519  0.00  0.00    +0.145 HD
ENDBRANCH   4   7
BRANCH   3  16
ATOM     16  O   UNL     1       3.345  -0.896   1.300  0.00  0.00    -0.382 OA
ATOM     17  H   UNL     1       3.488  -1.856   1.292  0.00  0.00    +0.210 HD
ENDBRANCH   3  16
BRANCH   2  18
ATOM     18  C   UNL     1       1.000  -2.514  -0.141  0.00  0.00    +0.144 C 
BRANCH  18  19
ATOM     19  O   UNL     1       1.811  -3.305   0.712  0.00  0.00    -0.382 OA
ATOM     20  H   UNL     1       1.729  -4.239   0.462  0.00  0.00    +0.210 HD
ENDBRANCH  18  19
ENDBRANCH   2  18
BRANCH   5  21
ATOM     21  C   UNL     1       3.451   1.759  -0.474  0.00  0.00    +0.169 C 
BRANCH  21  22
ATOM     22  O   UNL     1       3.118   3.137  -0.457  0.00  0.00    -0.379 OA
ATOM     23  H   UNL     1       3.838   3.649  -0.859  0.00  0.00    +0.211 HD
ENDBRANCH  21  22
ENDBRANCH   5  21
TORSDOF 6
