134181
  -OEChem-03292013323D

 21 21  0     1  0  0  0  0  0999 V2000
    1.3100   -0.7742    2.3025 Br  0  0  0  0  0  0  0  0  0  0  0  0
    1.7184    0.4699   -2.1899 Br  0  0  0  0  0  0  0  0  0  0  0  0
   -1.0178    0.1602    0.3007 O   0  0  0  0  0  0  0  0  0  0  0  0
    4.0424   -0.5962    0.1899 O   0  0  0  0  0  0  0  0  0  0  0  0
   -4.4487    0.6215   -0.1791 O   0  5  0  0  0  0  0  0  0  0  0  0
   -2.9018    1.9281    0.6800 O   0  0  0  0  0  0  0  0  0  0  0  0
   -3.2437    0.8318    0.1471 N   0  3  0  0  0  0  0  0  0  0  0  0
    3.9596    1.6867   -0.0473 N   0  0  0  0  0  0  0  0  0  0  0  0
    1.1853   -0.7973    0.3304 C   0  0  1  0  0  0  0  0  0  0  0  0
   -0.2851   -0.9171   -0.0117 C   0  0  0  0  0  0  0  0  0  0  0  0
    1.8890    0.4407   -0.2283 C   0  0  1  0  0  0  0  0  0  0  0  0
   -0.9974   -1.9106   -0.5730 C   0  0  0  0  0  0  0  0  0  0  0  0
   -2.2830   -0.1547   -0.0819 C   0  0  0  0  0  0  0  0  0  0  0  0
   -2.3231   -1.4178   -0.6252 C   0  0  0  0  0  0  0  0  0  0  0  0
    3.3961    0.4292   -0.0142 C   0  0  0  0  0  0  0  0  0  0  0  0
    1.7003   -1.7204    0.0386 H   0  0  0  0  0  0  0  0  0  0  0  0
    1.4461    1.3766    0.1286 H   0  0  0  0  0  0  0  0  0  0  0  0
   -0.6389   -2.8722   -0.9100 H   0  0  0  0  0  0  0  0  0  0  0  0
   -3.1952   -1.9259   -1.0122 H   0  0  0  0  0  0  0  0  0  0  0  0
    4.9566    1.8148    0.0900 H   0  0  0  0  0  0  0  0  0  0  0  0
    3.4118    2.5240   -0.2170 H   0  0  0  0  0  0  0  0  0  0  0  0
  1  9  1  0  0  0  0
  2 11  1  0  0  0  0
  3 10  1  0  0  0  0
  3 13  1  0  0  0  0
  4 15  2  0  0  0  0
  5  7  1  0  0  0  0
  6  7  2  0  0  0  0
  7 13  1  0  0  0  0
  8 15  1  0  0  0  0
  8 20  1  0  0  0  0
  8 21  1  0  0  0  0
  9 10  1  0  0  0  0
  9 11  1  0  0  0  0
  9 16  1  0  0  0  0
 10 12  2  0  0  0  0
 11 15  1  0  0  0  0
 11 17  1  0  0  0  0
 12 14  1  0  0  0  0
 12 18  1  0  0  0  0
 13 14  2  0  0  0  0
 14 19  1  0  0  0  0
M  CHG  2   5  -1   7   1
M  END
> <PUBCHEM_COMPOUND_CID>
134181

> <PUBCHEM_CONFORMER_RMSD>
0.6

> <PUBCHEM_CONFORMER_DIVERSEORDER>
1
97
87
116
86
134
109
135
79
113
62
69
137
61
33
41
57
139
36
39
95
26
119
68
67
98
74
55
125
114
35
80
122
7
110
13
22
60
100
136
73
91
50
115
58
48
99
120
108
130
106
84
59
5
49
104
89
70
54
52
28
44
96
105
31
123
21
78
15
19
29
118
3
138
81
82
6
75
42
93
17
27
40
24
25
90
124
94
43
66
47
85
133
102
129
107
14
101
83
34
2
131
30
92
32
11
72
20
127
18
140
103
56
46
4
65
9
128
53
77
76
88
121
8
126
12
117
10
132
23
111
64
16
71
37
51
45
38
63
112

> <PUBCHEM_MMFF94_PARTIAL_CHARGES>
19
1 -0.23
10 -0.04
11 0.29
12 -0.15
13 0.22
14 -0.15
15 0.57
18 0.15
19 0.15
2 -0.23
20 0.37
21 0.37
3 -0.28
4 -0.57
5 -0.52
6 -0.52
7 0.96
8 -0.8
9 0.41

> <PUBCHEM_EFFECTIVE_ROTOR_COUNT>
4

> <PUBCHEM_PHARMACOPHORE_FEATURES>
9
1 1 hydrophobe
1 2 hydrophobe
1 3 acceptor
1 4 acceptor
1 5 acceptor
1 5 anion
1 6 acceptor
1 8 donor
5 3 10 12 13 14 rings

> <PUBCHEM_HEAVY_ATOM_COUNT>
15

> <PUBCHEM_ATOM_DEF_STEREO_COUNT>
0

> <PUBCHEM_ATOM_UDEF_STEREO_COUNT>
2

> <PUBCHEM_BOND_DEF_STEREO_COUNT>
0

> <PUBCHEM_BOND_UDEF_STEREO_COUNT>
0

> <PUBCHEM_ISOTOPIC_ATOM_COUNT>
0

> <PUBCHEM_COMPONENT_COUNT>
1

> <PUBCHEM_CACTVS_TAUTO_COUNT>
2

> <PUBCHEM_CONFORMER_ID>
00020C2500000001

> <PUBCHEM_MMFF94_ENERGY>
25.4806

> <PUBCHEM_FEATURE_SELFOVERLAP>
45.762

> <PUBCHEM_SHAPE_FINGERPRINT>
11471102 22 15574711400211035806
12138202 97 17418374718090293015
12251169 10 15864075385725317515
124424 183 17203607082178269162
12491281 212 18336833090841583770
13538477 17 18335408089312417275
14897335 6 18413387614127577767
14943859 89 18342175574622437419
15309172 13 16081363089989026538
15775835 57 18334575754356312828
15852999 172 17203616986251574102
16945 1 18120389892817512686
17357990 137 17968961754199880788
18186145 218 17559979661074718358
20201158 50 16271933718001127502
20233049 118 18340482283676539648
20279233 1 16056881346994819630
20645477 56 18272372004996029696
20671657 53 13542465345393785762
20711983 171 18271805761266753830
21061003 4 15864067667711440782
21524375 3 18410294675181337463
22926399 65 18131070424252412088
23402539 116 17988633090936347253
23526113 38 16845300414282029838
23557571 272 17915750966203963934
23559900 14 17847064377013847982
23598291 2 18042667451717559050
474 4 17749673016616228628
568465 68 15140680284732070436
633830 44 17822292409693349550
77492 1 18187071880181389546
9981440 41 17469884849878430504

> <PUBCHEM_SHAPE_MULTIPOLES>
287.14
6.8
1.71
1.54
0.77
0.27
-0.06
-2.24
2.03
-1.12
0.14
0.66
-0.05
-0.91

> <PUBCHEM_SHAPE_SELFOVERLAP>
566.441

> <PUBCHEM_SHAPE_VOLUME>
176.5

> <PUBCHEM_COORDINATE_TYPE>
2
5
10

$$$$
