REMARK  Name = 134151810
REMARK  7 active torsions:
REMARK  status: ('A' for Active; 'I' for Inactive)
REMARK    1  A    between atoms: C_4  and  N_29
REMARK    2  A    between atoms: C_7  and  C_17
REMARK    3  A    between atoms: C_10  and  O_27
REMARK    4  A    between atoms: C_20  and  O_23
REMARK    5  A    between atoms: C_21  and  O_25
REMARK    6  A    between atoms: N_29  and  C_31
REMARK    7  A    between atoms: C_32  and  O_37
REMARK                            x       y       z     vdW  Elec       q    Type
REMARK                         _______ _______ _______ _____ _____    ______ ____
ROOT
ATOM      1  O   UNL     1       1.142  -0.768   0.742  0.00  0.00    -0.448 OA
ATOM      2  O   UNL     1      -0.166  -2.067  -2.148  0.00  0.00    -0.296 OA
ATOM      3  O   UNL     1       2.339  -2.339  -0.453  0.00  0.00    -0.250 OA
ATOM      4  C   UNL     1      -1.162   0.677  -0.140  0.00  0.00    +0.080 C 
ATOM      5  C   UNL     1       0.263   1.329  -0.082  0.00  0.00    +0.063 C 
ATOM      6  C   UNL     1      -1.511  -0.216  -1.361  0.00  0.00    +0.076 C 
ATOM      7  C   UNL     1       1.413   0.286  -0.208  0.00  0.00    +0.193 C 
ATOM      8  C   UNL     1      -1.485  -2.579  -0.188  0.00  0.00    +0.085 C 
ATOM      9  C   UNL     1      -0.949  -1.649  -1.291  0.00  0.00    +0.154 C 
ATOM     10  C   UNL     1      -0.458  -3.612   0.350  0.00  0.00    +0.128 C 
ATOM     11  C   UNL     1       0.691  -3.020   1.201  0.00  0.00    +0.126 C 
ATOM     12  C   UNL     1       0.393   2.128   1.236  0.00  0.00    +0.006 C 
ATOM     13  C   UNL     1      -1.168   0.442  -2.704  0.00  0.00    +0.009 C 
ATOM     14  C   UNL     1      -2.712  -3.294  -0.764  0.00  0.00    +0.010 C 
ATOM     15  C   UNL     1       1.523  -2.034   0.406  0.00  0.00    +0.319 C 
ATOM     16  C   UNL     1       1.616  -4.092   1.778  0.00  0.00    +0.014 C 
ENDROOT
BRANCH   7  17
ATOM     17  C   UNL     1       2.806   0.869  -0.058  0.00  0.00    +0.023 C 
ATOM     18  C   UNL     1       3.489   1.345  -1.177  0.00  0.00    +0.036 C 
ATOM     19  C   UNL     1       3.404   0.930   1.201  0.00  0.00    +0.036 C 
ATOM     20  C   UNL     1       4.684   1.467   1.340  0.00  0.00    +0.136 C 
ATOM     21  C   UNL     1       4.769   1.881  -1.038  0.00  0.00    +0.136 C 
ATOM     22  C   UNL     1       5.366   1.942   0.221  0.00  0.00    +0.073 C 
BRANCH  20  23
ATOM     23  O   UNL     1       5.268   1.526   2.569  0.00  0.00    -0.505 OA
ATOM     24  H   UNL     1       4.809   1.207   3.321  0.00  0.00    +0.292 HD
ENDBRANCH  20  23
BRANCH  21  25
ATOM     25  O   UNL     1       5.435   2.344  -2.131  0.00  0.00    -0.505 OA
ATOM     26  H   UNL     1       5.034   2.303  -2.977  0.00  0.00    +0.292 HD
ENDBRANCH  21  25
ENDBRANCH   7  17
BRANCH  10  27
ATOM     27  O   UNL     1       0.042  -4.411  -0.721  0.00  0.00    -0.383 OA
ATOM     28  H   UNL     1      -0.701  -4.767  -1.233  0.00  0.00    +0.210 HD
ENDBRANCH  10  27
BRANCH   4  29
ATOM     29  N   UNL     1      -2.164   1.736  -0.093  0.00  0.00    -0.331 N 
ATOM     30  H   UNL     1      -1.902   2.641  -0.378  0.00  0.00    +0.147 HD
BRANCH  29  31
ATOM     31  C   UNL     1      -3.460   1.534   0.332  0.00  0.00    +0.079 C 
ATOM     32  C   UNL     1      -4.504   2.303  -0.182  0.00  0.00    +0.147 C 
ATOM     33  C   UNL     1      -3.722   0.550   1.285  0.00  0.00    +0.017 C 
ATOM     34  C   UNL     1      -5.811   2.087   0.257  0.00  0.00    +0.038 C 
ATOM     35  C   UNL     1      -5.029   0.335   1.725  0.00  0.00    +0.001 C 
ATOM     36  C   UNL     1      -6.073   1.104   1.211  0.00  0.00    +0.003 C 
BRANCH  32  37
ATOM     37  O   UNL     1      -4.269   3.268  -1.115  0.00  0.00    -0.504 OA
ATOM     38  H   UNL     1      -3.397   3.423  -1.419  0.00  0.00    +0.292 HD
ENDBRANCH  32  37
ENDBRANCH  29  31
ENDBRANCH   4  29
TORSDOF 7
