REMARK  Name = 134107
REMARK  10 active torsions:
REMARK  status: ('A' for Active; 'I' for Inactive)
REMARK    1  A    between atoms: C_1  and  O_2
REMARK    2  A    between atoms: C_1  and  C_4
REMARK    3  A    between atoms: C_1  and  CA_14
REMARK    4  A    between atoms: C_4  and  O_5
REMARK    5  A    between atoms: C_4  and  C_7
REMARK    6  A    between atoms: C_7  and  O_8
REMARK    7  A    between atoms: C_7  and  C_11
REMARK    8  A    between atoms: C_11  and  O_12
REMARK    9  A    between atoms: CA_14  and  N_16
REMARK   10  A    between atoms: CA_14  and  C_21
REMARK                            x       y       z     vdW  Elec       q    Type
REMARK                         _______ _______ _______ _____ _____    ______ ____
ROOT
ATOM      1  C   UNL     1       0.121  -1.207  -0.050  0.00  0.00    +0.166 C 
ENDROOT
BRANCH   1   2
ATOM      2  O   UNL     1       0.203  -1.689  -1.395  0.00  0.00    -0.380 OA
ATOM      3  H   UNL     1      -0.672  -1.990  -1.685  0.00  0.00    +0.211 HD
ENDBRANCH   1   2
BRANCH   1   4
ATOM      4  C   UNL     1      -0.952  -0.099  -0.013  0.00  0.00    +0.177 C 
BRANCH   4   5
ATOM      5  O   UNL     1      -0.974   0.447   1.312  0.00  0.00    -0.379 OA
ATOM      6  H   UNL     1      -0.084   0.748   1.553  0.00  0.00    +0.211 HD
ENDBRANCH   4   5
BRANCH   4   7
ATOM      7  C   UNL     1      -2.375  -0.562  -0.353  0.00  0.00    +0.239 C 
BRANCH   7   8
ATOM      8  O   UNL     1      -2.739  -1.561   0.603  0.00  0.00    -0.373 OA
ATOM      9  H   UNL     1      -2.111  -2.298   0.555  0.00  0.00    +0.211 HD
ENDBRANCH   7   8
BRANCH   7  11
ATOM     10  O   UNL     1      -4.287   0.565   0.636  0.00  0.00    -0.248 OA
ATOM     11  C   UNL     1      -3.402   0.541  -0.209  0.00  0.00    +0.344 C 
BRANCH  11  12
ATOM     12  O   UNL     1      -3.232   1.528  -1.125  0.00  0.00    -0.478 OA
ATOM     13  H   UNL     1      -2.540   1.469  -1.754  0.00  0.00    +0.295 HD
ENDBRANCH  11  12
ENDBRANCH   7  11
ENDBRANCH   4   7
ENDBRANCH   1   4
BRANCH   1  14
ATOM     14  CA  UNL     1       1.518  -0.737   0.385  0.00  0.00    +0.166 C 
BRANCH  14  16
ATOM     15  O   UNL     1       2.426   1.872   1.276  0.00  0.00    -0.275 OA
ATOM     16  N   UNL     1       2.025   0.337  -0.428  0.00  0.00    -0.297 N 
ATOM     17  C   UNL     1       2.438   1.556   0.089  0.00  0.00    +0.223 C 
ATOM     18  C   UNL     1       2.948   2.489  -0.976  0.00  0.00    +0.095 C 
ATOM     19  H   UNL     1       2.082   0.199  -1.401  0.00  0.00    +0.150 HD
ENDBRANCH  14  16
BRANCH  14  21
ATOM     20  O   UNL     1       3.729  -1.639  -0.023  0.00  0.00    -0.286 OA
ATOM     21  C   UNL     1       2.553  -1.841   0.269  0.00  0.00    +0.229 C 
ENDBRANCH  14  21
ENDBRANCH   1  14
TORSDOF 10
