REMARK  Name = 134162
REMARK  13 active torsions:
REMARK  status: ('A' for Active; 'I' for Inactive)
REMARK    1  A    between atoms: C_1  and  C_26
REMARK    2  A    between atoms: C_3  and  O_9
REMARK    3  A    between atoms: C_5  and  O_7
REMARK    4  A    between atoms: O_9  and  C_11
REMARK    5  A    between atoms: C_10  and  C_16
REMARK    6  A    between atoms: C_16  and  CA_17
REMARK    7  A    between atoms: CA_17  and  N_18
REMARK    8  A    between atoms: CA_17  and  C_23
REMARK    9  A    between atoms: C_23  and  O_24
REMARK   10  A    between atoms: C_26  and  CA_27
REMARK   11  A    between atoms: CA_27  and  N_28
REMARK   12  A    between atoms: CA_27  and  C_33
REMARK   13  A    between atoms: C_33  and  O_34
REMARK                            x       y       z     vdW  Elec       q    Type
REMARK                         _______ _______ _______ _____ _____    ______ ____
ROOT
ATOM      1  C   UNL     1      -3.241  -0.635   0.321  0.00  0.00    -0.021 C 
ATOM      2  C   UNL     1      -2.294   0.281   0.778  0.00  0.00    +0.036 C 
ATOM      3  C   UNL     1      -2.293   1.565   0.264  0.00  0.00    +0.178 C 
ATOM      4  C   UNL     1      -4.173  -0.251  -0.644  0.00  0.00    -0.001 C 
ATOM      5  C   UNL     1      -3.209   1.964  -0.694  0.00  0.00    +0.168 C 
ATOM      6  C   UNL     1      -4.157   1.048  -1.151  0.00  0.00    +0.039 C 
ENDROOT
BRANCH   5   7
ATOM      7  O   UNL     1      -3.204   3.229  -1.197  0.00  0.00    -0.503 OA
ATOM      8  H   UNL     1      -2.571   3.851  -0.895  0.00  0.00    +0.292 HD
ENDBRANCH   5   7
BRANCH   3   9
ATOM      9  O   UNL     1      -1.347   2.465   0.725  0.00  0.00    -0.450 OA
BRANCH   9  11
ATOM     10  C   UNL     1       2.636   1.504   0.185  0.00  0.00    -0.024 C 
ATOM     11  C   UNL     1      -0.035   2.150   0.548  0.00  0.00    +0.145 C 
ATOM     12  C   UNL     1       2.217   1.997   1.411  0.00  0.00    -0.001 C 
ATOM     13  C   UNL     1       1.747   1.328  -0.863  0.00  0.00    -0.001 C 
ATOM     14  C   UNL     1       0.872   2.321   1.593  0.00  0.00    +0.037 C 
ATOM     15  C   UNL     1       0.403   1.653  -0.680  0.00  0.00    +0.037 C 
BRANCH  10  16
ATOM     16  C   UNL     1       4.091   1.154  -0.012  0.00  0.00    +0.015 C 
BRANCH  16  17
ATOM     17  CA  UNL     1       4.407  -0.301   0.351  0.00  0.00    +0.040 C 
BRANCH  17  18
ATOM     18  N   UNL     1       5.827  -0.454   0.596  0.00  0.00    +0.389 N 
ATOM     19  H1  UNL     1       6.109   0.161   1.360  0.00  0.00    -0.088 HD
ATOM     20  H2  UNL     1       6.346  -0.208  -0.247  0.00  0.00    -0.088 HD
ATOM     21  H3  UNL     1       6.027  -1.422   0.848  0.00  0.00    -0.088 HD
ENDBRANCH  17  18
BRANCH  17  23
ATOM     22  OXT UNL     1       4.734  -1.517  -1.736  0.00  0.00    -0.253 OA
ATOM     23  C   UNL     1       4.018  -1.225  -0.786  0.00  0.00    +0.293 C 
BRANCH  23  24
ATOM     24  O   UNL     1       2.756  -1.708  -0.641  0.00  0.00    -0.482 OA
ATOM     25  H   UNL     1       2.242  -1.459   0.101  0.00  0.00    +0.295 HD
ENDBRANCH  23  24
ENDBRANCH  17  23
ENDBRANCH  16  17
ENDBRANCH  10  16
ENDBRANCH   9  11
ENDBRANCH   3   9
BRANCH   1  26
ATOM     26  C   UNL     1      -3.260  -2.024   0.864  0.00  0.00    +0.015 C 
BRANCH  26  27
ATOM     27  CA  UNL     1      -2.379  -3.005   0.068  0.00  0.00    +0.040 C 
BRANCH  27  28
ATOM     28  N   UNL     1      -2.461  -4.326   0.657  0.00  0.00    +0.389 N 
ATOM     29  H1  UNL     1      -3.432  -4.639   0.655  0.00  0.00    -0.088 HD
ATOM     30  H2  UNL     1      -2.116  -4.293   1.616  0.00  0.00    -0.088 HD
ATOM     31  H3  UNL     1      -1.893  -4.977   0.114  0.00  0.00    -0.088 HD
ENDBRANCH  27  28
BRANCH  27  33
ATOM     32  OXT UNL     1      -0.110  -2.860   0.946  0.00  0.00    -0.253 OA
ATOM     33  C   UNL     1      -0.927  -2.566   0.084  0.00  0.00    +0.293 C 
BRANCH  33  34
ATOM     34  O   UNL     1      -0.619  -1.789  -0.988  0.00  0.00    -0.482 OA
ATOM     35  H   UNL     1      -1.276  -1.588  -1.626  0.00  0.00    +0.295 HD
ENDBRANCH  33  34
ENDBRANCH  27  33
ENDBRANCH  26  27
ENDBRANCH   1  26
TORSDOF 13
