REMARK  Name = 134173
REMARK  2 active torsions:
REMARK  status: ('A' for Active; 'I' for Inactive)
REMARK    1  A    between atoms: N_5  and  C_11
REMARK    2  A    between atoms: C_9  and  N_17
REMARK                            x       y       z     vdW  Elec       q    Type
REMARK                         _______ _______ _______ _____ _____    ______ ____
ROOT
ATOM      1  N   UNL     1       1.325   1.032   0.000  0.00  0.00    -0.295 N 
ATOM      2  N   UNL     1       1.745  -1.151   0.000  0.00  0.00    -0.295 N 
ATOM      3  C   UNL     1       0.096   0.423   0.000  0.00  0.00    +0.062 C 
ATOM      4  C   UNL     1       0.385  -0.939   0.000  0.00  0.00    +0.061 C 
ATOM      5  C   UNL     1      -1.203   0.930   0.000  0.00  0.00    +0.040 C 
ATOM      6  C   UNL     1      -2.244  -0.004   0.000  0.00  0.00    +0.144 C 
ATOM      7  C   UNL     1      -0.673  -1.864   0.000  0.00  0.00    +0.017 C 
ATOM      8  C   UNL     1       2.277   0.051   0.000  0.00  0.00    +0.317 C 
ATOM      9  C   UNL     1      -1.986  -1.377   0.000  0.00  0.00    +0.025 C 
ATOM     10  H   UNL     1       1.492   2.002  -0.001  0.00  0.00    +0.150 HD
ATOM     11  H   UNL     1       2.217  -2.015   0.000  0.00  0.00    +0.150 HD
ENDROOT
BRANCH   8  14
ATOM     12  O   UNL     1       4.471  -0.659   0.000  0.00  0.00    -0.128 OA
ATOM     13  O   UNL     1       4.071   1.500   0.000  0.00  0.00    -0.128 OA
ATOM     14  N   UNL     1       3.651   0.305   0.000  0.00  0.00    +0.072 N 
ENDBRANCH   8  14
BRANCH   6  17
ATOM     15  O   UNL     1      -4.518  -0.389   0.000  0.00  0.00    -0.126 OA
ATOM     16  O   UNL     1      -3.810   1.689   0.000  0.00  0.00    -0.126 OA
ATOM     17  N   UNL     1      -3.590   0.454   0.000  0.00  0.00    +0.058 N 
ENDBRANCH   6  17
TORSDOF 2
