REMARK  Name = 134150
REMARK  4 active torsions:
REMARK  status: ('A' for Active; 'I' for Inactive)
REMARK    1  A    between atoms: N_1  and  C1*_17
REMARK    2  A    between atoms: C3*_18  and  O3*_21
REMARK    3  A    between atoms: C4*_20  and  C5*_23
REMARK    4  A    between atoms: C5*_23  and  O5*_24
REMARK                            x       y       z     vdW  Elec       q    Type
REMARK                         _______ _______ _______ _____ _____    ______ ____
ROOT
ATOM      1  N   UNL     1      -0.502   0.112  -0.099  0.00  0.00    -0.238 N 
ATOM      2  N   UNL     1       0.979   1.772   0.093  0.00  0.00    -0.240 NA
ATOM      3  N   UNL     1       1.015  -1.783  -0.207  0.00  0.00    -0.311 NA
ATOM      4  N   UNL     1       3.971   1.232   0.154  0.00  0.00    -0.278 N 
ATOM      5  N   UNL     1       3.344  -1.067  -0.064  0.00  0.00    -0.311 NA
ATOM      6  N   UNL     1       2.770  -3.329  -0.274  0.00  0.00    -0.283 N 
ATOM      7  C   UNL     1       0.734  -0.475  -0.106  0.00  0.00    +0.221 C 
ATOM      8  C   UNL     1      -0.299   1.464   0.022  0.00  0.00    +0.224 C 
ATOM      9  C   UNL     1       1.636   0.570   0.015  0.00  0.00    +0.168 C 
ATOM     10  C   UNL     1       2.986   0.236   0.034  0.00  0.00    +0.218 C 
ATOM     11  C   UNL     1       2.351  -1.982  -0.177  0.00  0.00    +0.199 C 
ATOM     12  C   UNL     1       3.694   2.461   0.877  0.00  0.00    +0.115 C 
ATOM     13  C   UNL     1       5.286   1.044  -0.430  0.00  0.00    +0.115 C 
ATOM     14  H   UNL     1       2.103  -4.047  -0.359  0.00  0.00    +0.156 HD
ATOM     15  H   UNL     1       3.730  -3.548  -0.258  0.00  0.00    +0.156 HD
ENDROOT
BRANCH   1  17
ATOM     16  O4* UNL     1      -2.724   0.273  -0.915  0.00  0.00    -0.335 OA
ATOM     17  C1* UNL     1      -1.792  -0.560  -0.203  0.00  0.00    +0.198 C 
ATOM     18  C3* UNL     1      -3.900  -0.938   0.768  0.00  0.00    +0.144 C 
ATOM     19  C2* UNL     1      -2.435  -0.891   1.136  0.00  0.00    +0.083 C 
ATOM     20  C4* UNL     1      -4.024   0.142  -0.303  0.00  0.00    +0.173 C 
BRANCH  18  21
ATOM     21  O3* UNL     1      -4.180  -2.213   0.195  0.00  0.00    -0.382 OA
ATOM     22  H3* UNL     1      -4.101  -2.898   0.877  0.00  0.00    +0.210 HD
ENDBRANCH  18  21
BRANCH  20  23
ATOM     23  C5* UNL     1      -4.414   1.496   0.272  0.00  0.00    +0.169 C 
BRANCH  23  24
ATOM     24  O5* UNL     1      -4.495   2.433  -0.788  0.00  0.00    -0.379 OA
ATOM     25  H5* UNL     1      -4.742   3.301  -0.434  0.00  0.00    +0.211 HD
ENDBRANCH  23  24
ENDBRANCH  20  23
ENDBRANCH   1  17
TORSDOF 4
