REMARK  Name = 134159627
REMARK  11 active torsions:
REMARK  status: ('A' for Active; 'I' for Inactive)
REMARK    1  A    between atoms: C_1  and  O_2
REMARK    2  A    between atoms: C_1  and  C_4
REMARK    3  A    between atoms: C_1  and  C_15
REMARK    4  A    between atoms: C_4  and  O_5
REMARK    5  A    between atoms: C_4  and  O_7
REMARK    6  A    between atoms: C_4  and  O_11
REMARK    7  A    between atoms: O_7  and  N_10
REMARK    8  A    between atoms: O_11  and  N_14
REMARK    9  A    between atoms: C_15  and  O_16
REMARK   10  A    between atoms: O_16  and  C_17
REMARK   11  A    between atoms: C_18  and  O_23
REMARK                            x       y       z     vdW  Elec       q    Type
REMARK                         _______ _______ _______ _____ _____    ______ ____
ROOT
ATOM      1  C   UNL     1       0.835  -0.013  -0.887  0.00  0.00    +0.268 C 
ENDROOT
BRANCH   1   2
ATOM      2  O   UNL     1       1.164   0.461  -2.198  0.00  0.00    -0.373 OA
ATOM      3  H   UNL     1       1.930  -0.028  -2.536  0.00  0.00    +0.211 HD
ENDBRANCH   1   2
BRANCH   1   4
ATOM      4  C   UNL     1       2.089   0.108   0.029  0.00  0.00    +0.458 C 
BRANCH   4   5
ATOM      5  O   UNL     1       1.804  -0.441   1.323  0.00  0.00    -0.318 OA
ATOM      6  H   UNL     1       2.590  -0.362   1.888  0.00  0.00    +0.218 HD
ENDBRANCH   4   5
BRANCH   4   7
ATOM      7  O   UNL     1       2.312   1.538   0.142  0.00  0.00    -0.271 OA
BRANCH   7  10
ATOM      8  O   UNL     1       4.093   1.025   1.468  0.00  0.00    -0.090 OA
ATOM      9  O   UNL     1       3.567   3.140   1.007  0.00  0.00    -0.090 OA
ATOM     10  N   UNL     1       3.424   1.918   0.945  0.00  0.00    +0.223 N 
ENDBRANCH   7  10
ENDBRANCH   4   7
BRANCH   4  11
ATOM     11  O   UNL     1       3.212  -0.510  -0.641  0.00  0.00    -0.271 OA
BRANCH  11  14
ATOM     12  O   UNL     1       2.376  -2.431   0.058  0.00  0.00    -0.090 OA
ATOM     13  O   UNL     1       4.251  -2.479  -1.139  0.00  0.00    -0.090 OA
ATOM     14  N   UNL     1       3.303  -1.928  -0.579  0.00  0.00    +0.223 N 
ENDBRANCH  11  14
ENDBRANCH   4  11
ENDBRANCH   1   4
BRANCH   1  15
ATOM     15  C   UNL     1      -0.376   0.781  -0.386  0.00  0.00    +0.245 C 
BRANCH  15  16
ATOM     16  O   UNL     1      -1.547   0.279  -1.023  0.00  0.00    -0.469 OA
BRANCH  16  17
ATOM     17  C   UNL     1      -2.515  -0.241  -0.207  0.00  0.00    +0.172 C 
ATOM     18  C   UNL     1      -3.798   0.306  -0.191  0.00  0.00    +0.172 C 
ATOM     19  C   UNL     1      -2.210  -1.328   0.613  0.00  0.00    +0.040 C 
ATOM     20  C   UNL     1      -4.776  -0.233   0.646  0.00  0.00    +0.040 C 
ATOM     21  C   UNL     1      -3.187  -1.867   1.449  0.00  0.00    +0.003 C 
ATOM     22  C   UNL     1      -4.470  -1.320   1.466  0.00  0.00    +0.003 C 
BRANCH  18  23
ATOM     23  O   UNL     1      -4.108   1.367  -0.986  0.00  0.00    -0.468 OA
ATOM     24  C   UNL     1      -5.442   1.867  -0.909  0.00  0.00    +0.253 C 
ENDBRANCH  18  23
ENDBRANCH  16  17
ENDBRANCH  15  16
ENDBRANCH   1  15
TORSDOF 11
