REMARK  Name = 134114
REMARK  10 active torsions:
REMARK  status: ('A' for Active; 'I' for Inactive)
REMARK    1  A    between atoms: C_4  and  C_9
REMARK    2  A    between atoms: C_5  and  C_25
REMARK    3  A    between atoms: C_13  and  C_14
REMARK    4  A    between atoms: C_14  and  N_15
REMARK    5  A    between atoms: C_14  and  C_19
REMARK    6  A    between atoms: C_19  and  C_22
REMARK    7  A    between atoms: C_25  and  N_27
REMARK    8  A    between atoms: C_25  and  C_31
REMARK    9  A    between atoms: C_31  and  C_32
REMARK   10  A    between atoms: C_37  and  O_38
REMARK                            x       y       z     vdW  Elec       q    Type
REMARK                         _______ _______ _______ _____ _____    ______ ____
ROOT
ATOM      1  O   UNL     1       1.078   0.733  -0.544  0.00  0.00    -0.273 OA
ATOM      2  O   UNL     1      -2.200   1.860  -2.475  0.00  0.00    -0.273 OA
ATOM      3  N   UNL     1      -0.776   0.116  -1.840  0.00  0.00    -0.225 N 
ATOM      4  C   UNL     1       0.374  -0.142  -1.056  0.00  0.00    +0.250 C 
ATOM      5  C   UNL     1      -1.558   1.271  -1.600  0.00  0.00    +0.250 C 
ATOM      6  C   UNL     1      -1.166  -0.809  -2.905  0.00  0.00    +0.123 C 
ENDROOT
BRANCH   4   9
ATOM      7  O   UNL     1       3.424  -0.987  -1.680  0.00  0.00    -0.277 OA
ATOM      8  N   UNL     1       1.938  -1.601  -0.016  0.00  0.00    -0.275 N 
ATOM      9  C   UNL     1       0.741  -1.580  -0.846  0.00  0.00    +0.152 C 
ATOM     10  C   UNL     1      -0.311  -2.319  -0.026  0.00  0.00    +0.031 C 
ATOM     11  C   UNL     1       0.113  -2.055   1.416  0.00  0.00    +0.024 C 
ATOM     12  C   UNL     1       1.632  -2.054   1.339  0.00  0.00    +0.094 C 
ATOM     13  C   UNL     1       3.204  -1.369  -0.530  0.00  0.00    +0.206 C 
BRANCH  13  14
ATOM     14  C   UNL     1       4.346  -1.602   0.427  0.00  0.00    +0.022 C 
BRANCH  14  15
ATOM     15  N   UNL     1       4.681  -3.013   0.282  0.00  0.00    +0.388 N 
ATOM     16  H   UNL     1       3.874  -3.582   0.537  0.00  0.00    -0.089 HD
ATOM     17  H   UNL     1       5.464  -3.241   0.894  0.00  0.00    -0.089 HD
ATOM     18  H   UNL     1       4.940  -3.203  -0.686  0.00  0.00    -0.089 HD
ENDBRANCH  14  15
BRANCH  14  19
ATOM     19  C   UNL     1       5.537  -0.727   0.052  0.00  0.00    +0.072 C 
BRANCH  19  22
ATOM     20  O   UNL     1       4.441   1.121   1.187  0.00  0.00    -0.275 OA
ATOM     21  N   UNL     1       6.541   1.446   0.311  0.00  0.00    -0.329 N 
ATOM     22  C   UNL     1       5.419   0.692   0.583  0.00  0.00    +0.218 C 
ATOM     23  H   UNL     1       6.586   2.385   0.605  0.00  0.00    +0.145 HD
ATOM     24  H   UNL     1       7.297   1.046  -0.176  0.00  0.00    +0.145 HD
ENDBRANCH  19  22
ENDBRANCH  14  19
ENDBRANCH  13  14
ENDBRANCH   4   9
BRANCH   5  25
ATOM     25  C   UNL     1      -1.607   1.783  -0.154  0.00  0.00    +0.154 C 
BRANCH  25  27
ATOM     26  O   UNL     1      -0.164   3.114   1.986  0.00  0.00    -0.275 OA
ATOM     27  N   UNL     1      -0.999   3.092  -0.188  0.00  0.00    -0.298 N 
ATOM     28  C   UNL     1      -0.328   3.645   0.890  0.00  0.00    +0.223 C 
ATOM     29  C   UNL     1       0.230   5.008   0.578  0.00  0.00    +0.095 C 
ATOM     30  H   UNL     1      -1.065   3.618  -1.017  0.00  0.00    +0.150 HD
ENDBRANCH  25  27
BRANCH  25  31
ATOM     31  C   UNL     1      -3.056   1.875   0.342  0.00  0.00    +0.055 C 
BRANCH  31  32
ATOM     32  C   UNL     1      -3.720   0.527   0.477  0.00  0.00    -0.020 C 
ATOM     33  C   UNL     1      -4.412  -0.022  -0.602  0.00  0.00    -0.001 C 
ATOM     34  C   UNL     1      -3.640  -0.171   1.682  0.00  0.00    -0.001 C 
ATOM     35  C   UNL     1      -5.025  -1.268  -0.477  0.00  0.00    +0.036 C 
ATOM     36  C   UNL     1      -4.253  -1.417   1.808  0.00  0.00    +0.036 C 
ATOM     37  C   UNL     1      -4.945  -1.966   0.728  0.00  0.00    +0.134 C 
BRANCH  37  38
ATOM     38  O   UNL     1      -5.543  -3.183   0.850  0.00  0.00    -0.506 OA
ATOM     39  H   UNL     1      -6.008  -3.551   0.125  0.00  0.00    +0.292 HD
ENDBRANCH  37  38
ENDBRANCH  31  32
ENDBRANCH  25  31
ENDBRANCH   5  25
TORSDOF 10
