REMARK  Name = 134181
REMARK  4 active torsions:
REMARK  status: ('A' for Active; 'I' for Inactive)
REMARK    1  A    between atoms: C_2  and  C_4
REMARK    2  A    between atoms: C_2  and  C_12
REMARK    3  A    between atoms: C_6  and  N_10
REMARK    4  A    between atoms: C_12  and  C_15
REMARK                            x       y       z     vdW  Elec       q    Type
REMARK                         _______ _______ _______ _____ _____    ______ ____
ROOT
ATOM      1 BR   UNL     1       1.310  -0.774   2.303  0.00  0.00    -0.072 Br
ATOM      2  C   UNL     1       1.185  -0.797   0.330  0.00  0.00    +0.133 C 
ENDROOT
BRANCH   2   4
ATOM      3  O   UNL     1      -1.018   0.160   0.301  0.00  0.00    -0.436 OA
ATOM      4  C   UNL     1      -0.285  -0.917  -0.012  0.00  0.00    +0.136 C 
ATOM      5  C   UNL     1      -0.997  -1.911  -0.573  0.00  0.00    +0.039 C 
ATOM      6  C   UNL     1      -2.283  -0.155  -0.082  0.00  0.00    +0.289 C 
ATOM      7  C   UNL     1      -2.323  -1.418  -0.625  0.00  0.00    +0.066 C 
BRANCH   6  10
ATOM      8  O   UNL     1      -4.449   0.622  -0.179  0.00  0.00    -0.123 OA
ATOM      9  O   UNL     1      -2.902   1.928   0.680  0.00  0.00    -0.123 OA
ATOM     10  N   UNL     1      -3.244   0.832   0.147  0.00  0.00    +0.093 N 
ENDBRANCH   6  10
ENDBRANCH   2   4
BRANCH   2  12
ATOM     11 BR   UNL     1       1.718   0.470  -2.190  0.00  0.00    -0.071 Br
ATOM     12  C   UNL     1       1.889   0.441  -0.228  0.00  0.00    +0.150 C 
BRANCH  12  15
ATOM     13  O   UNL     1       4.042  -0.596   0.190  0.00  0.00    -0.274 OA
ATOM     14  N   UNL     1       3.960   1.687  -0.047  0.00  0.00    -0.328 N 
ATOM     15  C   UNL     1       3.396   0.429  -0.014  0.00  0.00    +0.231 C 
ATOM     16  H   UNL     1       4.930   1.795   0.080  0.00  0.00    +0.145 HD
ATOM     17  H   UNL     1       3.392   2.477  -0.198  0.00  0.00    +0.145 HD
ENDBRANCH  12  15
ENDBRANCH   2  12
TORSDOF 4
