REMARK  Name = 134159033
REMARK  0 active torsions:
REMARK  status: ('A' for Active; 'I' for Inactive)
REMARK                            x       y       z     vdW  Elec       q    Type
REMARK                         _______ _______ _______ _____ _____    ______ ____
ROOT
ATOM      1  N   UNL     1       3.147   0.353  -0.214  0.00  0.00    -0.257 N 
ATOM      2  N   UNL     1      -0.942   2.444  -0.559  0.00  0.00    -0.261 N 
ATOM      3  N   UNL     1       2.605  -1.730  -0.949  0.00  0.00    -0.233 NA
ATOM      4  N   UNL     1       2.093   0.284   1.992  0.00  0.00    -0.230 NA
ATOM      5  N   UNL     1      -1.478   0.257  -1.494  0.00  0.00    -0.327 NA
ATOM      6  N   UNL     1      -0.084  -2.519   0.315  0.00  0.00    -0.222 NA
ATOM      7  N   UNL     1      -2.134   2.347   1.320  0.00  0.00    -0.240 NA
ATOM      8  N   UNL     1       0.664  -1.617   2.262  0.00  0.00    -0.195 NA
ATOM      9  N   UNL     1      -2.991  -0.978  -0.049  0.00  0.00    -0.327 NA
ATOM     10  C   UNL     1       2.178   2.613  -0.440  0.00  0.00    +0.024 C 
ATOM     11  C   UNL     1       3.453   1.763  -0.382  0.00  0.00    +0.098 C 
ATOM     12  C   UNL     1       1.295   2.303  -1.655  0.00  0.00    +0.023 C 
ATOM     13  C   UNL     1      -0.072   2.987  -1.586  0.00  0.00    +0.095 C 
ATOM     14  C   UNL     1       2.286  -1.651   0.509  0.00  0.00    +0.241 C 
ATOM     15  C   UNL     1       2.528  -0.195   0.878  0.00  0.00    +0.147 C 
ATOM     16  C   UNL     1      -1.558   1.222  -0.566  0.00  0.00    +0.218 C 
ATOM     17  C   UNL     1       3.137  -0.568  -1.221  0.00  0.00    +0.165 C 
ATOM     18  C   UNL     1       0.888  -1.971   0.943  0.00  0.00    +0.034 C 
ATOM     19  C   UNL     1      -2.291   1.185   0.608  0.00  0.00    +0.167 C 
ATOM     20  C   UNL     1      -1.446  -3.228  -1.553  0.00  0.00    +0.045 C 
ATOM     21  C   UNL     1      -2.165  -1.990  -2.110  0.00  0.00    +0.127 C 
ATOM     22  C   UNL     1      -1.322   3.084   0.590  0.00  0.00    +0.222 C 
ATOM     23  C   UNL     1      -0.017  -2.949  -1.069  0.00  0.00    +0.137 C 
ATOM     24  C   UNL     1      -2.224  -0.823  -1.160  0.00  0.00    +0.117 C 
ATOM     25  C   UNL     1      -3.029   0.033   0.852  0.00  0.00    +0.210 C 
ATOM     26  C   UNL     1       1.283  -0.565   2.720  0.00  0.00    +0.262 C 
ATOM     27  N   UNL     1      -3.802  -0.091   2.019  0.00  0.00    -0.331 N 
ATOM     28  H   UNL     1      -4.320  -0.912   2.181  0.00  0.00    +0.145 HD
ATOM     29  H   UNL     1      -3.826   0.644   2.674  0.00  0.00    +0.145 HD
ENDROOT
TORSDOF 0
