134166
  -OEChem-03292013323D

 60 62  0     1  0  0  0  0  0999 V2000
    3.4441   -1.1679    1.0504 O   0  0  0  0  0  0  0  0  0  0  0  0
    7.1812   -0.8983    1.9472 O   0  0  0  0  0  0  0  0  0  0  0  0
    6.1554    1.1230    1.7063 O   0  0  0  0  0  0  0  0  0  0  0  0
   -0.1456    0.6677   -1.8796 O   0  0  0  0  0  0  0  0  0  0  0  0
   -1.8760    1.2042    1.5973 O   0  0  0  0  0  0  0  0  0  0  0  0
    4.7401    0.0992   -0.3887 N   0  0  0  0  0  0  0  0  0  0  0  0
   -2.4028    0.3046   -0.4743 N   0  0  0  0  0  0  0  0  0  0  0  0
    6.0147   -0.5243   -0.0577 C   0  0  1  0  0  0  0  0  0  0  0  0
    6.9605   -0.0863   -1.1699 C   0  0  0  0  0  0  0  0  0  0  0  0
    4.8972    1.0859   -1.4543 C   0  0  0  0  0  0  0  0  0  0  0  0
    6.4005    1.2675   -1.5996 C   0  0  0  0  0  0  0  0  0  0  0  0
    2.3003    0.3031   -0.4316 C   0  0  1  0  0  0  0  0  0  0  0  0
    3.5379   -0.3320    0.1501 C   0  0  0  0  0  0  0  0  0  0  0  0
    1.1434   -0.6965   -0.3551 C   0  0  0  0  0  0  0  0  0  0  0  0
    6.4369    0.0144    1.2761 C   0  0  0  0  0  0  0  0  0  0  0  0
    2.0019    1.5923    0.3247 C   0  0  0  0  0  0  0  0  0  0  0  0
   -0.1432   -0.1814   -0.9879 C   0  0  0  0  0  0  0  0  0  0  0  0
   -1.4409   -0.7684   -0.4428 C   0  0  2  0  0  0  0  0  0  0  0  0
   -1.9207   -1.9565   -1.2789 C   0  0  0  0  0  0  0  0  0  0  0  0
   -2.9483   -2.8001   -0.5659 C   0  0  0  0  0  0  0  0  0  0  0  0
   -2.5410    1.2142    0.5647 C   0  0  0  0  0  0  0  0  0  0  0  0
   -2.5295   -3.8634    0.2191 C   0  0  0  0  0  0  0  0  0  0  0  0
   -4.2938   -2.4981   -0.7080 C   0  0  0  0  0  0  0  0  0  0  0  0
   -3.5963    2.2454    0.3911 C   0  0  0  0  0  0  0  0  0  0  0  0
   -3.4795   -4.6438    0.8780 C   0  0  0  0  0  0  0  0  0  0  0  0
   -5.2439   -3.2783   -0.0490 C   0  0  0  0  0  0  0  0  0  0  0  0
   -4.8366   -4.3513    0.7440 C   0  0  0  0  0  0  0  0  0  0  0  0
   -4.1801    2.7967    1.5127 C   0  0  0  0  0  0  0  0  0  0  0  0
   -3.9589    2.6183   -0.8864 C   0  0  0  0  0  0  0  0  0  0  0  0
   -5.1712    3.7646    1.3496 C   0  0  0  0  0  0  0  0  0  0  0  0
   -4.9499    3.5863   -1.0498 C   0  0  0  0  0  0  0  0  0  0  0  0
   -5.5560    4.1593    0.0683 C   0  0  0  0  0  0  0  0  0  0  0  0
    5.8884   -1.6106    0.0007 H   0  0  0  0  0  0  0  0  0  0  0  0
    8.0072   -0.0209   -0.8577 H   0  0  0  0  0  0  0  0  0  0  0  0
    6.8947   -0.7881   -2.0103 H   0  0  0  0  0  0  0  0  0  0  0  0
    4.3880    2.0225   -1.2197 H   0  0  0  0  0  0  0  0  0  0  0  0
    4.4738    0.6644   -2.3726 H   0  0  0  0  0  0  0  0  0  0  0  0
    6.6942    1.5463   -2.6154 H   0  0  0  0  0  0  0  0  0  0  0  0
    6.7532    2.0506   -0.9180 H   0  0  0  0  0  0  0  0  0  0  0  0
    2.4556    0.5421   -1.4878 H   0  0  0  0  0  0  0  0  0  0  0  0
    0.9340   -0.9381    0.6940 H   0  0  0  0  0  0  0  0  0  0  0  0
    1.4055   -1.6328   -0.8618 H   0  0  0  0  0  0  0  0  0  0  0  0
    1.1942    2.1587   -0.1487 H   0  0  0  0  0  0  0  0  0  0  0  0
    2.8743    2.2499    0.3828 H   0  0  0  0  0  0  0  0  0  0  0  0
    1.6992    1.3789    1.3565 H   0  0  0  0  0  0  0  0  0  0  0  0
   -1.2818   -1.0565    0.6027 H   0  0  0  0  0  0  0  0  0  0  0  0
   -1.0654   -2.5962   -1.5366 H   0  0  0  0  0  0  0  0  0  0  0  0
   -2.3210   -1.6224   -2.2461 H   0  0  0  0  0  0  0  0  0  0  0  0
   -3.0038    0.3570   -1.2893 H   0  0  0  0  0  0  0  0  0  0  0  0
    7.4688   -0.5636    2.8232 H   0  0  0  0  0  0  0  0  0  0  0  0
   -1.4747   -4.0976    0.3320 H   0  0  0  0  0  0  0  0  0  0  0  0
   -4.6221   -1.6659   -1.3239 H   0  0  0  0  0  0  0  0  0  0  0  0
   -3.1625   -5.4787    1.4960 H   0  0  0  0  0  0  0  0  0  0  0  0
   -6.3006   -3.0506   -0.1535 H   0  0  0  0  0  0  0  0  0  0  0  0
   -5.5764   -4.9586    1.2572 H   0  0  0  0  0  0  0  0  0  0  0  0
   -3.8955    2.4966    2.5167 H   0  0  0  0  0  0  0  0  0  0  0  0
   -3.4877    2.2270   -1.7817 H   0  0  0  0  0  0  0  0  0  0  0  0
   -5.6438    4.2103    2.2200 H   0  0  0  0  0  0  0  0  0  0  0  0
   -5.2439    3.9006   -2.0470 H   0  0  0  0  0  0  0  0  0  0  0  0
   -6.3264    4.9143   -0.0588 H   0  0  0  0  0  0  0  0  0  0  0  0
  1 13  2  0  0  0  0
  2 15  1  0  0  0  0
  2 50  1  0  0  0  0
  3 15  2  0  0  0  0
  4 17  2  0  0  0  0
  5 21  2  0  0  0  0
  6  8  1  0  0  0  0
  6 10  1  0  0  0  0
  6 13  1  0  0  0  0
  7 18  1  0  0  0  0
  7 21  1  0  0  0  0
  7 49  1  0  0  0  0
  8  9  1  0  0  0  0
  8 15  1  0  0  0  0
  8 33  1  0  0  0  0
  9 11  1  0  0  0  0
  9 34  1  0  0  0  0
  9 35  1  0  0  0  0
 10 11  1  0  0  0  0
 10 36  1  0  0  0  0
 10 37  1  0  0  0  0
 11 38  1  0  0  0  0
 11 39  1  0  0  0  0
 12 13  1  0  0  0  0
 12 14  1  0  0  0  0
 12 16  1  0  0  0  0
 12 40  1  0  0  0  0
 14 17  1  0  0  0  0
 14 41  1  0  0  0  0
 14 42  1  0  0  0  0
 16 43  1  0  0  0  0
 16 44  1  0  0  0  0
 16 45  1  0  0  0  0
 17 18  1  0  0  0  0
 18 19  1  0  0  0  0
 18 46  1  0  0  0  0
 19 20  1  0  0  0  0
 19 47  1  0  0  0  0
 19 48  1  0  0  0  0
 20 22  2  0  0  0  0
 20 23  1  0  0  0  0
 21 24  1  0  0  0  0
 22 25  1  0  0  0  0
 22 51  1  0  0  0  0
 23 26  2  0  0  0  0
 23 52  1  0  0  0  0
 24 28  2  0  0  0  0
 24 29  1  0  0  0  0
 25 27  2  0  0  0  0
 25 53  1  0  0  0  0
 26 27  1  0  0  0  0
 26 54  1  0  0  0  0
 27 55  1  0  0  0  0
 28 30  1  0  0  0  0
 28 56  1  0  0  0  0
 29 31  2  0  0  0  0
 29 57  1  0  0  0  0
 30 32  2  0  0  0  0
 30 58  1  0  0  0  0
 31 32  1  0  0  0  0
 31 59  1  0  0  0  0
 32 60  1  0  0  0  0
M  END
> <PUBCHEM_COMPOUND_CID>
134166

> <PUBCHEM_CONFORMER_RMSD>
1.2

> <PUBCHEM_CONFORMER_DIVERSEORDER>
1
10
54
15
35
44
81
91
45
22
27
12
18
5
11
28
100
4
67
47
20
17
34
95
24
46
29
69
8
2
71
38
89
58
31
62
63
56
13
104
64
85
73
52
70
78
60
76
80
86
21
90
6
94
23
39
33
97
7
57
103
101
26
55
83
25
42
51
61
82
14
59
88
48
96
75
16
66
49
84
92
19
99
93
9
41
40
43
102
37
98
65
87
79
32
36
68
53
3
50
72
30
74
77

> <PUBCHEM_MMFF94_PARTIAL_CHARGES>
41
1 -0.57
10 0.3
12 0.06
13 0.57
14 0.06
15 0.66
17 0.45
18 0.36
19 0.14
2 -0.65
20 -0.14
21 0.54
22 -0.15
23 -0.15
24 0.09
25 -0.15
26 -0.15
27 -0.15
28 -0.15
29 -0.15
3 -0.57
30 -0.15
31 -0.15
32 -0.15
4 -0.57
49 0.37
5 -0.57
50 0.5
51 0.15
52 0.15
53 0.15
54 0.15
55 0.15
56 0.15
57 0.15
58 0.15
59 0.15
6 -0.66
60 0.15
7 -0.73
8 0.36

> <PUBCHEM_EFFECTIVE_ROTOR_COUNT>
12

> <PUBCHEM_PHARMACOPHORE_FEATURES>
11
1 1 acceptor
1 16 hydrophobe
1 2 acceptor
1 3 acceptor
1 4 acceptor
1 5 acceptor
1 7 donor
3 2 3 15 anion
5 6 8 9 10 11 rings
6 20 22 23 25 26 27 rings
6 24 28 29 30 31 32 rings

> <PUBCHEM_HEAVY_ATOM_COUNT>
32

> <PUBCHEM_ATOM_DEF_STEREO_COUNT>
3

> <PUBCHEM_ATOM_UDEF_STEREO_COUNT>
0

> <PUBCHEM_BOND_DEF_STEREO_COUNT>
0

> <PUBCHEM_BOND_UDEF_STEREO_COUNT>
0

> <PUBCHEM_ISOTOPIC_ATOM_COUNT>
0

> <PUBCHEM_COMPONENT_COUNT>
1

> <PUBCHEM_CACTVS_TAUTO_COUNT>
6

> <PUBCHEM_CONFORMER_ID>
00020C1600000001

> <PUBCHEM_MMFF94_ENERGY>
81.9994

> <PUBCHEM_FEATURE_SELFOVERLAP>
55.878

> <PUBCHEM_SHAPE_FINGERPRINT>
11062273 23 18343590668216674267
11377469 6 17896031225350160383
11991303 11 18337394851163066717
12107183 9 18047465634967905578
12616971 3 17748825190546569972
12788726 201 18337107977418324363
12988421 55 18122065308743202805
13073987 5 18339355379606828832
13540713 4 17916604054210324294
13540713 5 17969235580067087092
13947934 56 18408599275933537390
14068700 675 18045219590199426279
14118638 360 18263927825269112876
14190465 44 18341602728991045872
15439362 3 17910119014422760007
18393751 57 18192158092792972913
19301679 30 18265348350915940095
21033648 29 18195537995488767445
21639891 77 18202006568576427425
21792965 131 18187076219106096195
21814621 53 18131062724362832186
22182313 1 17417270778414389326
23522609 53 17822875129629473452
23929065 36 18270951444984851523
249057 25 17895478132884312044
3418910 222 18118969341581593548
4058900 60 17910121218184685521
4073 2 18342455929219488102
4409770 3 18410572903954141247
497634 4 18114178687365959382
504843 32 18335422314734250845
5104073 3 18338222852554957840
57634706 229 17985852362048817385
59755656 520 18338516322816319437
6009941 240 18272930484705998186
6695519 79 17766312820218752857
9896288 288 18411421717529128955
9961470 85 18197777696258227986

> <PUBCHEM_SHAPE_MULTIPOLES>
619.24
18.77
5.93
1.58
32.83
2.52
-0.21
-4.72
-2.76
-19.18
-1.19
1.42
-0.52
-1.04

> <PUBCHEM_SHAPE_SELFOVERLAP>
1313.137

> <PUBCHEM_SHAPE_VOLUME>
344.4

> <PUBCHEM_COORDINATE_TYPE>
2
5
10

$$$$
