REMARK  Name = 134166
REMARK  10 active torsions:
REMARK  status: ('A' for Active; 'I' for Inactive)
REMARK    1  A    between atoms: C_1  and  N_3
REMARK    2  A    between atoms: C_1  and  C_13
REMARK    3  A    between atoms: C_1  and  C_28
REMARK    4  A    between atoms: C_4  and  C_6
REMARK    5  A    between atoms: C_13  and  C_14
REMARK    6  A    between atoms: C_14  and  C_15
REMARK    7  A    between atoms: C_15  and  C_23
REMARK    8  A    between atoms: C_19  and  C_25
REMARK    9  A    between atoms: C_25  and  O_26
REMARK   10  A    between atoms: C_28  and  C_29
REMARK                            x       y       z     vdW  Elec       q    Type
REMARK                         _______ _______ _______ _____ _____    ______ ____
ROOT
ATOM      1  C   UNL     1      -1.441  -0.768  -0.443  0.00  0.00    +0.134 C 
ENDROOT
BRANCH   1   3
ATOM      2  O   UNL     1      -1.876   1.204   1.597  0.00  0.00    -0.270 OA
ATOM      3  N   UNL     1      -2.403   0.305  -0.474  0.00  0.00    -0.296 N 
ATOM      4  C   UNL     1      -2.541   1.214   0.565  0.00  0.00    +0.246 C 
ATOM      5  H   UNL     1      -2.984   0.396  -1.263  0.00  0.00    +0.150 HD
BRANCH   4   6
ATOM      6  C   UNL     1      -3.596   2.245   0.391  0.00  0.00    +0.053 C 
ATOM      7  C   UNL     1      -4.180   2.797   1.513  0.00  0.00    +0.005 C 
ATOM      8  C   UNL     1      -3.959   2.618  -0.886  0.00  0.00    +0.005 C 
ATOM      9  C   UNL     1      -5.171   3.765   1.350  0.00  0.00    +0.000 C 
ATOM     10  C   UNL     1      -4.950   3.586  -1.050  0.00  0.00    +0.000 C 
ATOM     11  C   UNL     1      -5.556   4.159   0.068  0.00  0.00    +0.000 C 
ENDBRANCH   4   6
ENDBRANCH   1   3
BRANCH   1  13
ATOM     12  O   UNL     1      -0.146   0.668  -1.880  0.00  0.00    -0.294 OA
ATOM     13  C   UNL     1      -0.143  -0.181  -0.988  0.00  0.00    +0.169 C 
BRANCH  13  14
ATOM     14  C   UNL     1       1.143  -0.697  -0.355  0.00  0.00    +0.075 C 
BRANCH  14  15
ATOM     15  C   UNL     1       2.300   0.303  -0.432  0.00  0.00    +0.084 C 
ATOM     16  C   UNL     1       2.002   1.592   0.325  0.00  0.00    +0.010 C 
BRANCH  15  23
ATOM     17  O   UNL     1       3.444  -1.168   1.050  0.00  0.00    -0.275 OA
ATOM     18  N   UNL     1       4.740   0.099  -0.389  0.00  0.00    -0.271 N 
ATOM     19  C   UNL     1       6.015  -0.524  -0.058  0.00  0.00    +0.174 C 
ATOM     20  C   UNL     1       6.960  -0.086  -1.170  0.00  0.00    +0.033 C 
ATOM     21  C   UNL     1       4.897   1.086  -1.454  0.00  0.00    +0.094 C 
ATOM     22  C   UNL     1       6.401   1.268  -1.600  0.00  0.00    +0.024 C 
ATOM     23  C   UNL     1       3.538  -0.332   0.150  0.00  0.00    +0.226 C 
BRANCH  19  25
ATOM     24  O   UNL     1       6.155   1.123   1.706  0.00  0.00    -0.248 OA
ATOM     25  C   UNL     1       6.437   0.014   1.276  0.00  0.00    +0.332 C 
BRANCH  25  26
ATOM     26  O   UNL     1       7.181  -0.898   1.947  0.00  0.00    -0.479 OA
ATOM     27  H   UNL     1       7.361  -1.732   1.560  0.00  0.00    +0.295 HD
ENDBRANCH  25  26
ENDBRANCH  19  25
ENDBRANCH  15  23
ENDBRANCH  14  15
ENDBRANCH  13  14
ENDBRANCH   1  13
BRANCH   1  28
ATOM     28  C   UNL     1      -1.921  -1.956  -1.279  0.00  0.00    +0.053 C 
BRANCH  28  29
ATOM     29  C   UNL     1      -2.948  -2.800  -0.566  0.00  0.00    -0.020 C 
ATOM     30  C   UNL     1      -2.530  -3.863   0.219  0.00  0.00    -0.004 C 
ATOM     31  C   UNL     1      -4.294  -2.498  -0.708  0.00  0.00    -0.004 C 
ATOM     32  C   UNL     1      -3.479  -4.644   0.878  0.00  0.00    -0.000 C 
ATOM     33  C   UNL     1      -5.244  -3.278  -0.049  0.00  0.00    -0.000 C 
ATOM     34  C   UNL     1      -4.837  -4.351   0.744  0.00  0.00    -0.000 C 
ENDBRANCH  28  29
ENDBRANCH   1  28
TORSDOF 10
