REMARK  Name = 134158997
REMARK  8 active torsions:
REMARK  status: ('A' for Active; 'I' for Inactive)
REMARK    1  A    between atoms: C_6  and  C_22
REMARK    2  A    between atoms: C_6  and  O_26
REMARK    3  A    between atoms: C_20  and  O_24
REMARK    4  A    between atoms: O_26  and  C_28
REMARK    5  A    between atoms: C_28  and  C_29
REMARK    6  A    between atoms: C_29  and  C_30
REMARK    7  A    between atoms: C_30  and  C_32
REMARK    8  A    between atoms: C_32  and  O_33
REMARK                            x       y       z     vdW  Elec       q    Type
REMARK                         _______ _______ _______ _____ _____    ______ ____
ROOT
ATOM      1 CL   UNL     1       4.945  -3.186   0.186  0.00  0.00    -0.083 Cl
ATOM      2  C   UNL     1      -0.537   0.080  -0.711  0.00  0.00    +0.040 C 
ATOM      3  C   UNL     1       0.496  -1.001  -0.339  0.00  0.00    +0.008 C 
ATOM      4  C   UNL     1       1.828  -0.858  -1.093  0.00  0.00    +0.023 C 
ATOM      5  C   UNL     1       2.451   0.571  -0.942  0.00  0.00    +0.008 C 
ATOM      6  C   UNL     1      -1.766  -0.416   0.094  0.00  0.00    +0.186 C 
ATOM      7  C   UNL     1       0.049   1.438  -0.306  0.00  0.00    +0.004 C 
ATOM      8  C   UNL     1      -0.290  -2.305  -0.497  0.00  0.00    +0.004 C 
ATOM      9  C   UNL     1       3.526   0.698   0.215  0.00  0.00    +0.020 C 
ATOM     10  C   UNL     1       1.391   1.711  -1.000  0.00  0.00    +0.001 C 
ATOM     11  C   UNL     1      -1.728  -1.951  -0.069  0.00  0.00    +0.047 C 
ATOM     12  C   UNL     1      -0.896   0.113  -2.224  0.00  0.00    +0.004 C 
ATOM     13  C   UNL     1       2.785  -1.958  -0.715  0.00  0.00    -0.015 C 
ATOM     14  C   UNL     1       4.558  -0.441   0.064  0.00  0.00    -0.014 C 
ATOM     15  C   UNL     1       4.232   2.090   0.096  0.00  0.00    +0.007 C 
ATOM     16  C   UNL     1       2.908   0.600   1.628  0.00  0.00    +0.004 C 
ATOM     17  C   UNL     1       4.013  -1.770  -0.209  0.00  0.00    +0.049 C 
ATOM     18  C   UNL     1       5.546   2.175   0.870  0.00  0.00    +0.034 C 
ATOM     19  C   UNL     1       5.886  -0.216   0.133  0.00  0.00    -0.001 C 
ATOM     20  C   UNL     1       6.528   1.111   0.398  0.00  0.00    +0.132 C 
ENDROOT
BRANCH   6  22
ATOM     21  O   UNL     1      -1.162  -0.733   2.388  0.00  0.00    -0.292 OA
ATOM     22  C   UNL     1      -1.732  -0.034   1.551  0.00  0.00    +0.187 C 
ATOM     23  C   UNL     1      -2.429   1.244   1.932  0.00  0.00    +0.076 C 
ENDBRANCH   6  22
BRANCH  20  24
ATOM     24  O   UNL     1       7.152   1.532  -0.814  0.00  0.00    -0.380 OA
ATOM     25  H   UNL     1       7.579   2.392  -0.676  0.00  0.00    +0.211 HD
ENDBRANCH  20  24
BRANCH   6  26
ATOM     26  O   UNL     1      -2.984   0.126  -0.387  0.00  0.00    -0.449 OA
BRANCH  26  28
ATOM     27  O   UNL     1      -4.167  -1.151   1.126  0.00  0.00    -0.250 OA
ATOM     28  C   UNL     1      -4.128  -0.330   0.220  0.00  0.00    +0.318 C 
BRANCH  28  29
ATOM     29  C   UNL     1      -5.330   0.342  -0.409  0.00  0.00    +0.121 C 
BRANCH  29  30
ATOM     30  C   UNL     1      -6.645  -0.037   0.261  0.00  0.00    +0.121 C 
BRANCH  30  32
ATOM     31  O   UNL     1      -7.700   1.480  -1.297  0.00  0.00    -0.250 OA
ATOM     32  C   UNL     1      -7.807   0.697  -0.361  0.00  0.00    +0.314 C 
BRANCH  32  33
ATOM     33  O   UNL     1      -8.994   0.380   0.213  0.00  0.00    -0.480 OA
ATOM     34  H   UNL     1      -9.022  -0.226   0.927  0.00  0.00    +0.295 HD
ENDBRANCH  32  33
ENDBRANCH  30  32
ENDBRANCH  29  30
ENDBRANCH  28  29
ENDBRANCH  26  28
ENDBRANCH   6  26
TORSDOF 8
