REMARK  Name = 134158451
REMARK  11 active torsions:
REMARK  status: ('A' for Active; 'I' for Inactive)
REMARK    1  A    between atoms: O_1  and  C_6
REMARK    2  A    between atoms: O_1  and  C_19
REMARK    3  A    between atoms: C_3  and  O_8
REMARK    4  A    between atoms: C_4  and  O_10
REMARK    5  A    between atoms: C_5  and  O_12
REMARK    6  A    between atoms: C_7  and  C_15
REMARK    7  A    between atoms: C_15  and  O_16
REMARK    8  A    between atoms: C_19  and  C_20
REMARK    9  A    between atoms: C_20  and  C_22
REMARK   10  A    between atoms: C_27  and  C_29
REMARK   11  A    between atoms: C_29  and  C_31
REMARK                            x       y       z     vdW  Elec       q    Type
REMARK                         _______ _______ _______ _____ _____    ______ ____
ROOT
ATOM      1  O   UNL     1       2.132  -1.122  -0.513  0.00  0.00    -0.421 OA
ENDROOT
BRANCH   1   6
ATOM      2  O   UNL     1       3.765   0.531  -0.304  0.00  0.00    -0.307 OA
ATOM      3  C   UNL     1       5.647  -1.346   0.784  0.00  0.00    +0.173 C 
ATOM      4  C   UNL     1       4.339  -1.786   0.126  0.00  0.00    +0.211 C 
ATOM      5  C   UNL     1       6.064   0.050   0.320  0.00  0.00    +0.178 C 
ATOM      6  C   UNL     1       3.273  -0.695   0.231  0.00  0.00    +0.321 C 
ATOM      7  C   UNL     1       4.893   1.020   0.411  0.00  0.00    +0.246 C 
BRANCH   3   8
ATOM      8  O   UNL     1       6.689  -2.258   0.431  0.00  0.00    -0.379 OA
ATOM      9  H   UNL     1       6.446  -3.152   0.717  0.00  0.00    +0.211 HD
ENDBRANCH   3   8
BRANCH   4  10
ATOM     10  O   UNL     1       3.849  -2.955   0.782  0.00  0.00    -0.377 OA
ATOM     11  H   UNL     1       4.513  -3.660   0.726  0.00  0.00    +0.211 HD
ENDBRANCH   4  10
BRANCH   5  12
ATOM     12  O   UNL     1       7.119   0.524   1.155  0.00  0.00    -0.379 OA
ATOM     13  H   UNL     1       7.871  -0.087   1.105  0.00  0.00    +0.211 HD
ENDBRANCH   5  12
BRANCH   7  15
ATOM     14  O   UNL     1       4.624   2.736  -1.265  0.00  0.00    -0.247 OA
ATOM     15  C   UNL     1       5.209   2.306  -0.282  0.00  0.00    +0.344 C 
BRANCH  15  16
ATOM     16  O   UNL     1       6.242   2.938   0.328  0.00  0.00    -0.478 OA
ATOM     17  H   UNL     1       6.648   2.553   1.080  0.00  0.00    +0.295 HD
ENDBRANCH  15  16
ENDBRANCH   7  15
ENDBRANCH   1   6
BRANCH   1  19
ATOM     18  O   UNL     1       0.815   0.360   0.658  0.00  0.00    -0.250 OA
ATOM     19  C   UNL     1       0.951  -0.507  -0.196  0.00  0.00    +0.322 C 
BRANCH  19  20
ATOM     20  C   UNL     1      -0.173  -1.085  -1.046  0.00  0.00    +0.121 C 
ATOM     21  C   UNL     1       0.133  -0.916  -2.537  0.00  0.00    +0.016 C 
BRANCH  20  22
ATOM     22  C   UNL     1      -1.524  -0.502  -0.667  0.00  0.00    -0.012 C 
ATOM     23  C   UNL     1      -2.521  -1.330  -0.149  0.00  0.00    -0.004 C 
ATOM     24  C   UNL     1      -1.769   0.861  -0.837  0.00  0.00    -0.004 C 
ATOM     25  C   UNL     1      -3.761  -0.795   0.199  0.00  0.00    +0.003 C 
ATOM     26  C   UNL     1      -3.009   1.396  -0.489  0.00  0.00    +0.003 C 
ATOM     27  C   UNL     1      -4.005   0.568   0.029  0.00  0.00    +0.039 C 
BRANCH  27  29
ATOM     28  O   UNL     1      -5.385   2.301   0.780  0.00  0.00    -0.286 OA
ATOM     29  C   UNL     1      -5.298   1.126   0.393  0.00  0.00    +0.201 C 
BRANCH  29  31
ATOM     30  S   UNL     1      -7.834   0.691   1.409  0.00  0.00    -0.083 S 
ATOM     31  C   UNL     1      -6.562   0.333   0.321  0.00  0.00    +0.068 C 
ATOM     32  C   UNL     1      -6.886  -0.700  -0.531  0.00  0.00    +0.010 C 
ATOM     33  C   UNL     1      -8.196  -1.204  -0.287  0.00  0.00    +0.008 C 
ATOM     34  C   UNL     1      -8.823  -0.538   0.742  0.00  0.00    +0.036 C 
ENDBRANCH  29  31
ENDBRANCH  27  29
ENDBRANCH  20  22
ENDBRANCH  19  20
ENDBRANCH   1  19
TORSDOF 11
