REMARK  Name = 134192
REMARK  12 active torsions:
REMARK  status: ('A' for Active; 'I' for Inactive)
REMARK    1  A    between atoms: N_1  and  C_4
REMARK    2  A    between atoms: N_1  and  C_25
REMARK    3  A    between atoms: C_3  and  N_9
REMARK    4  A    between atoms: N_9  and  C_12
REMARK    5  A    between atoms: C_25  and  C_30
REMARK    6  A    between atoms: C_29  and  C_32
REMARK    7  A    between atoms: C_32  and  N_33
REMARK    8  A    between atoms: C_32  and  C_37
REMARK    9  A    between atoms: C_37  and  C_38
REMARK   10  A    between atoms: C_38  and  C_39
REMARK   11  A    between atoms: C_39  and  C_40
REMARK   12  A    between atoms: C_40  and  N_41
REMARK                            x       y       z     vdW  Elec       q    Type
REMARK                         _______ _______ _______ _____ _____    ______ ____
ROOT
ATOM      1  N   UNL     1      -1.780   1.220  -1.547  0.00  0.00    -0.325 N 
ATOM      2  H   UNL     1      -2.190   1.513  -2.393  0.00  0.00    +0.147 HD
ENDROOT
BRANCH   1   4
ATOM      3  C   UNL     1       2.366   0.547  -1.491  0.00  0.00    +0.048 C 
ATOM      4  C   UNL     1      -0.410   0.997  -1.529  0.00  0.00    +0.045 C 
ATOM      5  C   UNL     1       1.612   0.355  -0.333  0.00  0.00    +0.016 C 
ATOM      6  C   UNL     1       1.743   0.963  -2.668  0.00  0.00    +0.016 C 
ATOM      7  C   UNL     1       0.235   0.578  -0.352  0.00  0.00    +0.016 C 
ATOM      8  C   UNL     1       0.366   1.186  -2.686  0.00  0.00    +0.016 C 
BRANCH   3   9
ATOM      9  N   UNL     1       3.758   0.323  -1.472  0.00  0.00    -0.312 N 
ATOM     10  H   UNL     1       4.197   0.486  -2.338  0.00  0.00    +0.152 HD
BRANCH   9  12
ATOM     11  N   UNL     1       6.394  -0.905   1.547  0.00  0.00    -0.406 NA
ATOM     12  C   UNL     1       4.644  -0.090  -0.458  0.00  0.00    +0.053 C 
ATOM     13  C   UNL     1       5.270   0.863   0.364  0.00  0.00    +0.039 C 
ATOM     14  C   UNL     1       4.905  -1.456  -0.262  0.00  0.00    +0.043 C 
ATOM     15  C   UNL     1       6.146   0.406   1.363  0.00  0.00    +0.114 C 
ATOM     16  C   UNL     1       5.796  -1.823   0.762  0.00  0.00    +0.132 C 
ATOM     17  C   UNL     1       5.033   2.239   0.199  0.00  0.00    +0.003 C 
ATOM     18  C   UNL     1       4.298  -2.439  -1.063  0.00  0.00    +0.004 C 
ATOM     19  C   UNL     1       6.764   1.353   2.175  0.00  0.00    +0.085 C 
ATOM     20  C   UNL     1       6.052  -3.178   0.953  0.00  0.00    +0.032 C 
ATOM     21  C   UNL     1       5.664   3.165   1.023  0.00  0.00    -0.004 C 
ATOM     22  C   UNL     1       4.572  -3.787  -0.852  0.00  0.00    +0.000 C 
ATOM     23  C   UNL     1       6.531   2.721   2.013  0.00  0.00    -0.019 C 
ATOM     24  C   UNL     1       5.450  -4.157   0.159  0.00  0.00    +0.003 C 
ENDBRANCH   9  12
ENDBRANCH   3   9
ENDBRANCH   1   4
BRANCH   1  25
ATOM     25  C   UNL     1      -2.636   1.047  -0.402  0.00  0.00    +0.174 C 
BRANCH  25  30
ATOM     26  O   UNL     1      -6.931   1.835  -0.688  0.00  0.00    -0.277 OA
ATOM     27  O   UNL     1      -4.405   1.742  -1.895  0.00  0.00    -0.273 OA
ATOM     28  N   UNL     1      -4.920   1.226   0.321  0.00  0.00    -0.256 N 
ATOM     29  C   UNL     1      -6.295   1.462   0.296  0.00  0.00    +0.208 C 
ATOM     30  C   UNL     1      -4.064   1.380  -0.772  0.00  0.00    +0.248 C 
ATOM     31  H   UNL     1      -4.523   0.929   1.172  0.00  0.00    +0.157 HD
BRANCH  29  32
ATOM     32  C   UNL     1      -6.959   1.185   1.642  0.00  0.00    +0.013 C 
BRANCH  32  33
ATOM     33  N   UNL     1      -7.544   2.445   2.101  0.00  0.00    +0.387 N 
ATOM     34  H   UNL     1      -7.999   2.300   3.003  0.00  0.00    -0.089 HD
ATOM     35  H   UNL     1      -8.232   2.768   1.421  0.00  0.00    -0.089 HD
ATOM     36  H   UNL     1      -6.809   3.145   2.200  0.00  0.00    -0.089 HD
ENDBRANCH  32  33
BRANCH  32  37
ATOM     37  C   UNL     1      -8.057   0.122   1.505  0.00  0.00    -0.013 C 
BRANCH  37  38
ATOM     38  C   UNL     1      -7.520  -1.209   0.967  0.00  0.00    -0.004 C 
BRANCH  38  39
ATOM     39  C   UNL     1      -8.644  -2.240   0.817  0.00  0.00    -0.024 C 
BRANCH  39  40
ATOM     40  C   UNL     1      -8.169  -3.564   0.216  0.00  0.00    -0.086 C 
BRANCH  40  41
ATOM     41  N   UNL     1      -9.265  -4.511   0.049  0.00  0.00    +0.380 N 
ATOM     42  H   UNL     1      -8.907  -5.378  -0.352  0.00  0.00    -0.089 HD
ATOM     43  H   UNL     1      -9.967  -4.113  -0.574  0.00  0.00    -0.089 HD
ATOM     44  H   UNL     1      -9.687  -4.706   0.957  0.00  0.00    -0.089 HD
ENDBRANCH  40  41
ENDBRANCH  39  40
ENDBRANCH  38  39
ENDBRANCH  37  38
ENDBRANCH  32  37
ENDBRANCH  29  32
ENDBRANCH  25  30
ENDBRANCH   1  25
TORSDOF 12
