134129858
  -OEChem-03292013293D

 63 64  0     1  0  0  0  0  0999 V2000
   -3.4227   -2.0956    2.4113 Cl  0  0  0  0  0  0  0  0  0  0  0  0
   -1.1580    2.7880    1.5389 S   0  0  0  0  0  0  0  0  0  0  0  0
   -1.4231    0.8100   -0.3197 O   0  0  0  0  0  0  0  0  0  0  0  0
   -3.8909    0.1404   -1.6845 O   0  0  0  0  0  0  0  0  0  0  0  0
   -5.2476    2.3904   -0.7867 O   0  0  0  0  0  0  0  0  0  0  0  0
   -2.9996    4.1455   -0.4979 O   0  0  0  0  0  0  0  0  0  0  0  0
    0.0482   -2.2915   -1.6047 O   0  0  0  0  0  0  0  0  0  0  0  0
    2.1536   -3.4177   -0.4332 N   0  0  0  0  0  0  0  0  0  0  0  0
   -0.8493   -1.7356    0.4700 N   0  0  0  0  0  0  0  0  0  0  0  0
    3.5118   -1.5389   -0.5853 C   0  0  2  0  0  0  0  0  0  0  0  0
    2.3435   -1.1489    0.3164 C   0  0  0  0  0  0  0  0  0  0  0  0
    1.4449   -2.3831    0.3219 C   0  0  1  0  0  0  0  0  0  0  0  0
   -2.4901    0.0557    0.2762 C   0  0  2  0  0  0  0  0  0  0  0  0
   -2.1890   -1.4188    0.0270 C   0  0  2  0  0  0  0  0  0  0  0  0
    3.5675   -3.0490   -0.4187 C   0  0  0  0  0  0  0  0  0  0  0  0
   -3.8487    0.4768   -0.2955 C   0  0  1  0  0  0  0  0  0  0  0  0
    4.8140   -0.8447   -0.2260 C   0  0  0  0  0  0  0  0  0  0  0  0
   -4.0512    1.9843   -0.1265 C   0  0  1  0  0  0  0  0  0  0  0  0
   -2.8665    2.7458   -0.7209 C   0  0  2  0  0  0  0  0  0  0  0  0
    0.1545   -2.1457   -0.3898 C   0  0  0  0  0  0  0  0  0  0  0  0
   -1.5287    2.2319   -0.1687 C   0  0  1  0  0  0  0  0  0  0  0  0
   -3.2444   -2.3580    0.6470 C   0  0  1  0  0  0  0  0  0  0  0  0
    4.6753    0.6767   -0.2892 C   0  0  0  0  0  0  0  0  0  0  0  0
    5.9976    1.3715    0.0400 C   0  0  0  0  0  0  0  0  0  0  0  0
   -2.9393   -3.8322    0.3950 C   0  0  0  0  0  0  0  0  0  0  0  0
    5.8490    2.8925    0.0096 C   0  0  0  0  0  0  0  0  0  0  0  0
    0.4367    1.9631    1.7246 C   0  0  0  0  0  0  0  0  0  0  0  0
    7.1528    3.5870    0.3692 C   0  0  0  0  0  0  0  0  0  0  0  0
    3.2498   -1.3000   -1.6261 H   0  0  0  0  0  0  0  0  0  0  0  0
    1.8410   -0.2496   -0.0557 H   0  0  0  0  0  0  0  0  0  0  0  0
    2.6898   -0.9501    1.3382 H   0  0  0  0  0  0  0  0  0  0  0  0
    1.2659   -2.7308    1.3456 H   0  0  0  0  0  0  0  0  0  0  0  0
   -2.4703    0.2579    1.3528 H   0  0  0  0  0  0  0  0  0  0  0  0
   -2.2019   -1.5925   -1.0565 H   0  0  0  0  0  0  0  0  0  0  0  0
    4.1189   -3.5367   -1.2283 H   0  0  0  0  0  0  0  0  0  0  0  0
    4.0225   -3.3431    0.5344 H   0  0  0  0  0  0  0  0  0  0  0  0
   -4.6822   -0.0442    0.1840 H   0  0  0  0  0  0  0  0  0  0  0  0
    5.6019   -1.1736   -0.9148 H   0  0  0  0  0  0  0  0  0  0  0  0
    5.1342   -1.1380    0.7818 H   0  0  0  0  0  0  0  0  0  0  0  0
   -4.1704    2.2414    0.9325 H   0  0  0  0  0  0  0  0  0  0  0  0
    1.8424   -3.4135   -1.4057 H   0  0  0  0  0  0  0  0  0  0  0  0
   -2.8800    2.6117   -1.8099 H   0  0  0  0  0  0  0  0  0  0  0  0
   -0.7332    2.6700   -0.7821 H   0  0  0  0  0  0  0  0  0  0  0  0
   -0.6481   -1.6378    1.4610 H   0  0  0  0  0  0  0  0  0  0  0  0
   -4.2273   -2.1560    0.2113 H   0  0  0  0  0  0  0  0  0  0  0  0
    3.9127    1.0194    0.4196 H   0  0  0  0  0  0  0  0  0  0  0  0
    4.3440    0.9758   -1.2911 H   0  0  0  0  0  0  0  0  0  0  0  0
    6.7659    1.0617   -0.6788 H   0  0  0  0  0  0  0  0  0  0  0  0
    6.3391    1.0569    1.0338 H   0  0  0  0  0  0  0  0  0  0  0  0
   -2.8310   -4.0259   -0.6775 H   0  0  0  0  0  0  0  0  0  0  0  0
   -3.7539   -4.4657    0.7634 H   0  0  0  0  0  0  0  0  0  0  0  0
   -2.0182   -4.1541    0.8925 H   0  0  0  0  0  0  0  0  0  0  0  0
   -3.0682    0.4480   -2.1006 H   0  0  0  0  0  0  0  0  0  0  0  0
   -5.9813    1.8823   -0.4007 H   0  0  0  0  0  0  0  0  0  0  0  0
   -2.2205    4.5796   -0.8854 H   0  0  0  0  0  0  0  0  0  0  0  0
    5.5312    3.2154   -0.9886 H   0  0  0  0  0  0  0  0  0  0  0  0
    5.0704    3.2055    0.7150 H   0  0  0  0  0  0  0  0  0  0  0  0
    0.8923    2.2761    2.6681 H   0  0  0  0  0  0  0  0  0  0  0  0
    1.1129    2.2361    0.9102 H   0  0  0  0  0  0  0  0  0  0  0  0
    0.3088    0.8786    1.7540 H   0  0  0  0  0  0  0  0  0  0  0  0
    7.4797    3.3107    1.3767 H   0  0  0  0  0  0  0  0  0  0  0  0
    7.9468    3.3197   -0.3354 H   0  0  0  0  0  0  0  0  0  0  0  0
    7.0241    4.6735    0.3398 H   0  0  0  0  0  0  0  0  0  0  0  0
  1 22  1  0  0  0  0
  2 21  1  0  0  0  0
  2 27  1  0  0  0  0
  3 13  1  0  0  0  0
  3 21  1  0  0  0  0
  4 16  1  0  0  0  0
  4 53  1  0  0  0  0
  5 18  1  0  0  0  0
  5 54  1  0  0  0  0
  6 19  1  0  0  0  0
  6 55  1  0  0  0  0
  7 20  2  0  0  0  0
  8 12  1  0  0  0  0
  8 15  1  0  0  0  0
  8 41  1  0  0  0  0
  9 14  1  0  0  0  0
  9 20  1  0  0  0  0
  9 44  1  0  0  0  0
 10 11  1  0  0  0  0
 10 15  1  0  0  0  0
 10 17  1  0  0  0  0
 10 29  1  0  0  0  0
 11 12  1  0  0  0  0
 11 30  1  0  0  0  0
 11 31  1  0  0  0  0
 12 20  1  0  0  0  0
 12 32  1  0  0  0  0
 13 14  1  0  0  0  0
 13 16  1  0  0  0  0
 13 33  1  0  0  0  0
 14 22  1  0  0  0  0
 14 34  1  0  0  0  0
 15 35  1  0  0  0  0
 15 36  1  0  0  0  0
 16 18  1  0  0  0  0
 16 37  1  0  0  0  0
 17 23  1  0  0  0  0
 17 38  1  0  0  0  0
 17 39  1  0  0  0  0
 18 19  1  0  0  0  0
 18 40  1  0  0  0  0
 19 21  1  0  0  0  0
 19 42  1  0  0  0  0
 21 43  1  0  0  0  0
 22 25  1  0  0  0  0
 22 45  1  0  0  0  0
 23 24  1  0  0  0  0
 23 46  1  0  0  0  0
 23 47  1  0  0  0  0
 24 26  1  0  0  0  0
 24 48  1  0  0  0  0
 24 49  1  0  0  0  0
 25 50  1  0  0  0  0
 25 51  1  0  0  0  0
 25 52  1  0  0  0  0
 26 28  1  0  0  0  0
 26 56  1  0  0  0  0
 26 57  1  0  0  0  0
 27 58  1  0  0  0  0
 27 59  1  0  0  0  0
 27 60  1  0  0  0  0
 28 61  1  0  0  0  0
 28 62  1  0  0  0  0
 28 63  1  0  0  0  0
M  END
> <PUBCHEM_COMPOUND_CID>
134129858

> <PUBCHEM_CONFORMER_RMSD>
1

> <PUBCHEM_CONFORMER_DIVERSEORDER>
1
173
167
77
62
67
109
32
147
177
108
71
28
40
117
120
176
48
47
87
105
33
155
175
143
135
122
24
123
141
89
163
92
12
138
90
152
178
86
145
60
107
88
154
69
169
158
127
15
170
126
54
144
140
106
22
166
139
25
61
171
103
162
29
8
149
172
43
65
111
44
160
156
50
164
5
80
100
168
34
146
27
57
136
85
150
102
132
64
36
119
10
151
96
91
78
161
35
134
82
110
31
17
38
121
97
74
76
55
142
9
49
75
104
174
133
84
159
39
112
45
6
148
93
129
52
125
114
20
21
101
153
94
11
51
124
18
42
128
16
63
3
30
83
14
157
115
95
98
118
56
19
79
41
137
131
66
2
113
4
73
37
99
70
116
26
53
81
165
130
58
46
59
23
68
7
13
72

> <PUBCHEM_MMFF94_PARTIAL_CHARGES>
25
1 -0.29
12 0.33
13 0.28
14 0.3
15 0.27
16 0.28
18 0.28
19 0.28
2 -0.46
20 0.57
21 0.51
22 0.29
27 0.23
3 -0.56
4 -0.68
41 0.36
44 0.37
5 -0.68
53 0.4
54 0.4
55 0.4
6 -0.68
7 -0.57
8 -0.9
9 -0.73

> <PUBCHEM_EFFECTIVE_ROTOR_COUNT>
12.2

> <PUBCHEM_PHARMACOPHORE_FEATURES>
16
1 27 hydrophobe
1 28 hydrophobe
1 3 acceptor
1 4 acceptor
1 4 donor
1 5 acceptor
1 5 donor
1 6 acceptor
1 6 donor
1 7 acceptor
1 8 cation
1 8 donor
1 9 donor
4 17 23 24 26 hydrophobe
5 8 10 11 12 15 rings
6 3 13 16 18 19 21 rings

> <PUBCHEM_HEAVY_ATOM_COUNT>
28

> <PUBCHEM_ATOM_DEF_STEREO_COUNT>
9

> <PUBCHEM_ATOM_UDEF_STEREO_COUNT>
0

> <PUBCHEM_BOND_DEF_STEREO_COUNT>
0

> <PUBCHEM_BOND_UDEF_STEREO_COUNT>
0

> <PUBCHEM_ISOTOPIC_ATOM_COUNT>
0

> <PUBCHEM_COMPONENT_COUNT>
1

> <PUBCHEM_CACTVS_TAUTO_COUNT>
2

> <PUBCHEM_CONFORMER_ID>
07FEA8C200000001

> <PUBCHEM_MMFF94_ENERGY>
55.5681

> <PUBCHEM_FEATURE_SELFOVERLAP>
81.214

> <PUBCHEM_SHAPE_FINGERPRINT>
10675989 125 17689430486557310045
11135609 187 18341608183710691041
13726171 33 18410578422402081176
14251764 38 18270121180699135340
14363568 33 17907587178325251609
14739800 52 18260538997071900234
14787075 74 18124870171600335597
14790565 3 17979922605740924889
14932702 115 18272656770519602448
15575132 122 18337115691353225760
16992787 43 18412823604055901101
21033648 144 18260823753029033542
21049683 118 17170116937243449377
21521721 280 18266181622427102905
21623110 236 18269843025247133889
22956985 138 16383970954990488139
23227448 37 18336829697458951375
23559900 14 18194682566884279402
2747138 104 17898871281265268954
2838139 119 18411132507684810590
3380486 145 18265349455064907323
469060 322 18119272763375930528
50150288 127 16557371266067949080
5104073 3 18040996237562588586
5265222 85 18051133898248926552
550186 72 18193278726330659668
57634706 306 18043236960766426325
7288768 16 18041275565187266210
7808743 9 18267861869330501850
9981440 41 18261114088539392226

> <PUBCHEM_SHAPE_MULTIPOLES>
542.64
13.04
5.74
1.33
22.41
0.87
0.53
10.27
-0.54
-0.28
0.05
-1.39
0
2.56

> <PUBCHEM_SHAPE_SELFOVERLAP>
1061.943

> <PUBCHEM_SHAPE_VOLUME>
328.9

> <PUBCHEM_COORDINATE_TYPE>
2
5
10

$$$$
