134197
  -OEChem-03292013323D

 34 35  0     0  0  0  0  0  0999 V2000
   -0.8581   -1.5376   -0.0287 S   0  0  0  0  0  0  0  0  0  0  0  0
    4.8642    1.8115    0.1002 S   0  0  0  0  0  0  0  0  0  0  0  0
    0.2270   -0.3123    0.0179 O   0  0  0  0  0  0  0  0  0  0  0  0
   -0.7618   -2.2972    1.2098 O   0  0  0  0  0  0  0  0  0  0  0  0
   -0.7258   -2.1952   -1.3225 O   0  0  0  0  0  0  0  0  0  0  0  0
    5.6859   -1.0850   -0.0055 O   0  0  0  0  0  0  0  0  0  0  0  0
    5.5528    1.8818   -1.3800 O   0  0  0  0  0  0  0  0  0  0  0  0
    4.0286    2.9943    0.2382 O   0  0  0  0  0  0  0  0  0  0  0  0
    5.9056    1.5187    1.0713 O   0  0  0  0  0  0  0  0  0  0  0  0
   -6.6563    1.4411   -1.1910 O   0  0  0  0  0  0  0  0  0  0  0  0
   -6.8537    1.4581    1.0640 O   0  0  0  0  0  0  0  0  0  0  0  0
   -2.4155   -0.7491   -0.0019 C   0  0  0  0  0  0  0  0  0  0  0  0
    3.8128    0.4145    0.0483 C   0  0  0  0  0  0  0  0  0  0  0  0
    1.5881   -0.4988    0.0130 C   0  0  0  0  0  0  0  0  0  0  0  0
    2.4307    0.6041    0.0541 C   0  0  0  0  0  0  0  0  0  0  0  0
    4.3393   -0.8764    0.0018 C   0  0  0  0  0  0  0  0  0  0  0  0
    2.1023   -1.7879   -0.0337 C   0  0  0  0  0  0  0  0  0  0  0  0
   -3.0393   -0.4785    1.2160 C   0  0  0  0  0  0  0  0  0  0  0  0
   -3.0367   -0.3906   -1.1984 C   0  0  0  0  0  0  0  0  0  0  0  0
    3.4840   -1.9775   -0.0394 C   0  0  0  0  0  0  0  0  0  0  0  0
   -4.9053    0.5087    0.0414 C   0  0  0  0  0  0  0  0  0  0  0  0
   -4.2843    0.1502    1.2377 C   0  0  0  0  0  0  0  0  0  0  0  0
   -4.2816    0.2383   -1.1767 C   0  0  0  0  0  0  0  0  0  0  0  0
   -6.2028    1.1650    0.0641 C   0  0  0  0  0  0  0  0  0  0  0  0
    1.9925    1.5971    0.0876 H   0  0  0  0  0  0  0  0  0  0  0  0
    1.4926   -2.6827   -0.0652 H   0  0  0  0  0  0  0  0  0  0  0  0
   -2.5717   -0.7405    2.1609 H   0  0  0  0  0  0  0  0  0  0  0  0
   -2.5663   -0.5845   -2.1582 H   0  0  0  0  0  0  0  0  0  0  0  0
    3.8811   -2.9886   -0.0757 H   0  0  0  0  0  0  0  0  0  0  0  0
   -4.7535    0.3542    2.1967 H   0  0  0  0  0  0  0  0  0  0  0  0
   -4.7275    0.5012   -2.1318 H   0  0  0  0  0  0  0  0  0  0  0  0
    5.8597   -2.0413   -0.0403 H   0  0  0  0  0  0  0  0  0  0  0  0
    4.9274    2.0092   -2.1318 H   0  0  0  0  0  0  0  0  0  0  0  0
   -7.5315    1.8839   -1.1731 H   0  0  0  0  0  0  0  0  0  0  0  0
  1  3  1  0  0  0  0
  1  4  2  0  0  0  0
  1  5  2  0  0  0  0
  1 12  1  0  0  0  0
  2  7  1  0  0  0  0
  2  8  2  0  0  0  0
  2  9  2  0  0  0  0
  2 13  1  0  0  0  0
  3 14  1  0  0  0  0
  6 16  1  0  0  0  0
  6 32  1  0  0  0  0
  7 33  1  0  0  0  0
 10 24  1  0  0  0  0
 10 34  1  0  0  0  0
 11 24  2  0  0  0  0
 12 18  2  0  0  0  0
 12 19  1  0  0  0  0
 13 15  1  0  0  0  0
 13 16  2  0  0  0  0
 14 15  2  0  0  0  0
 14 17  1  0  0  0  0
 15 25  1  0  0  0  0
 16 20  1  0  0  0  0
 17 20  2  0  0  0  0
 17 26  1  0  0  0  0
 18 22  1  0  0  0  0
 18 27  1  0  0  0  0
 19 23  2  0  0  0  0
 19 28  1  0  0  0  0
 20 29  1  0  0  0  0
 21 22  2  0  0  0  0
 21 23  1  0  0  0  0
 21 24  1  0  0  0  0
 22 30  1  0  0  0  0
 23 31  1  0  0  0  0
M  END
> <PUBCHEM_COMPOUND_CID>
134197

> <PUBCHEM_CONFORMER_RMSD>
0.8

> <PUBCHEM_CONFORMER_DIVERSEORDER>
3
10
20
2
17
4
15
18
9
13
1
14
5
7
8
19
12
6
16
11

> <PUBCHEM_MMFF94_PARTIAL_CHARGES>
34
1 1.49
10 -0.65
11 -0.57
12 -0.01
13 -0.01
14 0.08
15 -0.15
16 0.08
17 -0.15
18 -0.15
19 -0.15
2 1.49
20 -0.15
21 0.09
22 -0.15
23 -0.15
24 0.63
25 0.15
26 0.15
27 0.15
28 0.15
29 0.15
3 -0.27
30 0.15
31 0.15
32 0.45
33 0.5
34 0.5
4 -0.65
5 -0.65
6 -0.53
7 -0.68
8 -0.65
9 -0.65

> <PUBCHEM_EFFECTIVE_ROTOR_COUNT>
5

> <PUBCHEM_PHARMACOPHORE_FEATURES>
12
1 10 acceptor
1 11 acceptor
1 4 acceptor
1 5 acceptor
1 6 donor
1 7 acceptor
1 8 acceptor
1 9 acceptor
3 10 11 24 anion
4 2 7 8 9 anion
6 12 18 19 21 22 23 rings
6 13 14 15 16 17 20 rings

> <PUBCHEM_HEAVY_ATOM_COUNT>
24

> <PUBCHEM_ATOM_DEF_STEREO_COUNT>
0

> <PUBCHEM_ATOM_UDEF_STEREO_COUNT>
0

> <PUBCHEM_BOND_DEF_STEREO_COUNT>
0

> <PUBCHEM_BOND_UDEF_STEREO_COUNT>
0

> <PUBCHEM_ISOTOPIC_ATOM_COUNT>
0

> <PUBCHEM_COMPONENT_COUNT>
1

> <PUBCHEM_CACTVS_TAUTO_COUNT>
3

> <PUBCHEM_CONFORMER_ID>
00020C3500000003

> <PUBCHEM_MMFF94_ENERGY>
51.4551

> <PUBCHEM_FEATURE_SELFOVERLAP>
61.033

> <PUBCHEM_SHAPE_FINGERPRINT>
10 15 17095245834562688789
10411042 1 17762900966460045142
11089746 13 18411133623785638830
12236239 1 17917707981522928383
12403259 415 17894907387137915383
12596602 18 17676209091197695089
12633257 1 15357706292491010411
12788726 201 17346609538448019993
13167372 99 18270964535860813353
13533116 47 17459182984770720962
13685833 64 9583515434699027557
13878862 14 18337935840701063244
13955234 65 18042681698150752947
14123256 34 8718833114768441121
14347332 77 9799425407278724302
14528608 73 18059855099218628988
14848178 96 18198621219434891920
15183329 4 17060627685144709580
15348495 7 17603590767551339920
17870717 6 14189574144336642789
18222031 100 13110963132571024890
18335252 114 18341890762772499796
20157964 124 18342176639785012611
20281389 69 18261109647906866605
20511986 3 17917132970979424050
21033648 144 18335975428854102407
21033648 29 17822010916956326153
21033650 10 15123247506546902963
21150785 3 13830128425523172120
21298829 104 18272932743231893128
21637258 2 7853571284486811965
22122407 14 18340780238938702713
22224240 67 17822013099818019291
22849339 104 15554156082338870565
23559900 14 18412542116173313018
2838139 119 18411132499021081213
2916195 48 18261109686350361459
29717793 49 17346601842156567422
300161 21 17988639722708600450
3004659 81 16701743722616418846
335352 9 18412827967795388998
3472631 163 18201720677840170559
351380 3 11674881095638260217
397830 11 17968393337407089459
4073 2 18113623429630659450
465052 167 7925912595189679256
474 4 18343585110075312379
5104073 3 18187921828645336050
5718773 13 10879728550344699132
57724786 102 18408325505495633740
59682541 35 18113912568094421201
59682541 52 16773527576955382108
633830 44 18410286995775024847

> <PUBCHEM_SHAPE_MULTIPOLES>
448.78
17.03
2.41
1.15
8.45
0.37
0.07
11.79
-0.1
-2.8
0.01
1.03
0.04
0.02

> <PUBCHEM_SHAPE_SELFOVERLAP>
944.525

> <PUBCHEM_SHAPE_VOLUME>
252.1

> <PUBCHEM_COORDINATE_TYPE>
2
5
10

$$$$
