134151810
  -OEChem-03292013293D

 64 66  0     1  0  0  0  0  0999 V2000
    1.1423   -0.7676    0.7419 O   0  0  0  0  0  0  0  0  0  0  0  0
    0.0422   -4.4113   -0.7205 O   0  0  0  0  0  0  0  0  0  0  0  0
   -0.1663   -2.0665   -2.1476 O   0  0  0  0  0  0  0  0  0  0  0  0
    2.3391   -2.3391   -0.4526 O   0  0  0  0  0  0  0  0  0  0  0  0
   -4.2693    3.2682   -1.1146 O   0  0  0  0  0  0  0  0  0  0  0  0
    5.2676    1.5260    2.5686 O   0  0  0  0  0  0  0  0  0  0  0  0
    5.4352    2.3444   -2.1311 O   0  0  0  0  0  0  0  0  0  0  0  0
   -2.1642    1.7365   -0.0926 N   0  0  0  0  0  0  0  0  0  0  0  0
   -1.1622    0.6768   -0.1396 C   0  0  2  0  0  0  0  0  0  0  0  0
    0.2631    1.3288   -0.0824 C   0  0  2  0  0  0  0  0  0  0  0  0
   -1.5107   -0.2158   -1.3611 C   0  0  2  0  0  0  0  0  0  0  0  0
    1.4126    0.2856   -0.2084 C   0  0  1  0  0  0  0  0  0  0  0  0
   -1.4849   -2.5790   -0.1877 C   0  0  2  0  0  0  0  0  0  0  0  0
   -0.9492   -1.6490   -1.2909 C   0  0  0  0  0  0  0  0  0  0  0  0
   -0.4577   -3.6124    0.3496 C   0  0  2  0  0  0  0  0  0  0  0  0
    0.6906   -3.0204    1.2006 C   0  0  2  0  0  0  0  0  0  0  0  0
    0.3934    2.1280    1.2360 C   0  0  0  0  0  0  0  0  0  0  0  0
   -1.1676    0.4416   -2.7038 C   0  0  0  0  0  0  0  0  0  0  0  0
    2.8064    0.8690   -0.0577 C   0  0  0  0  0  0  0  0  0  0  0  0
   -2.7125   -3.2940   -0.7637 C   0  0  0  0  0  0  0  0  0  0  0  0
    1.5226   -2.0337    0.4060 C   0  0  0  0  0  0  0  0  0  0  0  0
    1.6159   -4.0921    1.7781 C   0  0  0  0  0  0  0  0  0  0  0  0
   -3.4601    1.5337    0.3319 C   0  0  0  0  0  0  0  0  0  0  0  0
    3.4887    1.3445   -1.1775 C   0  0  0  0  0  0  0  0  0  0  0  0
    3.4040    0.9301    1.2012 C   0  0  0  0  0  0  0  0  0  0  0  0
   -4.5043    2.3025   -0.1821 C   0  0  0  0  0  0  0  0  0  0  0  0
   -3.7222    0.5497    1.2852 C   0  0  0  0  0  0  0  0  0  0  0  0
    4.6840    1.4666    1.3402 C   0  0  0  0  0  0  0  0  0  0  0  0
    4.7688    1.8809   -1.0383 C   0  0  0  0  0  0  0  0  0  0  0  0
    5.3664    1.9421    0.2205 C   0  0  0  0  0  0  0  0  0  0  0  0
   -5.8105    2.0875    0.2573 C   0  0  0  0  0  0  0  0  0  0  0  0
   -5.0285    0.3346    1.7246 C   0  0  0  0  0  0  0  0  0  0  0  0
   -6.0726    1.1036    1.2107 C   0  0  0  0  0  0  0  0  0  0  0  0
   -1.2176    0.0723    0.7676 H   0  0  0  0  0  0  0  0  0  0  0  0
    0.3610    2.0549   -0.9010 H   0  0  0  0  0  0  0  0  0  0  0  0
   -2.5980   -0.3718   -1.3897 H   0  0  0  0  0  0  0  0  0  0  0  0
    1.3597   -0.1491   -1.2128 H   0  0  0  0  0  0  0  0  0  0  0  0
   -1.8154   -1.9734    0.6603 H   0  0  0  0  0  0  0  0  0  0  0  0
   -1.0045   -4.3050    1.0026 H   0  0  0  0  0  0  0  0  0  0  0  0
    0.2481   -2.4877    2.0533 H   0  0  0  0  0  0  0  0  0  0  0  0
    0.3835    1.4669    2.1089 H   0  0  0  0  0  0  0  0  0  0  0  0
   -0.4238    2.8466    1.3550 H   0  0  0  0  0  0  0  0  0  0  0  0
    1.3120    2.7216    1.2560 H   0  0  0  0  0  0  0  0  0  0  0  0
   -2.0102    2.5352   -0.7005 H   0  0  0  0  0  0  0  0  0  0  0  0
   -1.6480    1.4201   -2.8024 H   0  0  0  0  0  0  0  0  0  0  0  0
   -1.5178   -0.1805   -3.5355 H   0  0  0  0  0  0  0  0  0  0  0  0
   -0.0901    0.5754   -2.8357 H   0  0  0  0  0  0  0  0  0  0  0  0
   -2.4536   -3.8932   -1.6435 H   0  0  0  0  0  0  0  0  0  0  0  0
   -3.4775   -2.5738   -1.0733 H   0  0  0  0  0  0  0  0  0  0  0  0
   -3.1640   -3.9568   -0.0182 H   0  0  0  0  0  0  0  0  0  0  0  0
    2.1119   -4.6683    0.9894 H   0  0  0  0  0  0  0  0  0  0  0  0
    1.0546   -4.7903    2.4075 H   0  0  0  0  0  0  0  0  0  0  0  0
    2.4000   -3.6363    2.3928 H   0  0  0  0  0  0  0  0  0  0  0  0
    0.5900   -3.8460   -1.2902 H   0  0  0  0  0  0  0  0  0  0  0  0
    3.0214    1.2990   -2.1583 H   0  0  0  0  0  0  0  0  0  0  0  0
    2.8798    0.5633    2.0800 H   0  0  0  0  0  0  0  0  0  0  0  0
   -2.9484   -0.0556    1.7430 H   0  0  0  0  0  0  0  0  0  0  0  0
    6.3640    2.3601    0.3289 H   0  0  0  0  0  0  0  0  0  0  0  0
   -6.6339    2.6790   -0.1341 H   0  0  0  0  0  0  0  0  0  0  0  0
   -5.2324   -0.4266    2.4720 H   0  0  0  0  0  0  0  0  0  0  0  0
   -7.0894    0.9371    1.5542 H   0  0  0  0  0  0  0  0  0  0  0  0
   -5.1114    3.6935   -1.3510 H   0  0  0  0  0  0  0  0  0  0  0  0
    4.6557    1.1549    3.2272 H   0  0  0  0  0  0  0  0  0  0  0  0
    4.8746    2.2243   -2.9168 H   0  0  0  0  0  0  0  0  0  0  0  0
  1 12  1  0  0  0  0
  1 21  1  0  0  0  0
  2 15  1  0  0  0  0
  2 54  1  0  0  0  0
  3 14  2  0  0  0  0
  4 21  2  0  0  0  0
  5 26  1  0  0  0  0
  5 62  1  0  0  0  0
  6 28  1  0  0  0  0
  6 63  1  0  0  0  0
  7 29  1  0  0  0  0
  7 64  1  0  0  0  0
  8  9  1  0  0  0  0
  8 23  1  0  0  0  0
  8 44  1  0  0  0  0
  9 10  1  0  0  0  0
  9 11  1  0  0  0  0
  9 34  1  0  0  0  0
 10 12  1  0  0  0  0
 10 17  1  0  0  0  0
 10 35  1  0  0  0  0
 11 14  1  0  0  0  0
 11 18  1  0  0  0  0
 11 36  1  0  0  0  0
 12 19  1  0  0  0  0
 12 37  1  0  0  0  0
 13 14  1  0  0  0  0
 13 15  1  0  0  0  0
 13 20  1  0  0  0  0
 13 38  1  0  0  0  0
 15 16  1  0  0  0  0
 15 39  1  0  0  0  0
 16 21  1  0  0  0  0
 16 22  1  0  0  0  0
 16 40  1  0  0  0  0
 17 41  1  0  0  0  0
 17 42  1  0  0  0  0
 17 43  1  0  0  0  0
 18 45  1  0  0  0  0
 18 46  1  0  0  0  0
 18 47  1  0  0  0  0
 19 24  2  0  0  0  0
 19 25  1  0  0  0  0
 20 48  1  0  0  0  0
 20 49  1  0  0  0  0
 20 50  1  0  0  0  0
 22 51  1  0  0  0  0
 22 52  1  0  0  0  0
 22 53  1  0  0  0  0
 23 26  1  0  0  0  0
 23 27  2  0  0  0  0
 24 29  1  0  0  0  0
 24 55  1  0  0  0  0
 25 28  2  0  0  0  0
 25 56  1  0  0  0  0
 26 31  2  0  0  0  0
 27 32  1  0  0  0  0
 27 57  1  0  0  0  0
 28 30  1  0  0  0  0
 29 30  2  0  0  0  0
 30 58  1  0  0  0  0
 31 33  1  0  0  0  0
 31 59  1  0  0  0  0
 32 33  2  0  0  0  0
 32 60  1  0  0  0  0
 33 61  1  0  0  0  0
M  END
> <PUBCHEM_COMPOUND_CID>
134151810

> <PUBCHEM_CONFORMER_RMSD>
0.8

> <PUBCHEM_CONFORMER_DIVERSEORDER>
2
3
17
18
11
19
8
12
13
14
5
6
10
20
9
16
4
15
1
7

> <PUBCHEM_MMFF94_PARTIAL_CHARGES>
40
1 -0.43
11 0.06
12 0.42
13 0.06
14 0.45
15 0.28
16 0.06
19 -0.14
2 -0.68
21 0.66
23 0.1
24 -0.15
25 -0.15
26 0.08
27 -0.15
28 0.08
29 0.08
3 -0.57
30 -0.15
31 -0.15
32 -0.15
33 -0.15
4 -0.57
44 0.4
5 -0.53
54 0.4
55 0.15
56 0.15
57 0.15
58 0.15
59 0.15
6 -0.53
60 0.15
61 0.15
62 0.45
63 0.45
64 0.45
7 -0.53
8 -0.87
9 0.37

> <PUBCHEM_EFFECTIVE_ROTOR_COUNT>
4.6

> <PUBCHEM_PHARMACOPHORE_FEATURES>
11
1 2 acceptor
1 2 donor
1 3 acceptor
1 4 acceptor
1 5 donor
1 6 donor
1 7 donor
1 8 cation
1 8 donor
6 19 24 25 28 29 30 rings
6 23 26 27 31 32 33 rings

> <PUBCHEM_HEAVY_ATOM_COUNT>
33

> <PUBCHEM_ATOM_DEF_STEREO_COUNT>
7

> <PUBCHEM_ATOM_UDEF_STEREO_COUNT>
0

> <PUBCHEM_BOND_DEF_STEREO_COUNT>
0

> <PUBCHEM_BOND_UDEF_STEREO_COUNT>
0

> <PUBCHEM_ISOTOPIC_ATOM_COUNT>
0

> <PUBCHEM_COMPONENT_COUNT>
1

> <PUBCHEM_CACTVS_TAUTO_COUNT>
120

> <PUBCHEM_CONFORMER_ID>
07FEFE8200000002

> <PUBCHEM_MMFF94_ENERGY>
104.6375

> <PUBCHEM_FEATURE_SELFOVERLAP>
55.832

> <PUBCHEM_SHAPE_FINGERPRINT>
10190108 129 18267595791864808219
107951 10 18339093669405165134
1100329 8 18267859498150287130
11115154 58 17125609007695154007
1200032 147 14761576273978961339
12156800 1 17247003813636039582
12422481 6 17895187779624579242
12597179 24 18130239210588974406
12788726 201 17975980078880852390
131258 38 15660580294824425787
13140716 1 18339069398366062146
14020679 6 18129660936277020528
140371 6 17258483973645466249
14790565 3 18336549412061366448
15927050 60 18413108355359740927
17686467 74 9223234019252032668
17913733 40 18411979118352473689
17980427 23 17531258274881088133
1813 80 8214141867413768728
18222031 100 8070027779066013320
19319366 153 18411695465842973032
20600515 1 16891419700133906824
21033648 29 18343577426300348585
21756936 100 18341609369210412756
21796203 349 17619659902501133331
23558518 356 17838321235668019080
23559900 14 17826799127377312581
3178227 256 18193848032999625298
3298306 158 18411419492540410313
3411729 13 18337678495093006497
4058900 60 18267319641972278777
4340502 62 18411141316235512081
469060 322 18041830843949009533
5265222 85 18191604144547509748
563151 40 18336563701766083710
57527293 21 17022903458175156417
59755656 520 18411136952770142540
6669772 16 18271819981851139542
9658208 31 18342461491043725288

> <PUBCHEM_SHAPE_MULTIPOLES>
633.06
11.41
4.94
1.99
1.34
6.15
-0.34
-13.83
3.29
0.21
0.13
-0.89
-0.11
-0.95

> <PUBCHEM_SHAPE_SELFOVERLAP>
1342.094

> <PUBCHEM_SHAPE_VOLUME>
350.1

> <PUBCHEM_COORDINATE_TYPE>
2
5
10

$$$$
