REMARK  Name = 134184
REMARK  7 active torsions:
REMARK  status: ('A' for Active; 'I' for Inactive)
REMARK    1  A    between atoms: C_3  and  C_19
REMARK    2  A    between atoms: C_11  and  C_16
REMARK    3  A    between atoms: C_16  and  O_17
REMARK    4  A    between atoms: C_19  and  O_21
REMARK    5  A    between atoms: O_21  and  C_23
REMARK    6  A    between atoms: C_23  and  C_24
REMARK    7  A    between atoms: C_26  and  O_31
REMARK                            x       y       z     vdW  Elec       q    Type
REMARK                         _______ _______ _______ _____ _____    ______ ____
ROOT
ATOM      1  N   UNL     1      -1.236  -0.500  -1.129  0.00  0.00    -0.401 NA
ATOM      2  N   UNL     1      -2.919   1.017   0.437  0.00  0.00    -0.401 NA
ATOM      3  C   UNL     1       0.310   1.300  -1.215  0.00  0.00    +0.116 C 
ATOM      4  C   UNL     1      -0.896   0.752  -0.785  0.00  0.00    +0.142 C 
ATOM      5  C   UNL     1      -1.751   1.522   0.011  0.00  0.00    +0.139 C 
ATOM      6  C   UNL     1       0.681   2.598  -0.868  0.00  0.00    -0.020 C 
ATOM      7  C   UNL     1      -3.259  -0.235   0.093  0.00  0.00    +0.167 C 
ATOM      8  C   UNL     1      -2.405  -1.006  -0.702  0.00  0.00    +0.161 C 
ATOM      9  C   UNL     1      -1.375   2.819   0.354  0.00  0.00    +0.087 C 
ATOM     10  C   UNL     1      -0.167   3.362  -0.079  0.00  0.00    -0.023 C 
ATOM     11  C   UNL     1      -4.466  -0.783   0.523  0.00  0.00    +0.107 C 
ATOM     12  C   UNL     1      -2.780  -2.303  -1.046  0.00  0.00    +0.035 C 
ATOM     13  C   UNL     1      -4.836  -2.081   0.176  0.00  0.00    +0.009 C 
ATOM     14  C   UNL     1      -3.989  -2.845  -0.613  0.00  0.00    +0.003 C 
ENDROOT
BRANCH  11  16
ATOM     15  O   UNL     1      -5.046   0.868   2.154  0.00  0.00    -0.245 OA
ATOM     16  C   UNL     1      -5.380  -0.008   1.353  0.00  0.00    +0.341 C 
BRANCH  16  17
ATOM     17  O   UNL     1      -6.680  -0.355   1.153  0.00  0.00    -0.477 OA
ATOM     18  H   UNL     1      -6.896  -1.026   0.536  0.00  0.00    +0.295 HD
ENDBRANCH  16  17
ENDBRANCH  11  16
BRANCH   3  19
ATOM     19  C   UNL     1       1.245   0.500  -2.067  0.00  0.00    +0.180 C 
ATOM     20  C   UNL     1       1.543   1.176  -3.406  0.00  0.00    +0.048 C 
BRANCH  19  21
ATOM     21  O   UNL     1       2.478   0.292  -1.371  0.00  0.00    -0.448 OA
BRANCH  21  23
ATOM     22  O   UNL     1       1.358  -0.799   0.319  0.00  0.00    -0.245 OA
ATOM     23  C   UNL     1       2.383  -0.372  -0.191  0.00  0.00    +0.344 C 
BRANCH  23  24
ATOM     24  C   UNL     1       3.724  -0.521   0.429  0.00  0.00    +0.105 C 
ATOM     25  C   UNL     1       4.185   0.459   1.288  0.00  0.00    -0.013 C 
ATOM     26  C   UNL     1       4.477  -1.640   0.128  0.00  0.00    +0.140 C 
ATOM     27  C   UNL     1       5.445   0.314   1.868  0.00  0.00    -0.004 C 
ATOM     28  C   UNL     1       3.376   1.671   1.618  0.00  0.00    +0.031 C 
ATOM     29  C   UNL     1       5.737  -1.785   0.708  0.00  0.00    +0.037 C 
ATOM     30  C   UNL     1       6.221  -0.808   1.577  0.00  0.00    +0.003 C 
BRANCH  26  31
ATOM     31  O   UNL     1       4.023  -2.607  -0.719  0.00  0.00    -0.505 OA
ATOM     32  H   UNL     1       3.179  -2.524  -1.116  0.00  0.00    +0.292 HD
ENDBRANCH  26  31
ENDBRANCH  23  24
ENDBRANCH  21  23
ENDBRANCH  19  21
ENDBRANCH   3  19
TORSDOF 7
