REMARK  Name = 134152
REMARK  10 active torsions:
REMARK  status: ('A' for Active; 'I' for Inactive)
REMARK    1  A    between atoms: C_1  and  S_22
REMARK    2  A    between atoms: C_2  and  C_7
REMARK    3  A    between atoms: C_10  and  C_14
REMARK    4  A    between atoms: C_14  and  C_15
REMARK    5  A    between atoms: C_15  and  C_17
REMARK    6  A    between atoms: C_17  and  C_19
REMARK    7  A    between atoms: C_19  and  O_20
REMARK    8  A    between atoms: S_22  and  C_23
REMARK    9  A    between atoms: C_23  and  C_26
REMARK   10  A    between atoms: C_26  and  O_35
REMARK                            x       y       z     vdW  Elec       q    Type
REMARK                         _______ _______ _______ _____ _____    ______ ____
ROOT
ATOM      1  C   UNL     1      -1.694   2.373  -0.003  0.00  0.00    +0.025 C 
ATOM      2  C   UNL     1       1.014   1.745   0.098  0.00  0.00    +0.000 C 
ATOM      3  C   UNL     1      -1.096   2.094   1.222  0.00  0.00    +0.006 C 
ATOM      4  C   UNL     1      -0.950   2.341  -1.177  0.00  0.00    +0.006 C 
ATOM      5  C   UNL     1       0.262   1.779   1.272  0.00  0.00    +0.001 C 
ATOM      6  C   UNL     1       0.408   2.026  -1.127  0.00  0.00    +0.001 C 
ENDROOT
BRANCH   2   7
ATOM      7  C   UNL     1       2.422   1.418   0.150  0.00  0.00    +0.000 C 
ATOM      8  C   UNL     1       3.171   1.738   1.283  0.00  0.00    +0.000 C 
ATOM      9  C   UNL     1       3.031   0.783  -0.932  0.00  0.00    +0.000 C 
ATOM     10  C   UNL     1       5.138   0.788   0.251  0.00  0.00    +0.035 C 
ATOM     11  C   UNL     1       4.529   1.423   1.333  0.00  0.00    +0.003 C 
ATOM     12  C   UNL     1       4.389   0.468  -0.882  0.00  0.00    +0.003 C 
BRANCH  10  14
ATOM     13  O   UNL     1       7.341   1.153   0.979  0.00  0.00    -0.291 OA
ATOM     14  C   UNL     1       6.554   0.460   0.303  0.00  0.00    +0.181 C 
BRANCH  14  15
ATOM     15  C   UNL     1       7.084  -0.761  -0.462  0.00  0.00    +0.145 C 
BRANCH  15  17
ATOM     16  O   UNL     1       8.911  -1.121   1.115  0.00  0.00    -0.284 OA
ATOM     17  C   UNL     1       8.300  -1.450   0.109  0.00  0.00    +0.255 C 
BRANCH  17  19
ATOM     18  O   UNL     1       8.259  -3.071  -1.633  0.00  0.00    -0.242 OA
ATOM     19  C   UNL     1       8.821  -2.637  -0.649  0.00  0.00    +0.374 C 
BRANCH  19  20
ATOM     20  O   UNL     1       9.910  -3.126  -0.042  0.00  0.00    -0.475 OA
ATOM     21  H   UNL     1      10.254  -2.699   0.718  0.00  0.00    +0.295 HD
ENDBRANCH  19  20
ENDBRANCH  17  19
ENDBRANCH  15  17
ENDBRANCH  14  15
ENDBRANCH  10  14
ENDBRANCH   2   7
BRANCH   1  22
ATOM     22  S   UNL     1      -3.437   2.777  -0.068  0.00  0.00    -0.111 S 
BRANCH  22  23
ATOM     23  C   UNL     1      -4.076   1.463  -1.135  0.00  0.00    +0.096 C 
BRANCH  23  26
ATOM     24  O   UNL     1      -5.638  -1.214  -1.409  0.00  0.00    -0.470 OA
ATOM     25  O   UNL     1      -6.864   0.090   0.987  0.00  0.00    -0.470 OA
ATOM     26  C   UNL     1      -5.526   1.140  -0.764  0.00  0.00    +0.179 C 
ATOM     27  C   UNL     1      -6.130   0.093  -1.703  0.00  0.00    +0.237 C 
ATOM     28  C   UNL     1      -5.594   0.685   0.696  0.00  0.00    +0.237 C 
ATOM     29  C   UNL     1      -6.331  -1.861  -0.418  0.00  0.00    +0.172 C 
ATOM     30  C   UNL     1      -6.927  -1.248   0.693  0.00  0.00    +0.172 C 
ATOM     31  C   UNL     1      -6.415  -3.250  -0.566  0.00  0.00    +0.040 C 
ATOM     32  C   UNL     1      -7.669  -2.020   1.595  0.00  0.00    +0.040 C 
ATOM     33  C   UNL     1      -7.134  -4.017   0.351  0.00  0.00    +0.003 C 
ATOM     34  C   UNL     1      -7.769  -3.401   1.425  0.00  0.00    +0.003 C 
BRANCH  26  35
ATOM     35  O   UNL     1      -6.293   2.340  -0.892  0.00  0.00    -0.379 OA
ATOM     36  H   UNL     1      -7.218   2.158  -0.662  0.00  0.00    +0.211 HD
ENDBRANCH  26  35
ENDBRANCH  23  26
ENDBRANCH  22  23
ENDBRANCH   1  22
TORSDOF 10
