134192
  -OEChem-03292013323D

 65 68  0     1  0  0  0  0  0999 V2000
   -6.9308    1.8351   -0.6884 O   0  0  0  0  0  0  0  0  0  0  0  0
   -4.4053    1.7419   -1.8955 O   0  0  0  0  0  0  0  0  0  0  0  0
   -7.5438    2.4451    2.1014 N   0  0  0  0  0  0  0  0  0  0  0  0
    3.7579    0.3226   -1.4720 N   0  0  0  0  0  0  0  0  0  0  0  0
   -4.9198    1.2259    0.3208 N   0  0  0  0  0  0  0  0  0  0  0  0
    6.3936   -0.9055    1.5468 N   0  0  0  0  0  0  0  0  0  0  0  0
   -9.2647   -4.5112    0.0494 N   0  0  0  0  0  0  0  0  0  0  0  0
   -1.7797    1.2199   -1.5474 N   0  0  0  0  0  0  0  0  0  0  0  0
   -8.0568    0.1223    1.5053 C   0  0  0  0  0  0  0  0  0  0  0  0
   -7.5196   -1.2094    0.9667 C   0  0  0  0  0  0  0  0  0  0  0  0
   -6.9586    1.1848    1.6418 C   0  0  1  0  0  0  0  0  0  0  0  0
   -8.6443   -2.2395    0.8168 C   0  0  0  0  0  0  0  0  0  0  0  0
   -8.1693   -3.5639    0.2164 C   0  0  0  0  0  0  0  0  0  0  0  0
   -6.2953    1.4619    0.2961 C   0  0  0  0  0  0  0  0  0  0  0  0
    4.6437   -0.0899   -0.4576 C   0  0  0  0  0  0  0  0  0  0  0  0
    5.2699    0.8626    0.3637 C   0  0  0  0  0  0  0  0  0  0  0  0
    4.9054   -1.4564   -0.2617 C   0  0  0  0  0  0  0  0  0  0  0  0
    6.1457    0.4058    1.3629 C   0  0  0  0  0  0  0  0  0  0  0  0
    5.7956   -1.8226    0.7621 C   0  0  0  0  0  0  0  0  0  0  0  0
    2.3657    0.5473   -1.4913 C   0  0  0  0  0  0  0  0  0  0  0  0
    5.0332    2.2385    0.1985 C   0  0  0  0  0  0  0  0  0  0  0  0
    4.2981   -2.4390   -1.0628 C   0  0  0  0  0  0  0  0  0  0  0  0
   -2.6358    1.0467   -0.4018 C   0  0  0  0  0  0  0  0  0  0  0  0
    6.7642    1.3530    2.1745 C   0  0  0  0  0  0  0  0  0  0  0  0
    6.0521   -3.1776    0.9529 C   0  0  0  0  0  0  0  0  0  0  0  0
   -0.4103    0.9973   -1.5288 C   0  0  0  0  0  0  0  0  0  0  0  0
   -4.0643    1.3802   -0.7725 C   0  0  0  0  0  0  0  0  0  0  0  0
    1.6122    0.3546   -0.3333 C   0  0  0  0  0  0  0  0  0  0  0  0
    1.7426    0.9632   -2.6678 C   0  0  0  0  0  0  0  0  0  0  0  0
    5.6640    3.1652    1.0231 C   0  0  0  0  0  0  0  0  0  0  0  0
    4.5715   -3.7871   -0.8515 C   0  0  0  0  0  0  0  0  0  0  0  0
    0.2354    0.5777   -0.3521 C   0  0  0  0  0  0  0  0  0  0  0  0
    0.3658    1.1864   -2.6864 C   0  0  0  0  0  0  0  0  0  0  0  0
    6.5313    2.7211    2.0131 C   0  0  0  0  0  0  0  0  0  0  0  0
    5.4504   -4.1568    0.1585 C   0  0  0  0  0  0  0  0  0  0  0  0
   -8.8457    0.4813    0.8304 H   0  0  0  0  0  0  0  0  0  0  0  0
   -8.5281   -0.0447    2.4824 H   0  0  0  0  0  0  0  0  0  0  0  0
   -7.0468   -1.0626   -0.0109 H   0  0  0  0  0  0  0  0  0  0  0  0
   -6.7507   -1.5994    1.6442 H   0  0  0  0  0  0  0  0  0  0  0  0
   -6.2233    0.8515    2.3819 H   0  0  0  0  0  0  0  0  0  0  0  0
   -9.4329   -1.8192    0.1792 H   0  0  0  0  0  0  0  0  0  0  0  0
   -9.0966   -2.4243    1.7996 H   0  0  0  0  0  0  0  0  0  0  0  0
   -7.4033   -4.0089    0.8612 H   0  0  0  0  0  0  0  0  0  0  0  0
   -7.7099   -3.3825   -0.7613 H   0  0  0  0  0  0  0  0  0  0  0  0
   -8.2329    2.7789    1.4287 H   0  0  0  0  0  0  0  0  0  0  0  0
   -6.8214    3.1616    2.1604 H   0  0  0  0  0  0  0  0  0  0  0  0
    4.2223    0.4857   -2.3608 H   0  0  0  0  0  0  0  0  0  0  0  0
   -4.5050    0.9170    1.1964 H   0  0  0  0  0  0  0  0  0  0  0  0
    4.3647    2.6204   -0.5686 H   0  0  0  0  0  0  0  0  0  0  0  0
    3.6095   -2.1847   -1.8644 H   0  0  0  0  0  0  0  0  0  0  0  0
   -2.3333    1.7147    0.4133 H   0  0  0  0  0  0  0  0  0  0  0  0
   -2.6104    0.0081   -0.0519 H   0  0  0  0  0  0  0  0  0  0  0  0
    7.4482    1.0303    2.9574 H   0  0  0  0  0  0  0  0  0  0  0  0
    6.7373   -3.4928    1.7379 H   0  0  0  0  0  0  0  0  0  0  0  0
   -8.8967   -5.3968   -0.2950 H   0  0  0  0  0  0  0  0  0  0  0  0
   -9.6872   -4.7095    0.9554 H   0  0  0  0  0  0  0  0  0  0  0  0
    2.0729    0.0312    0.5962 H   0  0  0  0  0  0  0  0  0  0  0  0
    2.3180    1.1173   -3.5771 H   0  0  0  0  0  0  0  0  0  0  0  0
   -2.1912    1.5202   -2.4246 H   0  0  0  0  0  0  0  0  0  0  0  0
    5.4806    4.2273    0.8928 H   0  0  0  0  0  0  0  0  0  0  0  0
    4.1022   -4.5441   -1.4722 H   0  0  0  0  0  0  0  0  0  0  0  0
   -0.3135    0.4156    0.5717 H   0  0  0  0  0  0  0  0  0  0  0  0
   -0.1042    1.5106   -3.6122 H   0  0  0  0  0  0  0  0  0  0  0  0
    7.0290    3.4359    2.6619 H   0  0  0  0  0  0  0  0  0  0  0  0
    5.6710   -5.2061    0.3316 H   0  0  0  0  0  0  0  0  0  0  0  0
  1 14  2  0  0  0  0
  2 27  2  0  0  0  0
  3 11  1  0  0  0  0
  3 45  1  0  0  0  0
  3 46  1  0  0  0  0
  4 15  1  0  0  0  0
  4 20  1  0  0  0  0
  4 47  1  0  0  0  0
  5 14  1  0  0  0  0
  5 27  1  0  0  0  0
  5 48  1  0  0  0  0
  6 18  2  0  0  0  0
  6 19  1  0  0  0  0
  7 13  1  0  0  0  0
  7 55  1  0  0  0  0
  7 56  1  0  0  0  0
  8 23  1  0  0  0  0
  8 26  1  0  0  0  0
  8 59  1  0  0  0  0
  9 10  1  0  0  0  0
  9 11  1  0  0  0  0
  9 36  1  0  0  0  0
  9 37  1  0  0  0  0
 10 12  1  0  0  0  0
 10 38  1  0  0  0  0
 10 39  1  0  0  0  0
 11 14  1  0  0  0  0
 11 40  1  0  0  0  0
 12 13  1  0  0  0  0
 12 41  1  0  0  0  0
 12 42  1  0  0  0  0
 13 43  1  0  0  0  0
 13 44  1  0  0  0  0
 15 16  2  0  0  0  0
 15 17  1  0  0  0  0
 16 18  1  0  0  0  0
 16 21  1  0  0  0  0
 17 19  1  0  0  0  0
 17 22  2  0  0  0  0
 18 24  1  0  0  0  0
 19 25  2  0  0  0  0
 20 28  2  0  0  0  0
 20 29  1  0  0  0  0
 21 30  2  0  0  0  0
 21 49  1  0  0  0  0
 22 31  1  0  0  0  0
 22 50  1  0  0  0  0
 23 27  1  0  0  0  0
 23 51  1  0  0  0  0
 23 52  1  0  0  0  0
 24 34  2  0  0  0  0
 24 53  1  0  0  0  0
 25 35  1  0  0  0  0
 25 54  1  0  0  0  0
 26 32  2  0  0  0  0
 26 33  1  0  0  0  0
 28 32  1  0  0  0  0
 28 57  1  0  0  0  0
 29 33  2  0  0  0  0
 29 58  1  0  0  0  0
 30 34  1  0  0  0  0
 30 60  1  0  0  0  0
 31 35  2  0  0  0  0
 31 61  1  0  0  0  0
 32 62  1  0  0  0  0
 33 63  1  0  0  0  0
 34 64  1  0  0  0  0
 35 65  1  0  0  0  0
M  END
> <PUBCHEM_COMPOUND_CID>
134192

> <PUBCHEM_CONFORMER_RMSD>
1.2

> <PUBCHEM_CONFORMER_DIVERSEORDER>
1
74
50
123
75
10
18
32
77
29
110
23
98
57
87
112
111
86
17
128
41
11
108
114
48
85
70
121
16
84
53
81
45
113
102
56
122
71
54
105
61
94
58
104
100
20
7
4
88
64
6
116
78
51
107
26
99
73
89
28
118
95
52
36
47
31
62
66
14
37
8
127
97
9
38
96
12
76
119
22
59
68
124
103
15
19
13
30
129
101
106
115
93
125
67
49
92
3
120
63
69
44
43
126
55
27
72
33
82
83
24
42
46
40
90
35
65
79
80
2
21
5
39
34
117
91
60
109
25

> <PUBCHEM_MMFF94_PARTIAL_CHARGES>
49
1 -0.57
11 0.33
13 0.27
14 0.57
15 0.1
18 0.31
19 0.31
2 -0.57
20 0.1
21 -0.15
22 -0.15
23 0.43
24 -0.15
25 -0.15
26 0.1
27 0.57
28 -0.15
29 -0.15
3 -0.99
30 -0.15
31 -0.15
32 -0.15
33 -0.15
34 -0.15
35 -0.15
4 -0.6
45 0.36
46 0.36
47 0.4
48 0.37
49 0.15
5 -0.49
50 0.15
53 0.15
54 0.15
55 0.36
56 0.36
57 0.15
58 0.15
59 0.4
6 -0.62
60 0.15
61 0.15
62 0.15
63 0.15
64 0.15
65 0.15
7 -0.99
8 -0.87

> <PUBCHEM_EFFECTIVE_ROTOR_COUNT>
12

> <PUBCHEM_PHARMACOPHORE_FEATURES>
16
1 1 acceptor
1 2 acceptor
1 3 cation
1 3 donor
1 4 cation
1 4 donor
1 5 donor
1 6 acceptor
1 7 cation
1 7 donor
1 8 cation
1 8 donor
6 16 18 21 24 30 34 rings
6 17 19 22 25 31 35 rings
6 20 26 28 29 32 33 rings
6 6 15 16 17 18 19 rings

> <PUBCHEM_HEAVY_ATOM_COUNT>
35

> <PUBCHEM_ATOM_DEF_STEREO_COUNT>
1

> <PUBCHEM_ATOM_UDEF_STEREO_COUNT>
0

> <PUBCHEM_BOND_DEF_STEREO_COUNT>
0

> <PUBCHEM_BOND_UDEF_STEREO_COUNT>
0

> <PUBCHEM_ISOTOPIC_ATOM_COUNT>
0

> <PUBCHEM_COMPONENT_COUNT>
1

> <PUBCHEM_CACTVS_TAUTO_COUNT>
6

> <PUBCHEM_CONFORMER_ID>
00020C3000000001

> <PUBCHEM_MMFF94_ENERGY>
114.4358

> <PUBCHEM_FEATURE_SELFOVERLAP>
81.264

> <PUBCHEM_SHAPE_FINGERPRINT>
10981352 41 17967818232263891590
11103572 95 18409449155725823391
11386260 185 8718537333920422866
11475781 23 12319442286873269476
12120059 9 17823117004717167591
12342043 65 17972033640176453878
12661589 4 16443911549349345778
13533116 47 18339920403887094468
13726171 33 16342278372414220552
13782708 43 16950288399369059461
14400156 188 18267021658080694890
15392192 104 18261673779060917724
1754908 1 18341617023311646137
21130935 74 18411985741482174435
21814621 53 18191298282482910764
24204213 200 17132115710827766831
3383291 50 17313108557822096209
3504750 166 18188779349743201533
397830 11 18410007736911514741
4167350 143 18411985797744764483
42767 39 18261395589771313731
5109719 28 16558753429461786041
5470011 282 10665526127475081329
5937810 71 10735877275424759155
5951187 136 14476374086204873544
6201320 221 14346611866034431128
6712543 237 18408327662344156599
86090 222 17824834343249175498
9831232 110 17750518369143330222
9937071 3 18113903801971802523
9962374 69 17821736043782180436

> <PUBCHEM_SHAPE_MULTIPOLES>
678.66
30.92
4.71
2.22
67.16
5.99
-0.58
13.82
19.67
-0.24
0.98
-0.86
-1.45
2.1

> <PUBCHEM_SHAPE_SELFOVERLAP>
1461.271

> <PUBCHEM_SHAPE_VOLUME>
371

> <PUBCHEM_COORDINATE_TYPE>
2
5
10

$$$$
