REMARK  Name = 134127
REMARK  6 active torsions:
REMARK  status: ('A' for Active; 'I' for Inactive)
REMARK    1  A    between atoms: N_3  and  C_14
REMARK    2  A    between atoms: C_14  and  C_17
REMARK    3  A    between atoms: N_16  and  CA_19
REMARK    4  A    between atoms: CA_19  and  C_20
REMARK    5  A    between atoms: CA_19  and  C_22
REMARK    6  A    between atoms: C_22  and  O_23
REMARK                            x       y       z     vdW  Elec       q    Type
REMARK                         _______ _______ _______ _____ _____    ______ ____
ROOT
ATOM      1  O   UNL     1       0.055   1.313  -1.185  0.00  0.00    -0.272 OA
ATOM      2  O   UNL     1      -4.333   1.912   0.363  0.00  0.00    -0.252 OA
ATOM      3  N   UNL     1      -0.357  -1.585  -0.571  0.00  0.00    -0.232 NA
ATOM      4  N   UNL     1      -3.450  -0.241   0.375  0.00  0.00    -0.228 N 
ATOM      5  N   UNL     1      -2.141   1.638  -0.415  0.00  0.00    -0.211 N 
ATOM      6  N   UNL     1      -2.258  -2.391   0.271  0.00  0.00    -0.240 NA
ATOM      7  C   UNL     1      -1.194  -0.517  -0.427  0.00  0.00    +0.192 C 
ATOM      8  C   UNL     1      -2.350  -1.037   0.089  0.00  0.00    +0.136 C 
ATOM      9  C   UNL     1      -0.990   0.864  -0.723  0.00  0.00    +0.254 C 
ATOM     10  C   UNL     1      -1.042  -2.691  -0.137  0.00  0.00    +0.203 C 
ATOM     11  C   UNL     1      -3.385   1.154   0.128  0.00  0.00    +0.318 C 
ATOM     12  C   UNL     1      -4.663  -0.834   0.924  0.00  0.00    +0.123 C 
ATOM     13  C   UNL     1      -2.054   3.071  -0.674  0.00  0.00    +0.124 C 
ENDROOT
BRANCH   3  14
ATOM     14  C   UNL     1       0.995  -1.581  -1.077  0.00  0.00    +0.161 C 
BRANCH  14  17
ATOM     15  O   UNL     1       2.174  -2.136   0.961  0.00  0.00    -0.274 OA
ATOM     16  N   UNL     1       2.773  -0.224  -0.215  0.00  0.00    -0.302 N 
ATOM     17  C   UNL     1       2.028  -1.372   0.010  0.00  0.00    +0.239 C 
ATOM     18  H   UNL     1       2.573   0.319  -1.011  0.00  0.00    +0.149 HD
BRANCH  16  19
ATOM     19  CA  UNL     1       3.830   0.210   0.669  0.00  0.00    +0.101 C 
BRANCH  19  20
ATOM     20  C   UNL     1       4.921   0.963  -0.103  0.00  0.00    +0.022 C 
ATOM     21  C   UNL     1       5.519   0.136  -1.234  0.00  0.00    +0.002 C 
ENDBRANCH  19  20
BRANCH  19  22
ATOM     22  C   UNL     1       3.245   1.089   1.775  0.00  0.00    +0.157 C 
BRANCH  22  23
ATOM     23  O   UNL     1       2.675   2.258   1.197  0.00  0.00    -0.380 OA
ATOM     24  H   UNL     1       2.304   2.817   1.898  0.00  0.00    +0.211 HD
ENDBRANCH  22  23
ENDBRANCH  19  22
ENDBRANCH  16  19
ENDBRANCH  14  17
ENDBRANCH   3  14
TORSDOF 6
