REMARK  Name = 134129
REMARK  10 active torsions:
REMARK  status: ('A' for Active; 'I' for Inactive)
REMARK    1  A    between atoms: C_1  and  N_3
REMARK    2  A    between atoms: C_1  and  C_7
REMARK    3  A    between atoms: C_1  and  CA_17
REMARK    4  A    between atoms: C_7  and  O_8
REMARK    5  A    between atoms: C_7  and  C_10
REMARK    6  A    between atoms: C_10  and  O_11
REMARK    7  A    between atoms: C_10  and  C_14
REMARK    8  A    between atoms: C_14  and  O_15
REMARK    9  A    between atoms: CA_17  and  N_19
REMARK   10  A    between atoms: CA_17  and  C_24
REMARK                            x       y       z     vdW  Elec       q    Type
REMARK                         _______ _______ _______ _____ _____    ______ ____
ROOT
ATOM      1  C   UNL     1       0.152   0.323   0.675  0.00  0.00    +0.127 C 
ENDROOT
BRANCH   1   3
ATOM      2  O   UNL     1       1.403   2.933   0.904  0.00  0.00    -0.275 OA
ATOM      3  N   UNL     1       0.514   1.227  -0.405  0.00  0.00    -0.302 N 
ATOM      4  C   UNL     1       1.108   2.453  -0.187  0.00  0.00    +0.223 C 
ATOM      5  C   UNL     1       1.399   3.174  -1.476  0.00  0.00    +0.095 C 
ATOM      6  H   UNL     1       0.327   0.953  -1.331  0.00  0.00    +0.150 HD
ENDBRANCH   1   3
BRANCH   1   7
ATOM      7  C   UNL     1      -1.133  -0.442   0.288  0.00  0.00    +0.168 C 
BRANCH   7   8
ATOM      8  O   UNL     1      -0.825  -1.341  -0.786  0.00  0.00    -0.380 OA
ATOM      9  H   UNL     1      -0.072  -1.899  -0.536  0.00  0.00    +0.211 HD
ENDBRANCH   7   8
BRANCH   7  10
ATOM     10  C   UNL     1      -2.326   0.417  -0.153  0.00  0.00    +0.238 C 
BRANCH  10  11
ATOM     11  O   UNL     1      -2.763   1.196   0.961  0.00  0.00    -0.373 OA
ATOM     12  H   UNL     1      -2.023   1.726   1.296  0.00  0.00    +0.211 HD
ENDBRANCH  10  11
BRANCH  10  14
ATOM     13  O   UNL     1      -4.611  -0.423  -0.050  0.00  0.00    -0.248 OA
ATOM     14  C   UNL     1      -3.529  -0.378  -0.618  0.00  0.00    +0.344 C 
BRANCH  14  15
ATOM     15  O   UNL     1      -3.266  -1.031  -1.776  0.00  0.00    -0.478 OA
ATOM     16  H   UNL     1      -2.418  -0.963  -2.170  0.00  0.00    +0.295 HD
ENDBRANCH  14  15
ENDBRANCH  10  14
ENDBRANCH   7  10
ENDBRANCH   1   7
BRANCH   1  17
ATOM     17  CA  UNL     1       1.342  -0.582   1.032  0.00  0.00    +0.157 C 
BRANCH  17  19
ATOM     18  O   UNL     1       3.331  -0.137  -1.036  0.00  0.00    -0.275 OA
ATOM     19  N   UNL     1       1.710  -1.476  -0.035  0.00  0.00    -0.298 N 
ATOM     20  C   UNL     1       2.678  -1.176  -0.983  0.00  0.00    +0.223 C 
ATOM     21  C   UNL     1       2.883  -2.295  -1.968  0.00  0.00    +0.095 C 
ATOM     22  H   UNL     1       1.251  -2.346  -0.096  0.00  0.00    +0.150 HD
ENDBRANCH  17  19
BRANCH  17  24
ATOM     23  O   UNL     1       0.859  -0.993   3.366  0.00  0.00    -0.286 OA
ATOM     24  C   UNL     1       1.075  -1.449   2.246  0.00  0.00    +0.228 C 
ENDBRANCH  17  24
ENDBRANCH   1  17
TORSDOF 10
