REMARK  Name = 134128044
REMARK  3 active torsions:
REMARK  status: ('A' for Active; 'I' for Inactive)
REMARK    1  A    between atoms: C_9  and  C_18
REMARK    2  A    between atoms: C_9  and  O_22
REMARK    3  A    between atoms: C_13  and  O_24
REMARK                            x       y       z     vdW  Elec       q    Type
REMARK                         _______ _______ _______ _____ _____    ______ ____
ROOT
ATOM      1  O   UNL     1       0.258   0.889   2.406  0.00  0.00    -0.413 OA
ATOM      2  O   UNL     1       1.889  -2.097  -0.796  0.00  0.00    -0.452 OA
ATOM      3  O   UNL     1       0.054   2.609   0.788  0.00  0.00    -0.412 OA
ATOM      4  O   UNL     1       1.938  -0.621   2.754  0.00  0.00    -0.250 OA
ATOM      5  O   UNL     1       0.619   3.430  -1.280  0.00  0.00    -0.247 OA
ATOM      6  O   UNL     1       3.613  -1.029  -1.844  0.00  0.00    -0.250 OA
ATOM      7  C   UNL     1      -0.336   0.362   0.179  0.00  0.00    +0.148 C 
ATOM      8  C   UNL     1       1.032  -0.293   0.507  0.00  0.00    +0.149 C 
ATOM      9  C   UNL     1      -1.321  -0.845   0.226  0.00  0.00    +0.102 C 
ATOM     10  C   UNL     1       0.891  -1.774   0.169  0.00  0.00    +0.182 C 
ATOM     11  C   UNL     1      -0.503  -1.958  -0.428  0.00  0.00    +0.071 C 
ATOM     12  C   UNL     1      -0.489   1.379   1.292  0.00  0.00    +0.350 C 
ATOM     13  C   UNL     1      -0.450   1.253  -1.054  0.00  0.00    +0.220 C 
ATOM     14  C   UNL     1       2.315   0.140  -0.178  0.00  0.00    +0.124 C 
ATOM     15  C   UNL     1       1.154  -0.060   2.003  0.00  0.00    +0.323 C 
ATOM     16  C   UNL     1       0.144   2.553  -0.576  0.00  0.00    +0.347 C 
ATOM     17  C   UNL     1       2.691  -1.026  -1.041  0.00  0.00    +0.318 C 
ENDROOT
BRANCH   9  18
ATOM     18  C   UNL     1      -2.673  -0.654  -0.454  0.00  0.00    +0.023 C 
ATOM     19  C   UNL     1      -3.452   0.476   0.242  0.00  0.00    +0.002 C 
ATOM     20  C   UNL     1      -3.489  -1.956  -0.369  0.00  0.00    +0.002 C 
ATOM     21  C   UNL     1      -2.466  -0.285  -1.933  0.00  0.00    +0.002 C 
ENDBRANCH   9  18
BRANCH   9  22
ATOM     22  O   UNL     1      -1.580  -1.218   1.585  0.00  0.00    -0.386 OA
ATOM     23  H   UNL     1      -0.739  -1.349   2.051  0.00  0.00    +0.210 HD
ENDBRANCH   9  22
BRANCH  13  24
ATOM     24  O   UNL     1       0.161   0.724  -2.199  0.00  0.00    -0.374 OA
ATOM     25  H   UNL     1      -0.275  -0.107  -2.442  0.00  0.00    +0.211 HD
ENDBRANCH  13  24
TORSDOF 3
