134128044
  -OEChem-03292013293D

 41 44  0     1  0  0  0  0  0999 V2000
    0.2583    0.8888    2.4063 O   0  0  0  0  0  0  0  0  0  0  0  0
    1.8889   -2.0968   -0.7964 O   0  0  0  0  0  0  0  0  0  0  0  0
    0.0536    2.6093    0.7880 O   0  0  0  0  0  0  0  0  0  0  0  0
   -1.5801   -1.2181    1.5854 O   0  0  0  0  0  0  0  0  0  0  0  0
    0.1607    0.7242   -2.1986 O   0  0  0  0  0  0  0  0  0  0  0  0
    1.9378   -0.6210    2.7542 O   0  0  0  0  0  0  0  0  0  0  0  0
    0.6188    3.4296   -1.2797 O   0  0  0  0  0  0  0  0  0  0  0  0
    3.6126   -1.0290   -1.8443 O   0  0  0  0  0  0  0  0  0  0  0  0
   -0.3356    0.3625    0.1790 C   0  0  1  0  0  0  0  0  0  0  0  0
    1.0317   -0.2928    0.5068 C   0  0  1  0  0  0  0  0  0  0  0  0
   -1.3212   -0.8447    0.2259 C   0  0  1  0  0  0  0  0  0  0  0  0
    0.8909   -1.7744    0.1691 C   0  0  1  0  0  0  0  0  0  0  0  0
   -0.5027   -1.9578   -0.4276 C   0  0  0  0  0  0  0  0  0  0  0  0
   -0.4886    1.3789    1.2920 C   0  0  1  0  0  0  0  0  0  0  0  0
   -0.4496    1.2532   -1.0541 C   0  0  1  0  0  0  0  0  0  0  0  0
   -2.6726   -0.6536   -0.4538 C   0  0  0  0  0  0  0  0  0  0  0  0
    2.3153    0.1400   -0.1780 C   0  0  0  0  0  0  0  0  0  0  0  0
    1.1536   -0.0605    2.0026 C   0  0  0  0  0  0  0  0  0  0  0  0
    0.1443    2.5527   -0.5756 C   0  0  0  0  0  0  0  0  0  0  0  0
    2.6908   -1.0261   -1.0413 C   0  0  0  0  0  0  0  0  0  0  0  0
   -3.4524    0.4759    0.2424 C   0  0  0  0  0  0  0  0  0  0  0  0
   -3.4889   -1.9556   -0.3689 C   0  0  0  0  0  0  0  0  0  0  0  0
   -2.4657   -0.2847   -1.9334 C   0  0  0  0  0  0  0  0  0  0  0  0
    1.0288   -2.4293    1.0371 H   0  0  0  0  0  0  0  0  0  0  0  0
   -0.4342   -1.9236   -1.5159 H   0  0  0  0  0  0  0  0  0  0  0  0
   -0.8614   -2.9607   -0.1682 H   0  0  0  0  0  0  0  0  0  0  0  0
   -1.5084    1.5686    1.6282 H   0  0  0  0  0  0  0  0  0  0  0  0
   -1.4435    1.6236   -1.2708 H   0  0  0  0  0  0  0  0  0  0  0  0
    3.1342    0.3026    0.5312 H   0  0  0  0  0  0  0  0  0  0  0  0
    2.2201    1.0282   -0.8007 H   0  0  0  0  0  0  0  0  0  0  0  0
   -1.7848   -2.1669    1.6230 H   0  0  0  0  0  0  0  0  0  0  0  0
   -1.5745   -0.6487   -2.4336 H   0  0  0  0  0  0  0  0  0  0  0  0
   -3.5690    0.2942    1.3163 H   0  0  0  0  0  0  0  0  0  0  0  0
   -3.0214    1.4687    0.1064 H   0  0  0  0  0  0  0  0  0  0  0  0
   -2.7132    0.7441   -2.2076 H   0  0  0  0  0  0  0  0  0  0  0  0
   -3.2492   -0.8105   -2.5047 H   0  0  0  0  0  0  0  0  0  0  0  0
   -3.0062   -2.7870   -0.8923 H   0  0  0  0  0  0  0  0  0  0  0  0
   -3.6812   -2.2637    0.6639 H   0  0  0  0  0  0  0  0  0  0  0  0
   -4.4738   -1.8235   -0.8346 H   0  0  0  0  0  0  0  0  0  0  0  0
   -4.4669    0.5369   -0.1723 H   0  0  0  0  0  0  0  0  0  0  0  0
    0.0412    1.3642   -2.9207 H   0  0  0  0  0  0  0  0  0  0  0  0
  1 14  1  0  0  0  0
  1 18  1  0  0  0  0
  2 12  1  0  0  0  0
  2 20  1  0  0  0  0
  3 14  1  0  0  0  0
  3 19  1  0  0  0  0
  4 11  1  0  0  0  0
  4 31  1  0  0  0  0
  5 15  1  0  0  0  0
  5 41  1  0  0  0  0
  6 18  2  0  0  0  0
  7 19  2  0  0  0  0
  8 20  2  0  0  0  0
  9 10  1  0  0  0  0
  9 11  1  0  0  0  0
  9 14  1  0  0  0  0
  9 15  1  0  0  0  0
 10 12  1  0  0  0  0
 10 17  1  0  0  0  0
 10 18  1  0  0  0  0
 11 13  1  0  0  0  0
 11 16  1  0  0  0  0
 12 13  1  0  0  0  0
 12 24  1  0  0  0  0
 13 25  1  0  0  0  0
 13 26  1  0  0  0  0
 14 27  1  0  0  0  0
 15 19  1  0  0  0  0
 15 28  1  0  0  0  0
 16 21  1  0  0  0  0
 16 22  1  0  0  0  0
 16 23  1  0  0  0  0
 17 20  1  0  0  0  0
 17 29  1  0  0  0  0
 17 30  1  0  0  0  0
 21 33  1  0  0  0  0
 21 34  1  0  0  0  0
 21 40  1  0  0  0  0
 22 37  1  0  0  0  0
 22 38  1  0  0  0  0
 22 39  1  0  0  0  0
 23 32  1  0  0  0  0
 23 35  1  0  0  0  0
 23 36  1  0  0  0  0
M  END
> <PUBCHEM_COMPOUND_CID>
134128044

> <PUBCHEM_CONFORMER_RMSD>
0.6

> <PUBCHEM_CONFORMER_DIVERSEORDER>
1

> <PUBCHEM_MMFF94_PARTIAL_CHARGES>
19
1 -0.43
10 0.06
11 0.28
12 0.28
14 0.56
15 0.34
17 0.06
18 0.66
19 0.66
2 -0.43
20 0.66
3 -0.43
31 0.4
4 -0.68
41 0.4
5 -0.68
6 -0.57
7 -0.57
8 -0.57

> <PUBCHEM_EFFECTIVE_ROTOR_COUNT>
2.4

> <PUBCHEM_PHARMACOPHORE_FEATURES>
12
1 4 acceptor
1 4 donor
1 5 acceptor
1 5 donor
1 6 acceptor
1 7 acceptor
1 8 acceptor
4 16 21 22 23 hydrophobe
5 1 9 10 14 18 rings
5 2 10 12 17 20 rings
5 3 9 14 15 19 rings
5 9 10 11 12 13 rings

> <PUBCHEM_HEAVY_ATOM_COUNT>
23

> <PUBCHEM_ATOM_DEF_STEREO_COUNT>
5

> <PUBCHEM_ATOM_UDEF_STEREO_COUNT>
1

> <PUBCHEM_BOND_DEF_STEREO_COUNT>
0

> <PUBCHEM_BOND_UDEF_STEREO_COUNT>
0

> <PUBCHEM_ISOTOPIC_ATOM_COUNT>
0

> <PUBCHEM_COMPONENT_COUNT>
1

> <PUBCHEM_CACTVS_TAUTO_COUNT>
4

> <PUBCHEM_CONFORMER_ID>
07FEA1AC00000001

> <PUBCHEM_MMFF94_ENERGY>
100.6897

> <PUBCHEM_FEATURE_SELFOVERLAP>
62.132

> <PUBCHEM_SHAPE_FINGERPRINT>
10863032 1 17989214749735609121
10948715 1 17394442950095750117
11578080 2 17774713173872989176
12403814 3 17905350445346309688
12423570 1 17614014305375986506
12654903 92 18337394940877526895
13132413 78 18202013109521409641
13299463 15 18197778795595269438
13898156 1 17099170914805779008
141345 1 16548368271200820877
14142880 1 18053686701864545036
14181834 199 17979888808215328925
144361 1 18118130160204220531
14817 1 17179903728443242920
14863182 85 16911129485534179039
15238133 3 17533759526358258629
1601671 61 18192436260565439149
16945 1 18194109725309166055
17492 54 18043258039969510326
19765921 60 16805615749875021174
20511035 2 17402290130028023683
20600515 1 18338222843215910978
21524375 3 17179953546101569181
22344851 262 17906776576346854328
22889148 1 17625244321873289277
229495 10 17329745040164581370
23419403 2 17416948561541626760
23559900 14 17630610008175485390
2748010 2 18129925820032156919
430814 3 16669908793573539889
497634 4 16522949882450788906
5845 1 17772439422496894417
68419 9 17244981528368516434
7364860 26 18125443265765356669
81228 2 18124014751042554209

> <PUBCHEM_SHAPE_MULTIPOLES>
426.37
4.07
2.65
2.13
1.67
1.62
-0.63
-2.34
1.15
-0.42
0.74
-1
0.26
0.25

> <PUBCHEM_SHAPE_SELFOVERLAP>
961.578

> <PUBCHEM_SHAPE_VOLUME>
226.4

> <PUBCHEM_COORDINATE_TYPE>
2
5
10

$$$$
