REMARK  Name = 134129858
REMARK  12 active torsions:
REMARK  status: ('A' for Active; 'I' for Inactive)
REMARK    1  A    between atoms: C_1  and  C_3
REMARK    2  A    between atoms: C_1  and  N_17
REMARK    3  A    between atoms: C_1  and  C_33
REMARK    4  A    between atoms: C_4  and  O_10
REMARK    5  A    between atoms: C_5  and  O_12
REMARK    6  A    between atoms: C_6  and  O_14
REMARK    7  A    between atoms: C_7  and  S_8
REMARK    8  A    between atoms: C_18  and  C_23
REMARK    9  A    between atoms: C_21  and  C_27
REMARK   10  A    between atoms: C_27  and  C_28
REMARK   11  A    between atoms: C_28  and  C_29
REMARK   12  A    between atoms: C_29  and  C_30
REMARK                            x       y       z     vdW  Elec       q    Type
REMARK                         _______ _______ _______ _____ _____    ______ ____
ROOT
ATOM      1  C   UNL     1      -2.189  -1.419   0.027  0.00  0.00    +0.116 C 
ENDROOT
BRANCH   1   3
ATOM      2  O   UNL     1      -1.423   0.810  -0.320  0.00  0.00    -0.341 OA
ATOM      3  C   UNL     1      -2.490   0.056   0.276  0.00  0.00    +0.164 C 
ATOM      4  C   UNL     1      -3.849   0.477  -0.295  0.00  0.00    +0.168 C 
ATOM      5  C   UNL     1      -4.051   1.984  -0.127  0.00  0.00    +0.170 C 
ATOM      6  C   UNL     1      -2.866   2.746  -0.721  0.00  0.00    +0.177 C 
ATOM      7  C   UNL     1      -1.529   2.232  -0.169  0.00  0.00    +0.192 C 
BRANCH   7   8
ATOM      8  S   UNL     1      -1.158   2.788   1.539  0.00  0.00    -0.109 S 
ATOM      9  C   UNL     1       0.437   1.963   1.725  0.00  0.00    +0.072 C 
ENDBRANCH   7   8
BRANCH   4  10
ATOM     10  O   UNL     1      -3.891   0.140  -1.685  0.00  0.00    -0.379 OA
ATOM     11  H   UNL     1      -3.762  -0.815  -1.790  0.00  0.00    +0.211 HD
ENDBRANCH   4  10
BRANCH   5  12
ATOM     12  O   UNL     1      -5.248   2.390  -0.787  0.00  0.00    -0.379 OA
ATOM     13  H   UNL     1      -6.002   1.910  -0.413  0.00  0.00    +0.211 HD
ENDBRANCH   5  12
BRANCH   6  14
ATOM     14  O   UNL     1      -3.000   4.146  -0.498  0.00  0.00    -0.379 OA
ATOM     15  H   UNL     1      -3.849   4.450  -0.853  0.00  0.00    +0.211 HD
ENDBRANCH   6  14
ENDBRANCH   1   3
BRANCH   1  17
ATOM     16  O   UNL     1       0.048  -2.292  -1.605  0.00  0.00    -0.277 OA
ATOM     17  N   UNL     1      -0.849  -1.736   0.470  0.00  0.00    -0.304 N 
ATOM     18  C   UNL     1       0.154  -2.146  -0.390  0.00  0.00    +0.202 C 
ATOM     19  H   UNL     1      -0.641  -1.656   1.429  0.00  0.00    +0.149 HD
BRANCH  18  23
ATOM     20  N   UNL     1       2.154  -3.418  -0.433  0.00  0.00    +0.391 N 
ATOM     21  C   UNL     1       3.512  -1.539  -0.585  0.00  0.00    -0.023 C 
ATOM     22  C   UNL     1       2.344  -1.149   0.316  0.00  0.00    -0.015 C 
ATOM     23  C   UNL     1       1.445  -2.383   0.322  0.00  0.00    +0.017 C 
ATOM     24  C   UNL     1       3.567  -3.049  -0.419  0.00  0.00    -0.081 C 
ATOM     25  H   UNL     1       1.809  -3.452  -1.392  0.00  0.00    -0.084 HD
ATOM     26  H   UNL     1       2.009  -4.339  -0.020  0.00  0.00    -0.084 HD
BRANCH  21  27
ATOM     27  C   UNL     1       4.814  -0.845  -0.226  0.00  0.00    -0.002 C 
BRANCH  27  28
ATOM     28  C   UNL     1       4.675   0.677  -0.289  0.00  0.00    -0.000 C 
BRANCH  28  29
ATOM     29  C   UNL     1       5.998   1.371   0.040  0.00  0.00    -0.000 C 
BRANCH  29  30
ATOM     30  C   UNL     1       5.849   2.893   0.010  0.00  0.00    -0.000 C 
ATOM     31  C   UNL     1       7.153   3.587   0.369  0.00  0.00    +0.000 C 
ENDBRANCH  29  30
ENDBRANCH  28  29
ENDBRANCH  27  28
ENDBRANCH  21  27
ENDBRANCH  18  23
ENDBRANCH   1  17
BRANCH   1  33
ATOM     32 CL   UNL     1      -3.423  -2.096   2.411  0.00  0.00    -0.113 Cl
ATOM     33  C   UNL     1      -3.244  -2.358   0.647  0.00  0.00    +0.100 C 
ATOM     34  C   UNL     1      -2.939  -3.832   0.395  0.00  0.00    +0.019 C 
ENDBRANCH   1  33
TORSDOF 12
