REMARK  Name = 134153
REMARK  14 active torsions:
REMARK  status: ('A' for Active; 'I' for Inactive)
REMARK    1  A    between atoms: C_1  and  N_3
REMARK    2  A    between atoms: C_1  and  C_20
REMARK    3  A    between atoms: N_3  and  C_6
REMARK    4  A    between atoms: C_6  and  C_7
REMARK    5  A    between atoms: C_7  and  C_8
REMARK    6  A    between atoms: C_7  and  O_18
REMARK    7  A    between atoms: C_11  and  O_14
REMARK    8  A    between atoms: C_13  and  O_16
REMARK    9  A    between atoms: C_20  and  C_21
REMARK   10  A    between atoms: C_21  and  C_22
REMARK   11  A    between atoms: C_22  and  C_23
REMARK   12  A    between atoms: C_23  and  C_26
REMARK   13  A    between atoms: N_25  and  C_28
REMARK   14  A    between atoms: C_31  and  C_37
REMARK                            x       y       z     vdW  Elec       q    Type
REMARK                         _______ _______ _______ _____ _____    ______ ____
ROOT
ATOM      1  C   UNL     1      -4.863   1.283   0.178  0.00  0.00    -0.062 C 
ATOM      2  C   UNL     1      -6.323   1.314  -0.275  0.00  0.00    -0.023 C 
ENDROOT
BRANCH   1   3
ATOM      3  N   UNL     1      -4.170   0.173  -0.477  0.00  0.00    +0.387 N 
ATOM      4  H   UNL     1      -3.195   0.165  -0.178  0.00  0.00    -0.084 HD
ATOM      5  H   UNL     1      -4.230   0.299  -1.487  0.00  0.00    -0.084 HD
BRANCH   3   6
ATOM      6  C   UNL     1      -4.787  -1.097  -0.127  0.00  0.00    -0.047 C 
BRANCH   6   7
ATOM      7  C   UNL     1      -4.062  -2.262  -0.810  0.00  0.00    +0.112 C 
BRANCH   7   8
ATOM      8  C   UNL     1      -2.607  -2.328  -0.399  0.00  0.00    +0.005 C 
ATOM      9  C   UNL     1      -2.289  -2.453   0.942  0.00  0.00    +0.038 C 
ATOM     10  C   UNL     1      -1.626  -2.260  -1.373  0.00  0.00    +0.001 C 
ATOM     11  C   UNL     1      -0.948  -2.512   1.322  0.00  0.00    +0.167 C 
ATOM     12  C   UNL     1      -0.285  -2.320  -0.994  0.00  0.00    +0.040 C 
ATOM     13  C   UNL     1       0.054  -2.445   0.354  0.00  0.00    +0.167 C 
BRANCH  11  14
ATOM     14  O   UNL     1      -0.630  -2.636   2.640  0.00  0.00    -0.503 OA
ATOM     15  H   UNL     1      -1.309  -2.680   3.284  0.00  0.00    +0.292 HD
ENDBRANCH  11  14
BRANCH  13  16
ATOM     16  O   UNL     1       1.367  -2.503   0.711  0.00  0.00    -0.503 OA
ATOM     17  H   UNL     1       1.604  -2.587   1.614  0.00  0.00    +0.292 HD
ENDBRANCH  13  16
ENDBRANCH   7   8
BRANCH   7  18
ATOM     18  O   UNL     1      -4.679  -3.501  -0.463  0.00  0.00    -0.382 OA
ATOM     19  H   UNL     1      -5.615  -3.479  -0.720  0.00  0.00    +0.211 HD
ENDBRANCH   7  18
ENDBRANCH   6   7
ENDBRANCH   3   6
ENDBRANCH   1   3
BRANCH   1  20
ATOM     20  C   UNL     1      -4.172   2.621  -0.133  0.00  0.00    -0.021 C 
BRANCH  20  21
ATOM     21  C   UNL     1      -2.720   2.676   0.358  0.00  0.00    -0.002 C 
BRANCH  21  22
ATOM     22  C   UNL     1      -2.099   4.052   0.093  0.00  0.00    +0.009 C 
BRANCH  22  23
ATOM     23  C   UNL     1      -0.641   4.129   0.545  0.00  0.00    +0.085 C 
BRANCH  23  26
ATOM     24  O   UNL     1       0.053   2.726  -1.288  0.00  0.00    -0.275 OA
ATOM     25  N   UNL     1       1.324   2.763   0.686  0.00  0.00    -0.284 N 
ATOM     26  C   UNL     1       0.275   3.131  -0.152  0.00  0.00    +0.226 C 
ATOM     27  H   UNL     1       1.334   3.178   1.578  0.00  0.00    +0.155 HD
BRANCH  25  28
ATOM     28  C   UNL     1       2.377   1.861   0.404  0.00  0.00    +0.050 C 
ATOM     29  C   UNL     1       3.337   1.616   1.372  0.00  0.00    +0.015 C 
ATOM     30  C   UNL     1       2.427   1.242  -0.835  0.00  0.00    +0.015 C 
ATOM     31  C   UNL     1       4.439   0.096  -0.148  0.00  0.00    +0.072 C 
ATOM     32  C   UNL     1       4.375   0.727   1.094  0.00  0.00    +0.005 C 
ATOM     33  C   UNL     1       3.465   0.353  -1.113  0.00  0.00    +0.005 C 
BRANCH  31  37
ATOM     34  F   UNL     1       6.429  -1.010   0.589  0.00  0.00    -0.166 F 
ATOM     35  F   UNL     1       5.123  -2.118  -0.743  0.00  0.00    -0.166 F 
ATOM     36  F   UNL     1       6.305  -0.463  -1.512  0.00  0.00    -0.166 F 
ATOM     37  C   UNL     1       5.550  -0.855  -0.445  0.00  0.00    +0.419 C 
ENDBRANCH  31  37
ENDBRANCH  25  28
ENDBRANCH  23  26
ENDBRANCH  22  23
ENDBRANCH  21  22
ENDBRANCH  20  21
ENDBRANCH   1  20
TORSDOF 14
