REMARK  Name = 134197
REMARK  7 active torsions:
REMARK  status: ('A' for Active; 'I' for Inactive)
REMARK    1  A    between atoms: S_1  and  C_4
REMARK    2  A    between atoms: S_1  and  O_14
REMARK    3  A    between atoms: C_7  and  C_11
REMARK    4  A    between atoms: C_11  and  O_12
REMARK    5  A    between atoms: O_14  and  C_16
REMARK    6  A    between atoms: C_15  and  S_21
REMARK    7  A    between atoms: C_18  and  O_25
REMARK                            x       y       z     vdW  Elec       q    Type
REMARK                         _______ _______ _______ _____ _____    ______ ____
ROOT
ATOM      1  S   UNL     1      -0.858  -1.538  -0.029  0.00  0.00    +0.051 S 
ATOM      2  O   UNL     1      -0.762  -2.297   1.210  0.00  0.00    -0.057 OA
ATOM      3  O   UNL     1      -0.726  -2.195  -1.323  0.00  0.00    -0.057 OA
ENDROOT
BRANCH   1   4
ATOM      4  C   UNL     1      -2.416  -0.749  -0.002  0.00  0.00    +0.120 C 
ATOM      5  C   UNL     1      -3.039  -0.478   1.216  0.00  0.00    +0.020 C 
ATOM      6  C   UNL     1      -3.037  -0.391  -1.198  0.00  0.00    +0.020 C 
ATOM      7  C   UNL     1      -4.905   0.509   0.041  0.00  0.00    +0.076 C 
ATOM      8  C   UNL     1      -4.284   0.150   1.238  0.00  0.00    +0.008 C 
ATOM      9  C   UNL     1      -4.282   0.238  -1.177  0.00  0.00    +0.008 C 
BRANCH   7  11
ATOM     10  O   UNL     1      -6.854   1.458   1.064  0.00  0.00    -0.245 OA
ATOM     11  C   UNL     1      -6.203   1.165   0.064  0.00  0.00    +0.338 C 
BRANCH  11  12
ATOM     12  O   UNL     1      -6.656   1.441  -1.191  0.00  0.00    -0.477 OA
ATOM     13  H   UNL     1      -6.141   1.207  -1.938  0.00  0.00    +0.295 HD
ENDBRANCH  11  12
ENDBRANCH   7  11
ENDBRANCH   1   4
BRANCH   1  14
ATOM     14  O   UNL     1       0.227  -0.312   0.018  0.00  0.00    -0.357 OA
BRANCH  14  16
ATOM     15  C   UNL     1       3.813   0.414   0.048  0.00  0.00    +0.149 C 
ATOM     16  C   UNL     1       1.588  -0.499   0.013  0.00  0.00    +0.173 C 
ATOM     17  C   UNL     1       2.431   0.604   0.054  0.00  0.00    +0.062 C 
ATOM     18  C   UNL     1       4.339  -0.876   0.002  0.00  0.00    +0.151 C 
ATOM     19  C   UNL     1       2.102  -1.788  -0.034  0.00  0.00    +0.043 C 
ATOM     20  C   UNL     1       3.484  -1.978  -0.039  0.00  0.00    +0.041 C 
BRANCH  15  21
ATOM     21  S   UNL     1       4.864   1.812   0.100  0.00  0.00    +0.045 S 
ATOM     22  O   UNL     1       5.553   1.882  -1.380  0.00  0.00    -0.065 OA
ATOM     23  O   UNL     1       4.029   2.994   0.238  0.00  0.00    -0.065 OA
ATOM     24  O   UNL     1       5.906   1.519   1.071  0.00  0.00    -0.065 OA
ENDBRANCH  15  21
BRANCH  18  25
ATOM     25  O   UNL     1       5.686  -1.085  -0.005  0.00  0.00    -0.504 OA
ATOM     26  H   UNL     1       6.273  -0.355   0.022  0.00  0.00    +0.292 HD
ENDBRANCH  18  25
ENDBRANCH  14  16
ENDBRANCH   1  14
TORSDOF 7
