REMARK  Name = 134216
REMARK  9 active torsions:
REMARK  status: ('A' for Active; 'I' for Inactive)
REMARK    1  A    between atoms: C_1  and  O_7
REMARK    2  A    between atoms: C_2  and  C_20
REMARK    3  A    between atoms: O_7  and  C_12
REMARK    4  A    between atoms: C_9  and  O_14
REMARK    5  A    between atoms: C_10  and  O_16
REMARK    6  A    between atoms: C_11  and  O_18
REMARK    7  A    between atoms: C_20  and  C_21
REMARK    8  A    between atoms: C_20  and  O_30
REMARK    9  A    between atoms: C_26  and  N_29
REMARK                            x       y       z     vdW  Elec       q    Type
REMARK                         _______ _______ _______ _____ _____    ______ ____
ROOT
ATOM      1  C   UNL     1      -1.659   1.684  -0.129  0.00  0.00    +0.141 C 
ATOM      2  C   UNL     1       1.077   2.101   0.164  0.00  0.00    +0.009 C 
ATOM      3  C   UNL     1      -1.088   1.653   1.139  0.00  0.00    +0.037 C 
ATOM      4  C   UNL     1      -0.873   1.922  -1.252  0.00  0.00    +0.037 C 
ATOM      5  C   UNL     1       0.283   1.862   1.286  0.00  0.00    +0.001 C 
ATOM      6  C   UNL     1       0.498   2.131  -1.105  0.00  0.00    +0.001 C 
ENDROOT
BRANCH   1   7
ATOM      7  O   UNL     1      -3.004   1.478  -0.273  0.00  0.00    -0.451 OA
BRANCH   7  12
ATOM      8  O   UNL     1      -2.871  -0.840  -0.514  0.00  0.00    -0.316 OA
ATOM      9  C   UNL     1      -5.626  -1.158   0.249  0.00  0.00    +0.173 C 
ATOM     10  C   UNL     1      -5.018   0.207  -0.074  0.00  0.00    +0.210 C 
ATOM     11  C   UNL     1      -4.815  -2.284  -0.390  0.00  0.00    +0.169 C 
ATOM     12  C   UNL     1      -3.511   0.226   0.185  0.00  0.00    +0.318 C 
ATOM     13  C   UNL     1      -3.333  -2.117  -0.086  0.00  0.00    +0.178 C 
BRANCH   9  14
ATOM     14  O   UNL     1      -6.960  -1.182  -0.262  0.00  0.00    -0.379 OA
ATOM     15  H   UNL     1      -7.475  -0.467   0.144  0.00  0.00    +0.211 HD
ENDBRANCH   9  14
BRANCH  10  16
ATOM     16  O   UNL     1      -5.653   1.187   0.746  0.00  0.00    -0.377 OA
ATOM     17  H   UNL     1      -6.609   1.176   0.582  0.00  0.00    +0.211 HD
ENDBRANCH  10  16
BRANCH  11  18
ATOM     18  O   UNL     1      -5.237  -3.545   0.118  0.00  0.00    -0.379 OA
ATOM     19  H   UNL     1      -6.181  -3.669  -0.068  0.00  0.00    +0.211 HD
ENDBRANCH  11  18
ENDBRANCH   7  12
ENDBRANCH   1   7
BRANCH   2  20
ATOM     20  C   UNL     1       2.542   2.324   0.321  0.00  0.00    +0.155 C 
BRANCH  20  21
ATOM     21  C   UNL     1       3.372   1.049   0.221  0.00  0.00    +0.009 C 
ATOM     22  C   UNL     1       3.698   0.376   1.379  0.00  0.00    +0.000 C 
ATOM     23  C   UNL     1       3.768   0.611  -1.025  0.00  0.00    +0.000 C 
ATOM     24  C   UNL     1       4.457  -0.791   1.286  0.00  0.00    +0.024 C 
ATOM     25  C   UNL     1       4.526  -0.556  -1.117  0.00  0.00    +0.024 C 
ATOM     26  C   UNL     1       4.871  -1.258   0.038  0.00  0.00    +0.143 C 
BRANCH  26  29
ATOM     27  O   UNL     1       5.941  -3.062   0.996  0.00  0.00    -0.126 OA
ATOM     28  O   UNL     1       6.004  -2.848  -1.188  0.00  0.00    -0.126 OA
ATOM     29  N   UNL     1       5.642  -2.446  -0.056  0.00  0.00    +0.058 N 
ENDBRANCH  26  29
ENDBRANCH  20  21
BRANCH  20  30
ATOM     30  O   UNL     1       2.971   3.282  -0.659  0.00  0.00    -0.376 OA
ATOM     31  H   UNL     1       2.434   4.086  -0.581  0.00  0.00    +0.211 HD
ENDBRANCH  20  30
ENDBRANCH   2  20
TORSDOF 9
