REMARK  Name = 13423142
REMARK  8 active torsions:
REMARK  status: ('A' for Active; 'I' for Inactive)
REMARK    1  A    between atoms: N_2  and  CA_9
REMARK    2  A    between atoms: C_3  and  CA_21
REMARK    3  A    between atoms: CA_11  and  C_18
REMARK    4  A    between atoms: C_13  and  C_14
REMARK    5  A    between atoms: C_18  and  O_19
REMARK    6  A    between atoms: CA_21  and  C_22
REMARK    7  A    between atoms: CA_21  and  N_30
REMARK    8  A    between atoms: C_27  and  O_28
REMARK                            x       y       z     vdW  Elec       q    Type
REMARK                         _______ _______ _______ _____ _____    ______ ____
ROOT
ATOM      1  O   UNL     1      -2.278  -2.160  -1.600  0.00  0.00    -0.277 OA
ATOM      2  N   UNL     1      -1.033  -1.474   0.232  0.00  0.00    -0.298 N 
ATOM      3  C   UNL     1      -2.213  -1.854  -0.411  0.00  0.00    +0.206 C 
ATOM      4  H   UNL     1      -1.071  -1.244   1.188  0.00  0.00    +0.150 HD
ENDROOT
BRANCH   2   9
ATOM      5  S   UNL     1       2.825  -2.558  -0.014  0.00  0.00    -0.114 S 
ATOM      6  O   UNL     1       0.137   0.892  -1.594  0.00  0.00    -0.273 OA
ATOM      7  N   UNL     1       1.843  -0.109  -0.308  0.00  0.00    -0.242 N 
ATOM      8  C   UNL     1       1.547  -1.347   0.391  0.00  0.00    +0.155 C 
ATOM      9  CA  UNL     1       0.256  -1.404  -0.454  0.00  0.00    +0.178 C 
ATOM     10  C   UNL     1       0.642   0.031  -0.913  0.00  0.00    +0.251 C 
ATOM     11  CA  UNL     1       3.034   0.541  -0.225  0.00  0.00    +0.128 C 
ATOM     12  C   UNL     1       4.165  -1.541   0.698  0.00  0.00    +0.087 C 
ATOM     13  C   UNL     1       4.133  -0.073   0.277  0.00  0.00    +0.009 C 
BRANCH  13  14
ATOM     14  C   UNL     1       5.421   0.570   0.460  0.00  0.00    -0.007 C 
ATOM     15  C   UNL     1       6.482  -0.064   0.956  0.00  0.00    -0.026 C 
ATOM     16  C   UNL     1       7.808   0.594   1.150  0.00  0.00    +0.031 C 
ENDBRANCH  13  14
BRANCH  11  18
ATOM     17  OXT UNL     1       3.305   2.202  -1.903  0.00  0.00    -0.244 OA
ATOM     18  C   UNL     1       3.069   1.917  -0.747  0.00  0.00    +0.352 C 
BRANCH  18  19
ATOM     19  O   UNL     1       2.801   2.779   0.252  0.00  0.00    -0.476 OA
ATOM     20  H   UNL     1       2.631   2.457   1.116  0.00  0.00    +0.295 HD
ENDBRANCH  18  19
ENDBRANCH  11  18
ENDBRANCH   2   9
BRANCH   3  21
ATOM     21  CA  UNL     1      -3.428  -1.829   0.511  0.00  0.00    +0.036 C 
BRANCH  21  22
ATOM     22  C   UNL     1      -4.099  -0.471   0.483  0.00  0.00    -0.034 C 
ATOM     23  C   UNL     1      -4.213   0.249   1.658  0.00  0.00    -0.003 C 
ATOM     24  C   UNL     1      -4.583   0.016  -0.718  0.00  0.00    -0.003 C 
ATOM     25  C   UNL     1      -4.833   1.499   1.632  0.00  0.00    +0.036 C 
ATOM     26  C   UNL     1      -5.202   1.266  -0.744  0.00  0.00    +0.036 C 
ATOM     27  C   UNL     1      -5.327   2.007   0.431  0.00  0.00    +0.134 C 
BRANCH  27  28
ATOM     28  O   UNL     1      -5.930   3.227   0.406  0.00  0.00    -0.506 OA
ATOM     29  H   UNL     1      -6.014   3.724   1.196  0.00  0.00    +0.292 HD
ENDBRANCH  27  28
ENDBRANCH  21  22
BRANCH  21  30
ATOM     30  N   UNL     1      -4.329  -2.906   0.094  0.00  0.00    +0.390 N 
ATOM     31  H1  UNL     1      -3.833  -3.797   0.129  0.00  0.00    -0.088 HD
ATOM     32  H2  UNL     1      -4.648  -2.732  -0.860  0.00  0.00    -0.088 HD
ATOM     33  H3  UNL     1      -5.133  -2.939   0.720  0.00  0.00    -0.088 HD
ENDBRANCH  21  30
ENDBRANCH   3  21
TORSDOF 8
