REMARK  Name = 134228
REMARK  12 active torsions:
REMARK  status: ('A' for Active; 'I' for Inactive)
REMARK    1  A    between atoms: C_1  and  C_8
REMARK    2  A    between atoms: C_1  and  N_15
REMARK    3  A    between atoms: C_1  and  C_31
REMARK    4  A    between atoms: C_4  and  C_11
REMARK    5  A    between atoms: C_16  and  C_18
REMARK    6  A    between atoms: C_18  and  O_19
REMARK    7  A    between atoms: C_18  and  C_21
REMARK    8  A    between atoms: C_21  and  C_22
REMARK    9  A    between atoms: C_22  and  C_25
REMARK   10  A    between atoms: N_24  and  C_27
REMARK   11  A    between atoms: C_27  and  C_28
REMARK   12  A    between atoms: C_31  and  C_34
REMARK                            x       y       z     vdW  Elec       q    Type
REMARK                         _______ _______ _______ _____ _____    ______ ____
ROOT
ATOM      1  C   UNL     1       2.121  -0.443  -0.279  0.00  0.00    +0.155 C 
ENDROOT
BRANCH   1   8
ATOM      2  O   UNL     1       2.718   1.450  -1.594  0.00  0.00    -0.273 OA
ATOM      3  N   UNL     1       3.891   1.118   0.374  0.00  0.00    -0.272 N 
ATOM      4  C   UNL     1       4.644   2.365   0.331  0.00  0.00    +0.152 C 
ATOM      5  C   UNL     1       5.215   2.521   1.736  0.00  0.00    +0.031 C 
ATOM      6  C   UNL     1       5.369   1.081   2.219  0.00  0.00    +0.024 C 
ATOM      7  C   UNL     1       4.172   0.375   1.600  0.00  0.00    +0.094 C 
ATOM      8  C   UNL     1       2.927   0.798  -0.569  0.00  0.00    +0.244 C 
BRANCH   4  11
ATOM      9  O   UNL     1       5.873   1.145  -1.316  0.00  0.00    -0.274 OA
ATOM     10  N   UNL     1       6.527   3.300  -0.843  0.00  0.00    -0.327 N 
ATOM     11  C   UNL     1       5.725   2.193  -0.693  0.00  0.00    +0.237 C 
ATOM     12  H   UNL     1       7.267   3.287  -1.493  0.00  0.00    +0.145 HD
ATOM     13  H   UNL     1       6.361   4.105  -0.302  0.00  0.00    +0.145 HD
ENDBRANCH   4  11
ENDBRANCH   1   8
BRANCH   1  15
ATOM     14  O   UNL     1      -0.325  -0.173   1.240  0.00  0.00    -0.272 OA
ATOM     15  N   UNL     1       0.805  -0.132  -0.788  0.00  0.00    -0.296 N 
ATOM     16  C   UNL     1      -0.316  -0.023   0.021  0.00  0.00    +0.250 C 
ATOM     17  H   UNL     1       0.699   0.008  -1.757  0.00  0.00    +0.150 HD
BRANCH  16  18
ATOM     18  C   UNL     1      -1.570   0.329  -0.769  0.00  0.00    +0.187 C 
BRANCH  18  19
ATOM     19  O   UNL     1      -1.766  -0.661  -1.766  0.00  0.00    -0.376 OA
ATOM     20  H   UNL     1      -0.983  -0.704  -2.337  0.00  0.00    +0.211 HD
ENDBRANCH  18  19
BRANCH  18  21
ATOM     21  C   UNL     1      -2.796   0.415   0.146  0.00  0.00    +0.048 C 
BRANCH  21  22
ATOM     22  C   UNL     1      -4.056   0.823  -0.619  0.00  0.00    +0.088 C 
BRANCH  22  25
ATOM     23  O   UNL     1      -5.220   0.790   1.505  0.00  0.00    -0.275 OA
ATOM     24  N   UNL     1      -6.396   1.344  -0.417  0.00  0.00    -0.304 N 
ATOM     25  C   UNL     1      -5.262   0.974   0.292  0.00  0.00    +0.223 C 
ATOM     26  H   UNL     1      -6.329   1.468  -1.392  0.00  0.00    +0.149 HD
BRANCH  24  27
ATOM     27  C   UNL     1      -7.670   1.553   0.227  0.00  0.00    +0.089 C 
BRANCH  27  28
ATOM     28  C   UNL     1      -8.509   0.271   0.291  0.00  0.00    +0.020 C 
ATOM     29  C   UNL     1      -8.781  -0.248  -1.121  0.00  0.00    +0.002 C 
ATOM     30  C   UNL     1      -9.830   0.497   1.029  0.00  0.00    +0.002 C 
ENDBRANCH  27  28
ENDBRANCH  24  27
ENDBRANCH  22  25
ENDBRANCH  21  22
ENDBRANCH  18  21
ENDBRANCH  16  18
ENDBRANCH   1  15
BRANCH   1  31
ATOM     31  C   UNL     1       2.747  -1.665  -0.951  0.00  0.00    +0.071 C 
BRANCH  31  34
ATOM     32  N   UNL     1       3.103  -3.881   0.207  0.00  0.00    -0.319 N 
ATOM     33  N   UNL     1       1.060  -4.726   0.414  0.00  0.00    -0.315 N 
ATOM     34  C   UNL     1       2.260  -2.961  -0.349  0.00  0.00    +0.040 C 
ATOM     35  C   UNL     1       1.004  -3.505  -0.209  0.00  0.00    +0.069 C 
ATOM     36  C   UNL     1       2.338  -4.923   0.651  0.00  0.00    +0.182 C 
ATOM     37  H   UNL     1       4.083  -3.807   0.274  0.00  0.00    +0.148 HD
ATOM     38  H   UNL     1       0.309  -5.323   0.635  0.00  0.00    +0.148 HD
ENDBRANCH  31  34
ENDBRANCH   1  31
TORSDOF 12
