REMARK  Name = 134231
REMARK  14 active torsions:
REMARK  status: ('A' for Active; 'I' for Inactive)
REMARK    1  A    between atoms: N_2  and  C_23
REMARK    2  A    between atoms: C_3  and  CA_5
REMARK    3  A    between atoms: CA_5  and  N_7
REMARK    4  A    between atoms: CA_5  and  CB_19
REMARK    5  A    between atoms: C_8  and  CA_10
REMARK    6  A    between atoms: CA_10  and  N_11
REMARK    7  A    between atoms: CA_10  and  CB_15
REMARK    8  A    between atoms: CB_15  and  CG_16
REMARK    9  A    between atoms: CB_19  and  CG_20
REMARK   10  A    between atoms: C_23  and  C_25
REMARK   11  A    between atoms: C_23  and  C_28
REMARK   12  A    between atoms: C_25  and  O_26
REMARK   13  A    between atoms: C_28  and  C_29
REMARK   14  A    between atoms: C_30  and  N_37
REMARK                            x       y       z     vdW  Elec       q    Type
REMARK                         _______ _______ _______ _____ _____    ______ ____
ROOT
ATOM      1  O   LEU A   2       1.089  -1.240  -2.110  0.00  0.00    -0.273 OA
ATOM      2  N   UNK A   3       2.458  -0.441  -0.414  0.00  0.00    -0.295 N 
ATOM      3  C   LEU A   2       1.483  -1.272  -0.946  0.00  0.00    +0.241 C 
ATOM      4  H   UNK A   3       2.701  -0.548   0.534  0.00  0.00    +0.150 HD
ENDROOT
BRANCH   3   5
ATOM      5  CA  LEU A   2       0.907  -2.233   0.088  0.00  0.00    +0.148 C 
BRANCH   5   7
ATOM      6  O   LEU A   1      -1.293  -0.587   0.973  0.00  0.00    -0.277 OA
ATOM      7  N   LEU A   2      -0.488  -2.385  -0.257  0.00  0.00    -0.300 N 
ATOM      8  C   LEU A   1      -1.481  -1.541   0.219  0.00  0.00    +0.202 C 
ATOM      9  H   LEU A   2      -0.746  -3.121  -0.857  0.00  0.00    +0.150 HD
BRANCH   8  10
ATOM     10  CA  LEU A   1      -2.870  -1.938  -0.267  0.00  0.00    +0.013 C 
BRANCH  10  11
ATOM     11  N   LEU A   1      -3.342  -2.957   0.675  0.00  0.00    +0.387 N 
ATOM     12  H1  LEU A   1      -4.274  -3.266   0.402  0.00  0.00    -0.089 HD
ATOM     13  H2  LEU A   1      -3.376  -2.561   1.614  0.00  0.00    -0.089 HD
ATOM     14  H3  LEU A   1      -2.703  -3.752   0.665  0.00  0.00    -0.089 HD
ENDBRANCH  10  11
BRANCH  10  15
ATOM     15  CB  LEU A   1      -3.844  -0.749  -0.291  0.00  0.00    -0.013 C 
BRANCH  15  16
ATOM     16  CG  LEU A   1      -5.253  -1.086  -0.825  0.00  0.00    -0.002 C 
ATOM     17  CD1 LEU A   1      -5.149  -1.601  -2.263  0.00  0.00    -0.000 C 
ATOM     18  CD2 LEU A   1      -6.200   0.114  -0.775  0.00  0.00    -0.000 C 
ENDBRANCH  15  16
ENDBRANCH  10  15
ENDBRANCH   8  10
ENDBRANCH   5   7
BRANCH   5  19
ATOM     19  CB  LEU A   2       1.607  -3.601   0.069  0.00  0.00    +0.029 C 
BRANCH  19  20
ATOM     20  CG  LEU A   2       1.097  -4.597   1.133  0.00  0.00    +0.002 C 
ATOM     21  CD1 LEU A   2       1.783  -5.960   1.036  0.00  0.00    +0.000 C 
ATOM     22  CD2 LEU A   2       1.309  -4.011   2.531  0.00  0.00    +0.000 C 
ENDBRANCH  19  20
ENDBRANCH   5  19
ENDBRANCH   3   5
BRANCH   2  23
ATOM     23  C   UNK A   3       3.133   0.576  -1.188  0.00  0.00    +0.176 C 
BRANCH  23  25
ATOM     24  O   UNK A   3       5.383   0.955  -1.989  0.00  0.00    -0.248 OA
ATOM     25  C   UNK A   3       4.620   0.277  -1.310  0.00  0.00    +0.332 C 
BRANCH  25  26
ATOM     26  O   UNK A   3       5.043  -0.798  -0.603  0.00  0.00    -0.479 OA
ATOM     27  H   UNK A   3       4.433  -1.295  -0.094  0.00  0.00    +0.295 HD
ENDBRANCH  25  26
ENDBRANCH  23  25
BRANCH  23  28
ATOM     28  C   UNK A   3       2.927   1.967  -0.573  0.00  0.00    +0.059 C 
BRANCH  28  29
ATOM     29  C   UNK A   3       1.472   2.350  -0.457  0.00  0.00    +0.002 C 
ATOM     30  C   UNK A   3       0.892   2.635   0.779  0.00  0.00    +0.139 C 
ATOM     31  C   UNK A   3       0.703   2.417  -1.619  0.00  0.00    -0.003 C 
ATOM     32  C   UNK A   3      -0.456   2.987   0.854  0.00  0.00    +0.024 C 
ATOM     33  C   UNK A   3      -0.644   2.769  -1.545  0.00  0.00    -0.000 C 
ATOM     34  C   UNK A   3      -1.224   3.054  -0.309  0.00  0.00    +0.002 C 
BRANCH  30  37
ATOM     35  O   UNK A   3       1.712   1.488   2.604  0.00  0.00    -0.126 OA
ATOM     36  O   UNK A   3       2.253   3.603   2.370  0.00  0.00    -0.126 OA
ATOM     37  N   UNK A   3       1.657   2.572   1.977  0.00  0.00    +0.057 N 
ENDBRANCH  30  37
ENDBRANCH  28  29
ENDBRANCH  23  28
ENDBRANCH   2  23
TORSDOF 14
REMARK  Name = 134231
REMARK  14 active torsions:
REMARK  status: ('A' for Active; 'I' for Inactive)
REMARK    1  A    between atoms: N_2  and  C_23
REMARK    2  A    between atoms: C_3  and  CA_5
REMARK    3  A    between atoms: CA_5  and  N_7
REMARK    4  A    between atoms: CA_5  and  CB_19
REMARK    5  A    between atoms: C_8  and  CA_10
REMARK    6  A    between atoms: CA_10  and  N_11
REMARK    7  A    between atoms: CA_10  and  CB_15
REMARK    8  A    between atoms: CB_15  and  CG_16
REMARK    9  A    between atoms: CB_19  and  CG_20
REMARK   10  A    between atoms: C_23  and  C_25
REMARK   11  A    between atoms: C_23  and  C_28
REMARK   12  A    between atoms: C_25  and  O_26
REMARK   13  A    between atoms: C_28  and  C_29
REMARK   14  A    between atoms: C_30  and  N_37
REMARK                            x       y       z     vdW  Elec       q    Type
REMARK                         _______ _______ _______ _____ _____    ______ ____
ROOT
ATOM      1  N   UNL     1      -3.108   3.066   0.842  0.00  0.00    +0.000 NA
ATOM      2  N   UNL     1      -3.602   2.755   1.824  0.00  0.00    +0.000 NA
ENDROOT
TORSDOF 0
