134241
  -OEChem-03292013323D

 70 73  0     1  0  0  0  0  0999 V2000
    1.1792   -2.9892    1.6703 O   0  0  0  0  0  0  0  0  0  0  0  0
    3.4292   -3.0010    0.1310 O   0  0  0  0  0  0  0  0  0  0  0  0
    4.6797    3.4333   -0.5180 O   0  0  0  0  0  0  0  0  0  0  0  0
    4.6136    2.6517    2.2239 O   0  0  0  0  0  0  0  0  0  0  0  0
   -6.5822    2.1272    2.1113 O   0  0  0  0  0  0  0  0  0  0  0  0
   -7.4564    0.3141    1.0602 O   0  0  0  0  0  0  0  0  0  0  0  0
    0.9684   -1.2112   -0.0008 C   0  0  1  0  0  0  0  0  0  0  0  0
   -0.5209   -0.9190    0.2777 C   0  0  1  0  0  0  0  0  0  0  0  0
   -1.2855   -0.4324   -0.9756 C   0  0  1  0  0  0  0  0  0  0  0  0
    1.6355    0.1098   -0.5260 C   0  0  1  0  0  0  0  0  0  0  0  0
    3.1739   -0.0639   -0.8118 C   0  0  2  0  0  0  0  0  0  0  0  0
   -2.7021   -0.2826   -0.3687 C   0  0  2  0  0  0  0  0  0  0  0  0
    3.8866   -0.6329    0.4684 C   0  0  2  0  0  0  0  0  0  0  0  0
   -0.6547    0.8874   -1.4343 C   0  0  0  0  0  0  0  0  0  0  0  0
    0.8482    0.7308   -1.7111 C   0  0  0  0  0  0  0  0  0  0  0  0
    1.7077   -1.7325    1.2485 C   0  0  2  0  0  0  0  0  0  0  0  0
   -1.4268   -2.0174    0.8324 C   0  0  0  0  0  0  0  0  0  0  0  0
    3.2148   -1.9045    1.0210 C   0  0  1  0  0  0  0  0  0  0  0  0
   -2.8550   -1.5384    0.5158 C   0  0  0  0  0  0  0  0  0  0  0  0
    3.8655    1.2777   -1.1954 C   0  0  0  0  0  0  0  0  0  0  0  0
   -1.2844   -1.4468   -2.1469 C   0  0  0  0  0  0  0  0  0  0  0  0
    3.9996    0.4146    1.5982 C   0  0  0  0  0  0  0  0  0  0  0  0
   -3.8507   -0.1082   -1.3521 C   0  0  1  0  0  0  0  0  0  0  0  0
    3.4022   -1.0023   -2.0265 C   0  0  0  0  0  0  0  0  0  0  0  0
    3.9377    2.2996   -0.0657 C   0  0  1  0  0  0  0  0  0  0  0  0
    4.6519    1.7154    1.1478 C   0  0  1  0  0  0  0  0  0  0  0  0
   -5.1907   -0.0183   -0.5934 C   0  0  0  0  0  0  0  0  0  0  0  0
   -3.6055    1.1213   -2.2331 C   0  0  0  0  0  0  0  0  0  0  0  0
   -5.2389    1.1079    0.4411 C   0  0  0  0  0  0  0  0  0  0  0  0
   -6.5399    1.1097    1.2117 C   0  0  0  0  0  0  0  0  0  0  0  0
    1.0197   -1.9946   -0.7636 H   0  0  0  0  0  0  0  0  0  0  0  0
   -0.5383   -0.1110    1.0285 H   0  0  0  0  0  0  0  0  0  0  0  0
    1.5390    0.8389    0.2907 H   0  0  0  0  0  0  0  0  0  0  0  0
   -2.6565    0.5891    0.2973 H   0  0  0  0  0  0  0  0  0  0  0  0
    4.9128   -0.9021    0.1777 H   0  0  0  0  0  0  0  0  0  0  0  0
   -0.7906    1.6617   -0.6685 H   0  0  0  0  0  0  0  0  0  0  0  0
   -1.0930    1.2741   -2.3542 H   0  0  0  0  0  0  0  0  0  0  0  0
    0.9859    0.1313   -2.6164 H   0  0  0  0  0  0  0  0  0  0  0  0
    1.2411    1.7277   -1.9380 H   0  0  0  0  0  0  0  0  0  0  0  0
    1.5389   -1.0314    2.0740 H   0  0  0  0  0  0  0  0  0  0  0  0
   -1.2943   -2.1525    1.9106 H   0  0  0  0  0  0  0  0  0  0  0  0
   -1.2343   -2.9806    0.3469 H   0  0  0  0  0  0  0  0  0  0  0  0
    3.6942   -2.1964    1.9634 H   0  0  0  0  0  0  0  0  0  0  0  0
   -3.4024   -2.3413    0.0088 H   0  0  0  0  0  0  0  0  0  0  0  0
   -3.3964   -1.3023    1.4385 H   0  0  0  0  0  0  0  0  0  0  0  0
    3.3938    1.7348   -2.0732 H   0  0  0  0  0  0  0  0  0  0  0  0
    4.8940    1.0693   -1.5274 H   0  0  0  0  0  0  0  0  0  0  0  0
   -0.2747   -1.7217   -2.4633 H   0  0  0  0  0  0  0  0  0  0  0  0
   -1.7967   -2.3796   -1.8912 H   0  0  0  0  0  0  0  0  0  0  0  0
   -1.7803   -1.0392   -3.0331 H   0  0  0  0  0  0  0  0  0  0  0  0
    3.0186    0.6436    2.0308 H   0  0  0  0  0  0  0  0  0  0  0  0
    4.5829   -0.0034    2.4295 H   0  0  0  0  0  0  0  0  0  0  0  0
   -3.9305   -0.9815   -2.0114 H   0  0  0  0  0  0  0  0  0  0  0  0
    4.4591   -1.2804   -2.1132 H   0  0  0  0  0  0  0  0  0  0  0  0
    2.8229   -1.9260   -1.9744 H   0  0  0  0  0  0  0  0  0  0  0  0
    3.1275   -0.5113   -2.9669 H   0  0  0  0  0  0  0  0  0  0  0  0
    2.9426    2.6640    0.2119 H   0  0  0  0  0  0  0  0  0  0  0  0
    5.7101    1.5483    0.9119 H   0  0  0  0  0  0  0  0  0  0  0  0
    1.6406   -3.2429    2.4878 H   0  0  0  0  0  0  0  0  0  0  0  0
   -6.0035    0.1247   -1.3180 H   0  0  0  0  0  0  0  0  0  0  0  0
   -5.4070   -0.9762   -0.1043 H   0  0  0  0  0  0  0  0  0  0  0  0
    2.9796   -3.7763    0.5080 H   0  0  0  0  0  0  0  0  0  0  0  0
   -3.2225    1.9761   -1.6674 H   0  0  0  0  0  0  0  0  0  0  0  0
   -2.9437    0.8947   -3.0711 H   0  0  0  0  0  0  0  0  0  0  0  0
   -4.5469    1.4434   -2.6949 H   0  0  0  0  0  0  0  0  0  0  0  0
    4.2104    3.8023   -1.2857 H   0  0  0  0  0  0  0  0  0  0  0  0
    5.0847    2.2537    2.9758 H   0  0  0  0  0  0  0  0  0  0  0  0
   -4.4536    0.9982    1.1932 H   0  0  0  0  0  0  0  0  0  0  0  0
   -5.1362    2.0803   -0.0515 H   0  0  0  0  0  0  0  0  0  0  0  0
   -7.4253    2.1367    2.6128 H   0  0  0  0  0  0  0  0  0  0  0  0
  1 16  1  0  0  0  0
  1 59  1  0  0  0  0
  2 18  1  0  0  0  0
  2 62  1  0  0  0  0
  3 25  1  0  0  0  0
  3 66  1  0  0  0  0
  4 26  1  0  0  0  0
  4 67  1  0  0  0  0
  5 30  1  0  0  0  0
  5 70  1  0  0  0  0
  6 30  2  0  0  0  0
  7  8  1  0  0  0  0
  7 10  1  0  0  0  0
  7 16  1  0  0  0  0
  7 31  1  0  0  0  0
  8  9  1  0  0  0  0
  8 17  1  0  0  0  0
  8 32  1  0  0  0  0
  9 12  1  0  0  0  0
  9 14  1  0  0  0  0
  9 21  1  0  0  0  0
 10 11  1  0  0  0  0
 10 15  1  0  0  0  0
 10 33  1  0  0  0  0
 11 13  1  0  0  0  0
 11 20  1  0  0  0  0
 11 24  1  0  0  0  0
 12 19  1  0  0  0  0
 12 23  1  0  0  0  0
 12 34  1  0  0  0  0
 13 18  1  0  0  0  0
 13 22  1  0  0  0  0
 13 35  1  0  0  0  0
 14 15  1  0  0  0  0
 14 36  1  0  0  0  0
 14 37  1  0  0  0  0
 15 38  1  0  0  0  0
 15 39  1  0  0  0  0
 16 18  1  0  0  0  0
 16 40  1  0  0  0  0
 17 19  1  0  0  0  0
 17 41  1  0  0  0  0
 17 42  1  0  0  0  0
 18 43  1  0  0  0  0
 19 44  1  0  0  0  0
 19 45  1  0  0  0  0
 20 25  1  0  0  0  0
 20 46  1  0  0  0  0
 20 47  1  0  0  0  0
 21 48  1  0  0  0  0
 21 49  1  0  0  0  0
 21 50  1  0  0  0  0
 22 26  1  0  0  0  0
 22 51  1  0  0  0  0
 22 52  1  0  0  0  0
 23 27  1  0  0  0  0
 23 28  1  0  0  0  0
 23 53  1  0  0  0  0
 24 54  1  0  0  0  0
 24 55  1  0  0  0  0
 24 56  1  0  0  0  0
 25 26  1  0  0  0  0
 25 57  1  0  0  0  0
 26 58  1  0  0  0  0
 27 29  1  0  0  0  0
 27 60  1  0  0  0  0
 27 61  1  0  0  0  0
 28 63  1  0  0  0  0
 28 64  1  0  0  0  0
 28 65  1  0  0  0  0
 29 30  1  0  0  0  0
 29 68  1  0  0  0  0
 29 69  1  0  0  0  0
M  END
> <PUBCHEM_COMPOUND_CID>
134241

> <PUBCHEM_CONFORMER_RMSD>
0.8

> <PUBCHEM_CONFORMER_DIVERSEORDER>
10
18
4
26
14
24
32
34
16
25
5
17
1
33
6
35
11
28
22
27
7
3
9
30
12
19
29
2
20
15
36
23
8
13
21
31

> <PUBCHEM_MMFF94_PARTIAL_CHARGES>
17
1 -0.68
16 0.28
18 0.28
2 -0.68
25 0.28
26 0.28
29 0.06
3 -0.68
30 0.66
4 -0.68
5 -0.65
59 0.4
6 -0.57
62 0.4
66 0.4
67 0.4
70 0.5

> <PUBCHEM_EFFECTIVE_ROTOR_COUNT>
6.2

> <PUBCHEM_PHARMACOPHORE_FEATURES>
16
1 1 acceptor
1 1 donor
1 2 acceptor
1 2 donor
1 28 hydrophobe
1 3 acceptor
1 3 donor
1 4 acceptor
1 4 donor
1 5 acceptor
1 6 acceptor
3 5 6 30 anion
5 8 9 12 17 19 rings
6 11 13 20 22 25 26 rings
6 7 10 11 13 16 18 rings
6 7 8 9 10 14 15 rings

> <PUBCHEM_HEAVY_ATOM_COUNT>
30

> <PUBCHEM_ATOM_DEF_STEREO_COUNT>
7

> <PUBCHEM_ATOM_UDEF_STEREO_COUNT>
5

> <PUBCHEM_BOND_DEF_STEREO_COUNT>
0

> <PUBCHEM_BOND_UDEF_STEREO_COUNT>
0

> <PUBCHEM_ISOTOPIC_ATOM_COUNT>
0

> <PUBCHEM_COMPONENT_COUNT>
1

> <PUBCHEM_CACTVS_TAUTO_COUNT>
1

> <PUBCHEM_CONFORMER_ID>
00020C610000000A

> <PUBCHEM_MMFF94_ENERGY>
109.5188

> <PUBCHEM_FEATURE_SELFOVERLAP>
81.4

> <PUBCHEM_SHAPE_FINGERPRINT>
10 15 17240762917175606845
10554248 39 17273971351306135581
10693767 8 10447934936332415733
11135609 201 18192145108389198160
11475781 23 13973397986162508003
11578080 2 18338805631517816530
11763715 3 12108072106851165831
11954058 11 12540965275514321952
12422481 6 17168125841522383966
12596602 18 18341615915225810563
12633257 1 17095800022466211054
12788726 201 17632304423854338897
13140716 1 17749657567708711194
13224815 77 18188760760407111638
13533116 47 18336830788401912123
13782708 43 15140684696365019321
13955234 65 18188203204758937282
14178342 30 17823128102754794534
14739800 52 17988065777470421880
15081414 286 18186803564873730468
15163728 17 17346608447963915885
15183329 4 12391509755525950091
15238133 3 17203597177862320178
15392192 104 17532397381880294457
15664445 248 15050871140241773754
15840311 113 18339928113453916109
18222031 100 9943809988635617135
19377110 9 18335418011129859023
19438510 23 18058441166099655704
1979834 28 17749393654504815167
21033648 29 18263921219614510688
21267235 1 17531815632053911934
21792934 111 17604419709968427501
22122407 14 17988647427911877753
22149856 69 17822306643779367241
22182313 1 17241868931019859607
23559900 14 18333448751428885110
23569914 152 11093115079920672529
268830 7 18201708540537145309
2838139 119 17775560966168224729
29717793 49 9295288331375575387
3178227 256 17968094171471136234
350125 39 17967808328586206838
3680242 22 18114451327774309184
392239 28 18187351156002917417
4093350 32 17918000459699287150
4340502 62 18187083966388081091
465052 167 15357701885485189221
474 4 18337099190025441180
495365 180 18340760520807026174
5104073 3 18113336448605835955
57724786 102 18343303660467303677
59682541 52 11527951127994654249
633830 44 17917707981317298007
7970288 3 12974699501316485984
960060 61 13470412214117080528

> <PUBCHEM_SHAPE_MULTIPOLES>
582.17
14.03
2.86
2.13
20.57
0.11
0.15
9.37
-6.91
-3.57
-1.1
0.44
0.5
-0.48

> <PUBCHEM_SHAPE_SELFOVERLAP>
1223.291

> <PUBCHEM_SHAPE_VOLUME>
325.9

> <PUBCHEM_COORDINATE_TYPE>
2
5
10

$$$$
