134216
  -OEChem-03292013323D

 46 48  0     1  0  0  0  0  0999 V2000
   -2.8714   -0.8404   -0.5136 O   0  0  0  0  0  0  0  0  0  0  0  0
   -3.0041    1.4784   -0.2726 O   0  0  0  0  0  0  0  0  0  0  0  0
   -6.9599   -1.1822   -0.2623 O   0  0  0  0  0  0  0  0  0  0  0  0
   -5.6531    1.1870    0.7463 O   0  0  0  0  0  0  0  0  0  0  0  0
   -5.2371   -3.5449    0.1176 O   0  0  0  0  0  0  0  0  0  0  0  0
    2.9709    3.2821   -0.6589 O   0  0  0  0  0  0  0  0  0  0  0  0
    5.9406   -3.0621    0.9959 O   0  5  0  0  0  0  0  0  0  0  0  0
    6.0037   -2.8484   -1.1880 O   0  0  0  0  0  0  0  0  0  0  0  0
    5.6419   -2.4461   -0.0558 N   0  3  0  0  0  0  0  0  0  0  0  0
   -5.6264   -1.1582    0.2486 C   0  0  2  0  0  0  0  0  0  0  0  0
   -5.0184    0.2066   -0.0743 C   0  0  2  0  0  0  0  0  0  0  0  0
   -4.8149   -2.2844   -0.3904 C   0  0  1  0  0  0  0  0  0  0  0  0
   -3.5112    0.2257    0.1855 C   0  0  1  0  0  0  0  0  0  0  0  0
   -3.3330   -2.1170   -0.0856 C   0  0  0  0  0  0  0  0  0  0  0  0
   -1.6594    1.6836   -0.1290 C   0  0  0  0  0  0  0  0  0  0  0  0
    1.0765    2.1006    0.1644 C   0  0  0  0  0  0  0  0  0  0  0  0
    2.5424    2.3238    0.3214 C   0  0  1  0  0  0  0  0  0  0  0  0
   -1.0879    1.6525    1.1395 C   0  0  0  0  0  0  0  0  0  0  0  0
   -0.8728    1.9216   -1.2519 C   0  0  0  0  0  0  0  0  0  0  0  0
    0.2833    1.8617    1.2865 C   0  0  0  0  0  0  0  0  0  0  0  0
    0.4985    2.1306   -1.1048 C   0  0  0  0  0  0  0  0  0  0  0  0
    3.3720    1.0486    0.2209 C   0  0  0  0  0  0  0  0  0  0  0  0
    3.6984    0.3755    1.3785 C   0  0  0  0  0  0  0  0  0  0  0  0
    3.7677    0.6106   -1.0250 C   0  0  0  0  0  0  0  0  0  0  0  0
    4.4569   -0.7914    1.2862 C   0  0  0  0  0  0  0  0  0  0  0  0
    4.5261   -0.5564   -1.1174 C   0  0  0  0  0  0  0  0  0  0  0  0
    4.8707   -1.2575    0.0382 C   0  0  0  0  0  0  0  0  0  0  0  0
   -5.7053   -1.3093    1.3324 H   0  0  0  0  0  0  0  0  0  0  0  0
   -5.2330    0.4748   -1.1165 H   0  0  0  0  0  0  0  0  0  0  0  0
   -4.9764   -2.2885   -1.4753 H   0  0  0  0  0  0  0  0  0  0  0  0
   -3.3282    0.1314    1.2640 H   0  0  0  0  0  0  0  0  0  0  0  0
   -2.7551   -2.8835   -0.6134 H   0  0  0  0  0  0  0  0  0  0  0  0
   -3.1208   -2.2545    0.9823 H   0  0  0  0  0  0  0  0  0  0  0  0
   -7.4435   -0.4470    0.1519 H   0  0  0  0  0  0  0  0  0  0  0  0
   -5.2386    2.0441    0.5476 H   0  0  0  0  0  0  0  0  0  0  0  0
   -6.1911   -3.6227   -0.0545 H   0  0  0  0  0  0  0  0  0  0  0  0
    2.7389    2.8069    1.2874 H   0  0  0  0  0  0  0  0  0  0  0  0
   -1.6920    1.4859    2.0265 H   0  0  0  0  0  0  0  0  0  0  0  0
   -1.3186    1.9431   -2.2423 H   0  0  0  0  0  0  0  0  0  0  0  0
    0.7198    1.8391    2.2814 H   0  0  0  0  0  0  0  0  0  0  0  0
    1.0938    2.3052   -1.9969 H   0  0  0  0  0  0  0  0  0  0  0  0
    3.3791    0.7312    2.3534 H   0  0  0  0  0  0  0  0  0  0  0  0
    3.5034    1.1386   -1.9358 H   0  0  0  0  0  0  0  0  0  0  0  0
    3.9396    3.3519   -0.6051 H   0  0  0  0  0  0  0  0  0  0  0  0
    4.7062   -1.3117    2.2075 H   0  0  0  0  0  0  0  0  0  0  0  0
    4.8295   -0.8906   -2.1064 H   0  0  0  0  0  0  0  0  0  0  0  0
  1 13  1  0  0  0  0
  1 14  1  0  0  0  0
  2 13  1  0  0  0  0
  2 15  1  0  0  0  0
  3 10  1  0  0  0  0
  3 34  1  0  0  0  0
  4 11  1  0  0  0  0
  4 35  1  0  0  0  0
  5 12  1  0  0  0  0
  5 36  1  0  0  0  0
  6 17  1  0  0  0  0
  6 44  1  0  0  0  0
  7  9  1  0  0  0  0
  8  9  2  0  0  0  0
  9 27  1  0  0  0  0
 10 11  1  0  0  0  0
 10 12  1  0  0  0  0
 10 28  1  0  0  0  0
 11 13  1  0  0  0  0
 11 29  1  0  0  0  0
 12 14  1  0  0  0  0
 12 30  1  0  0  0  0
 13 31  1  0  0  0  0
 14 32  1  0  0  0  0
 14 33  1  0  0  0  0
 15 18  2  0  0  0  0
 15 19  1  0  0  0  0
 16 17  1  0  0  0  0
 16 20  2  0  0  0  0
 16 21  1  0  0  0  0
 17 22  1  0  0  0  0
 17 37  1  0  0  0  0
 18 20  1  0  0  0  0
 18 38  1  0  0  0  0
 19 21  2  0  0  0  0
 19 39  1  0  0  0  0
 20 40  1  0  0  0  0
 21 41  1  0  0  0  0
 22 23  2  0  0  0  0
 22 24  1  0  0  0  0
 23 25  1  0  0  0  0
 23 42  1  0  0  0  0
 24 26  2  0  0  0  0
 24 43  1  0  0  0  0
 25 27  2  0  0  0  0
 25 45  1  0  0  0  0
 26 27  1  0  0  0  0
 26 46  1  0  0  0  0
M  CHG  2   7  -1   9   1
M  END
> <PUBCHEM_COMPOUND_CID>
134216

> <PUBCHEM_CONFORMER_RMSD>
0.8

> <PUBCHEM_CONFORMER_DIVERSEORDER>
1
41
137
125
16
63
106
114
108
48
139
31
117
43
107
110
87
71
138
80
126
88
40
33
130
102
133
72
5
131
4
29
85
18
141
60
64
98
101
92
82
79
59
13
103
3
23
68
129
51
93
119
61
127
47
6
96
91
123
11
73
15
84
62
124
42
135
69
49
38
120
140
75
90
142
8
7
78
116
54
105
136
9
20
115
112
24
128
76
121
50
39
46
95
28
57
2
37
109
118
66
113
32
34
67
77
45
14
35
122
26
21
89
99
97
111
74
132
81
53
83
25
86
58
65
36
70
30
12
104
94
100
27
44
134
55
56
17
52
10
19
22

> <PUBCHEM_MMFF94_PARTIAL_CHARGES>
39
1 -0.56
10 0.28
11 0.28
12 0.28
13 0.56
14 0.28
15 0.08
16 -0.14
17 0.57
18 -0.15
19 -0.15
2 -0.36
20 -0.15
21 -0.15
22 -0.14
23 -0.15
24 -0.15
25 -0.15
26 -0.15
27 0.13
3 -0.68
34 0.4
35 0.4
36 0.4
38 0.15
39 0.15
4 -0.68
40 0.15
41 0.15
42 0.15
43 0.15
44 0.4
45 0.15
46 0.15
5 -0.68
6 -0.68
7 -0.52
8 -0.52
9 0.91

> <PUBCHEM_EFFECTIVE_ROTOR_COUNT>
6.2

> <PUBCHEM_PHARMACOPHORE_FEATURES>
16
1 1 acceptor
1 2 acceptor
1 3 acceptor
1 3 donor
1 4 acceptor
1 4 donor
1 5 acceptor
1 5 donor
1 6 acceptor
1 6 donor
1 7 acceptor
1 7 anion
1 8 acceptor
6 1 10 11 12 13 14 rings
6 15 16 18 19 20 21 rings
6 22 23 24 25 26 27 rings

> <PUBCHEM_HEAVY_ATOM_COUNT>
27

> <PUBCHEM_ATOM_DEF_STEREO_COUNT>
4

> <PUBCHEM_ATOM_UDEF_STEREO_COUNT>
1

> <PUBCHEM_BOND_DEF_STEREO_COUNT>
0

> <PUBCHEM_BOND_UDEF_STEREO_COUNT>
0

> <PUBCHEM_ISOTOPIC_ATOM_COUNT>
0

> <PUBCHEM_COMPONENT_COUNT>
1

> <PUBCHEM_CACTVS_TAUTO_COUNT>
1

> <PUBCHEM_CONFORMER_ID>
00020C4800000001

> <PUBCHEM_MMFF94_ENERGY>
89.7058

> <PUBCHEM_FEATURE_SELFOVERLAP>
81.339

> <PUBCHEM_SHAPE_FINGERPRINT>
10042902 136 18409170974598275030
10074138 170 17129310744653184480
10622 236 18056183907641396463
10928967 22 18040710351121559058
11135609 12 18411407411551234816
11197282 1 18412265004308654286
117089 54 18045230594243794779
11796584 16 18341615936305338949
12107183 9 18341059514950400689
12166972 35 18041003916795107310
12422481 6 17918275354928778823
13533116 47 18341049726318824265
13551218 46 18340486759554409007
1361 87 17968393328185009682
13690498 29 17896040949330133444
13782708 43 18271522113516619703
14216079 64 18411416229045610743
14251740 57 18339640148085035858
14251751 18 18410289198987252228
14251764 30 18409164398497195942
14347424 109 18131632305102271161
14420673 8 18412267199242203019
14848178 5 18412256255127183313
14866123 147 18270688550432692361
15001296 14 18115299115595242747
15183329 4 18410857707102906969
15475509 35 17986106537980590953
15510800 12 17988082171650819046
16120349 21 18270126690867934609
17492 89 18411135865769175332
1813 80 17676762175738156213
1979834 28 17060065834703020598
20028762 73 18343863316350153326
20775438 99 17896881161081873410
20775530 9 18339347583777378662
21033648 29 14189308036547455785
21641784 216 14924209526736013101
22950370 63 18408605880960696965
23379529 103 18410012139368790690
23522609 53 18120691017281009597
23559900 14 18340761620055293209
25122255 55 18341055133513591298
2748736 6 9511457793000104762
3004659 81 18409450323039075548
312425 54 18202565055515340345
316301 35 18411696595661951858
32027 91 18338786840956995716
3680242 22 18413116056235608851
439807 62 18334859406907978807
44062 13 18262795164244930493
46194498 28 17240761856007507428
463206 1 18261395516339761522
465052 167 18342461439171918812
474113 269 17917136283227632159
50009960 94 18192406745223536490
5104073 3 17917715712153182809
56633871 153 18060413595238659294
7808743 9 8790588300470157604
7970288 3 18266177224016750530
8863177 126 18413386532101481804
960060 61 17748830751864813972

> <PUBCHEM_SHAPE_MULTIPOLES>
503.71
16.53
3.85
1.19
6.97
1.79
0.06
16.67
0.09
-1.91
-0.28
-1.19
-0.22
-0.32

> <PUBCHEM_SHAPE_SELFOVERLAP>
1084.099

> <PUBCHEM_SHAPE_VOLUME>
274.3

> <PUBCHEM_COORDINATE_TYPE>
2
5
10

$$$$
