REMARK  Name = 134289
REMARK  8 active torsions:
REMARK  status: ('A' for Active; 'I' for Inactive)
REMARK    1  A    between atoms: CA_5  and  CB_22
REMARK    2  A    between atoms: CA_6  and  CB_11
REMARK    3  A    between atoms: CB_11  and  CG_12
REMARK    4  A    between atoms: CG_12  and  CD_13
REMARK    5  A    between atoms: CD_13  and  NE_14
REMARK    6  A    between atoms: NE_14  and  CZ_17
REMARK    7  A    between atoms: CB_22  and  CG_23
REMARK    8  A    between atoms: CZ_28  and  OH_29
REMARK                            x       y       z     vdW  Elec       q    Type
REMARK                         _______ _______ _______ _____ _____    ______ ____
ROOT
ATOM      1  O   ARG A   2      -1.883   3.708   1.213  0.00  0.00    -0.273 OA
ATOM      2  O   TYR A   1       1.099   0.859  -2.244  0.00  0.00    -0.273 OA
ATOM      3  N   TYR A   1       0.200   2.908   0.559  0.00  0.00    -0.270 N 
ATOM      4  N   ARG A   2      -0.901   1.798  -1.643  0.00  0.00    -0.297 N 
ATOM      5  CA  TYR A   1       0.940   1.794  -0.036  0.00  0.00    +0.156 C 
ATOM      6  CA  ARG A   2      -1.840   2.158  -0.602  0.00  0.00    +0.149 C 
ATOM      7  C   ARG A   2      -1.186   3.016   0.467  0.00  0.00    +0.244 C 
ATOM      8  C   TYR A   1       0.410   1.458  -1.417  0.00  0.00    +0.241 C 
ATOM      9  C   ACE A   0       0.923   3.751   1.503  0.00  0.00    +0.115 C 
ATOM     10  H   ARG A   2      -1.223   1.798  -2.574  0.00  0.00    +0.150 HD
ENDROOT
BRANCH   6  11
ATOM     11  CB  ARG A   2      -2.567   0.952  -0.029  0.00  0.00    +0.031 C 
BRANCH  11  12
ATOM     12  CG  ARG A   2      -3.251   0.136  -1.128  0.00  0.00    +0.029 C 
BRANCH  12  13
ATOM     13  CD  ARG A   2      -3.976  -1.088  -0.581  0.00  0.00    +0.129 C 
BRANCH  13  14
ATOM     14  NE  ARG A   2      -3.019  -1.983   0.071  0.00  0.00    -0.240 NA
BRANCH  14  17
ATOM     15  NH1 ARG A   2      -2.654  -3.988   1.175  0.00  0.00    -0.370 N 
ATOM     16  NH2 ARG A   2      -4.791  -3.542   0.519  0.00  0.00    -0.370 N 
ATOM     17  CZ  ARG A   2      -3.489  -3.093   0.548  0.00  0.00    +0.189 C 
ATOM     18 HH11 ARG A   2      -1.694  -3.787   1.263  0.00  0.00    +0.159 HD
ATOM     19 HH12 ARG A   2      -3.016  -4.830   1.535  0.00  0.00    +0.159 HD
ATOM     20 HH21 ARG A   2      -5.491  -2.993   0.097  0.00  0.00    +0.159 HD
ATOM     21 HH22 ARG A   2      -5.021  -4.411   0.920  0.00  0.00    +0.159 HD
ENDBRANCH  14  17
ENDBRANCH  13  14
ENDBRANCH  12  13
ENDBRANCH  11  12
ENDBRANCH   6  11
BRANCH   5  22
ATOM     22  CB  TYR A   1       1.014   0.571   0.869  0.00  0.00    +0.056 C 
BRANCH  22  23
ATOM     23  CG  TYR A   1       2.184  -0.307   0.520  0.00  0.00    -0.020 C 
ATOM     24  CD1 TYR A   1       2.024  -1.322  -0.414  0.00  0.00    -0.001 C 
ATOM     25  CD2 TYR A   1       3.409  -0.091   1.137  0.00  0.00    -0.001 C 
ATOM     26  CE1 TYR A   1       3.110  -2.137  -0.737  0.00  0.00    +0.036 C 
ATOM     27  CE2 TYR A   1       4.495  -0.905   0.813  0.00  0.00    +0.036 C 
ATOM     28  CZ  TYR A   1       4.345  -1.928  -0.123  0.00  0.00    +0.134 C 
BRANCH  28  29
ATOM     29  OH  TYR A   1       5.404  -2.723  -0.439  0.00  0.00    -0.506 OA
ATOM     30  HH  TYR A   1       5.303  -3.410  -1.068  0.00  0.00    +0.292 HD
ENDBRANCH  28  29
ENDBRANCH  22  23
ENDBRANCH   5  22
TORSDOF 8
