REMARK  Name = 134238
REMARK  6 active torsions:
REMARK  status: ('A' for Active; 'I' for Inactive)
REMARK    1  A    between atoms: N_2  and  C_5
REMARK    2  A    between atoms: C_3  and  C_15
REMARK    3  A    between atoms: C_6  and  S_11
REMARK    4  A    between atoms: C_15  and  N_16
REMARK    5  A    between atoms: C_15  and  C_20
REMARK    6  A    between atoms: C_20  and  C_21
REMARK                            x       y       z     vdW  Elec       q    Type
REMARK                         _______ _______ _______ _____ _____    ______ ____
ROOT
ATOM      1  O   UNL     1      -1.653  -2.078  -0.412  0.00  0.00    -0.277 OA
ATOM      2  N   UNL     1      -0.268  -0.185  -0.491  0.00  0.00    -0.285 N 
ATOM      3  C   UNL     1      -1.468  -0.881  -0.614  0.00  0.00    +0.206 C 
ATOM      4  H   UNL     1      -0.304   0.780  -0.678  0.00  0.00    +0.155 HD
ENDROOT
BRANCH   2   5
ATOM      5  C   UNL     1       0.998  -0.705  -0.129  0.00  0.00    +0.068 C 
ATOM      6  C   UNL     1       2.103   0.128  -0.046  0.00  0.00    +0.126 C 
ATOM      7  C   UNL     1       1.098  -2.061   0.140  0.00  0.00    +0.016 C 
ATOM      8  C   UNL     1       3.339  -0.409   0.315  0.00  0.00    +0.020 C 
ATOM      9  C   UNL     1       2.333  -2.598   0.501  0.00  0.00    +0.001 C 
ATOM     10  C   UNL     1       3.454  -1.772   0.588  0.00  0.00    +0.001 C 
BRANCH   6  11
ATOM     11  S   UNL     1       1.999   1.844  -0.380  0.00  0.00    +0.043 S 
ATOM     12  O   UNL     1       1.143   2.467   0.864  0.00  0.00    -0.065 OA
ATOM     13  O   UNL     1       3.342   2.396  -0.293  0.00  0.00    -0.065 OA
ATOM     14  O   UNL     1       1.211   1.988  -1.592  0.00  0.00    -0.065 OA
ENDBRANCH   6  11
ENDBRANCH   2   5
BRANCH   3  15
ATOM     15  C   UNL     1      -2.608   0.054  -1.027  0.00  0.00    +0.013 C 
BRANCH  15  16
ATOM     16  N   UNL     1      -3.119  -0.392  -2.322  0.00  0.00    +0.387 N 
ATOM     17  H   UNL     1      -3.881   0.220  -2.616  0.00  0.00    -0.089 HD
ATOM     18  H   UNL     1      -3.464  -1.348  -2.240  0.00  0.00    -0.089 HD
ATOM     19  H   UNL     1      -2.370  -0.358  -3.014  0.00  0.00    -0.089 HD
ENDBRANCH  15  16
BRANCH  15  20
ATOM     20  C   UNL     1      -3.703   0.038   0.052  0.00  0.00    -0.013 C 
BRANCH  20  21
ATOM     21  C   UNL     1      -3.269   0.558   1.438  0.00  0.00    -0.002 C 
ATOM     22  C   UNL     1      -2.721   1.984   1.379  0.00  0.00    -0.000 C 
ATOM     23  C   UNL     1      -2.210  -0.377   2.031  0.00  0.00    -0.000 C 
ENDBRANCH  20  21
ENDBRANCH  15  20
ENDBRANCH   3  15
TORSDOF 6
