134238
  -OEChem-03292013323D

 37 37  0     1  0  0  0  0  0999 V2000
    1.9991    1.8443   -0.3802 S   0  0  0  0  0  0  0  0  0  0  0  0
   -1.6528   -2.0781   -0.4122 O   0  0  0  0  0  0  0  0  0  0  0  0
    1.1427    2.4671    0.8636 O   0  0  0  0  0  0  0  0  0  0  0  0
    3.3418    2.3955   -0.2935 O   0  0  0  0  0  0  0  0  0  0  0  0
    1.2107    1.9880   -1.5923 O   0  0  0  0  0  0  0  0  0  0  0  0
   -3.1193   -0.3916   -2.3221 N   0  0  0  0  0  0  0  0  0  0  0  0
   -0.2676   -0.1855   -0.4911 N   0  0  0  0  0  0  0  0  0  0  0  0
   -3.2689    0.5577    1.4381 C   0  0  0  0  0  0  0  0  0  0  0  0
   -3.7026    0.0383    0.0520 C   0  0  0  0  0  0  0  0  0  0  0  0
   -2.6078    0.0545   -1.0273 C   0  0  1  0  0  0  0  0  0  0  0  0
   -2.7213    1.9842    1.3786 C   0  0  0  0  0  0  0  0  0  0  0  0
   -2.2104   -0.3767    2.0312 C   0  0  0  0  0  0  0  0  0  0  0  0
   -1.4681   -0.8810   -0.6143 C   0  0  0  0  0  0  0  0  0  0  0  0
    0.9981   -0.7047   -0.1288 C   0  0  0  0  0  0  0  0  0  0  0  0
    2.1028    0.1280   -0.0463 C   0  0  0  0  0  0  0  0  0  0  0  0
    1.0976   -2.0611    0.1404 C   0  0  0  0  0  0  0  0  0  0  0  0
    3.3386   -0.4090    0.3146 C   0  0  0  0  0  0  0  0  0  0  0  0
    2.3335   -2.5979    0.5012 C   0  0  0  0  0  0  0  0  0  0  0  0
    3.4539   -1.7719    0.5882 C   0  0  0  0  0  0  0  0  0  0  0  0
   -4.1520    0.5452    2.0891 H   0  0  0  0  0  0  0  0  0  0  0  0
   -4.1048   -0.9780    0.1649 H   0  0  0  0  0  0  0  0  0  0  0  0
   -4.5427    0.6573   -0.2920 H   0  0  0  0  0  0  0  0  0  0  0  0
   -2.2477    1.0789   -1.1642 H   0  0  0  0  0  0  0  0  0  0  0  0
   -2.5330    2.3589    2.3909 H   0  0  0  0  0  0  0  0  0  0  0  0
   -1.7794    2.0519    0.8272 H   0  0  0  0  0  0  0  0  0  0  0  0
   -3.4439    2.6566    0.9047 H   0  0  0  0  0  0  0  0  0  0  0  0
   -1.1861   -0.1228    1.7657 H   0  0  0  0  0  0  0  0  0  0  0  0
   -2.2355   -0.2568    3.1231 H   0  0  0  0  0  0  0  0  0  0  0  0
   -2.4273   -1.4335    1.8552 H   0  0  0  0  0  0  0  0  0  0  0  0
   -2.3957   -0.2812   -3.0317 H   0  0  0  0  0  0  0  0  0  0  0  0
   -3.8931    0.2066   -2.6088 H   0  0  0  0  0  0  0  0  0  0  0  0
   -0.2927    0.8115   -0.6811 H   0  0  0  0  0  0  0  0  0  0  0  0
    0.2875   -2.7724    0.0967 H   0  0  0  0  0  0  0  0  0  0  0  0
    4.2304    0.2053    0.3946 H   0  0  0  0  0  0  0  0  0  0  0  0
    2.4250   -3.6590    0.7145 H   0  0  0  0  0  0  0  0  0  0  0  0
    4.4159   -2.1902    0.8698 H   0  0  0  0  0  0  0  0  0  0  0  0
    1.5471    2.3523    1.7556 H   0  0  0  0  0  0  0  0  0  0  0  0
  1  3  1  0  0  0  0
  1  4  2  0  0  0  0
  1  5  2  0  0  0  0
  1 15  1  0  0  0  0
  2 13  2  0  0  0  0
  3 37  1  0  0  0  0
  6 10  1  0  0  0  0
  6 30  1  0  0  0  0
  6 31  1  0  0  0  0
  7 13  1  0  0  0  0
  7 14  1  0  0  0  0
  7 32  1  0  0  0  0
  8  9  1  0  0  0  0
  8 11  1  0  0  0  0
  8 12  1  0  0  0  0
  8 20  1  0  0  0  0
  9 10  1  0  0  0  0
  9 21  1  0  0  0  0
  9 22  1  0  0  0  0
 10 13  1  0  0  0  0
 10 23  1  0  0  0  0
 11 24  1  0  0  0  0
 11 25  1  0  0  0  0
 11 26  1  0  0  0  0
 12 27  1  0  0  0  0
 12 28  1  0  0  0  0
 12 29  1  0  0  0  0
 14 15  1  0  0  0  0
 14 16  2  0  0  0  0
 15 17  2  0  0  0  0
 16 18  1  0  0  0  0
 16 33  1  0  0  0  0
 17 19  1  0  0  0  0
 17 34  1  0  0  0  0
 18 19  2  0  0  0  0
 18 35  1  0  0  0  0
 19 36  1  0  0  0  0
M  END
> <PUBCHEM_COMPOUND_CID>
134238

> <PUBCHEM_CONFORMER_RMSD>
0.8

> <PUBCHEM_CONFORMER_DIVERSEORDER>
1
7
2
3
6
5
9
8
4

> <PUBCHEM_MMFF94_PARTIAL_CHARGES>
23
1 1.49
10 0.33
13 0.57
14 0.12
15 -0.01
16 -0.15
17 -0.15
18 -0.15
19 -0.15
2 -0.57
3 -0.68
30 0.36
31 0.36
32 0.37
33 0.15
34 0.15
35 0.15
36 0.15
37 0.5
4 -0.65
5 -0.65
6 -0.99
7 -0.55

> <PUBCHEM_EFFECTIVE_ROTOR_COUNT>
6

> <PUBCHEM_PHARMACOPHORE_FEATURES>
10
1 2 acceptor
1 3 acceptor
1 4 acceptor
1 5 acceptor
1 6 cation
1 6 donor
1 7 donor
3 8 11 12 hydrophobe
4 1 3 4 5 anion
6 14 15 16 17 18 19 rings

> <PUBCHEM_HEAVY_ATOM_COUNT>
19

> <PUBCHEM_ATOM_DEF_STEREO_COUNT>
1

> <PUBCHEM_ATOM_UDEF_STEREO_COUNT>
0

> <PUBCHEM_BOND_DEF_STEREO_COUNT>
0

> <PUBCHEM_BOND_UDEF_STEREO_COUNT>
0

> <PUBCHEM_ISOTOPIC_ATOM_COUNT>
0

> <PUBCHEM_COMPONENT_COUNT>
1

> <PUBCHEM_CACTVS_TAUTO_COUNT>
2

> <PUBCHEM_CONFORMER_ID>
00020C5E00000001

> <PUBCHEM_MMFF94_ENERGY>
44.3541

> <PUBCHEM_FEATURE_SELFOVERLAP>
50.802

> <PUBCHEM_SHAPE_FINGERPRINT>
10366900 7 17458634393088109363
104564 63 18051137995182639244
11086676 242 18194127321979932672
11578080 2 17627751341555511313
11640471 11 17988371398763475361
12553582 1 18192710043050176202
12633257 1 17971501553420035531
12670545 47 17313393352439513891
12716301 132 15791728577327337123
13009979 54 17917145005293690994
13132413 78 18200313212963088600
13140716 1 18335699507148870258
14790565 3 18335717056939447956
15238133 3 17829634780381100697
15775835 57 18201169848353510681
16945 1 18408600332063241774
17357990 137 17917167012758297907
1813 80 18054239739144594286
18186145 218 18338238266691371158
18219364 16 18186513311083989247
19049666 15 17314501544074771871
192875 21 18130772456938810237
20510252 161 17185314786241351120
20715895 44 17767690452137659393
20905425 154 16053750045173825723
21427221 339 17985563164298486504
21524375 3 18050853522345091014
21639500 275 18409441526834835279
22094290 62 18341057336778839450
22112679 90 17846779593920614016
23175994 123 17970350317237855970
23526113 38 17387675129371955823
23557571 272 15051726517269690919
23559900 14 15936418840176261967
23598288 3 17917706946620576423
23598291 2 18272368676554696294
2748010 2 18115583906439563182
312423 11 18202004352072628375
3286 77 18114761347346119347
350125 39 17974296722368279482
4175511 71 18196102036094258902
474 4 18337107964216255144
568465 68 17604727559432286058
6049 1 17385730170738178871
6992083 37 18199743652822909559
7097593 13 18339085873918476019
7364860 26 18410566323362597846
7471813 234 17701225183815427277
74978 22 18412263947435079847
7615 1 18131623487343975207
77492 1 18060415811404541687
81228 2 17469596313816573106
84936 182 18128814325625181496
88987 49 16558751196020321639

> <PUBCHEM_SHAPE_MULTIPOLES>
361.42
6.58
2.77
1.57
1.38
0.89
0.15
-0.05
-0.91
-2.46
-0.13
1.81
0.17
-1.28

> <PUBCHEM_SHAPE_SELFOVERLAP>
727.916

> <PUBCHEM_SHAPE_VOLUME>
212.1

> <PUBCHEM_COORDINATE_TYPE>
2
5
10

$$$$
