REMARK  Name = 134241
REMARK  9 active torsions:
REMARK  status: ('A' for Active; 'I' for Inactive)
REMARK    1  A    between atoms: C_6  and  C_28
REMARK    2  A    between atoms: C_10  and  O_20
REMARK    3  A    between atoms: C_12  and  O_22
REMARK    4  A    between atoms: C_18  and  O_24
REMARK    5  A    between atoms: C_19  and  O_26
REMARK    6  A    between atoms: C_28  and  C_30
REMARK    7  A    between atoms: C_30  and  C_31
REMARK    8  A    between atoms: C_31  and  C_33
REMARK    9  A    between atoms: C_33  and  O_34
REMARK                            x       y       z     vdW  Elec       q    Type
REMARK                         _______ _______ _______ _____ _____    ______ ____
ROOT
ATOM      1  C   UNL     1       0.968  -1.211  -0.001  0.00  0.00    +0.029 C 
ATOM      2  C   UNL     1      -0.521  -0.919   0.278  0.00  0.00    +0.002 C 
ATOM      3  C   UNL     1      -1.286  -0.432  -0.976  0.00  0.00    +0.000 C 
ATOM      4  C   UNL     1       1.635   0.110  -0.526  0.00  0.00    +0.003 C 
ATOM      5  C   UNL     1       3.174  -0.064  -0.812  0.00  0.00    +0.005 C 
ATOM      6  C   UNL     1      -2.702  -0.283  -0.369  0.00  0.00    +0.000 C 
ATOM      7  C   UNL     1       3.887  -0.633   0.468  0.00  0.00    +0.032 C 
ATOM      8  C   UNL     1      -0.655   0.887  -1.434  0.00  0.00    +0.000 C 
ATOM      9  C   UNL     1       0.848   0.731  -1.711  0.00  0.00    +0.000 C 
ATOM     10  C   UNL     1       1.708  -1.732   1.248  0.00  0.00    +0.137 C 
ATOM     11  C   UNL     1      -1.427  -2.017   0.832  0.00  0.00    +0.000 C 
ATOM     12  C   UNL     1       3.215  -1.905   1.021  0.00  0.00    +0.137 C 
ATOM     13  C   UNL     1      -2.855  -1.538   0.516  0.00  0.00    +0.000 C 
ATOM     14  C   UNL     1       3.865   1.278  -1.195  0.00  0.00    +0.032 C 
ATOM     15  C   UNL     1      -1.284  -1.447  -2.147  0.00  0.00    +0.000 C 
ATOM     16  C   UNL     1       4.000   0.415   1.598  0.00  0.00    +0.034 C 
ATOM     17  C   UNL     1       3.402  -1.002  -2.026  0.00  0.00    +0.000 C 
ATOM     18  C   UNL     1       3.938   2.300  -0.066  0.00  0.00    +0.137 C 
ATOM     19  C   UNL     1       4.652   1.715   1.148  0.00  0.00    +0.137 C 
ENDROOT
BRANCH  10  20
ATOM     20  O   UNL     1       1.179  -2.989   1.670  0.00  0.00    -0.382 OA
ATOM     21  H   UNL     1       0.225  -2.904   1.821  0.00  0.00    +0.210 HD
ENDBRANCH  10  20
BRANCH  12  22
ATOM     22  O   UNL     1       3.429  -3.001   0.131  0.00  0.00    -0.382 OA
ATOM     23  H   UNL     1       4.381  -3.116  -0.017  0.00  0.00    +0.210 HD
ENDBRANCH  12  22
BRANCH  18  24
ATOM     24  O   UNL     1       4.680   3.433  -0.518  0.00  0.00    -0.382 OA
ATOM     25  H   UNL     1       4.240   3.820  -1.291  0.00  0.00    +0.210 HD
ENDBRANCH  18  24
BRANCH  19  26
ATOM     26  O   UNL     1       4.614   2.652   2.224  0.00  0.00    -0.382 OA
ATOM     27  H   UNL     1       5.069   2.277   2.994  0.00  0.00    +0.210 HD
ENDBRANCH  19  26
BRANCH   6  28
ATOM     28  C   UNL     1      -3.851  -0.108  -1.352  0.00  0.00    +0.001 C 
ATOM     29  C   UNL     1      -3.606   1.121  -2.233  0.00  0.00    +0.000 C 
BRANCH  28  30
ATOM     30  C   UNL     1      -5.191  -0.018  -0.593  0.00  0.00    +0.012 C 
BRANCH  30  31
ATOM     31  C   UNL     1      -5.239   1.108   0.441  0.00  0.00    +0.109 C 
BRANCH  31  33
ATOM     32  O   UNL     1      -7.456   0.314   1.060  0.00  0.00    -0.250 OA
ATOM     33  C   UNL     1      -6.540   1.110   1.212  0.00  0.00    +0.314 C 
BRANCH  33  34
ATOM     34  O   UNL     1      -6.582   2.127   2.111  0.00  0.00    -0.480 OA
ATOM     35  H   UNL     1      -5.855   2.712   2.192  0.00  0.00    +0.295 HD
ENDBRANCH  33  34
ENDBRANCH  31  33
ENDBRANCH  30  31
ENDBRANCH  28  30
ENDBRANCH   6  28
TORSDOF 9
