REMARK  Name = 13424663
REMARK  6 active torsions:
REMARK  status: ('A' for Active; 'I' for Inactive)
REMARK    1  A    between atoms: N_1  and  C1*_11
REMARK    2  A    between atoms: C2*_12  and  O2*_15
REMARK    3  A    between atoms: C3*_13  and  O3*_17
REMARK    4  A    between atoms: C4*_14  and  C5*_19
REMARK    5  A    between atoms: C5*_19  and  O5*_20
REMARK    6  A    between atoms: N_22  and  C_24
REMARK                            x       y       z     vdW  Elec       q    Type
REMARK                         _______ _______ _______ _____ _____    ______ ____
ROOT
ATOM      1  N   UNL     1       2.289  -0.066  -0.226  0.00  0.00    -0.247 N 
ATOM      2  N   UNL     1       0.429  -1.196   0.260  0.00  0.00    -0.242 NA
ATOM      3  N   UNL     1       1.321   2.054  -0.913  0.00  0.00    -0.228 NA
ATOM      4  N   UNL     1      -1.114   2.004  -0.772  0.00  0.00    -0.228 NA
ATOM      5  C   UNL     1       1.252   0.789  -0.470  0.00  0.00    +0.152 C 
ATOM      6  C   UNL     1       0.108   0.070  -0.163  0.00  0.00    +0.140 C 
ATOM      7  C   UNL     1       1.744  -1.245   0.210  0.00  0.00    +0.223 C 
ATOM      8  C   UNL     1      -1.126   0.715  -0.324  0.00  0.00    +0.146 C 
ATOM      9  C   UNL     1       0.083   2.581  -1.033  0.00  0.00    +0.253 C 
ATOM     10  N   UNL     1      -2.320   0.071  -0.038  0.00  0.00    -0.315 N 
ATOM     11  H   UNL     1      -2.280  -0.859   0.283  0.00  0.00    +0.148 HD
ENDROOT
BRANCH  10  12
ATOM     12  C   UNL     1      -3.615   0.685  -0.186  0.00  0.00    +0.093 C 
ATOM     13  C   UNL     1      -3.963   1.522   1.059  0.00  0.00    +0.029 C 
ATOM     14  C   UNL     1      -5.491   1.482   1.203  0.00  0.00    +0.028 C 
ATOM     15  C   UNL     1      -4.739  -0.310  -0.188  0.00  0.00    -0.008 C 
ATOM     16  C   UNL     1      -5.803   0.147   0.602  0.00  0.00    -0.025 C 
ATOM     17  C   UNL     1      -4.842  -1.504  -0.886  0.00  0.00    -0.003 C 
ATOM     18  C   UNL     1      -6.977  -0.579   0.717  0.00  0.00    -0.005 C 
ATOM     19  C   UNL     1      -6.017  -2.249  -0.766  0.00  0.00    -0.000 C 
ATOM     20  C   UNL     1      -7.077  -1.791   0.031  0.00  0.00    -0.000 C 
ENDBRANCH  10  12
BRANCH   1  22
ATOM     21  O4* UNL     1       4.400  -0.990  -0.792  0.00  0.00    -0.333 OA
ATOM     22  C1* UNL     1       3.713   0.213  -0.394  0.00  0.00    +0.225 C 
ATOM     23  C2* UNL     1       4.404   0.695   0.873  0.00  0.00    +0.187 C 
ATOM     24  C3* UNL     1       5.840   0.291   0.605  0.00  0.00    +0.171 C 
ATOM     25  C4* UNL     1       5.674  -1.046  -0.110  0.00  0.00    +0.175 C 
BRANCH  23  26
ATOM     26  O2* UNL     1       4.247   2.086   1.062  0.00  0.00    -0.378 OA
ATOM     27  H2* UNL     1       3.312   2.286   1.229  0.00  0.00    +0.211 HD
ENDBRANCH  23  26
BRANCH  24  28
ATOM     28  O3* UNL     1       6.438   1.224  -0.295  0.00  0.00    -0.379 OA
ATOM     29  H3* UNL     1       6.548   2.078   0.151  0.00  0.00    +0.211 HD
ENDBRANCH  24  28
BRANCH  25  30
ATOM     30  C5* UNL     1       5.656  -2.232   0.844  0.00  0.00    +0.169 C 
BRANCH  30  31
ATOM     31  O5* UNL     1       5.487  -3.419   0.089  0.00  0.00    -0.379 OA
ATOM     32  H5* UNL     1       5.474  -4.183   0.687  0.00  0.00    +0.211 HD
ENDBRANCH  30  31
ENDBRANCH  25  30
ENDBRANCH   1  22
TORSDOF 6
