REMARK  Name = 134384
REMARK  12 active torsions:
REMARK  status: ('A' for Active; 'I' for Inactive)
REMARK    1  A    between atoms: CA_1  and  C_5
REMARK    2  A    between atoms: CA_1  and  N_17
REMARK    3  A    between atoms: N_4  and  CA_7
REMARK    4  A    between atoms: CA_7  and  C_9
REMARK    5  A    between atoms: CA_7  and  CB_12
REMARK    6  A    between atoms: C_9  and  O_10
REMARK    7  A    between atoms: CB_12  and  CG_13
REMARK    8  A    between atoms: C_18  and  CA_20
REMARK    9  A    between atoms: CA_20  and  N_22
REMARK   10  A    between atoms: CA_20  and  CB_25
REMARK   11  A    between atoms: CB_25  and  CG_26
REMARK   12  A    between atoms: CG_26  and  SD_27
REMARK                            x       y       z     vdW  Elec       q    Type
REMARK                         _______ _______ _______ _____ _____    ______ ____
ROOT
ATOM      1  CA  UNL     1      -0.059  -1.728   0.068  0.00  0.00    +0.149 C 
ATOM      2  CB  UNL     1      -0.025  -3.238  -0.105  0.00  0.00    +0.031 C 
ENDROOT
BRANCH   1   5
ATOM      3  O   UNL     1       0.841  -0.719  -1.943  0.00  0.00    -0.273 OA
ATOM      4  N   UNL     1       2.218  -0.924  -0.086  0.00  0.00    -0.295 N 
ATOM      5  C   UNL     1       1.018  -1.059  -0.776  0.00  0.00    +0.241 C 
ATOM      6  H   UNL     1       2.260  -1.227   0.850  0.00  0.00    +0.150 HD
BRANCH   4   7
ATOM      7  CA  UNL     1       3.401  -0.360  -0.681  0.00  0.00    +0.171 C 
BRANCH   7   9
ATOM      8  OXT UNL     1       5.785  -0.777  -0.690  0.00  0.00    -0.248 OA
ATOM      9  C   UNL     1       4.684  -1.029  -0.212  0.00  0.00    +0.332 C 
BRANCH   9  10
ATOM     10  O   UNL     1       4.509  -1.972   0.744  0.00  0.00    -0.479 OA
ATOM     11  H   UNL     1       3.653  -2.139   1.086  0.00  0.00    +0.295 HD
ENDBRANCH   9  10
ENDBRANCH   7   9
BRANCH   7  12
ATOM     12  CB  UNL     1       3.443   1.171  -0.555  0.00  0.00    +0.031 C 
BRANCH  12  13
ATOM     13  CG  UNL     1       3.160   1.785   0.834  0.00  0.00    +0.002 C 
ATOM     14  CD1 UNL     1       4.197   1.266   1.837  0.00  0.00    +0.000 C 
ATOM     15  CD2 UNL     1       3.162   3.312   0.846  0.00  0.00    +0.000 C 
ENDBRANCH  12  13
ENDBRANCH   7  12
ENDBRANCH   4   7
ENDBRANCH   1   5
BRANCH   1  17
ATOM     16  O   UNL     1      -2.354  -1.332   1.753  0.00  0.00    -0.273 OA
ATOM     17  N   UNL     1      -1.333  -1.184  -0.326  0.00  0.00    -0.297 N 
ATOM     18  C   UNL     1      -2.391  -1.028   0.562  0.00  0.00    +0.241 C 
ATOM     19  H   UNL     1      -1.459  -0.911  -1.263  0.00  0.00    +0.150 HD
BRANCH  18  20
ATOM     20  CA  UNL     1      -3.614  -0.398  -0.097  0.00  0.00    +0.150 C 
BRANCH  20  22
ATOM     21  O   UNL     1      -6.489  -0.708  -0.592  0.00  0.00    -0.265 OA
ATOM     22  N   UNL     1      -4.689  -0.363   0.861  0.00  0.00    -0.291 N 
ATOM     23  C   ACE A   0      -6.017  -0.521   0.522  0.00  0.00    +0.300 C 
ATOM     24  H   UNL     1      -4.464  -0.218   1.809  0.00  0.00    +0.150 HD
ENDBRANCH  20  22
BRANCH  20  25
ATOM     25  CB  UNL     1      -3.323   0.987  -0.691  0.00  0.00    +0.041 C 
BRANCH  25  26
ATOM     26  CG  UNL     1      -2.802   1.998   0.334  0.00  0.00    +0.060 C 
BRANCH  26  27
ATOM     27  SD  UNL     1      -2.476   3.600  -0.460  0.00  0.00    -0.139 S 
ATOM     28  CE  UNL     1      -0.848   3.222  -1.148  0.00  0.00    +0.069 C 
ENDBRANCH  26  27
ENDBRANCH  25  26
ENDBRANCH  20  25
ENDBRANCH  18  20
ENDBRANCH   1  17
TORSDOF 12
