134346
  -OEChem-03292013323D

 42 42  0     1  0  0  0  0  0999 V2000
   -4.3861   -0.6615    0.5645 S   0  0  0  0  0  0  0  0  0  0  0  0
   -2.2715    1.5067    0.9647 O   0  0  0  0  0  0  0  0  0  0  0  0
   -5.7175   -0.7863   -0.3687 O   0  0  0  0  0  0  0  0  0  0  0  0
   -4.6448    0.2958    1.6233 O   0  0  0  0  0  0  0  0  0  0  0  0
   -3.8876   -1.9940    0.8481 O   0  0  0  0  0  0  0  0  0  0  0  0
    1.8366   -2.9794   -0.7007 O   0  0  0  0  0  0  0  0  0  0  0  0
    4.5924    0.4936    1.0687 O   0  0  0  0  0  0  0  0  0  0  0  0
    0.1609    1.5317   -0.5064 N   0  0  3  0  0  0  0  0  0  0  0  0
   -1.0954    1.1352   -1.1010 C   0  0  0  0  0  0  0  0  0  0  0  0
   -2.0039    0.5227   -0.0350 C   0  0  2  0  0  0  0  0  0  0  0  0
   -3.3342    0.0918   -0.6406 C   0  0  0  0  0  0  0  0  0  0  0  0
    0.3551    2.9393   -0.1580 C   0  0  0  0  0  0  0  0  0  0  0  0
    1.1838    0.6027   -0.2753 C   0  0  0  0  0  0  0  0  0  0  0  0
    0.9810    3.7125   -1.3003 C   0  0  0  0  0  0  0  0  0  0  0  0
    2.3970    1.0124    0.2894 C   0  0  0  0  0  0  0  0  0  0  0  0
    1.0024   -0.7448   -0.6068 C   0  0  0  0  0  0  0  0  0  0  0  0
    2.0205   -1.6703   -0.3770 C   0  0  0  0  0  0  0  0  0  0  0  0
    3.4151    0.0871    0.5195 C   0  0  0  0  0  0  0  0  0  0  0  0
    3.2269   -1.2543    0.1863 C   0  0  0  0  0  0  0  0  0  0  0  0
    0.5789   -3.3367   -1.2717 C   0  0  0  0  0  0  0  0  0  0  0  0
    5.5905   -0.5043    1.2769 C   0  0  0  0  0  0  0  0  0  0  0  0
   -1.5921    2.0257   -1.5108 H   0  0  0  0  0  0  0  0  0  0  0  0
   -0.9600    0.4751   -1.9657 H   0  0  0  0  0  0  0  0  0  0  0  0
   -1.5243   -0.3244    0.4660 H   0  0  0  0  0  0  0  0  0  0  0  0
   -3.1878   -0.6305   -1.4495 H   0  0  0  0  0  0  0  0  0  0  0  0
   -3.8774    0.9631   -1.0238 H   0  0  0  0  0  0  0  0  0  0  0  0
   -0.6243    3.3950    0.0400 H   0  0  0  0  0  0  0  0  0  0  0  0
    0.8964    3.0838    0.7828 H   0  0  0  0  0  0  0  0  0  0  0  0
    1.9805    3.3383   -1.5424 H   0  0  0  0  0  0  0  0  0  0  0  0
    0.3716    3.6401   -2.2075 H   0  0  0  0  0  0  0  0  0  0  0  0
    1.0713    4.7713   -1.0378 H   0  0  0  0  0  0  0  0  0  0  0  0
    2.6109    2.0422    0.5540 H   0  0  0  0  0  0  0  0  0  0  0  0
    0.0669   -1.0604   -1.0450 H   0  0  0  0  0  0  0  0  0  0  0  0
   -2.6526    1.0544    1.7357 H   0  0  0  0  0  0  0  0  0  0  0  0
    3.9793   -2.0207    0.3407 H   0  0  0  0  0  0  0  0  0  0  0  0
   -6.1807    0.0622   -0.5633 H   0  0  0  0  0  0  0  0  0  0  0  0
    0.6080   -4.4144   -1.4641 H   0  0  0  0  0  0  0  0  0  0  0  0
   -0.2467   -3.1622   -0.5731 H   0  0  0  0  0  0  0  0  0  0  0  0
    0.4202   -2.8469   -2.2386 H   0  0  0  0  0  0  0  0  0  0  0  0
    5.2579   -1.2631    1.9934 H   0  0  0  0  0  0  0  0  0  0  0  0
    5.9236   -0.9440    0.3306 H   0  0  0  0  0  0  0  0  0  0  0  0
    6.4586   -0.0055    1.7203 H   0  0  0  0  0  0  0  0  0  0  0  0
  1  3  1  0  0  0  0
  1  4  2  0  0  0  0
  1  5  2  0  0  0  0
  1 11  1  0  0  0  0
  2 10  1  0  0  0  0
  2 34  1  0  0  0  0
  3 36  1  0  0  0  0
  6 17  1  0  0  0  0
  6 20  1  0  0  0  0
  7 18  1  0  0  0  0
  7 21  1  0  0  0  0
  8  9  1  0  0  0  0
  8 12  1  0  0  0  0
  8 13  1  0  0  0  0
  9 10  1  0  0  0  0
  9 22  1  0  0  0  0
  9 23  1  0  0  0  0
 10 11  1  0  0  0  0
 10 24  1  0  0  0  0
 11 25  1  0  0  0  0
 11 26  1  0  0  0  0
 12 14  1  0  0  0  0
 12 27  1  0  0  0  0
 12 28  1  0  0  0  0
 13 15  2  0  0  0  0
 13 16  1  0  0  0  0
 14 29  1  0  0  0  0
 14 30  1  0  0  0  0
 14 31  1  0  0  0  0
 15 18  1  0  0  0  0
 15 32  1  0  0  0  0
 16 17  2  0  0  0  0
 16 33  1  0  0  0  0
 17 19  1  0  0  0  0
 18 19  2  0  0  0  0
 19 35  1  0  0  0  0
 20 37  1  0  0  0  0
 20 38  1  0  0  0  0
 20 39  1  0  0  0  0
 21 40  1  0  0  0  0
 21 41  1  0  0  0  0
 21 42  1  0  0  0  0
M  END
> <PUBCHEM_COMPOUND_CID>
134346

> <PUBCHEM_CONFORMER_RMSD>
0.8

> <PUBCHEM_CONFORMER_DIVERSEORDER>
2
75
64
92
110
122
137
105
118
134
10
128
120
46
71
148
76
79
101
78
85
121
58
116
32
115
15
130
82
112
143
40
106
45
62
80
107
97
98
27
141
60
72
108
6
51
44
87
50
57
24
145
102
55
142
28
33
63
88
94
61
30
129
26
95
36
100
8
5
11
56
93
111
41
7
66
21
14
73
103
37
81
96
147
38
123
135
140
127
104
54
65
117
4
133
52
114
31
119
22
144
136
91
42
77
17
70
89
126
83
23
39
67
68
138
34
86
146
25
19
20
84
47
99
59
132
69
139
124
18
53
16
131
149
43
113
49
125
29
13
90
35
74
9
48
109
12
1
3

> <PUBCHEM_MMFF94_PARTIAL_CHARGES>
25
1 1.38
10 0.28
11 0.11
12 0.37
13 0.1
15 -0.15
16 -0.15
17 0.08
18 0.08
19 -0.15
2 -0.68
20 0.28
21 0.28
3 -0.68
32 0.15
33 0.15
34 0.4
35 0.15
36 0.5
4 -0.65
5 -0.65
6 -0.36
7 -0.36
8 -0.84
9 0.37

> <PUBCHEM_EFFECTIVE_ROTOR_COUNT>
8

> <PUBCHEM_PHARMACOPHORE_FEATURES>
10
1 2 acceptor
1 2 donor
1 3 acceptor
1 4 acceptor
1 5 acceptor
1 6 acceptor
1 7 acceptor
1 8 cation
4 1 3 4 5 anion
6 13 15 16 17 18 19 rings

> <PUBCHEM_HEAVY_ATOM_COUNT>
21

> <PUBCHEM_ATOM_DEF_STEREO_COUNT>
0

> <PUBCHEM_ATOM_UDEF_STEREO_COUNT>
1

> <PUBCHEM_BOND_DEF_STEREO_COUNT>
0

> <PUBCHEM_BOND_UDEF_STEREO_COUNT>
0

> <PUBCHEM_ISOTOPIC_ATOM_COUNT>
0

> <PUBCHEM_COMPONENT_COUNT>
1

> <PUBCHEM_CACTVS_TAUTO_COUNT>
1

> <PUBCHEM_CONFORMER_ID>
00020CCA00000002

> <PUBCHEM_MMFF94_ENERGY>
74.2581

> <PUBCHEM_FEATURE_SELFOVERLAP>
50.807

> <PUBCHEM_SHAPE_FINGERPRINT>
10064457 181 17917142918071233058
1100329 8 18125997406725107492
11796584 16 16370720418219558443
12363563 72 17676216749061021417
12553582 1 18264508246721771317
12596602 18 16917349238492644147
12633257 1 18260837033247247371
12892183 10 17845659144606858137
13140716 1 18124591139615945427
13533116 47 18269002041629895043
14178342 30 18341058406347411737
14223421 5 18053661378578846126
14252887 29 18411703145086287994
14341114 328 17203323442231807312
14787075 74 17822012042886760240
14790565 3 18194973056944376268
14863182 85 18338811051946269054
14955137 171 18411705421846417812
15422964 175 18337955575880310605
15927050 60 17691410037379331436
18222031 100 18408606967745548620
20028762 73 17987229104719447598
20261772 1 18341886424803146678
20645477 70 18189049958040761109
20739085 24 18409171047344375652
21197605 99 17977674426711602027
21673915 165 18273213110243931311
22079108 93 17560506404870462130
22224240 67 18131058368469207186
2255824 54 18265628752002490949
23402539 116 18334003973928986672
23557571 272 18043526119001577908
23559900 14 18263075677755758121
26918003 58 18409444800169627209
392239 28 17632288029642104706
465052 167 18113620122463091010
474229 33 18411130334463006914
5104073 3 18198050379678821602
57100710 210 17023169488686789134
7097593 13 18199206022292496497
81228 2 17828774936487188964
9709674 26 17835793102010816934

> <PUBCHEM_SHAPE_MULTIPOLES>
395.82
9.78
3.47
1.23
5.41
0.7
-0.09
-3.79
-5.16
-1.19
1.79
0.08
-0.03
0.27

> <PUBCHEM_SHAPE_SELFOVERLAP>
789.979

> <PUBCHEM_SHAPE_VOLUME>
236.4

> <PUBCHEM_COORDINATE_TYPE>
2
5
10

$$$$
