REMARK  Name = 134343
REMARK  11 active torsions:
REMARK  status: ('A' for Active; 'I' for Inactive)
REMARK    1  A    between atoms: C_1  and  S_2
REMARK    2  A    between atoms: C_1  and  C_12
REMARK    3  A    between atoms: S_2  and  N_4
REMARK    4  A    between atoms: S_2  and  C_6
REMARK    5  A    between atoms: C_6  and  C_8
REMARK    6  A    between atoms: C_8  and  C_9
REMARK    7  A    between atoms: C_9  and  C_10
REMARK    8  A    between atoms: C_12  and  CA_13
REMARK    9  A    between atoms: CA_13  and  N_14
REMARK   10  A    between atoms: CA_13  and  C_19
REMARK   11  A    between atoms: C_19  and  O_20
REMARK                            x       y       z     vdW  Elec       q    Type
REMARK                         _______ _______ _______ _____ _____    ______ ____
ROOT
ATOM      1  C   UNL     1       1.186   0.279   0.231  0.00  0.00    +0.081 C 
ENDROOT
BRANCH   1   2
ATOM      2  S   UNL     1      -0.317   1.005  -0.382  0.00  0.00    -0.013 S 
ATOM      3  O   UNL     1      -0.274   0.904  -1.831  0.00  0.00    -0.156 OA
BRANCH   2   4
ATOM      4  N   UNL     1      -0.543   2.309   0.415  0.00  0.00    -0.183 NA
ATOM      5  H   UNL     1      -1.331   2.869   0.229  0.00  0.00    +0.156 HD
ENDBRANCH   2   4
BRANCH   2   6
ATOM      6  C   UNL     1      -1.552  -0.147   0.171  0.00  0.00    +0.071 C 
ATOM      7  C   UNL     1      -1.267  -1.520  -0.430  0.00  0.00    +0.014 C 
BRANCH   6   8
ATOM      8  C   UNL     1      -2.965   0.322  -0.197  0.00  0.00    +0.013 C 
BRANCH   8   9
ATOM      9  C   UNL     1      -4.066  -0.587   0.359  0.00  0.00    +0.001 C 
BRANCH   9  10
ATOM     10  C   UNL     1      -5.455  -0.038   0.029  0.00  0.00    +0.000 C 
ATOM     11  C   UNL     1      -6.553  -0.951   0.552  0.00  0.00    +0.000 C 
ENDBRANCH   9  10
ENDBRANCH   8   9
ENDBRANCH   6   8
ENDBRANCH   2   6
ENDBRANCH   1   2
BRANCH   1  12
ATOM     12  C   UNL     1       2.399   1.125  -0.140  0.00  0.00    +0.003 C 
BRANCH  12  13
ATOM     13  CA  UNL     1       3.706   0.531   0.402  0.00  0.00    +0.037 C 
BRANCH  13  14
ATOM     14  N   UNL     1       3.626   0.411   1.855  0.00  0.00    +0.389 N 
ATOM     15  H1  UNL     1       3.453   1.329   2.263  0.00  0.00    -0.088 HD
ATOM     16  H2  UNL     1       4.505   0.039   2.215  0.00  0.00    -0.088 HD
ATOM     17  H3  UNL     1       2.863  -0.220   2.102  0.00  0.00    -0.088 HD
ENDBRANCH  13  14
BRANCH  13  19
ATOM     18  OXT UNL     1       4.057  -1.874   0.569  0.00  0.00    -0.253 OA
ATOM     19  C   UNL     1       3.963  -0.869  -0.123  0.00  0.00    +0.293 C 
BRANCH  19  20
ATOM     20  O   UNL     1       4.055  -0.899  -1.479  0.00  0.00    -0.482 OA
ATOM     21  H   UNL     1       3.978  -0.105  -1.971  0.00  0.00    +0.295 HD
ENDBRANCH  19  20
ENDBRANCH  13  19
ENDBRANCH  12  13
ENDBRANCH   1  12
TORSDOF 11
