134343
  -OEChem-03292013323D

 38 37  0     1  0  0  0  0  0999 V2000
   -0.3173    1.0048   -0.3823 S   0  0  1  0  0  0  0  0  0  0  0  0
   -0.2740    0.9040   -1.8307 O   0  0  0  0  0  0  0  0  0  0  0  0
    4.0552   -0.8987   -1.4792 O   0  0  0  0  0  0  0  0  0  0  0  0
    4.0569   -1.8743    0.5694 O   0  0  0  0  0  0  0  0  0  0  0  0
   -0.5433    2.3086    0.4155 N   0  0  0  0  0  0  0  0  0  0  0  0
    3.6257    0.4108    1.8550 N   0  0  0  0  0  0  0  0  0  0  0  0
   -1.5516   -0.1470    0.1707 C   0  0  1  0  0  0  0  0  0  0  0  0
   -2.9647    0.3219   -0.1973 C   0  0  0  0  0  0  0  0  0  0  0  0
    1.1858    0.2793    0.2305 C   0  0  0  0  0  0  0  0  0  0  0  0
   -4.0660   -0.5868    0.3593 C   0  0  0  0  0  0  0  0  0  0  0  0
    2.3992    1.1251   -0.1401 C   0  0  0  0  0  0  0  0  0  0  0  0
   -1.2671   -1.5202   -0.4300 C   0  0  0  0  0  0  0  0  0  0  0  0
    3.7061    0.5310    0.4016 C   0  0  2  0  0  0  0  0  0  0  0  0
   -5.4551   -0.0384    0.0289 C   0  0  0  0  0  0  0  0  0  0  0  0
   -6.5530   -0.9508    0.5520 C   0  0  0  0  0  0  0  0  0  0  0  0
    3.9632   -0.8693   -0.1234 C   0  0  0  0  0  0  0  0  0  0  0  0
   -1.4618   -0.2049    1.2622 H   0  0  0  0  0  0  0  0  0  0  0  0
   -3.1307    1.3345    0.1882 H   0  0  0  0  0  0  0  0  0  0  0  0
   -3.0633    0.3908   -1.2884 H   0  0  0  0  0  0  0  0  0  0  0  0
    1.0714    0.1658    1.3126 H   0  0  0  0  0  0  0  0  0  0  0  0
    1.2956   -0.7047   -0.2260 H   0  0  0  0  0  0  0  0  0  0  0  0
   -3.9544   -0.6804    1.4461 H   0  0  0  0  0  0  0  0  0  0  0  0
   -3.9888   -1.5919   -0.0670 H   0  0  0  0  0  0  0  0  0  0  0  0
    2.2795    2.1448    0.2473 H   0  0  0  0  0  0  0  0  0  0  0  0
    2.4613    1.2190   -1.2314 H   0  0  0  0  0  0  0  0  0  0  0  0
   -0.3012   -1.9224   -0.1190 H   0  0  0  0  0  0  0  0  0  0  0  0
   -1.2894   -1.5027   -1.5246 H   0  0  0  0  0  0  0  0  0  0  0  0
   -1.9950   -2.2651   -0.0964 H   0  0  0  0  0  0  0  0  0  0  0  0
    4.5587    1.1649    0.1355 H   0  0  0  0  0  0  0  0  0  0  0  0
   -5.5761    0.9586    0.4681 H   0  0  0  0  0  0  0  0  0  0  0  0
   -5.5650    0.0693   -1.0566 H   0  0  0  0  0  0  0  0  0  0  0  0
   -1.4563    2.7457    0.2650 H   0  0  0  0  0  0  0  0  0  0  0  0
   -6.4895   -1.0570    1.6397 H   0  0  0  0  0  0  0  0  0  0  0  0
   -6.4820   -1.9473    0.1045 H   0  0  0  0  0  0  0  0  0  0  0  0
   -7.5369   -0.5383    0.3077 H   0  0  0  0  0  0  0  0  0  0  0  0
    4.5252    0.1048    2.2247 H   0  0  0  0  0  0  0  0  0  0  0  0
    3.4488    1.3270    2.2652 H   0  0  0  0  0  0  0  0  0  0  0  0
    4.2079   -1.8076   -1.8153 H   0  0  0  0  0  0  0  0  0  0  0  0
  1  2  2  0  0  0  0
  1  5  2  0  0  0  0
  1  7  1  0  0  0  0
  1  9  1  0  0  0  0
  3 16  1  0  0  0  0
  3 38  1  0  0  0  0
  4 16  2  0  0  0  0
  5 32  1  0  0  0  0
  6 13  1  0  0  0  0
  6 36  1  0  0  0  0
  6 37  1  0  0  0  0
  7  8  1  0  0  0  0
  7 12  1  0  0  0  0
  7 17  1  0  0  0  0
  8 10  1  0  0  0  0
  8 18  1  0  0  0  0
  8 19  1  0  0  0  0
  9 11  1  0  0  0  0
  9 20  1  0  0  0  0
  9 21  1  0  0  0  0
 10 14  1  0  0  0  0
 10 22  1  0  0  0  0
 10 23  1  0  0  0  0
 11 13  1  0  0  0  0
 11 24  1  0  0  0  0
 11 25  1  0  0  0  0
 12 26  1  0  0  0  0
 12 27  1  0  0  0  0
 12 28  1  0  0  0  0
 13 16  1  0  0  0  0
 13 29  1  0  0  0  0
 14 15  1  0  0  0  0
 14 30  1  0  0  0  0
 14 31  1  0  0  0  0
 15 33  1  0  0  0  0
 15 34  1  0  0  0  0
 15 35  1  0  0  0  0
M  END
> <PUBCHEM_COMPOUND_CID>
134343

> <PUBCHEM_CONFORMER_RMSD>
0.8

> <PUBCHEM_CONFORMER_DIVERSEORDER>
6
40
112
81
50
77
110
63
70
115
101
59
7
85
106
18
99
67
76
29
44
84
68
1
39
92
116
114
90
22
55
17
111
3
10
102
52
95
69
88
37
43
20
23
72
12
96
35
107
30
83
87
74
86
16
45
15
78
80
98
34
82
5
79
100
36
51
120
103
73
53
66
46
121
109
108
21
38
48
105
19
25
31
57
65
24
33
119
61
62
49
94
54
56
122
9
13
71
27
14
97
75
11
2
26
118
60
113
89
28
41
58
91
47
42
4
93
8
64
32
104
117

> <PUBCHEM_MMFF94_PARTIAL_CHARGES>
14
1 1.03
13 0.33
16 0.66
2 -0.65
3 -0.65
32 0.4
36 0.36
37 0.36
38 0.5
4 -0.57
5 -0.99
6 -0.99
7 0.11
9 0.11

> <PUBCHEM_EFFECTIVE_ROTOR_COUNT>
8

> <PUBCHEM_PHARMACOPHORE_FEATURES>
7
1 15 hydrophobe
1 2 acceptor
1 3 acceptor
1 4 acceptor
1 6 cation
1 6 donor
3 3 4 16 anion

> <PUBCHEM_HEAVY_ATOM_COUNT>
16

> <PUBCHEM_ATOM_DEF_STEREO_COUNT>
1

> <PUBCHEM_ATOM_UDEF_STEREO_COUNT>
1

> <PUBCHEM_BOND_DEF_STEREO_COUNT>
0

> <PUBCHEM_BOND_UDEF_STEREO_COUNT>
0

> <PUBCHEM_ISOTOPIC_ATOM_COUNT>
0

> <PUBCHEM_COMPONENT_COUNT>
1

> <PUBCHEM_CACTVS_TAUTO_COUNT>
1

> <PUBCHEM_CONFORMER_ID>
00020CC700000006

> <PUBCHEM_MMFF94_ENERGY>
10.2416

> <PUBCHEM_FEATURE_SELFOVERLAP>
35.58

> <PUBCHEM_SHAPE_FINGERPRINT>
11128504 68 13045942425920005195
11287383 113 8070023372460728689
12616999 72 15140958448505170264
13533116 47 17346604053748486366
13675066 3 18342453764123233329
13690532 89 18410013247670663705
13862211 1 18412260645290914471
14366163 111 12829488164312906567
14528608 73 7925915868165696627
15885798 251 18410292510396721881
17834072 33 14129060339852979747
1813 80 17676488349818261053
18222031 100 17822010925957821421
19141452 34 18201716301580173799
20645477 70 17967532401968705664
212847 35 13039188113095145370
22079108 93 12895348902659472325
22959321 54 9583517637890753742
23352939 185 13623531251389310423
23402539 116 17489866047330426205
23559900 14 18272373130578310484
270888 7 10879121662934024370
31174 14 17775276188699195776
4047638 21 9295289439229334820
4072396 5 15626228992056023677
465052 167 18413114960897746087
5104073 3 18200025145142968520
5374978 207 17275103933516997336
59755656 215 18187641385109479351
7164475 11 15069446160605315004

> <PUBCHEM_SHAPE_MULTIPOLES>
305.55
12.18
1.61
1.14
12.47
0.11
0.1
-5.03
-2.42
-0.8
0
-1
0.08
0.43

> <PUBCHEM_SHAPE_SELFOVERLAP>
565.028

> <PUBCHEM_SHAPE_VOLUME>
192.4

> <PUBCHEM_COORDINATE_TYPE>
2
5
10

$$$$
