134319
  -OEChem-03292013323D

 26 26  0     0  0  0  0  0  0999 V2000
   -2.7586   -0.5012   -0.6882 O   0  0  0  0  0  0  0  0  0  0  0  0
    2.7584   -0.5016   -0.6883 O   0  0  0  0  0  0  0  0  0  0  0  0
   -2.7154   -1.1142    1.5706 O   0  0  0  0  0  0  0  0  0  0  0  0
    2.7157   -1.1112    1.5714 O   0  0  0  0  0  0  0  0  0  0  0  0
   -2.0261    2.8436    0.2183 N   0  0  0  0  0  0  0  0  0  0  0  0
    2.0263    2.8431    0.2188 N   0  0  0  0  0  0  0  0  0  0  0  0
   -1.3950   -0.4692   -0.6794 C   0  0  0  0  0  0  0  0  0  0  0  0
    1.3948   -0.4694   -0.6793 C   0  0  0  0  0  0  0  0  0  0  0  0
   -0.6975    0.6967   -0.3634 C   0  0  0  0  0  0  0  0  0  0  0  0
    0.6975    0.6966   -0.3634 C   0  0  0  0  0  0  0  0  0  0  0  0
   -0.6977   -1.6351   -0.9954 C   0  0  0  0  0  0  0  0  0  0  0  0
    0.6973   -1.6352   -0.9952 C   0  0  0  0  0  0  0  0  0  0  0  0
   -3.3294   -0.8499    0.5455 C   0  0  0  0  0  0  0  0  0  0  0  0
    3.3295   -0.8506    0.5451 C   0  0  0  0  0  0  0  0  0  0  0  0
   -1.4337    1.8865   -0.0411 C   0  0  0  0  0  0  0  0  0  0  0  0
    1.4339    1.8862   -0.0407 C   0  0  0  0  0  0  0  0  0  0  0  0
   -4.8251   -0.8571    0.4327 C   0  0  0  0  0  0  0  0  0  0  0  0
    4.8252   -0.8580    0.4320 C   0  0  0  0  0  0  0  0  0  0  0  0
   -1.2337   -2.5473   -1.2436 H   0  0  0  0  0  0  0  0  0  0  0  0
    1.2332   -2.5474   -1.2434 H   0  0  0  0  0  0  0  0  0  0  0  0
   -5.1787    0.1386    0.1539 H   0  0  0  0  0  0  0  0  0  0  0  0
   -5.2606   -1.1244    1.3997 H   0  0  0  0  0  0  0  0  0  0  0  0
   -5.1358   -1.5982   -0.3078 H   0  0  0  0  0  0  0  0  0  0  0  0
    5.1351   -1.5911   -0.3167 H   0  0  0  0  0  0  0  0  0  0  0  0
    5.2605   -1.1372    1.3957 H   0  0  0  0  0  0  0  0  0  0  0  0
    5.1795    0.1404    0.1641 H   0  0  0  0  0  0  0  0  0  0  0  0
  1  7  1  0  0  0  0
  1 13  1  0  0  0  0
  2  8  1  0  0  0  0
  2 14  1  0  0  0  0
  3 13  2  0  0  0  0
  4 14  2  0  0  0  0
  5 15  3  0  0  0  0
  6 16  3  0  0  0  0
  7  9  2  0  0  0  0
  7 11  1  0  0  0  0
  8 10  2  0  0  0  0
  8 12  1  0  0  0  0
  9 10  1  0  0  0  0
  9 15  1  0  0  0  0
 10 16  1  0  0  0  0
 11 12  2  0  0  0  0
 11 19  1  0  0  0  0
 12 20  1  0  0  0  0
 13 17  1  0  0  0  0
 14 18  1  0  0  0  0
 17 21  1  0  0  0  0
 17 22  1  0  0  0  0
 17 23  1  0  0  0  0
 18 24  1  0  0  0  0
 18 25  1  0  0  0  0
 18 26  1  0  0  0  0
M  END
> <PUBCHEM_COMPOUND_CID>
134319

> <PUBCHEM_CONFORMER_RMSD>
0.6

> <PUBCHEM_CONFORMER_DIVERSEORDER>
1
21
37
14
17
34
27
4
3
15
18
12
22
2
8
11
9
23
24
19
25
30
10
35
20
36
26
13
31
5
32
28
29
6
33
7
16

> <PUBCHEM_MMFF94_PARTIAL_CHARGES>
20
1 -0.23
10 0.07
11 -0.15
12 -0.15
13 0.66
14 0.66
15 0.48
16 0.48
17 0.06
18 0.06
19 0.15
2 -0.23
20 0.15
3 -0.57
4 -0.57
5 -0.56
6 -0.56
7 0.08
8 0.08
9 0.07

> <PUBCHEM_EFFECTIVE_ROTOR_COUNT>
4

> <PUBCHEM_PHARMACOPHORE_FEATURES>
5
1 3 acceptor
1 4 acceptor
1 5 acceptor
1 6 acceptor
6 7 8 9 10 11 12 rings

> <PUBCHEM_HEAVY_ATOM_COUNT>
18

> <PUBCHEM_ATOM_DEF_STEREO_COUNT>
0

> <PUBCHEM_ATOM_UDEF_STEREO_COUNT>
0

> <PUBCHEM_BOND_DEF_STEREO_COUNT>
0

> <PUBCHEM_BOND_UDEF_STEREO_COUNT>
0

> <PUBCHEM_ISOTOPIC_ATOM_COUNT>
0

> <PUBCHEM_COMPONENT_COUNT>
1

> <PUBCHEM_CACTVS_TAUTO_COUNT>
1

> <PUBCHEM_CONFORMER_ID>
00020CAF00000001

> <PUBCHEM_MMFF94_ENERGY>
47.034

> <PUBCHEM_FEATURE_SELFOVERLAP>
25.374

> <PUBCHEM_SHAPE_FINGERPRINT>
11086676 242 18411140251035941858
11132069 177 17847065488788041519
11796584 16 17168143438552639475
12251169 10 18343020020816591158
12382932 28 18124874556229227156
12633257 1 18337408088231304307
12644460 14 18337115690978660048
12824470 246 17458902647917840051
13140716 1 18269272546126397695
13172582 1 18272651276681073350
13544592 271 18127399051874511093
14022349 108 18269271442741685328
14178342 30 18056770818647142777
14420673 8 17331386586005302626
15209294 21 17131837529705407227
15375462 189 18260819419676160466
16945 1 18343301470012825526
200 152 15936410022613619262
20510252 161 18130504133062152880
20559304 39 18410579487373907246
21029758 27 18408324384899208932
21501502 16 18336839627392080741
22112679 90 17844515819875284039
22182313 1 17915186714923003094
2334 1 17910387625788056215
23402539 116 18412537709367841383
23419403 2 18115566249491471077
23559900 14 17386006229587049407
23598294 1 18265321812364785050
25147074 1 17913481612911869670
2748010 2 17913496735433625190
350125 39 18413393145950977068
465052 167 18336836380644776675

> <PUBCHEM_SHAPE_MULTIPOLES>
336.99
7.08
2.49
1.1
0
2.29
0.23
-3.03
2.65
0
0.01
0
-0.5
0

> <PUBCHEM_SHAPE_SELFOVERLAP>
710.546

> <PUBCHEM_SHAPE_VOLUME>
182.1

> <PUBCHEM_COORDINATE_TYPE>
2
5
10

$$$$
