REMARK  Name = 134303
REMARK  11 active torsions:
REMARK  status: ('A' for Active; 'I' for Inactive)
REMARK    1  A    between atoms: C_1  and  C_4
REMARK    2  A    between atoms: C_1  and  N_16
REMARK    3  A    between atoms: C_1  and  C_27
REMARK    4  A    between atoms: N_3  and  C_6
REMARK    5  A    between atoms: C_11  and  N_14
REMARK    6  A    between atoms: C_17  and  O_19
REMARK    7  A    between atoms: O_19  and  C_20
REMARK    8  A    between atoms: C_20  and  C_21
REMARK    9  A    between atoms: C_27  and  C_28
REMARK   10  A    between atoms: C_28  and  C_29
REMARK   11  A    between atoms: C_29  and  N_31
REMARK                            x       y       z     vdW  Elec       q    Type
REMARK                         _______ _______ _______ _____ _____    ______ ____
ROOT
ATOM      1  C   UNL     1       0.440   0.488   1.017  0.00  0.00    +0.151 C 
ENDROOT
BRANCH   1   4
ATOM      2  O   UNL     1      -0.330  -1.181  -0.547  0.00  0.00    -0.273 OA
ATOM      3  N   UNL     1      -1.874  -0.183   0.910  0.00  0.00    -0.283 N 
ATOM      4  C   UNL     1      -0.618  -0.390   0.347  0.00  0.00    +0.244 C 
ATOM      5  H   UNL     1      -1.920   0.477   1.640  0.00  0.00    +0.155 HD
BRANCH   3   6
ATOM      6  C   UNL     1      -3.093  -0.809   0.558  0.00  0.00    +0.050 C 
ATOM      7  C   UNL     1      -3.119  -1.760  -0.463  0.00  0.00    +0.016 C 
ATOM      8  C   UNL     1      -4.269  -0.476   1.231  0.00  0.00    +0.016 C 
ATOM      9  C   UNL     1      -4.321  -2.377  -0.810  0.00  0.00    +0.025 C 
ATOM     10  C   UNL     1      -5.470  -1.094   0.884  0.00  0.00    +0.025 C 
ATOM     11  C   UNL     1      -5.496  -2.045  -0.137  0.00  0.00    +0.143 C 
BRANCH  11  14
ATOM     12  O   UNL     1      -7.765  -2.360   0.127  0.00  0.00    -0.126 OA
ATOM     13  O   UNL     1      -6.721  -3.526  -1.412  0.00  0.00    -0.126 OA
ATOM     14  N   UNL     1      -6.719  -2.673  -0.490  0.00  0.00    +0.058 N 
ENDBRANCH  11  14
ENDBRANCH   3   6
ENDBRANCH   1   4
BRANCH   1  16
ATOM     15  O   UNL     1       2.965   0.491   2.453  0.00  0.00    -0.226 OA
ATOM     16  N   UNL     1       1.739   0.118   0.518  0.00  0.00    -0.264 N 
ATOM     17  C   UNL     1       2.893   0.150   1.277  0.00  0.00    +0.402 C 
ATOM     18  H   UNL     1       1.809  -0.175  -0.419  0.00  0.00    +0.153 HD
BRANCH  17  19
ATOM     19  O   UNL     1       3.957  -0.257   0.522  0.00  0.00    -0.430 OA
BRANCH  19  20
ATOM     20  C   UNL     1       5.225  -0.273   1.186  0.00  0.00    +0.237 C 
BRANCH  20  21
ATOM     21  C   UNL     1       6.277  -0.740   0.223  0.00  0.00    +0.021 C 
ATOM     22  C   UNL     1       6.571  -2.100   0.118  0.00  0.00    -0.001 C 
ATOM     23  C   UNL     1       6.959   0.184  -0.567  0.00  0.00    -0.001 C 
ATOM     24  C   UNL     1       7.548  -2.534  -0.777  0.00  0.00    -0.000 C 
ATOM     25  C   UNL     1       7.936  -0.250  -1.463  0.00  0.00    -0.000 C 
ATOM     26  C   UNL     1       8.231  -1.610  -1.567  0.00  0.00    -0.000 C 
ENDBRANCH  20  21
ENDBRANCH  19  20
ENDBRANCH  17  19
ENDBRANCH   1  16
BRANCH   1  27
ATOM     27  C   UNL     1       0.167   1.987   0.843  0.00  0.00    +0.031 C 
BRANCH  27  28
ATOM     28  C   UNL     1       0.075   2.441  -0.619  0.00  0.00    +0.024 C 
BRANCH  28  29
ATOM     29  C   UNL     1      -0.258   3.926  -0.713  0.00  0.00    +0.091 C 
BRANCH  29  31
ATOM     30  O   UNL     1      -2.891   3.916  -1.928  0.00  0.00    -0.253 OA
ATOM     31  N   UNL     1      -1.512   4.222  -0.078  0.00  0.00    -0.289 N 
ATOM     32  N   UNL     1      -3.791   4.518   0.096  0.00  0.00    -0.313 N 
ATOM     33  C   UNL     1      -2.737   4.194  -0.740  0.00  0.00    +0.298 C 
ATOM     34  H   UNL     1      -1.506   4.458   0.877  0.00  0.00    +0.151 HD
ATOM     35  H   UNL     1      -4.711   4.532  -0.254  0.00  0.00    +0.146 HD
ATOM     36  H   UNL     1      -3.621   4.733   1.042  0.00  0.00    +0.146 HD
ENDBRANCH  29  31
ENDBRANCH  28  29
ENDBRANCH  27  28
ENDBRANCH   1  27
TORSDOF 11
