REMARK  Name = 134364
REMARK  6 active torsions:
REMARK  status: ('A' for Active; 'I' for Inactive)
REMARK    1  A    between atoms: C_2  and  O_18
REMARK    2  A    between atoms: C_3  and  O_16
REMARK    3  A    between atoms: C_4  and  N_7
REMARK    4  A    between atoms: C_5  and  C_22
REMARK    5  A    between atoms: O_18  and  N_21
REMARK    6  A    between atoms: C_22  and  O_23
REMARK                            x       y       z     vdW  Elec       q    Type
REMARK                         _______ _______ _______ _____ _____    ______ ____
ROOT
ATOM      1  O   UNL     1      -0.727  -1.644   0.567  0.00  0.00    -0.331 OA
ATOM      2  C   UNL     1      -1.082   0.690   0.708  0.00  0.00    +0.277 C 
ATOM      3  C   UNL     1      -2.424   0.009   0.879  0.00  0.00    +0.187 C 
ATOM      4  C   UNL     1      -0.121  -0.438   1.051  0.00  0.00    +0.253 C 
ATOM      5  C   UNL     1      -2.149  -1.434   0.452  0.00  0.00    +0.177 C 
ENDROOT
BRANCH   4   7
ATOM      6  O   UNL     1       2.091   0.742   2.337  0.00  0.00    -0.193 OA
ATOM      7  N   UNL     1       1.185  -0.291   0.482  0.00  0.00    -0.177 N 
ATOM      8  N   UNL     1       3.492   0.424   0.580  0.00  0.00    -0.306 NA
ATOM      9  N   UNL     1       4.922   0.097  -1.225  0.00  0.00    -0.332 N 
ATOM     10  C   UNL     1       1.411  -0.756  -0.806  0.00  0.00    +0.084 C 
ATOM     11  C   UNL     1       2.255   0.316   1.192  0.00  0.00    +0.276 C 
ATOM     12  C   UNL     1       2.593  -0.660  -1.413  0.00  0.00    +0.065 C 
ATOM     13  C   UNL     1       3.685  -0.020  -0.634  0.00  0.00    +0.193 C 
ATOM     14  H   UNL     1       5.664   0.517  -0.733  0.00  0.00    +0.145 HD
ATOM     15  H   UNL     1       5.065  -0.238  -2.139  0.00  0.00    +0.145 HD
ENDBRANCH   4   7
BRANCH   3  16
ATOM     16  O   UNL     1      -2.780   0.009   2.259  0.00  0.00    -0.378 OA
ATOM     17  H   UNL     1      -2.958   0.918   2.547  0.00  0.00    +0.211 HD
ENDBRANCH   3  16
BRANCH   2  18
ATOM     18  O   UNL     1      -0.947   1.089  -0.651  0.00  0.00    -0.333 OA
BRANCH  18  21
ATOM     19  O   UNL     1      -2.374   2.709  -0.166  0.00  0.00    -0.090 OA
ATOM     20  O   UNL     1      -2.283   1.967  -2.267  0.00  0.00    -0.090 OA
ATOM     21  N   UNL     1      -1.955   1.996  -1.079  0.00  0.00    +0.218 N 
ENDBRANCH  18  21
ENDBRANCH   2  18
BRANCH   5  22
ATOM     22  C   UNL     1      -2.549  -1.726  -0.988  0.00  0.00    +0.169 C 
BRANCH  22  23
ATOM     23  O   UNL     1      -2.242  -3.078  -1.279  0.00  0.00    -0.379 OA
ATOM     24  H   UNL     1      -2.493  -3.276  -2.195  0.00  0.00    +0.211 HD
ENDBRANCH  22  23
ENDBRANCH   5  22
TORSDOF 6
