REMARK  Name = 134305
REMARK  9 active torsions:
REMARK  status: ('A' for Active; 'I' for Inactive)
REMARK    1  A    between atoms: N_2  and  C_18
REMARK    2  A    between atoms: C_3  and  C_5
REMARK    3  A    between atoms: C_5  and  N_7
REMARK    4  A    between atoms: C_5  and  C_11
REMARK    5  A    between atoms: C_11  and  C_12
REMARK    6  A    between atoms: C_18  and  C_19
REMARK    7  A    between atoms: C_19  and  S_20
REMARK    8  A    between atoms: S_20  and  S_21
REMARK    9  A    between atoms: S_21  and  C_23
REMARK                            x       y       z     vdW  Elec       q    Type
REMARK                         _______ _______ _______ _____ _____    ______ ____
ROOT
ATOM      1  O   UNL     1       0.252   2.680   1.304  0.00  0.00    -0.273 OA
ATOM      2  N   UNL     1      -0.269   2.346  -0.934  0.00  0.00    -0.302 N 
ATOM      3  C   UNL     1       0.412   2.078   0.245  0.00  0.00    +0.241 C 
ATOM      4  H   UNL     1      -0.063   1.801  -1.727  0.00  0.00    +0.150 HD
ENDROOT
BRANCH   3   5
ATOM      5  C   UNL     1       1.442   0.967   0.069  0.00  0.00    +0.153 C 
BRANCH   5   7
ATOM      6  O   UNL     1       3.692   2.633  -0.698  0.00  0.00    -0.275 OA
ATOM      7  N   UNL     1       2.586   1.317   0.872  0.00  0.00    -0.298 N 
ATOM      8  C   UNL     1       3.618   2.123   0.417  0.00  0.00    +0.223 C 
ATOM      9  C   UNL     1       4.674   2.349   1.465  0.00  0.00    +0.095 C 
ATOM     10  H   UNL     1       2.639   0.965   1.790  0.00  0.00    +0.150 HD
ENDBRANCH   5   7
BRANCH   5  11
ATOM     11  C   UNL     1       0.842  -0.385   0.473  0.00  0.00    +0.055 C 
BRANCH  11  12
ATOM     12  C   UNL     1       1.615  -1.555  -0.084  0.00  0.00    -0.020 C 
ATOM     13  C   UNL     1       2.666  -2.109   0.647  0.00  0.00    -0.004 C 
ATOM     14  C   UNL     1       1.278  -2.083  -1.331  0.00  0.00    -0.004 C 
ATOM     15  C   UNL     1       3.380  -3.191   0.132  0.00  0.00    -0.000 C 
ATOM     16  C   UNL     1       1.992  -3.165  -1.846  0.00  0.00    -0.000 C 
ATOM     17  C   UNL     1       3.043  -3.719  -1.115  0.00  0.00    -0.000 C 
ENDBRANCH  11  12
ENDBRANCH   5  11
ENDBRANCH   3   5
BRANCH   2  18
ATOM     18  C   UNL     1      -1.265   3.386  -1.056  0.00  0.00    +0.102 C 
BRANCH  18  19
ATOM     19  C   UNL     1      -2.673   2.903  -0.738  0.00  0.00    +0.090 C 
BRANCH  19  20
ATOM     20  S   UNL     1      -3.221   1.590  -1.871  0.00  0.00    -0.074 S 
BRANCH  20  21
ATOM     21  S   UNL     1      -4.743   0.727  -0.792  0.00  0.00    -0.036 S 
BRANCH  21  23
ATOM     22  N   UNL     1      -3.228  -1.470  -0.596  0.00  0.00    -0.237 NA
ATOM     23  C   UNL     1      -3.875  -0.530   0.128  0.00  0.00    +0.116 C 
ATOM     24  C   UNL     1      -3.898  -0.498   1.514  0.00  0.00    +0.026 C 
ATOM     25  C   UNL     1      -3.212  -1.494   2.199  0.00  0.00    +0.004 C 
ATOM     26  C   UNL     1      -2.534  -2.479   1.488  0.00  0.00    +0.021 C 
ATOM     27  C   UNL     1      -2.572  -2.422   0.104  0.00  0.00    +0.099 C 
ENDBRANCH  21  23
ENDBRANCH  20  21
ENDBRANCH  19  20
ENDBRANCH  18  19
ENDBRANCH   2  18
TORSDOF 9
