REMARK  Name = 134319
REMARK  6 active torsions:
REMARK  status: ('A' for Active; 'I' for Inactive)
REMARK    1  A    between atoms: C_1  and  O_11
REMARK    2  A    between atoms: C_2  and  O_15
REMARK    3  A    between atoms: C_3  and  C_8
REMARK    4  A    between atoms: C_4  and  C_10
REMARK    5  A    between atoms: O_11  and  C_13
REMARK    6  A    between atoms: O_15  and  C_17
REMARK                            x       y       z     vdW  Elec       q    Type
REMARK                         _______ _______ _______ _____ _____    ______ ____
ROOT
ATOM      1  C   UNL     1      -1.395  -0.469  -0.679  0.00  0.00    +0.159 C 
ATOM      2  C   UNL     1       1.395  -0.469  -0.679  0.00  0.00    +0.159 C 
ATOM      3  C   UNL     1      -0.698   0.697  -0.363  0.00  0.00    +0.116 C 
ATOM      4  C   UNL     1       0.698   0.697  -0.363  0.00  0.00    +0.116 C 
ATOM      5  C   UNL     1      -0.698  -1.635  -0.995  0.00  0.00    +0.041 C 
ATOM      6  C   UNL     1       0.697  -1.635  -0.995  0.00  0.00    +0.041 C 
ENDROOT
BRANCH   3   8
ATOM      7  N   UNL     1      -2.026   2.844   0.218  0.00  0.00    -0.191 NA
ATOM      8  C   UNL     1      -1.434   1.887  -0.041  0.00  0.00    +0.104 C 
ENDBRANCH   3   8
BRANCH   4  10
ATOM      9  N   UNL     1       2.026   2.843   0.219  0.00  0.00    -0.191 NA
ATOM     10  C   UNL     1       1.434   1.886  -0.041  0.00  0.00    +0.104 C 
ENDBRANCH   4  10
BRANCH   1  11
ATOM     11  O   UNL     1      -2.759  -0.501  -0.688  0.00  0.00    -0.423 OA
BRANCH  11  13
ATOM     12  O   UNL     1      -2.715  -1.114   1.571  0.00  0.00    -0.250 OA
ATOM     13  C   UNL     1      -3.329  -0.850   0.545  0.00  0.00    +0.322 C 
ATOM     14  C   UNL     1      -4.825  -0.857   0.433  0.00  0.00    +0.122 C 
ENDBRANCH  11  13
ENDBRANCH   1  11
BRANCH   2  15
ATOM     15  O   UNL     1       2.758  -0.502  -0.688  0.00  0.00    -0.423 OA
BRANCH  15  17
ATOM     16  O   UNL     1       2.716  -1.111   1.571  0.00  0.00    -0.250 OA
ATOM     17  C   UNL     1       3.329  -0.851   0.545  0.00  0.00    +0.322 C 
ATOM     18  C   UNL     1       4.825  -0.858   0.432  0.00  0.00    +0.122 C 
ENDBRANCH  15  17
ENDBRANCH   2  15
TORSDOF 6
