REMARK  Name = 134307
REMARK  7 active torsions:
REMARK  status: ('A' for Active; 'I' for Inactive)
REMARK    1  A    between atoms: C_3  and  C_19
REMARK    2  A    between atoms: C_4  and  C_8
REMARK    3  A    between atoms: C_9  and  C_11
REMARK    4  A    between atoms: N_18  and  C_21
REMARK    5  A    between atoms: C_21  and  C_22
REMARK    6  A    between atoms: C_22  and  C_23
REMARK    7  A    between atoms: C_23  and  S_24
REMARK                            x       y       z     vdW  Elec       q    Type
REMARK                         _______ _______ _______ _____ _____    ______ ____
ROOT
ATOM      1  S   UNL     1      -0.382   2.518   1.088  0.00  0.00    -0.072 S 
ATOM      2  N   UNL     1       1.044   0.953  -0.396  0.00  0.00    -0.392 NA
ATOM      3  C   UNL     1       1.834   1.925   0.124  0.00  0.00    +0.174 C 
ATOM      4  C   UNL     1      -0.174   1.166   0.051  0.00  0.00    +0.183 C 
ATOM      5  C   UNL     1       1.292   2.861   0.936  0.00  0.00    +0.128 C 
ENDROOT
BRANCH   4   8
ATOM      6  S   UNL     1      -2.668  -1.578  -1.352  0.00  0.00    -0.075 S 
ATOM      7  N   UNL     1      -2.580   0.519   0.157  0.00  0.00    -0.396 NA
ATOM      8  C   UNL     1      -1.306   0.288  -0.318  0.00  0.00    +0.156 C 
ATOM      9  C   UNL     1      -3.382  -0.404  -0.324  0.00  0.00    +0.157 C 
ATOM     10  C   UNL     1      -1.154  -0.799  -1.148  0.00  0.00    +0.127 C 
BRANCH   9  11
ATOM     11  C   UNL     1      -4.797  -0.494  -0.050  0.00  0.00    +0.036 C 
ATOM     12  C   UNL     1      -5.489   0.625   0.411  0.00  0.00    +0.003 C 
ATOM     13  C   UNL     1      -5.470  -1.699  -0.248  0.00  0.00    +0.003 C 
ATOM     14  C   UNL     1      -6.856   0.539   0.676  0.00  0.00    +0.000 C 
ATOM     15  C   UNL     1      -6.837  -1.785   0.017  0.00  0.00    +0.000 C 
ATOM     16  C   UNL     1      -7.530  -0.666   0.479  0.00  0.00    +0.000 C 
ENDBRANCH   9  11
ENDBRANCH   4   8
BRANCH   3  19
ATOM     17  O   UNL     1       4.011   2.787   0.256  0.00  0.00    -0.268 OA
ATOM     18  N   UNL     1       3.704   0.906  -1.068  0.00  0.00    -0.299 N 
ATOM     19  C   UNL     1       3.279   1.925  -0.223  0.00  0.00    +0.272 C 
ATOM     20  H   UNL     1       3.040   0.261  -1.402  0.00  0.00    +0.150 HD
BRANCH  18  21
ATOM     21  C   UNL     1       5.075   0.758  -1.475  0.00  0.00    +0.091 C 
BRANCH  21  22
ATOM     22  C   UNL     1       5.880  -0.128  -0.528  0.00  0.00    +0.032 C 
BRANCH  22  23
ATOM     23  C   UNL     1       5.329  -1.547  -0.444  0.00  0.00    +0.050 C 
BRANCH  23  24
ATOM     24  S   UNL     1       6.319  -2.550   0.709  0.00  0.00    -0.178 S 
ATOM     25  C   UNL     1       5.406  -4.088   0.461  0.00  0.00    +0.059 C 
ATOM     26  C   UNL     1       5.453  -2.032   2.208  0.00  0.00    +0.059 C 
ENDBRANCH  23  24
ENDBRANCH  22  23
ENDBRANCH  21  22
ENDBRANCH  18  21
ENDBRANCH   3  19
TORSDOF 7
