REMARK  Name = 134339
REMARK  9 active torsions:
REMARK  status: ('A' for Active; 'I' for Inactive)
REMARK    1  A    between atoms: C_1  and  N_13
REMARK    2  A    between atoms: C_2  and  N_9
REMARK    3  A    between atoms: C_5  and  N_12
REMARK    4  A    between atoms: N_13  and  C_15
REMARK    5  A    between atoms: C_15  and  C_16
REMARK    6  A    between atoms: C_16  and  C_17
REMARK    7  A    between atoms: C_17  and  N_18
REMARK    8  A    between atoms: N_18  and  C_21
REMARK    9  A    between atoms: C_21  and  C_22
REMARK                            x       y       z     vdW  Elec       q    Type
REMARK                         _______ _______ _______ _____ _____    ______ ____
ROOT
ATOM      1  C   UNL     1      -0.586  -0.455   0.619  0.00  0.00    +0.067 C 
ATOM      2  C   UNL     1      -1.333   0.736   0.529  0.00  0.00    +0.157 C 
ATOM      3  C   UNL     1      -1.208  -1.658   0.234  0.00  0.00    +0.018 C 
ATOM      4  C   UNL     1      -2.651   0.724   0.073  0.00  0.00    +0.049 C 
ATOM      5  C   UNL     1      -3.248  -0.480  -0.302  0.00  0.00    +0.145 C 
ATOM      6  C   UNL     1      -2.526  -1.671  -0.222  0.00  0.00    +0.025 C 
ENDROOT
BRANCH   2   9
ATOM      7  O   UNL     1      -1.435   3.023   0.813  0.00  0.00    -0.126 OA
ATOM      8  O   UNL     1       0.437   1.990   1.314  0.00  0.00    -0.126 OA
ATOM      9  N   UNL     1      -0.748   1.978   0.904  0.00  0.00    +0.059 N 
ENDBRANCH   2   9
BRANCH   5  12
ATOM     10  O   UNL     1      -5.106  -1.588  -1.099  0.00  0.00    -0.126 OA
ATOM     11  O   UNL     1      -5.222   0.588  -0.831  0.00  0.00    -0.126 OA
ATOM     12  N   UNL     1      -4.590  -0.494  -0.767  0.00  0.00    +0.058 N 
ENDBRANCH   5  12
BRANCH   1  13
ATOM     13  N   UNL     1       0.725  -0.469   1.068  0.00  0.00    -0.331 N 
ATOM     14  H   UNL     1       1.135   0.387   1.330  0.00  0.00    +0.147 HD
BRANCH  13  15
ATOM     15  C   UNL     1       1.524  -1.666   1.174  0.00  0.00    +0.085 C 
BRANCH  15  16
ATOM     16  C   UNL     1       2.945  -1.330   1.624  0.00  0.00    -0.002 C 
BRANCH  16  17
ATOM     17  C   UNL     1       3.687  -0.348   0.712  0.00  0.00    -0.074 C 
BRANCH  17  18
ATOM     18  N   UNL     1       3.780  -0.839  -0.657  0.00  0.00    +0.394 N 
ATOM     19  C   UNL     1       4.555  -2.081  -0.708  0.00  0.00    -0.099 C 
ATOM     20  H   UNL     1       2.836  -1.032  -0.991  0.00  0.00    -0.078 HD
BRANCH  18  21
ATOM     21  C   UNL     1       4.383   0.171  -1.529  0.00  0.00    +0.003 C 
BRANCH  21  22
ATOM     22  C   UNL     1       3.618   1.421  -1.489  0.00  0.00    -0.101 C 
ATOM     23  C   UNL     1       2.996   2.447  -1.460  0.00  0.00    -0.016 C 
ENDBRANCH  21  22
ENDBRANCH  18  21
ENDBRANCH  17  18
ENDBRANCH  16  17
ENDBRANCH  15  16
ENDBRANCH  13  15
ENDBRANCH   1  13
TORSDOF 9
