134305
  -OEChem-03292013323D

 46 47  0     1  0  0  0  0  0999 V2000
   -3.2213    1.5896   -1.8710 S   0  0  0  0  0  0  0  0  0  0  0  0
   -4.7430    0.7274   -0.7916 S   0  0  0  0  0  0  0  0  0  0  0  0
    0.2517    2.6802    1.3045 O   0  0  0  0  0  0  0  0  0  0  0  0
    3.6920    2.6333   -0.6978 O   0  0  0  0  0  0  0  0  0  0  0  0
    2.5864    1.3167    0.8724 N   0  0  0  0  0  0  0  0  0  0  0  0
   -0.2690    2.3463   -0.9341 N   0  0  0  0  0  0  0  0  0  0  0  0
   -3.2275   -1.4699   -0.5961 N   0  0  0  0  0  0  0  0  0  0  0  0
    1.4417    0.9674    0.0694 C   0  0  1  0  0  0  0  0  0  0  0  0
    0.8421   -0.3845    0.4730 C   0  0  0  0  0  0  0  0  0  0  0  0
    1.6145   -1.5553   -0.0841 C   0  0  0  0  0  0  0  0  0  0  0  0
    0.4118    2.0776    0.2452 C   0  0  0  0  0  0  0  0  0  0  0  0
   -1.2650    3.3865   -1.0561 C   0  0  0  0  0  0  0  0  0  0  0  0
    2.6655   -2.1090    0.6471 C   0  0  0  0  0  0  0  0  0  0  0  0
    1.2778   -2.0834   -1.3305 C   0  0  0  0  0  0  0  0  0  0  0  0
    3.6178    2.1235    0.4171 C   0  0  0  0  0  0  0  0  0  0  0  0
   -2.6733    2.9026   -0.7382 C   0  0  0  0  0  0  0  0  0  0  0  0
    3.3795   -3.1909    0.1318 C   0  0  0  0  0  0  0  0  0  0  0  0
    1.9918   -3.1652   -1.8456 C   0  0  0  0  0  0  0  0  0  0  0  0
    3.0426   -3.7189   -1.1146 C   0  0  0  0  0  0  0  0  0  0  0  0
    4.6742    2.3495    1.4654 C   0  0  0  0  0  0  0  0  0  0  0  0
   -3.8750   -0.5301    0.1284 C   0  0  0  0  0  0  0  0  0  0  0  0
   -3.8979   -0.4980    1.5135 C   0  0  0  0  0  0  0  0  0  0  0  0
   -3.2118   -1.4944    2.1989 C   0  0  0  0  0  0  0  0  0  0  0  0
   -2.5337   -2.4786    1.4884 C   0  0  0  0  0  0  0  0  0  0  0  0
   -2.5720   -2.4223    0.1045 C   0  0  0  0  0  0  0  0  0  0  0  0
    1.7618    0.9466   -0.9803 H   0  0  0  0  0  0  0  0  0  0  0  0
    0.7725   -0.4727    1.5656 H   0  0  0  0  0  0  0  0  0  0  0  0
   -0.1934   -0.4529    0.1148 H   0  0  0  0  0  0  0  0  0  0  0  0
    2.5980    1.0131    1.8422 H   0  0  0  0  0  0  0  0  0  0  0  0
   -0.0808    1.7821   -1.7575 H   0  0  0  0  0  0  0  0  0  0  0  0
   -1.0012    4.2046   -0.3764 H   0  0  0  0  0  0  0  0  0  0  0  0
   -1.2067    3.7769   -2.0783 H   0  0  0  0  0  0  0  0  0  0  0  0
    2.9375   -1.7071    1.6194 H   0  0  0  0  0  0  0  0  0  0  0  0
    0.4622   -1.6592   -1.9102 H   0  0  0  0  0  0  0  0  0  0  0  0
   -2.6937    2.5259    0.2905 H   0  0  0  0  0  0  0  0  0  0  0  0
   -3.3751    3.7396   -0.8109 H   0  0  0  0  0  0  0  0  0  0  0  0
    4.1979   -3.6221    0.7010 H   0  0  0  0  0  0  0  0  0  0  0  0
    1.7297   -3.5762   -2.8161 H   0  0  0  0  0  0  0  0  0  0  0  0
    3.5987   -4.5612   -1.5158 H   0  0  0  0  0  0  0  0  0  0  0  0
    4.9313    1.4070    1.9573 H   0  0  0  0  0  0  0  0  0  0  0  0
    5.5752    2.7559    0.9978 H   0  0  0  0  0  0  0  0  0  0  0  0
    4.3015    3.0589    2.2092 H   0  0  0  0  0  0  0  0  0  0  0  0
   -4.4273    0.2722    2.0650 H   0  0  0  0  0  0  0  0  0  0  0  0
   -3.2045   -1.5035    3.2847 H   0  0  0  0  0  0  0  0  0  0  0  0
   -1.9906   -3.2639    2.0015 H   0  0  0  0  0  0  0  0  0  0  0  0
   -2.0576   -3.1653   -0.4961 H   0  0  0  0  0  0  0  0  0  0  0  0
  1  2  1  0  0  0  0
  1 16  1  0  0  0  0
  2 21  1  0  0  0  0
  3 11  2  0  0  0  0
  4 15  2  0  0  0  0
  5  8  1  0  0  0  0
  5 15  1  0  0  0  0
  5 29  1  0  0  0  0
  6 11  1  0  0  0  0
  6 12  1  0  0  0  0
  6 30  1  0  0  0  0
  7 21  1  0  0  0  0
  7 25  2  0  0  0  0
  8  9  1  0  0  0  0
  8 11  1  0  0  0  0
  8 26  1  0  0  0  0
  9 10  1  0  0  0  0
  9 27  1  0  0  0  0
  9 28  1  0  0  0  0
 10 13  2  0  0  0  0
 10 14  1  0  0  0  0
 12 16  1  0  0  0  0
 12 31  1  0  0  0  0
 12 32  1  0  0  0  0
 13 17  1  0  0  0  0
 13 33  1  0  0  0  0
 14 18  2  0  0  0  0
 14 34  1  0  0  0  0
 15 20  1  0  0  0  0
 16 35  1  0  0  0  0
 16 36  1  0  0  0  0
 17 19  2  0  0  0  0
 17 37  1  0  0  0  0
 18 19  1  0  0  0  0
 18 38  1  0  0  0  0
 19 39  1  0  0  0  0
 20 40  1  0  0  0  0
 20 41  1  0  0  0  0
 20 42  1  0  0  0  0
 21 22  2  0  0  0  0
 22 23  1  0  0  0  0
 22 43  1  0  0  0  0
 23 24  2  0  0  0  0
 23 44  1  0  0  0  0
 24 25  1  0  0  0  0
 24 45  1  0  0  0  0
 25 46  1  0  0  0  0
M  END
> <PUBCHEM_COMPOUND_CID>
134305

> <PUBCHEM_CONFORMER_RMSD>
1.2

> <PUBCHEM_CONFORMER_DIVERSEORDER>
1
45
82
27
42
147
92
120
18
87
96
117
134
95
104
136
9
153
151
119
93
137
156
108
122
128
94
149
23
99
70
30
139
44
160
67
59
24
111
112
29
22
101
155
8
61
110
102
37
131
146
157
56
98
3
130
60
106
118
142
72
58
19
57
49
10
85
86
32
140
17
158
38
33
124
40
76
126
89
13
113
53
135
47
154
62
79
41
66
11
36
50
14
88
68
109
116
55
123
21
132
90
34
133
52
143
91
69
81
148
54
31
64
125
97
78
145
105
107
48
16
84
35
141
4
74
75
100
152
2
159
65
43
39
103
51
63
5
144
28
150
83
26
121
46
7
114
25
73
71
115
12
6
77
15
20
138
129
127
80

> <PUBCHEM_MMFF94_PARTIAL_CHARGES>
36
1 -0.23
10 -0.14
11 0.57
12 0.3
13 -0.15
14 -0.15
15 0.57
16 0.23
17 -0.15
18 -0.15
19 -0.15
2 -0.1
20 0.06
21 0.41
22 -0.15
23 -0.15
24 -0.15
25 0.16
29 0.37
3 -0.57
30 0.37
33 0.15
34 0.15
37 0.15
38 0.15
39 0.15
4 -0.57
43 0.15
44 0.15
45 0.15
46 0.15
5 -0.73
6 -0.73
7 -0.62
8 0.36
9 0.14

> <PUBCHEM_EFFECTIVE_ROTOR_COUNT>
11

> <PUBCHEM_PHARMACOPHORE_FEATURES>
7
1 3 acceptor
1 4 acceptor
1 5 donor
1 6 donor
1 7 acceptor
6 10 13 14 17 18 19 rings
6 7 21 22 23 24 25 rings

> <PUBCHEM_HEAVY_ATOM_COUNT>
25

> <PUBCHEM_ATOM_DEF_STEREO_COUNT>
1

> <PUBCHEM_ATOM_UDEF_STEREO_COUNT>
0

> <PUBCHEM_BOND_DEF_STEREO_COUNT>
0

> <PUBCHEM_BOND_UDEF_STEREO_COUNT>
0

> <PUBCHEM_ISOTOPIC_ATOM_COUNT>
0

> <PUBCHEM_COMPONENT_COUNT>
1

> <PUBCHEM_CACTVS_TAUTO_COUNT>
4

> <PUBCHEM_CONFORMER_ID>
00020CA100000001

> <PUBCHEM_MMFF94_ENERGY>
42.5062

> <PUBCHEM_FEATURE_SELFOVERLAP>
35.522

> <PUBCHEM_SHAPE_FINGERPRINT>
11135609 12 18114474374289335617
11488393 25 18341057316005804706
12422481 6 18266156453712780066
12712778 12 17825375289520715258
12788726 201 16898492313291756030
13149001 5 17976256837951862620
13402501 40 18334286600616380429
14251740 79 17541955182398903151
14251757 17 18191020110498840755
14251757 5 17974592220128842895
14725015 67 18046338635786298403
14790565 3 17977666734134835908
15420108 30 18059575866231262254
16112460 7 17981616974227833297
17357779 13 18055068766226462711
17913733 40 18130772491546624960
19591789 44 18123182678506885372
20600515 1 17544158638197361512
238918 7 18339634659354059048
255183 313 17982715666065371344
3493558 16 13195419077400921148
57307002 85 18040446511617766560
59755656 215 18335698330507114060
9709674 26 18265885874414237493
9862522 239 18124583439035255818

> <PUBCHEM_SHAPE_MULTIPOLES>
495.51
8.84
5.41
1.79
1.6
0.52
-0.14
-0.31
-0.57
-4.05
0.77
0.77
-0.5
3.83

> <PUBCHEM_SHAPE_SELFOVERLAP>
993.766

> <PUBCHEM_SHAPE_VOLUME>
292.6

> <PUBCHEM_COORDINATE_TYPE>
2
5
10

$$$$
