REMARK  Name = 134346
REMARK  9 active torsions:
REMARK  status: ('A' for Active; 'I' for Inactive)
REMARK    1  A    between atoms: N_1  and  C_2
REMARK    2  A    between atoms: N_1  and  C_12
REMARK    3  A    between atoms: N_1  and  C_14
REMARK    4  A    between atoms: C_5  and  O_8
REMARK    5  A    between atoms: C_6  and  O_10
REMARK    6  A    between atoms: C_14  and  C_15
REMARK    7  A    between atoms: C_15  and  O_16
REMARK    8  A    between atoms: C_15  and  C_18
REMARK    9  A    between atoms: C_18  and  S_19
REMARK                            x       y       z     vdW  Elec       q    Type
REMARK                         _______ _______ _______ _____ _____    ______ ____
ROOT
ATOM      1  N   UNL     1       0.161   1.532  -0.506  0.00  0.00    -0.305 N 
ENDROOT
BRANCH   1   2
ATOM      2  C   UNL     1       1.184   0.603  -0.275  0.00  0.00    +0.054 C 
ATOM      3  C   UNL     1       2.397   1.012   0.289  0.00  0.00    +0.052 C 
ATOM      4  C   UNL     1       1.002  -0.745  -0.607  0.00  0.00    +0.052 C 
ATOM      5  C   UNL     1       2.021  -1.670  -0.377  0.00  0.00    +0.143 C 
ATOM      6  C   UNL     1       3.415   0.087   0.519  0.00  0.00    +0.143 C 
ATOM      7  C   UNL     1       3.227  -1.254   0.186  0.00  0.00    +0.074 C 
BRANCH   5   8
ATOM      8  O   UNL     1       1.837  -2.979  -0.701  0.00  0.00    -0.471 OA
ATOM      9  C   UNL     1       0.579  -3.337  -1.272  0.00  0.00    +0.252 C 
ENDBRANCH   5   8
BRANCH   6  10
ATOM     10  O   UNL     1       4.592   0.494   1.069  0.00  0.00    -0.471 OA
ATOM     11  C   UNL     1       5.590  -0.504   1.277  0.00  0.00    +0.252 C 
ENDBRANCH   6  10
ENDBRANCH   1   2
BRANCH   1  12
ATOM     12  C   UNL     1       0.355   2.939  -0.158  0.00  0.00    +0.091 C 
ATOM     13  C   UNL     1       0.981   3.712  -1.300  0.00  0.00    +0.023 C 
ENDBRANCH   1  12
BRANCH   1  14
ATOM     14  C   UNL     1      -1.095   1.135  -1.101  0.00  0.00    +0.122 C 
BRANCH  14  15
ATOM     15  C   UNL     1      -2.004   0.523  -0.035  0.00  0.00    +0.154 C 
BRANCH  15  16
ATOM     16  O   UNL     1      -2.272   1.507   0.965  0.00  0.00    -0.381 OA
ATOM     17  H   UNL     1      -1.437   1.796   1.365  0.00  0.00    +0.210 HD
ENDBRANCH  15  16
BRANCH  15  18
ATOM     18  C   UNL     1      -3.334   0.092  -0.641  0.00  0.00    +0.189 C 
BRANCH  18  19
ATOM     19  S   UNL     1      -4.386  -0.661   0.565  0.00  0.00    +0.025 S 
ATOM     20  O   UNL     1      -5.718  -0.786  -0.369  0.00  0.00    -0.069 OA
ATOM     21  O   UNL     1      -4.645   0.296   1.623  0.00  0.00    -0.069 OA
ATOM     22  O   UNL     1      -3.888  -1.994   0.848  0.00  0.00    -0.069 OA
ENDBRANCH  18  19
ENDBRANCH  15  18
ENDBRANCH  14  15
ENDBRANCH   1  14
TORSDOF 9
