REMARK  Name = 134331
REMARK  4 active torsions:
REMARK  status: ('A' for Active; 'I' for Inactive)
REMARK    1  A    between atoms: C_6  and  C_12
REMARK    2  A    between atoms: C_7  and  N_15
REMARK    3  A    between atoms: C_12  and  O_13
REMARK    4  A    between atoms: N_15  and  S_17
REMARK                            x       y       z     vdW  Elec       q    Type
REMARK                         _______ _______ _______ _____ _____    ______ ____
ROOT
ATOM      1  S   UNL     1      -0.045   1.753   0.122  0.00  0.00    -0.119 S 
ATOM      2  O   UNL     1      -0.028  -2.526  -0.928  0.00  0.00    -0.273 OA
ATOM      3  N   UNL     1      -0.829  -0.709   0.348  0.00  0.00    -0.260 N 
ATOM      4  C   UNL     1       0.165   0.156   0.990  0.00  0.00    +0.149 C 
ATOM      5  C   UNL     1      -1.860   1.421  -0.132  0.00  0.00    +0.068 C 
ATOM      6  C   UNL     1      -1.919  -0.101  -0.389  0.00  0.00    +0.184 C 
ATOM      7  C   UNL     1       1.244  -0.790   0.446  0.00  0.00    +0.180 C 
ATOM      8  C   UNL     1       0.077  -1.587  -0.171  0.00  0.00    +0.245 C 
ATOM      9  C   UNL     1      -2.606   1.884   1.126  0.00  0.00    +0.013 C 
ATOM     10  C   UNL     1      -2.344   2.211  -1.349  0.00  0.00    +0.013 C 
ENDROOT
BRANCH   6  12
ATOM     11  O   UNL     1      -3.253  -1.621   0.929  0.00  0.00    -0.248 OA
ATOM     12  C   UNL     1      -3.179  -0.775   0.051  0.00  0.00    +0.333 C 
BRANCH  12  13
ATOM     13  O   UNL     1      -4.239  -0.320  -0.661  0.00  0.00    -0.479 OA
ATOM     14  H   UNL     1      -4.114   0.332  -1.323  0.00  0.00    +0.295 HD
ENDBRANCH  12  13
ENDBRANCH   6  12
BRANCH   7  15
ATOM     15  N   UNL     1       2.256  -0.251  -0.540  0.00  0.00    -0.168 NA
ATOM     16  H   UNL     1       2.332  -0.955  -1.273  0.00  0.00    +0.150 HD
BRANCH  15  17
ATOM     17  S   UNL     1       3.876   0.166  -0.121  0.00  0.00    +0.077 S 
ATOM     18  O   UNL     1       3.694   1.248   1.085  0.00  0.00    -0.053 OA
ATOM     19  O   UNL     1       4.479   0.854  -1.247  0.00  0.00    -0.053 OA
ATOM     20  O   UNL     1       4.510  -1.013   0.441  0.00  0.00    -0.053 OA
ENDBRANCH  15  17
ENDBRANCH   7  15
TORSDOF 4
