REMARK  Name = 134454
REMARK  5 active torsions:
REMARK  status: ('A' for Active; 'I' for Inactive)
REMARK    1  A    between atoms: C_2  and  C_3
REMARK    2  A    between atoms: C_2  and  O_17
REMARK    3  A    between atoms: C_6  and  N_9
REMARK    4  A    between atoms: N_9  and  C_12
REMARK    5  A    between atoms: O_17  and  C_25
REMARK                            x       y       z     vdW  Elec       q    Type
REMARK                         _______ _______ _______ _____ _____    ______ ____
ROOT
ATOM      1  O   UNL     1      -0.205  -0.680   1.803  0.00  0.00    -0.244 OA
ATOM      2  C   UNL     1      -0.746  -0.564   0.713  0.00  0.00    +0.346 C 
ENDROOT
BRANCH   2   3
ATOM      3  C   UNL     1      -2.220  -0.498   0.540  0.00  0.00    +0.076 C 
ATOM      4  C   UNL     1      -2.986   0.044   1.551  0.00  0.00    +0.008 C 
ATOM      5  C   UNL     1      -2.776  -0.980  -0.627  0.00  0.00    +0.008 C 
ATOM      6  C   UNL     1      -4.957  -0.372   0.217  0.00  0.00    +0.084 C 
ATOM      7  C   UNL     1      -4.370   0.108   1.387  0.00  0.00    +0.019 C 
ATOM      8  C   UNL     1      -4.160  -0.916  -0.791  0.00  0.00    +0.019 C 
BRANCH   6   9
ATOM      9  N   UNL     1      -6.344  -0.309   0.053  0.00  0.00    -0.214 NA
BRANCH   9  12
ATOM     10  N   UNL     1      -8.106   1.118  -0.787  0.00  0.00    -0.370 N 
ATOM     11  N   UNL     1      -5.916   1.750  -0.872  0.00  0.00    -0.370 N 
ATOM     12  C   UNL     1      -6.803   0.768  -0.497  0.00  0.00    +0.193 C 
ATOM     13  H   UNL     1      -8.841   0.501  -0.569  0.00  0.00    +0.159 HD
ATOM     14  H   UNL     1      -8.299   1.984  -1.213  0.00  0.00    +0.159 HD
ATOM     15  H   UNL     1      -4.951   1.625  -0.720  0.00  0.00    +0.159 HD
ATOM     16  H   UNL     1      -6.246   2.577  -1.292  0.00  0.00    +0.159 HD
ENDBRANCH   9  12
ENDBRANCH   6   9
ENDBRANCH   2   3
BRANCH   2  17
ATOM     17  O   UNL     1      -0.087  -0.467  -0.515  0.00  0.00    -0.421 OA
BRANCH  17  25
ATOM     18  O   UNL     1       4.088   1.789  -0.022  0.00  0.00    -0.421 OA
ATOM     19  O   UNL     1       6.080   2.885   0.215  0.00  0.00    -0.244 OA
ATOM     20  C   UNL     1       4.082  -0.643  -0.254  0.00  0.00    +0.031 C 
ATOM     21  C   UNL     1       3.397   0.572  -0.185  0.00  0.00    +0.151 C 
ATOM     22  C   UNL     1       5.547  -0.630  -0.155  0.00  0.00    -0.012 C 
ATOM     23  C   UNL     1       3.322  -1.809  -0.416  0.00  0.00    +0.006 C 
ATOM     24  C   UNL     1       2.006   0.649  -0.270  0.00  0.00    +0.075 C 
ATOM     25  C   UNL     1       1.269  -0.520  -0.430  0.00  0.00    +0.152 C 
ATOM     26  C   UNL     1       1.926  -1.747  -0.503  0.00  0.00    +0.038 C 
ATOM     27  C   UNL     1       6.178   0.542  -0.002  0.00  0.00    +0.078 C 
ATOM     28  C   UNL     1       6.313  -1.919  -0.227  0.00  0.00    +0.031 C 
ATOM     29  C   UNL     1       5.470   1.831   0.074  0.00  0.00    +0.346 C 
ENDBRANCH  17  25
ENDBRANCH   2  17
TORSDOF 5
