REMARK  Name = 13455970
REMARK  4 active torsions:
REMARK  status: ('A' for Active; 'I' for Inactive)
REMARK    1  A    between atoms: C_3  and  C_26
REMARK    2  A    between atoms: C_9  and  O_21
REMARK    3  A    between atoms: C_10  and  O_23
REMARK    4  A    between atoms: C_26  and  O_27
REMARK                            x       y       z     vdW  Elec       q    Type
REMARK                         _______ _______ _______ _____ _____    ______ ____
ROOT
ATOM      1  O   UNL     1       1.851   2.695  -0.130  0.00  0.00    -0.286 OA
ATOM      2  O   UNL     1       2.760  -2.564   0.125  0.00  0.00    -0.286 OA
ATOM      3  C   UNL     1      -3.942  -0.325   0.326  0.00  0.00    +0.104 C 
ATOM      4  C   UNL     1      -3.702  -1.668  -0.358  0.00  0.00    +0.016 C 
ATOM      5  C   UNL     1      -2.870   0.683  -0.093  0.00  0.00    +0.040 C 
ATOM      6  C   UNL     1      -2.361  -2.254   0.080  0.00  0.00    +0.030 C 
ATOM      7  C   UNL     1      -1.469   0.125  -0.027  0.00  0.00    +0.011 A 
ATOM      8  C   UNL     1      -1.229  -1.259   0.016  0.00  0.00    +0.011 A 
ATOM      9  C   UNL     1      -0.382   1.014  -0.066  0.00  0.00    +0.133 A 
ATOM     10  C   UNL     1       0.092  -1.731   0.057  0.00  0.00    +0.133 A 
ATOM     11  C   UNL     1       0.933   0.534  -0.035  0.00  0.00    +0.078 A 
ATOM     12  C   UNL     1       1.170  -0.838   0.029  0.00  0.00    +0.078 A 
ATOM     13  C   UNL     1       2.059   1.489  -0.070  0.00  0.00    +0.199 C 
ATOM     14  C   UNL     1       2.552  -1.359   0.067  0.00  0.00    +0.199 C 
ATOM     15  C   UNL     1       3.441   0.970  -0.034  0.00  0.00    +0.042 C 
ATOM     16  C   UNL     1       3.679  -0.405   0.033  0.00  0.00    +0.042 C 
ATOM     17  C   UNL     1       4.518   1.864  -0.066  0.00  0.00    +0.003 C 
ATOM     18  C   UNL     1       4.994  -0.885   0.067  0.00  0.00    +0.003 C 
ATOM     19  C   UNL     1       5.827   1.381  -0.033  0.00  0.00    +0.000 C 
ATOM     20  C   UNL     1       6.064   0.009   0.034  0.00  0.00    +0.000 C 
ENDROOT
BRANCH   9  21
ATOM     21  O   UNL     1      -0.646   2.354  -0.125  0.00  0.00    -0.506 OA
ATOM     22  H   UNL     1      -1.532   2.656  -0.145  0.00  0.00    +0.292 HD
ENDBRANCH   9  21
BRANCH  10  23
ATOM     23  O   UNL     1       0.294  -3.082   0.114  0.00  0.00    -0.506 OA
ATOM     24  H   UNL     1      -0.439  -3.665   0.132  0.00  0.00    +0.292 HD
ENDBRANCH  10  23
BRANCH   3  26
ATOM     25  O   UNL     1      -6.073  -0.366  -0.790  0.00  0.00    -0.250 OA
ATOM     26  C   UNL     1      -5.294   0.204  -0.039  0.00  0.00    +0.317 C 
BRANCH  26  27
ATOM     27  O   UNL     1      -5.502   1.396   0.591  0.00  0.00    -0.444 OA
ATOM     28  C   UNL     1      -6.764   2.018   0.329  0.00  0.00    +0.256 C 
ENDBRANCH  26  27
ENDBRANCH   3  26
TORSDOF 4
