13456600
  -OEChem-03292013303D

 46 49  0     1  0  0  0  0  0999 V2000
   -2.1383    0.0363   -2.2117 O   0  0  0  0  0  0  0  0  0  0  0  0
   -2.0726    1.3168    0.5245 O   0  0  0  0  0  0  0  0  0  0  0  0
   -2.9532   -0.4083    2.5739 O   0  0  0  0  0  0  0  0  0  0  0  0
    1.4013   -0.0101   -1.9886 O   0  0  0  0  0  0  0  0  0  0  0  0
    1.9246   -1.4541    0.1052 O   0  0  0  0  0  0  0  0  0  0  0  0
    2.4511    2.3379   -1.3570 O   0  0  0  0  0  0  0  0  0  0  0  0
    3.4449   -1.8388    1.7844 O   0  0  0  0  0  0  0  0  0  0  0  0
   -0.9564   -1.1687   -0.2976 C   0  0  1  0  0  0  0  0  0  0  0  0
   -2.1897   -0.5540   -0.9218 C   0  0  1  0  0  0  0  0  0  0  0  0
    0.0462    0.0221    0.0989 C   0  0  2  0  0  0  0  0  0  0  0  0
   -2.8672    0.1779    0.1776 C   0  0  1  0  0  0  0  0  0  0  0  0
   -1.6295   -1.7673    1.0033 C   0  0  0  0  0  0  0  0  0  0  0  0
   -2.9715   -1.1287   -2.0829 C   0  0  0  0  0  0  0  0  0  0  0  0
   -2.8996   -0.9162    1.2575 C   0  0  1  0  0  0  0  0  0  0  0  0
   -0.7373    1.0526    0.9879 C   0  0  1  0  0  0  0  0  0  0  0  0
   -0.3315   -2.2972   -1.1209 C   0  0  0  0  0  0  0  0  0  0  0  0
    0.6069    0.7957   -1.1353 C   0  0  1  0  0  0  0  0  0  0  0  0
    1.2508   -0.5287    0.9210 C   0  0  0  0  0  0  0  0  0  0  0  0
   -0.0716    2.3950    1.1288 C   0  0  0  0  0  0  0  0  0  0  0  0
    1.4330    2.0172   -0.7453 C   0  0  0  0  0  0  0  0  0  0  0  0
    0.9366    2.8600    0.3786 C   0  0  0  0  0  0  0  0  0  0  0  0
    1.5931    4.1845    0.6041 C   0  0  0  0  0  0  0  0  0  0  0  0
    3.0365   -2.0681    0.6460 C   0  0  0  0  0  0  0  0  0  0  0  0
    3.6933   -3.0557   -0.3306 C   0  0  0  0  0  0  0  0  0  0  0  0
   -3.8729    0.5309   -0.0698 H   0  0  0  0  0  0  0  0  0  0  0  0
   -0.9707   -1.8112    1.8722 H   0  0  0  0  0  0  0  0  0  0  0  0
   -1.9523   -2.7991    0.8099 H   0  0  0  0  0  0  0  0  0  0  0  0
   -2.6410   -2.0219   -2.5922 H   0  0  0  0  0  0  0  0  0  0  0  0
   -4.0434   -0.9758   -2.1115 H   0  0  0  0  0  0  0  0  0  0  0  0
   -3.7805   -1.5526    1.1040 H   0  0  0  0  0  0  0  0  0  0  0  0
   -0.8099    0.6569    2.0076 H   0  0  0  0  0  0  0  0  0  0  0  0
   -1.1007   -3.0213   -1.4174 H   0  0  0  0  0  0  0  0  0  0  0  0
    0.1200   -1.9562   -2.0533 H   0  0  0  0  0  0  0  0  0  0  0  0
    0.3802   -2.9008   -0.5551 H   0  0  0  0  0  0  0  0  0  0  0  0
   -0.2063    1.2000   -1.7433 H   0  0  0  0  0  0  0  0  0  0  0  0
    0.9260   -1.0147    1.8455 H   0  0  0  0  0  0  0  0  0  0  0  0
    1.9418    0.2725    1.2065 H   0  0  0  0  0  0  0  0  0  0  0  0
   -0.4497    3.0198    1.9360 H   0  0  0  0  0  0  0  0  0  0  0  0
   -2.9057   -1.1654    3.1822 H   0  0  0  0  0  0  0  0  0  0  0  0
    1.5865    0.5035   -2.7934 H   0  0  0  0  0  0  0  0  0  0  0  0
    2.6546    4.0509    0.8366 H   0  0  0  0  0  0  0  0  0  0  0  0
    1.1371    4.7313    1.4361 H   0  0  0  0  0  0  0  0  0  0  0  0
    1.5084    4.8103   -0.2903 H   0  0  0  0  0  0  0  0  0  0  0  0
    3.9841   -2.5246   -1.2399 H   0  0  0  0  0  0  0  0  0  0  0  0
    2.9909   -3.8611   -0.5566 H   0  0  0  0  0  0  0  0  0  0  0  0
    4.5869   -3.4782    0.1368 H   0  0  0  0  0  0  0  0  0  0  0  0
  1  9  1  0  0  0  0
  1 13  1  0  0  0  0
  2 11  1  0  0  0  0
  2 15  1  0  0  0  0
  3 14  1  0  0  0  0
  3 39  1  0  0  0  0
  4 17  1  0  0  0  0
  4 40  1  0  0  0  0
  5 18  1  0  0  0  0
  5 23  1  0  0  0  0
  6 20  2  0  0  0  0
  7 23  2  0  0  0  0
  8  9  1  0  0  0  0
  8 10  1  0  0  0  0
  8 12  1  0  0  0  0
  8 16  1  0  0  0  0
  9 11  1  0  0  0  0
  9 13  1  0  0  0  0
 10 15  1  0  0  0  0
 10 17  1  0  0  0  0
 10 18  1  0  0  0  0
 11 14  1  0  0  0  0
 11 25  1  0  0  0  0
 12 14  1  0  0  0  0
 12 26  1  0  0  0  0
 12 27  1  0  0  0  0
 13 28  1  0  0  0  0
 13 29  1  0  0  0  0
 14 30  1  0  0  0  0
 15 19  1  0  0  0  0
 15 31  1  0  0  0  0
 16 32  1  0  0  0  0
 16 33  1  0  0  0  0
 16 34  1  0  0  0  0
 17 20  1  0  0  0  0
 17 35  1  0  0  0  0
 18 36  1  0  0  0  0
 18 37  1  0  0  0  0
 19 21  2  0  0  0  0
 19 38  1  0  0  0  0
 20 21  1  0  0  0  0
 21 22  1  0  0  0  0
 22 41  1  0  0  0  0
 22 42  1  0  0  0  0
 22 43  1  0  0  0  0
 23 24  1  0  0  0  0
 24 44  1  0  0  0  0
 24 45  1  0  0  0  0
 24 46  1  0  0  0  0
M  END
> <PUBCHEM_COMPOUND_CID>
13456600

> <PUBCHEM_CONFORMER_RMSD>
0.8

> <PUBCHEM_CONFORMER_DIVERSEORDER>
3
2
1

> <PUBCHEM_MMFF94_PARTIAL_CHARGES>
26
1 -0.3
11 0.38
13 -0.05
14 0.28
15 0.42
17 0.34
18 0.28
19 -0.29
2 -0.56
20 0.49
21 -0.12
22 0.14
23 0.66
24 0.06
28 0.1
29 0.1
3 -0.68
38 0.15
39 0.4
4 -0.68
40 0.4
5 -0.43
6 -0.57
7 -0.57
8 0.09
9 -0.04

> <PUBCHEM_EFFECTIVE_ROTOR_COUNT>
4.2

> <PUBCHEM_PHARMACOPHORE_FEATURES>
10
1 1 acceptor
1 2 acceptor
1 3 acceptor
1 3 donor
1 4 acceptor
1 4 donor
1 6 acceptor
1 7 acceptor
6 10 15 17 19 20 21 rings
8 2 8 9 10 11 12 14 15 rings

> <PUBCHEM_HEAVY_ATOM_COUNT>
24

> <PUBCHEM_ATOM_DEF_STEREO_COUNT>
7

> <PUBCHEM_ATOM_UDEF_STEREO_COUNT>
0

> <PUBCHEM_BOND_DEF_STEREO_COUNT>
0

> <PUBCHEM_BOND_UDEF_STEREO_COUNT>
0

> <PUBCHEM_ISOTOPIC_ATOM_COUNT>
0

> <PUBCHEM_COMPONENT_COUNT>
1

> <PUBCHEM_CACTVS_TAUTO_COUNT>
8

> <PUBCHEM_CONFORMER_ID>
00CD54D800000003

> <PUBCHEM_MMFF94_ENERGY>
93.6475

> <PUBCHEM_FEATURE_SELFOVERLAP>
50.769

> <PUBCHEM_SHAPE_FINGERPRINT>
10165383 225 17610371563155239061
10863032 1 17458929088174168895
10948715 1 17126808514344741177
11578080 2 17604160306401285669
121448 382 17190650698743568312
12160290 23 17470714521515882610
12553582 1 18411982421404123146
12788726 201 17686602564256342832
13132413 78 18342173336949952328
13140716 1 18123769568281181664
133893 2 18266727155248596693
13681431 1 18335126597234549380
14142880 1 17616239296251788344
14181834 199 18119218857346899454
14817 1 13732633389057499236
14955137 171 18269282270306629467
15463212 79 16308234374109164084
15852999 172 17465067803162491127
16945 1 18196085766584198225
1813 80 18271532979109191286
18981168 100 17023732537392797007
22112679 90 17917999390310484813
229495 10 18115035220109344687
23175994 123 18263361400180544935
23419403 2 18113619014883768091
35225 105 17335046868233098640
404807 78 15882031789187414871
484985 159 13160679977593874323
6992083 37 18059850606640951083
7364860 26 18337116773215317242
81228 2 17831286212849947554
9981440 41 17689123014343523497

> <PUBCHEM_SHAPE_MULTIPOLES>
452.82
4.87
3.88
1.95
0.29
2.11
-0.16
-2.89
0.51
4.76
0.43
-1.04
-0.31
-0.9

> <PUBCHEM_SHAPE_SELFOVERLAP>
980.467

> <PUBCHEM_SHAPE_VOLUME>
241.6

> <PUBCHEM_COORDINATE_TYPE>
2
5
10

$$$$
