13455970
  -OEChem-03292013303D

 42 45  0     1  0  0  0  0  0999 V2000
   -0.6457    2.3536   -0.1250 O   0  0  0  0  0  0  0  0  0  0  0  0
    0.2943   -3.0819    0.1140 O   0  0  0  0  0  0  0  0  0  0  0  0
   -5.5022    1.3956    0.5909 O   0  0  0  0  0  0  0  0  0  0  0  0
   -6.0733   -0.3657   -0.7905 O   0  0  0  0  0  0  0  0  0  0  0  0
    1.8507    2.6948   -0.1299 O   0  0  0  0  0  0  0  0  0  0  0  0
    2.7605   -2.5642    0.1246 O   0  0  0  0  0  0  0  0  0  0  0  0
   -3.9417   -0.3254    0.3260 C   0  0  1  0  0  0  0  0  0  0  0  0
   -3.7019   -1.6683   -0.3580 C   0  0  0  0  0  0  0  0  0  0  0  0
   -2.8696    0.6835   -0.0926 C   0  0  0  0  0  0  0  0  0  0  0  0
   -2.3613   -2.2540    0.0803 C   0  0  0  0  0  0  0  0  0  0  0  0
   -1.4686    0.1254   -0.0273 C   0  0  0  0  0  0  0  0  0  0  0  0
   -1.2290   -1.2592    0.0156 C   0  0  0  0  0  0  0  0  0  0  0  0
   -0.3821    1.0135   -0.0655 C   0  0  0  0  0  0  0  0  0  0  0  0
    0.0925   -1.7308    0.0568 C   0  0  0  0  0  0  0  0  0  0  0  0
    0.9326    0.5341   -0.0351 C   0  0  0  0  0  0  0  0  0  0  0  0
    1.1699   -0.8375    0.0287 C   0  0  0  0  0  0  0  0  0  0  0  0
   -5.2941    0.2043   -0.0389 C   0  0  0  0  0  0  0  0  0  0  0  0
    2.0591    1.4893   -0.0705 C   0  0  0  0  0  0  0  0  0  0  0  0
    2.5518   -1.3587    0.0667 C   0  0  0  0  0  0  0  0  0  0  0  0
    3.4413    0.9696   -0.0338 C   0  0  0  0  0  0  0  0  0  0  0  0
    3.6790   -0.4047    0.0328 C   0  0  0  0  0  0  0  0  0  0  0  0
    4.5181    1.8639   -0.0664 C   0  0  0  0  0  0  0  0  0  0  0  0
    4.9937   -0.8851    0.0672 C   0  0  0  0  0  0  0  0  0  0  0  0
    5.8265    1.3809   -0.0328 C   0  0  0  0  0  0  0  0  0  0  0  0
    6.0638    0.0094    0.0340 C   0  0  0  0  0  0  0  0  0  0  0  0
   -6.7642    2.0176    0.3286 C   0  0  0  0  0  0  0  0  0  0  0  0
   -3.9240   -0.4782    1.4136 H   0  0  0  0  0  0  0  0  0  0  0  0
   -3.7092   -1.5427   -1.4495 H   0  0  0  0  0  0  0  0  0  0  0  0
   -4.5013   -2.3808   -0.1196 H   0  0  0  0  0  0  0  0  0  0  0  0
   -2.9506    1.5509    0.5751 H   0  0  0  0  0  0  0  0  0  0  0  0
   -3.0590    1.0297   -1.1176 H   0  0  0  0  0  0  0  0  0  0  0  0
   -2.1473   -3.1194   -0.5582 H   0  0  0  0  0  0  0  0  0  0  0  0
   -2.4431   -2.6130    1.1139 H   0  0  0  0  0  0  0  0  0  0  0  0
   -1.4984    2.5178   -0.5573 H   0  0  0  0  0  0  0  0  0  0  0  0
    1.2118   -3.2870    0.3462 H   0  0  0  0  0  0  0  0  0  0  0  0
    4.3596    2.9376   -0.1183 H   0  0  0  0  0  0  0  0  0  0  0  0
    5.2051   -1.9497    0.1192 H   0  0  0  0  0  0  0  0  0  0  0  0
    6.6615    2.0751   -0.0585 H   0  0  0  0  0  0  0  0  0  0  0  0
    7.0835   -0.3639    0.0604 H   0  0  0  0  0  0  0  0  0  0  0  0
   -6.8037    2.9557    0.8886 H   0  0  0  0  0  0  0  0  0  0  0  0
   -7.5814    1.3727    0.6652 H   0  0  0  0  0  0  0  0  0  0  0  0
   -6.8615    2.2410   -0.7381 H   0  0  0  0  0  0  0  0  0  0  0  0
  1 13  1  0  0  0  0
  1 34  1  0  0  0  0
  2 14  1  0  0  0  0
  2 35  1  0  0  0  0
  3 17  1  0  0  0  0
  3 26  1  0  0  0  0
  4 17  2  0  0  0  0
  5 18  2  0  0  0  0
  6 19  2  0  0  0  0
  7  8  1  0  0  0  0
  7  9  1  0  0  0  0
  7 17  1  0  0  0  0
  7 27  1  0  0  0  0
  8 10  1  0  0  0  0
  8 28  1  0  0  0  0
  8 29  1  0  0  0  0
  9 11  1  0  0  0  0
  9 30  1  0  0  0  0
  9 31  1  0  0  0  0
 10 12  1  0  0  0  0
 10 32  1  0  0  0  0
 10 33  1  0  0  0  0
 11 12  2  0  0  0  0
 11 13  1  0  0  0  0
 12 14  1  0  0  0  0
 13 15  2  0  0  0  0
 14 16  2  0  0  0  0
 15 16  1  0  0  0  0
 15 18  1  0  0  0  0
 16 19  1  0  0  0  0
 18 20  1  0  0  0  0
 19 21  1  0  0  0  0
 20 21  1  0  0  0  0
 20 22  2  0  0  0  0
 21 23  2  0  0  0  0
 22 24  1  0  0  0  0
 22 36  1  0  0  0  0
 23 25  1  0  0  0  0
 23 37  1  0  0  0  0
 24 25  2  0  0  0  0
 24 38  1  0  0  0  0
 25 39  1  0  0  0  0
 26 40  1  0  0  0  0
 26 41  1  0  0  0  0
 26 42  1  0  0  0  0
M  END
> <PUBCHEM_COMPOUND_CID>
13455970

> <PUBCHEM_CONFORMER_RMSD>
0.6

> <PUBCHEM_CONFORMER_DIVERSEORDER>
3
9
8
2
7
1
4
6
5

> <PUBCHEM_MMFF94_PARTIAL_CHARGES>
31
1 -0.53
10 0.14
11 -0.14
12 -0.14
13 0.08
14 0.08
15 0.09
16 0.09
17 0.66
18 0.4
19 0.4
2 -0.53
20 0.09
21 0.09
22 -0.15
23 -0.15
24 -0.15
25 -0.15
26 0.28
3 -0.43
34 0.45
35 0.45
36 0.15
37 0.15
38 0.15
39 0.15
4 -0.57
5 -0.57
6 -0.57
7 0.06
9 0.14

> <PUBCHEM_EFFECTIVE_ROTOR_COUNT>
2.8

> <PUBCHEM_PHARMACOPHORE_FEATURES>
9
1 1 donor
1 2 donor
1 4 acceptor
1 5 acceptor
1 6 acceptor
6 11 12 13 14 15 16 rings
6 15 16 18 19 20 21 rings
6 20 21 22 23 24 25 rings
6 7 8 9 10 11 12 rings

> <PUBCHEM_HEAVY_ATOM_COUNT>
26

> <PUBCHEM_ATOM_DEF_STEREO_COUNT>
0

> <PUBCHEM_ATOM_UDEF_STEREO_COUNT>
1

> <PUBCHEM_BOND_DEF_STEREO_COUNT>
0

> <PUBCHEM_BOND_UDEF_STEREO_COUNT>
0

> <PUBCHEM_ISOTOPIC_ATOM_COUNT>
0

> <PUBCHEM_COMPONENT_COUNT>
1

> <PUBCHEM_CACTVS_TAUTO_COUNT>
156

> <PUBCHEM_CONFORMER_ID>
00CD526200000003

> <PUBCHEM_MMFF94_ENERGY>
79.0156

> <PUBCHEM_FEATURE_SELFOVERLAP>
45.734

> <PUBCHEM_SHAPE_FINGERPRINT>
10411042 1 17761775062057716730
10906281 52 18336281097065060262
10967382 1 18410011040004855938
1100329 8 18338799034580054704
11089746 13 17775563160785444225
11578080 2 13769363958474697988
12011746 2 18410578396673727518
12107183 9 17693382139931216673
12236239 1 18060699485610041341
12788726 201 17560526092816158393
12838862 33 18338217341774611808
13140716 1 18337391650868995258
13402501 40 18408322202549290164
14251764 18 18342178873869425201
14790565 3 18410015471904937156
15183329 4 18409725154138982349
15196674 1 18338236071878835938
1601671 61 18409165523910229812
16087824 20 18337392626318110661
18608769 82 18337676438358053523
18681886 176 18200867478181180307
19591789 44 18265895954808001978
200 152 18131350851236022746
20511986 3 18201144503930455201
20642791 178 18042698375645295828
21033648 29 18058719325287462154
21236236 1 18339360876796170263
21267235 1 18338242660058215018
21279426 13 18411704274705008566
21298829 104 18413392020706300057
21304253 335 18335989730652008405
21421861 104 17968647221276962082
21792934 111 18266164064009829920
23402539 116 18343016739498182198
23559900 14 18269549593202783968
24771293 8 18199175364969405720
3004659 81 18334013900526763948
335352 9 18410293623246588238
34797466 226 16630250319450022601
34934 24 18410853269753324347
350125 39 18409449176372614724
3545911 37 18410575106137915407
3680242 22 18262233326972765442
38695281 34 18273215296329706775
4073 2 18113904917671392658
4093350 32 17346322544258881463
5104073 3 18335415824564036970
59755656 215 18410295791972957574
6138700 20 18409730638801786710
6328613 192 18410295838833014805
7226269 152 18060143128764203537
7495541 125 12901554558823265607

> <PUBCHEM_SHAPE_MULTIPOLES>
499.85
14.23
2.76
0.64
8.01
0.46
-0.01
-5.95
0.21
0.09
0.07
0.2
-0.01
-0.52

> <PUBCHEM_SHAPE_SELFOVERLAP>
1125.194

> <PUBCHEM_SHAPE_VOLUME>
259.9

> <PUBCHEM_COORDINATE_TYPE>
2
5
10

$$$$
