REMARK  Name = 13456600
REMARK  5 active torsions:
REMARK  status: ('A' for Active; 'I' for Inactive)
REMARK    1  A    between atoms: C_6  and  C_22
REMARK    2  A    between atoms: C_10  and  O_18
REMARK    3  A    between atoms: C_13  and  O_20
REMARK    4  A    between atoms: C_22  and  O_23
REMARK    5  A    between atoms: O_23  and  C_25
REMARK                            x       y       z     vdW  Elec       q    Type
REMARK                         _______ _______ _______ _____ _____    ______ ____
ROOT
ATOM      1  O   UNL     1      -2.138   0.036  -2.212  0.00  0.00    -0.351 OA
ATOM      2  O   UNL     1      -2.073   1.317   0.524  0.00  0.00    -0.349 OA
ATOM      3  O   UNL     1       2.451   2.338  -1.357  0.00  0.00    -0.289 OA
ATOM      4  C   UNL     1      -0.956  -1.169  -0.298  0.00  0.00    +0.039 C 
ATOM      5  C   UNL     1      -2.190  -0.554  -0.922  0.00  0.00    +0.147 C 
ATOM      6  C   UNL     1       0.046   0.022   0.099  0.00  0.00    +0.103 C 
ATOM      7  C   UNL     1      -2.867   0.178   0.178  0.00  0.00    +0.169 C 
ATOM      8  C   UNL     1      -1.629  -1.767   1.003  0.00  0.00    +0.035 C 
ATOM      9  C   UNL     1      -2.971  -1.129  -2.083  0.00  0.00    +0.172 C 
ATOM     10  C   UNL     1      -2.900  -0.916   1.258  0.00  0.00    +0.140 C 
ATOM     11  C   UNL     1      -0.737   1.053   0.988  0.00  0.00    +0.143 C 
ATOM     12  C   UNL     1      -0.332  -2.297  -1.121  0.00  0.00    +0.003 C 
ATOM     13  C   UNL     1       0.607   0.796  -1.135  0.00  0.00    +0.177 C 
ATOM     14  C   UNL     1      -0.072   2.395   1.129  0.00  0.00    +0.002 C 
ATOM     15  C   UNL     1       1.433   2.017  -0.745  0.00  0.00    +0.196 C 
ATOM     16  C   UNL     1       0.937   2.860   0.379  0.00  0.00    +0.013 C 
ATOM     17  C   UNL     1       1.593   4.184   0.604  0.00  0.00    +0.034 C 
ENDROOT
BRANCH  10  18
ATOM     18  O   UNL     1      -2.953  -0.408   2.574  0.00  0.00    -0.382 OA
ATOM     19  H   UNL     1      -3.762   0.116   2.686  0.00  0.00    +0.210 HD
ENDBRANCH  10  18
BRANCH  13  20
ATOM     20  O   UNL     1       1.401  -0.010  -1.989  0.00  0.00    -0.377 OA
ATOM     21  H   UNL     1       0.898  -0.796  -2.252  0.00  0.00    +0.211 HD
ENDBRANCH  13  20
BRANCH   6  22
ATOM     22  C   UNL     1       1.251  -0.529   0.921  0.00  0.00    +0.214 C 
BRANCH  22  23
ATOM     23  O   UNL     1       1.925  -1.454   0.105  0.00  0.00    -0.448 OA
BRANCH  23  25
ATOM     24  O   UNL     1       3.445  -1.839   1.784  0.00  0.00    -0.250 OA
ATOM     25  C   UNL     1       3.037  -2.068   0.646  0.00  0.00    +0.318 C 
ATOM     26  C   UNL     1       3.693  -3.056  -0.331  0.00  0.00    +0.121 C 
ENDBRANCH  23  25
ENDBRANCH  22  23
ENDBRANCH   6  22
TORSDOF 5
