REMARK  Name = 134611890
REMARK  5 active torsions:
REMARK  status: ('A' for Active; 'I' for Inactive)
REMARK    1  A    between atoms: C_1  and  S_18
REMARK    2  A    between atoms: C_4  and  N_9
REMARK    3  A    between atoms: S_18  and  N_21
REMARK    4  A    between atoms: N_21  and  C_23
REMARK    5  A    between atoms: C_23  and  C_24
REMARK                            x       y       z     vdW  Elec       q    Type
REMARK                         _______ _______ _______ _____ _____    ______ ____
ROOT
ATOM      1  C   UNL     1      -0.949   1.529  -0.364  0.00  0.00    +0.122 C 
ATOM      2  C   UNL     1      -0.254   0.487  -0.977  0.00  0.00    +0.021 C 
ATOM      3  C   UNL     1      -0.287   2.386   0.515  0.00  0.00    +0.021 C 
ATOM      4  C   UNL     1       1.765   1.158   0.168  0.00  0.00    +0.052 C 
ATOM      5  C   UNL     1       1.103   0.301  -0.712  0.00  0.00    +0.016 C 
ATOM      6  C   UNL     1       1.070   2.201   0.781  0.00  0.00    +0.016 C 
ENDROOT
BRANCH   4   9
ATOM      7  S   UNL     1       7.866  -0.111   1.018  0.00  0.00    -0.051 S 
ATOM      8  O   UNL     1       3.670  -0.892  -0.874  0.00  0.00    -0.252 OA
ATOM      9  N   UNL     1       3.122   0.973   0.434  0.00  0.00    -0.268 N 
ATOM     10  N   UNL     1       5.284   0.162   0.450  0.00  0.00    -0.248 N 
ATOM     11  N   UNL     1       6.559  -1.651  -0.596  0.00  0.00    -0.222 NA
ATOM     12  C   UNL     1       3.997  -0.015  -0.081  0.00  0.00    +0.310 C 
ATOM     13  C   UNL     1       6.444  -0.607   0.195  0.00  0.00    +0.167 C 
ATOM     14  C   UNL     1       8.720  -1.394   0.264  0.00  0.00    +0.059 C 
ATOM     15  C   UNL     1       7.864  -2.101  -0.555  0.00  0.00    +0.108 C 
ATOM     16  H   UNL     1       3.525   1.614   1.063  0.00  0.00    +0.156 HD
ATOM     17  H   UNL     1       5.394   0.913   1.077  0.00  0.00    +0.158 HD
ENDBRANCH   4   9
BRANCH   1  18
ATOM     18  S   UNL     1      -2.671   1.764  -0.702  0.00  0.00    +0.064 S 
ATOM     19  O   UNL     1      -2.970   3.164  -0.461  0.00  0.00    -0.153 OA
ATOM     20  O   UNL     1      -2.935   1.193  -2.009  0.00  0.00    -0.153 OA
BRANCH  18  21
ATOM     21  N   UNL     1      -3.428   0.799   0.510  0.00  0.00    -0.150 NA
ATOM     22  C   UNL     1      -3.158   1.133   1.932  0.00  0.00    +0.115 C 
BRANCH  21  23
ATOM     23  C   UNL     1      -3.493  -0.668   0.287  0.00  0.00    +0.122 C 
BRANCH  23  24
ATOM     24  C   UNL     1      -4.907  -1.170   0.206  0.00  0.00    -0.004 C 
ATOM     25  C   UNL     1      -5.568  -1.584   1.362  0.00  0.00    -0.003 C 
ATOM     26  C   UNL     1      -5.559  -1.221  -1.026  0.00  0.00    -0.003 C 
ATOM     27  C   UNL     1      -6.881  -2.050   1.286  0.00  0.00    -0.000 C 
ATOM     28  C   UNL     1      -6.872  -1.686  -1.103  0.00  0.00    -0.000 C 
ATOM     29  C   UNL     1      -7.533  -2.101   0.054  0.00  0.00    -0.000 C 
ENDBRANCH  23  24
ENDBRANCH  21  23
ENDBRANCH  18  21
ENDBRANCH   1  18
TORSDOF 5
