REMARK  Name = 134686
REMARK  6 active torsions:
REMARK  status: ('A' for Active; 'I' for Inactive)
REMARK    1  A    between atoms: C_1  and  N_4
REMARK    2  A    between atoms: C_1  and  C_10
REMARK    3  A    between atoms: C_1  and  C_13
REMARK    4  A    between atoms: C_10  and  O_11
REMARK    5  A    between atoms: C_13  and  C_14
REMARK    6  A    between atoms: C_14  and  S_15
REMARK                            x       y       z     vdW  Elec       q    Type
REMARK                         _______ _______ _______ _____ _____    ______ ____
ROOT
ATOM      1  C   UNL     1      -0.606  -0.923  -0.601  0.00  0.00    +0.183 C 
ENDROOT
BRANCH   1   4
ATOM      2  O   UNL     1      -1.781   1.259  -2.255  0.00  0.00    -0.269 OA
ATOM      3  O   UNL     1      -1.087   0.121   2.151  0.00  0.00    -0.269 OA
ATOM      4  N   UNL     1      -1.238   0.303  -0.184  0.00  0.00    -0.214 N 
ATOM      5  C   UNL     1      -1.752   1.250  -1.036  0.00  0.00    +0.256 C 
ATOM      6  C   UNL     1      -1.411   0.690   1.123  0.00  0.00    +0.256 C 
ATOM      7  C   UNL     1      -2.298   2.322  -0.191  0.00  0.00    +0.063 C 
ATOM      8  C   UNL     1      -2.096   1.992   1.085  0.00  0.00    +0.063 C 
ENDBRANCH   1   4
BRANCH   1  10
ATOM      9  O   UNL     1      -1.071  -3.297  -0.500  0.00  0.00    -0.248 OA
ATOM     10  C   UNL     1      -1.385  -2.158  -0.173  0.00  0.00    +0.333 C 
BRANCH  10  11
ATOM     11  O   UNL     1      -2.431  -1.904   0.651  0.00  0.00    -0.479 OA
ATOM     12  H   UNL     1      -2.643  -1.020   0.881  0.00  0.00    +0.295 HD
ENDBRANCH  10  11
ENDBRANCH   1  10
BRANCH   1  13
ATOM     13  C   UNL     1       0.854  -0.975  -0.140  0.00  0.00    +0.057 C 
BRANCH  13  14
ATOM     14  C   UNL     1       1.660   0.269  -0.500  0.00  0.00    +0.153 C 
BRANCH  14  15
ATOM     15  S   UNL     1       3.319   0.149   0.095  0.00  0.00    -0.008 S 
ATOM     16  O   UNL     1       3.285   0.202   1.546  0.00  0.00    -0.173 OA
ATOM     17  O   UNL     1       3.967  -0.955  -0.591  0.00  0.00    -0.173 OA
ATOM     18  C   UNL     1       4.071   1.654  -0.480  0.00  0.00    +0.176 C 
ENDBRANCH  14  15
ENDBRANCH  13  14
ENDBRANCH   1  13
TORSDOF 6
