REMARK  Name = 134693241
REMARK  10 active torsions:
REMARK  status: ('A' for Active; 'I' for Inactive)
REMARK    1  A    between atoms: CA_1  and  C_8
REMARK    2  A    between atoms: CA_1  and  N_14
REMARK    3  A    between atoms: CA_1  and  CB_27
REMARK    4  A    between atoms: CA_4  and  C_10
REMARK    5  A    between atoms: C_10  and  O_11
REMARK    6  A    between atoms: C_15  and  C_18
REMARK    7  A    between atoms: C_19  and  C_22
REMARK    8  A    between atoms: N_21  and  C_24
REMARK    9  A    between atoms: C_24  and  C_25
REMARK   10  A    between atoms: CB_27  and  CG1_29
REMARK                            x       y       z     vdW  Elec       q    Type
REMARK                         _______ _______ _______ _____ _____    ______ ____
ROOT
ATOM      1  CA  UNL     1       0.221  -1.217   0.421  0.00  0.00    +0.149 C 
ENDROOT
BRANCH   1   8
ATOM      2  O   UNL     1       0.936  -0.242  -1.631  0.00  0.00    -0.273 OA
ATOM      3  N   UNL     1       1.982   0.480   0.304  0.00  0.00    -0.270 N 
ATOM      4  CA  UNL     1       2.764   1.542  -0.316  0.00  0.00    +0.175 C 
ATOM      5  CB  UNL     1       3.253   2.393   0.849  0.00  0.00    +0.033 C 
ATOM      6  CD  UNL     1       2.174   0.461   1.752  0.00  0.00    +0.094 C 
ATOM      7  CG  UNL     1       3.347   1.397   2.002  0.00  0.00    +0.024 C 
ATOM      8  C   UNL     1       1.069  -0.284  -0.406  0.00  0.00    +0.244 C 
BRANCH   4  10
ATOM      9  OXT UNL     1       4.429  -0.165  -0.717  0.00  0.00    -0.248 OA
ATOM     10  C   UNL     1       3.900   0.887  -1.044  0.00  0.00    +0.332 C 
BRANCH  10  11
ATOM     11  O   UNL     1       4.267   1.625  -2.119  0.00  0.00    -0.479 OA
ATOM     12  H   UNL     1       3.819   2.425  -2.314  0.00  0.00    +0.295 HD
ENDBRANCH  10  11
ENDBRANCH   4  10
ENDBRANCH   1   8
BRANCH   1  14
ATOM     13  O   UNL     1      -2.380  -1.371   1.713  0.00  0.00    -0.272 OA
ATOM     14  N   UNL     1      -1.068  -1.246  -0.208  0.00  0.00    -0.296 N 
ATOM     15  C   ACE A   0      -2.262  -1.320   0.495  0.00  0.00    +0.253 C 
ATOM     16  H   UNL     1      -1.107  -1.210  -1.191  0.00  0.00    +0.150 HD
BRANCH  15  18
ATOM     17  O   UNL     1      -4.452  -0.384   0.058  0.00  0.00    -0.335 OA
ATOM     18  C   UNL     1      -3.483  -1.335  -0.364  0.00  0.00    +0.227 C 
ATOM     19  C   UNL     1      -3.828  -0.160  -1.213  0.00  0.00    +0.227 C 
BRANCH  19  22
ATOM     20  O   UNL     1      -2.148   1.169  -2.120  0.00  0.00    -0.272 OA
ATOM     21  N   UNL     1      -3.301   1.964  -0.260  0.00  0.00    -0.302 N 
ATOM     22  C   UNL     1      -3.006   1.050  -1.253  0.00  0.00    +0.253 C 
ATOM     23  H   UNL     1      -4.018   1.747   0.379  0.00  0.00    +0.150 HD
BRANCH  21  24
ATOM     24  C   UNL     1      -2.609   3.224  -0.115  0.00  0.00    +0.089 C 
BRANCH  24  25
ATOM     25  C   UNL     1      -1.388   3.115   0.790  0.00  0.00    +0.021 C 
ATOM     26  C   UNL     1      -1.737   2.638   2.193  0.00  0.00    +0.002 C 
ENDBRANCH  24  25
ENDBRANCH  21  24
ENDBRANCH  19  22
ENDBRANCH  15  18
ENDBRANCH   1  14
BRANCH   1  27
ATOM     27  CB  UNL     1       0.883  -2.597   0.576  0.00  0.00    +0.027 C 
ATOM     28  CG2 UNL     1       0.345  -3.285   1.837  0.00  0.00    +0.002 C 
BRANCH  27  29
ATOM     29  CG1 UNL     1       0.710  -3.490  -0.674  0.00  0.00    +0.002 C 
ATOM     30  CD1 UNL     1       1.385  -4.850  -0.547  0.00  0.00    +0.000 C 
ENDBRANCH  27  29
ENDBRANCH   1  27
TORSDOF 10
