REMARK  Name = 134687173
REMARK  2 active torsions:
REMARK  status: ('A' for Active; 'I' for Inactive)
REMARK    1  A    between atoms: C_9  and  C_34
REMARK    2  A    between atoms: C_16  and  O_37
REMARK                            x       y       z     vdW  Elec       q    Type
REMARK                         _______ _______ _______ _____ _____    ______ ____
ROOT
ATOM      1  O   UNL     1       3.319   0.254  -0.118  0.00  0.00    -0.451 OA
ATOM      2  O   UNL     1       5.603   0.350  -0.358  0.00  0.00    -0.248 OA
ATOM      3  O   UNL     1      -0.852  -3.214   1.195  0.00  0.00    -0.447 OA
ATOM      4  O   UNL     1      -0.115   2.955   0.946  0.00  0.00    -0.270 OA
ATOM      5  O   UNL     1       2.793  -2.949  -1.474  0.00  0.00    -0.268 OA
ATOM      6  N   UNL     1       3.227  -2.176   0.664  0.00  0.00    -0.291 N 
ATOM      7  N   UNL     1      -1.825   3.973  -0.256  0.00  0.00    -0.297 N 
ATOM      8  N   UNL     1       0.068  -3.208  -0.868  0.00  0.00    -0.367 NA
ATOM      9  C   UNL     1       3.130   1.611  -0.590  0.00  0.00    +0.173 C 
ATOM     10  C   UNL     1       1.705   1.683  -1.189  0.00  0.00    +0.062 C 
ATOM     11  C   UNL     1       1.565   0.723  -2.381  0.00  0.00    +0.008 C 
ATOM     12  C   UNL     1       1.336   3.073  -1.653  0.00  0.00    -0.018 C 
ATOM     13  C   UNL     1       4.579  -0.257  -0.066  0.00  0.00    +0.335 C 
ATOM     14  C   UNL     1       4.584  -1.710   0.402  0.00  0.00    +0.172 C 
ATOM     15  C   UNL     1       0.353   3.867  -1.203  0.00  0.00    +0.053 C 
ATOM     16  C   UNL     1      -3.368  -2.419  -0.221  0.00  0.00    +0.121 C 
ATOM     17  C   UNL     1      -4.572  -2.341  -1.173  0.00  0.00    +0.034 C 
ATOM     18  C   UNL     1      -2.421  -3.554  -0.638  0.00  0.00    +0.128 C 
ATOM     19  C   UNL     1       5.443  -1.853   1.650  0.00  0.00    +0.033 C 
ATOM     20  C   UNL     1      -5.651  -1.316  -0.786  0.00  0.00    +0.028 C 
ATOM     21  C   UNL     1      -1.033  -3.328  -0.155  0.00  0.00    +0.255 C 
ATOM     22  C   UNL     1      -0.527   3.534  -0.053  0.00  0.00    +0.246 C 
ATOM     23  C   UNL     1       2.420  -2.720  -0.327  0.00  0.00    +0.276 C 
ATOM     24  C   UNL     1      -5.116   0.078  -0.605  0.00  0.00    -0.030 C 
ATOM     25  C   UNL     1       1.047  -2.959   0.069  0.00  0.00    +0.209 C 
ATOM     26  C   UNL     1      -5.464   0.959   0.354  0.00  0.00    -0.026 C 
ATOM     27  C   UNL     1       0.482  -2.969   1.325  0.00  0.00    +0.271 C 
ATOM     28  C   UNL     1      -2.870   3.798   0.736  0.00  0.00    +0.116 C 
ATOM     29  C   UNL     1      -4.826   2.265   0.451  0.00  0.00    -0.007 C 
ATOM     30  C   UNL     1      -3.501   2.451   0.564  0.00  0.00    -0.005 C 
ATOM     31  C   UNL     1      -6.544   0.741   1.378  0.00  0.00    +0.031 C 
ATOM     32  H   UNL     1       2.870  -2.102   1.579  0.00  0.00    +0.150 HD
ATOM     33  H   UNL     1      -2.047   4.420  -1.105  0.00  0.00    +0.150 HD
ENDROOT
BRANCH   9  34
ATOM     34  C   UNL     1       3.326   2.549   0.600  0.00  0.00    +0.041 C 
ATOM     35  C   UNL     1       4.809   2.842   0.812  0.00  0.00    +0.004 C 
ATOM     36  C   UNL     1       2.710   1.950   1.862  0.00  0.00    +0.004 C 
ENDBRANCH   9  34
BRANCH  16  37
ATOM     37  O   UNL     1      -3.814  -2.682   1.108  0.00  0.00    -0.384 OA
ATOM     38  H   UNL     1      -4.415  -1.975   1.393  0.00  0.00    +0.210 HD
ENDBRANCH  16  37
TORSDOF 2
