134694237
  -OEChem-03292013293D

 63 67  0     1  0  0  0  0  0999 V2000
    2.4386   -0.0352   -0.3402 O   0  0  0  0  0  0  0  0  0  0  0  0
    2.9978   -2.1011   -1.3673 O   0  0  0  0  0  0  0  0  0  0  0  0
    2.8391    4.2970   -0.7798 O   0  0  0  0  0  0  0  0  0  0  0  0
    3.1354   -3.9422    1.8029 O   0  0  0  0  0  0  0  0  0  0  0  0
   -0.0577   -1.3935   -1.4290 O   0  0  0  0  0  0  0  0  0  0  0  0
   -1.9408    3.3743    0.6153 O   0  0  0  0  0  0  0  0  0  0  0  0
    2.2820    2.0434    1.7258 O   0  0  0  0  0  0  0  0  0  0  0  0
   -2.3420   -2.3698   -1.0203 O   0  0  0  0  0  0  0  0  0  0  0  0
   -4.1627    2.2420    0.9703 O   0  0  0  0  0  0  0  0  0  0  0  0
    5.4342   -2.1032    2.0505 N   0  0  0  0  0  0  0  0  0  0  0  0
    1.7359    0.7306   -1.3168 C   0  0  2  0  0  0  0  0  0  0  0  0
    2.1943    3.0729   -0.4288 C   0  0  2  0  0  0  0  0  0  0  0  0
    2.4492    2.0651   -1.5496 C   0  0  0  0  0  0  0  0  0  0  0  0
    0.6978    3.3282   -0.2334 C   0  0  0  0  0  0  0  0  0  0  0  0
    0.3108    0.8842   -0.8477 C   0  0  0  0  0  0  0  0  0  0  0  0
   -0.1647    2.0921   -0.3102 C   0  0  0  0  0  0  0  0  0  0  0  0
    3.4644   -0.8217   -0.9381 C   0  0  2  0  0  0  0  0  0  0  0  0
    4.2520   -1.8687    1.2194 C   0  0  1  0  0  0  0  0  0  0  0  0
    4.6318   -0.9748    0.0347 C   0  0  0  0  0  0  0  0  0  0  0  0
    3.6692   -3.1956    0.7131 C   0  0  2  0  0  0  0  0  0  0  0  0
    2.5435   -2.9348   -0.2981 C   0  0  2  0  0  0  0  0  0  0  0  0
   -0.5509   -0.2243   -0.9184 C   0  0  0  0  0  0  0  0  0  0  0  0
    2.8777    2.6612    0.8446 C   0  0  0  0  0  0  0  0  0  0  0  0
   -1.4980    2.1771    0.1243 C   0  0  0  0  0  0  0  0  0  0  0  0
   -1.8750   -0.1326   -0.4747 C   0  0  0  0  0  0  0  0  0  0  0  0
   -2.3490    1.0689    0.0457 C   0  0  0  0  0  0  0  0  0  0  0  0
    2.0349   -4.2328   -0.9198 C   0  0  0  0  0  0  0  0  0  0  0  0
    4.3264    3.0422    0.9892 C   0  0  0  0  0  0  0  0  0  0  0  0
   -2.7594   -1.3128   -0.5637 C   0  0  0  0  0  0  0  0  0  0  0  0
   -3.7453    1.1847    0.5145 C   0  0  0  0  0  0  0  0  0  0  0  0
   -4.1552   -1.1995   -0.0939 C   0  0  0  0  0  0  0  0  0  0  0  0
   -4.6312    0.0060    0.4260 C   0  0  0  0  0  0  0  0  0  0  0  0
   -5.0042   -2.3098   -0.1722 C   0  0  0  0  0  0  0  0  0  0  0  0
   -5.9562    0.1011    0.8680 C   0  0  0  0  0  0  0  0  0  0  0  0
   -6.3239   -2.2108    0.2694 C   0  0  0  0  0  0  0  0  0  0  0  0
   -6.7988   -1.0079    0.7885 C   0  0  0  0  0  0  0  0  0  0  0  0
    1.7157    0.1976   -2.2785 H   0  0  0  0  0  0  0  0  0  0  0  0
    3.5262    1.9107   -1.6860 H   0  0  0  0  0  0  0  0  0  0  0  0
    2.0920    2.5028   -2.4927 H   0  0  0  0  0  0  0  0  0  0  0  0
    0.3502    4.0267   -1.0071 H   0  0  0  0  0  0  0  0  0  0  0  0
    0.5448    3.8360    0.7282 H   0  0  0  0  0  0  0  0  0  0  0  0
    3.8620   -0.3198   -1.8285 H   0  0  0  0  0  0  0  0  0  0  0  0
    3.5072   -1.3569    1.8424 H   0  0  0  0  0  0  0  0  0  0  0  0
    5.4769   -1.4282   -0.5006 H   0  0  0  0  0  0  0  0  0  0  0  0
    4.9520    0.0090    0.3974 H   0  0  0  0  0  0  0  0  0  0  0  0
    4.4603   -3.7932    0.2426 H   0  0  0  0  0  0  0  0  0  0  0  0
    1.6945   -2.4555    0.2044 H   0  0  0  0  0  0  0  0  0  0  0  0
    3.6747    4.1024   -1.2365 H   0  0  0  0  0  0  0  0  0  0  0  0
    2.8393   -4.7523   -1.4521 H   0  0  0  0  0  0  0  0  0  0  0  0
    1.2558   -4.0217   -1.6603 H   0  0  0  0  0  0  0  0  0  0  0  0
    1.6201   -4.9077   -0.1653 H   0  0  0  0  0  0  0  0  0  0  0  0
    5.1769   -2.6724    2.8558 H   0  0  0  0  0  0  0  0  0  0  0  0
    5.7750   -1.2166    2.4199 H   0  0  0  0  0  0  0  0  0  0  0  0
    4.7446    2.5213    1.8564 H   0  0  0  0  0  0  0  0  0  0  0  0
    4.4246    4.1173    1.1577 H   0  0  0  0  0  0  0  0  0  0  0  0
    4.8985    2.7324    0.1116 H   0  0  0  0  0  0  0  0  0  0  0  0
    2.4429   -3.4054    2.2247 H   0  0  0  0  0  0  0  0  0  0  0  0
   -0.6383   -2.1380   -1.2127 H   0  0  0  0  0  0  0  0  0  0  0  0
   -2.9077    3.3911    0.6688 H   0  0  0  0  0  0  0  0  0  0  0  0
   -4.6580   -3.2588   -0.5728 H   0  0  0  0  0  0  0  0  0  0  0  0
   -6.3504    1.0276    1.2767 H   0  0  0  0  0  0  0  0  0  0  0  0
   -6.9821   -3.0726    0.2086 H   0  0  0  0  0  0  0  0  0  0  0  0
   -7.8266   -0.9336    1.1316 H   0  0  0  0  0  0  0  0  0  0  0  0
  1 11  1  0  0  0  0
  1 17  1  0  0  0  0
  2 17  1  0  0  0  0
  2 21  1  0  0  0  0
  3 12  1  0  0  0  0
  3 48  1  0  0  0  0
  4 20  1  0  0  0  0
  4 57  1  0  0  0  0
  5 22  1  0  0  0  0
  5 58  1  0  0  0  0
  6 24  1  0  0  0  0
  6 59  1  0  0  0  0
  7 23  2  0  0  0  0
  8 29  2  0  0  0  0
  9 30  2  0  0  0  0
 10 18  1  0  0  0  0
 10 52  1  0  0  0  0
 10 53  1  0  0  0  0
 11 13  1  0  0  0  0
 11 15  1  0  0  0  0
 11 37  1  0  0  0  0
 12 13  1  0  0  0  0
 12 14  1  0  0  0  0
 12 23  1  0  0  0  0
 13 38  1  0  0  0  0
 13 39  1  0  0  0  0
 14 16  1  0  0  0  0
 14 40  1  0  0  0  0
 14 41  1  0  0  0  0
 15 16  2  0  0  0  0
 15 22  1  0  0  0  0
 16 24  1  0  0  0  0
 17 19  1  0  0  0  0
 17 42  1  0  0  0  0
 18 19  1  0  0  0  0
 18 20  1  0  0  0  0
 18 43  1  0  0  0  0
 19 44  1  0  0  0  0
 19 45  1  0  0  0  0
 20 21  1  0  0  0  0
 20 46  1  0  0  0  0
 21 27  1  0  0  0  0
 21 47  1  0  0  0  0
 22 25  2  0  0  0  0
 23 28  1  0  0  0  0
 24 26  2  0  0  0  0
 25 26  1  0  0  0  0
 25 29  1  0  0  0  0
 26 30  1  0  0  0  0
 27 49  1  0  0  0  0
 27 50  1  0  0  0  0
 27 51  1  0  0  0  0
 28 54  1  0  0  0  0
 28 55  1  0  0  0  0
 28 56  1  0  0  0  0
 29 31  1  0  0  0  0
 30 32  1  0  0  0  0
 31 32  1  0  0  0  0
 31 33  2  0  0  0  0
 32 34  2  0  0  0  0
 33 35  1  0  0  0  0
 33 60  1  0  0  0  0
 34 36  1  0  0  0  0
 34 61  1  0  0  0  0
 35 36  2  0  0  0  0
 35 62  1  0  0  0  0
 36 63  1  0  0  0  0
M  END
> <PUBCHEM_COMPOUND_CID>
134694237

> <PUBCHEM_CONFORMER_RMSD>
0.8

> <PUBCHEM_CONFORMER_DIVERSEORDER>
4
32
21
30
39
31
8
12
19
2
29
11
25
3
26
15
34
9
35
5
23
38
10
7
18
28
27
22
13
16
36
1
20
24
6
37
17
14
33

> <PUBCHEM_MMFF94_PARTIAL_CHARGES>
43
1 -0.56
10 -0.99
11 0.42
12 0.34
14 0.14
15 -0.14
16 -0.14
17 0.56
18 0.27
2 -0.56
20 0.28
21 0.28
22 0.08
23 0.45
24 0.08
25 0.09
26 0.09
28 0.06
29 0.4
3 -0.68
30 0.4
31 0.09
32 0.09
33 -0.15
34 -0.15
35 -0.15
36 -0.15
4 -0.68
48 0.4
5 -0.53
52 0.36
53 0.36
57 0.4
58 0.45
59 0.45
6 -0.53
60 0.15
61 0.15
62 0.15
63 0.15
7 -0.57
8 -0.57
9 -0.57

> <PUBCHEM_EFFECTIVE_ROTOR_COUNT>
5

> <PUBCHEM_PHARMACOPHORE_FEATURES>
18
1 1 acceptor
1 10 cation
1 10 donor
1 2 acceptor
1 3 acceptor
1 3 donor
1 4 acceptor
1 4 donor
1 5 donor
1 6 donor
1 7 acceptor
1 8 acceptor
1 9 acceptor
6 11 12 13 14 15 16 rings
6 15 16 22 24 25 26 rings
6 2 17 18 19 20 21 rings
6 25 26 29 30 31 32 rings
6 31 32 33 34 35 36 rings

> <PUBCHEM_HEAVY_ATOM_COUNT>
36

> <PUBCHEM_ATOM_DEF_STEREO_COUNT>
4

> <PUBCHEM_ATOM_UDEF_STEREO_COUNT>
2

> <PUBCHEM_BOND_DEF_STEREO_COUNT>
0

> <PUBCHEM_BOND_UDEF_STEREO_COUNT>
0

> <PUBCHEM_ISOTOPIC_ATOM_COUNT>
0

> <PUBCHEM_COMPONENT_COUNT>
1

> <PUBCHEM_CACTVS_TAUTO_COUNT>
144

> <PUBCHEM_CONFORMER_ID>
0807455D00000004

> <PUBCHEM_MMFF94_ENERGY>
104.6168

> <PUBCHEM_FEATURE_SELFOVERLAP>
91.454

> <PUBCHEM_SHAPE_FINGERPRINT>
10169797 241 18191327037362849938
10439779 11 17982739567358075793
1100329 8 18124046624501220885
11135926 11 18265889353158594412
11578080 2 14117234039660126876
11756154 67 18051421673304045518
11963148 33 17977943819892450759
12107183 9 18267879276791222681
12422481 6 17984157967659437579
12553582 1 18339640019468353342
12788726 201 17758693143965253474
131258 43 17558011480196714694
13140716 1 18343021137502488820
13533116 47 18335989748322623859
13782708 43 17676774284010625331
13785724 45 18126301743818549135
14790565 3 17619919795494105701
14863182 85 18262799713190394340
15250474 111 18271523225713521263
15347590 135 17769668816867848427
15420108 30 17772744107677411374
15927050 60 17907302396809402254
1813 80 17531821142417481350
19301679 30 18408605894620851473
19319366 153 17976547426828122325
1979834 28 18059860515088890063
21033648 29 16844437216181793746
21421861 104 18411979199946152880
21703447 108 18413105086878786641
21792934 111 18342740715995682129
21859007 373 18042112169140656581
23559900 14 18411983563685933125
3117164 225 18198913500528220393
3411729 13 18200034091744546092
350125 39 18342465862740411301
3680242 22 18341063994790720129
3886686 26 17837492951404009081
4058900 60 17902808687885429668
4073 2 18046919452962030795
4461854 278 18201446891003996470
460360 51 18261942003831366669
50009960 94 17896301670846113363
5104073 3 18270695259271289971
5776283 40 18127431127697496124
613672 6 18122892149396360286
6823239 73 17843983463385577014
7097593 13 18338519629708814334

> <PUBCHEM_SHAPE_MULTIPOLES>
683.06
12.77
5.45
1.39
16.1
0.32
0.23
6.89
5.04
-6.58
0.56
-1.47
0.39
-1.36

> <PUBCHEM_SHAPE_SELFOVERLAP>
1518.017

> <PUBCHEM_SHAPE_VOLUME>
358.5

> <PUBCHEM_COORDINATE_TYPE>
2
5
10

$$$$
