134692567
  -OEChem-03292013293D

 44 45  0     1  0  0  0  0  0999 V2000
   -1.3440   -1.4231    0.1430 O   0  0  0  0  0  0  0  0  0  0  0  0
   -5.1727    0.1842   -0.3188 O   0  0  0  0  0  0  0  0  0  0  0  0
   -3.6717   -1.7908   -1.6126 O   0  0  0  0  0  0  0  0  0  0  0  0
   -1.2220   -4.2274    0.9657 O   0  0  0  0  0  0  0  0  0  0  0  0
    0.7357   -0.2775    0.0179 O   0  0  0  0  0  0  0  0  0  0  0  0
   -4.0885    3.0823   -0.7831 O   0  0  0  0  0  0  0  0  0  0  0  0
    1.9446    1.6369   -0.3537 O   0  0  0  0  0  0  0  0  0  0  0  0
   -2.7520    1.7770    0.6059 N   0  0  0  0  0  0  0  0  0  0  0  0
   -0.3496    0.5893   -0.1596 N   0  0  0  0  0  0  0  0  0  0  0  0
    2.9650   -0.4273    0.0600 N   0  0  0  0  0  0  0  0  0  0  0  0
   -3.9669   -0.3098    0.2609 C   0  0  1  0  0  0  0  0  0  0  0  0
   -3.7657   -1.7495   -0.1896 C   0  0  2  0  0  0  0  0  0  0  0  0
   -2.7929    0.5592   -0.1682 C   0  0  2  0  0  0  0  0  0  0  0  0
   -2.4818   -2.2633    0.4528 C   0  0  1  0  0  0  0  0  0  0  0  0
   -1.4396   -0.0942   -0.0306 C   0  0  0  0  0  0  0  0  0  0  0  0
   -2.1216   -3.6792    0.0189 C   0  0  0  0  0  0  0  0  0  0  0  0
   -3.4067    2.9367    0.2280 C   0  0  0  0  0  0  0  0  0  0  0  0
   -3.2190    4.0476    1.2262 C   0  0  0  0  0  0  0  0  0  0  0  0
    1.8998    0.4353   -0.1165 C   0  0  0  0  0  0  0  0  0  0  0  0
    4.3457   -0.1288    0.0090 C   0  0  0  0  0  0  0  0  0  0  0  0
    5.2856   -1.1390    0.2140 C   0  0  0  0  0  0  0  0  0  0  0  0
    4.7684    1.1757   -0.2461 C   0  0  0  0  0  0  0  0  0  0  0  0
    6.6482   -0.8446    0.1639 C   0  0  0  0  0  0  0  0  0  0  0  0
    6.1308    1.4701   -0.2962 C   0  0  0  0  0  0  0  0  0  0  0  0
    7.0708    0.4600   -0.0912 C   0  0  0  0  0  0  0  0  0  0  0  0
   -4.0905   -0.2760    1.3511 H   0  0  0  0  0  0  0  0  0  0  0  0
   -4.6278   -2.3621    0.0981 H   0  0  0  0  0  0  0  0  0  0  0  0
   -2.9079    0.8378   -1.2240 H   0  0  0  0  0  0  0  0  0  0  0  0
   -2.5835   -2.2421    1.5457 H   0  0  0  0  0  0  0  0  0  0  0  0
   -1.6343   -3.6891   -0.9615 H   0  0  0  0  0  0  0  0  0  0  0  0
   -3.0084   -4.3202   -0.0052 H   0  0  0  0  0  0  0  0  0  0  0  0
   -2.2418    1.7678    1.4852 H   0  0  0  0  0  0  0  0  0  0  0  0
   -5.9002   -0.3834   -0.0119 H   0  0  0  0  0  0  0  0  0  0  0  0
   -3.6522   -2.7246   -1.8813 H   0  0  0  0  0  0  0  0  0  0  0  0
   -1.0094   -5.1294    0.6711 H   0  0  0  0  0  0  0  0  0  0  0  0
   -3.5660    4.9913    0.7964 H   0  0  0  0  0  0  0  0  0  0  0  0
   -3.7968    3.8285    2.1282 H   0  0  0  0  0  0  0  0  0  0  0  0
   -2.1614    4.1499    1.4862 H   0  0  0  0  0  0  0  0  0  0  0  0
    2.7301   -1.3984    0.2505 H   0  0  0  0  0  0  0  0  0  0  0  0
    4.9696   -2.1597    0.4137 H   0  0  0  0  0  0  0  0  0  0  0  0
    4.1003    2.0088   -0.4145 H   0  0  0  0  0  0  0  0  0  0  0  0
    7.3801   -1.6310    0.3235 H   0  0  0  0  0  0  0  0  0  0  0  0
    6.4614    2.4856   -0.4948 H   0  0  0  0  0  0  0  0  0  0  0  0
    8.1316    0.6894   -0.1302 H   0  0  0  0  0  0  0  0  0  0  0  0
  1 14  1  0  0  0  0
  1 15  1  0  0  0  0
  2 11  1  0  0  0  0
  2 33  1  0  0  0  0
  3 12  1  0  0  0  0
  3 34  1  0  0  0  0
  4 16  1  0  0  0  0
  4 35  1  0  0  0  0
  5  9  1  0  0  0  0
  5 19  1  0  0  0  0
  6 17  2  0  0  0  0
  7 19  2  0  0  0  0
  8 13  1  0  0  0  0
  8 17  1  0  0  0  0
  8 32  1  0  0  0  0
  9 15  2  3  0  0  0
 10 19  1  0  0  0  0
 10 20  1  0  0  0  0
 10 39  1  0  0  0  0
 11 12  1  0  0  0  0
 11 13  1  0  0  0  0
 11 26  1  0  0  0  0
 12 14  1  0  0  0  0
 12 27  1  0  0  0  0
 13 15  1  0  0  0  0
 13 28  1  0  0  0  0
 14 16  1  0  0  0  0
 14 29  1  0  0  0  0
 16 30  1  0  0  0  0
 16 31  1  0  0  0  0
 17 18  1  0  0  0  0
 18 36  1  0  0  0  0
 18 37  1  0  0  0  0
 18 38  1  0  0  0  0
 20 21  2  0  0  0  0
 20 22  1  0  0  0  0
 21 23  1  0  0  0  0
 21 40  1  0  0  0  0
 22 24  2  0  0  0  0
 22 41  1  0  0  0  0
 23 25  2  0  0  0  0
 23 42  1  0  0  0  0
 24 25  1  0  0  0  0
 24 43  1  0  0  0  0
 25 44  1  0  0  0  0
M  END
> <PUBCHEM_COMPOUND_CID>
134692567

> <PUBCHEM_CONFORMER_RMSD>
1.2

> <PUBCHEM_CONFORMER_DIVERSEORDER>
1
42
41
55
27
28
10
17
21
23
34
29
53
9
22
35
45
58
33
54
47
6
15
40
48
11
14
19
39
52
7
32
18
5
13
38
49
36
30
4
51
25
20
16
56
46
2
44
43
37
31
50
8
12
24
3
57
26

> <PUBCHEM_MMFF94_PARTIAL_CHARGES>
35
1 -0.43
10 -0.55
11 0.28
12 0.28
13 0.36
14 0.28
15 0.54
16 0.28
17 0.57
18 0.06
19 0.78
2 -0.68
20 0.12
21 -0.15
22 -0.15
23 -0.15
24 -0.15
25 -0.15
3 -0.68
32 0.37
33 0.4
34 0.4
35 0.4
39 0.37
4 -0.68
40 0.15
41 0.15
42 0.15
43 0.15
44 0.15
5 -0.09
6 -0.57
7 -0.57
8 -0.73
9 -0.51

> <PUBCHEM_EFFECTIVE_ROTOR_COUNT>
8

> <PUBCHEM_PHARMACOPHORE_FEATURES>
12
1 10 donor
1 2 acceptor
1 2 donor
1 3 acceptor
1 3 donor
1 4 acceptor
1 4 donor
1 6 acceptor
1 7 acceptor
1 8 donor
6 1 11 12 13 14 15 rings
6 20 21 22 23 24 25 rings

> <PUBCHEM_HEAVY_ATOM_COUNT>
25

> <PUBCHEM_ATOM_DEF_STEREO_COUNT>
2

> <PUBCHEM_ATOM_UDEF_STEREO_COUNT>
2

> <PUBCHEM_BOND_DEF_STEREO_COUNT>
0

> <PUBCHEM_BOND_UDEF_STEREO_COUNT>
1

> <PUBCHEM_ISOTOPIC_ATOM_COUNT>
0

> <PUBCHEM_COMPONENT_COUNT>
1

> <PUBCHEM_CACTVS_TAUTO_COUNT>
16

> <PUBCHEM_CONFORMER_ID>
08073ED700000001

> <PUBCHEM_MMFF94_ENERGY>
64.4872

> <PUBCHEM_FEATURE_SELFOVERLAP>
60.908

> <PUBCHEM_SHAPE_FINGERPRINT>
10411042 1 17978230788206212083
10595046 47 18336265738905419068
11036077 51 18409453566008201819
11315181 36 18259705622986962948
12107183 9 17976817589309270754
12390115 104 18270412576734100577
12788726 201 18411127061466156963
13073987 5 18409448081693498416
13167823 11 18335419093398346674
14251757 5 18411981394442313514
14790565 3 18120938300169535530
15021287 119 17313111821908161092
15042514 8 18263932210298976411
15183329 4 18335701624905058288
15250474 111 18261943107975955122
17844677 252 18411426141766962640
19489759 90 18272931626544845496
21065198 57 18410575123998442048
21236236 1 18411417293453753604
23081809 10 17967817137812057156
23402539 116 18413102892329456983
23559900 14 18268421515647237000
23569943 247 16806995543212096778
283562 15 18411138018412674787
32027 91 17556314873467680662
350125 39 18410576171859952417
4073 2 18187931724930389722
4214541 1 18410293605845399948
497634 4 18260265274147038740
5104073 3 18408317775350878568
5283173 99 18413388718329902880
531348 171 18059855034884141630
559249 180 18337668616610209746
59755656 520 18335133159881501709
6327066 14 18118398441696409501
9981440 41 18263372399944900265

> <PUBCHEM_SHAPE_MULTIPOLES>
458.46
15.63
4.22
0.83
28.99
0.22
0.04
-3.41
0.86
-7.75
-1.13
-0.64
-0.03
-0.89

> <PUBCHEM_SHAPE_SELFOVERLAP>
955.68

> <PUBCHEM_SHAPE_VOLUME>
256

> <PUBCHEM_COORDINATE_TYPE>
2
5
10

$$$$
