REMARK  Name = 134694950
REMARK  7 active torsions:
REMARK  status: ('A' for Active; 'I' for Inactive)
REMARK    1  A    between atoms: N_1  and  C1*_8
REMARK    2  A    between atoms: C_3  and  N_23
REMARK    3  A    between atoms: C_5  and  C_20
REMARK    4  A    between atoms: C2*_7  and  O2*_11
REMARK    5  A    between atoms: C3*_9  and  O3*_13
REMARK    6  A    between atoms: C4*_10  and  C5*_15
REMARK    7  A    between atoms: C5*_15  and  O5*_16
REMARK                            x       y       z     vdW  Elec       q    Type
REMARK                         _______ _______ _______ _____ _____    ______ ____
ROOT
ATOM      1  N   UNL     1      -0.414   0.083   0.210  0.00  0.00    -0.211 NA
ATOM      2  N   UNL     1      -1.991   1.549  -0.335  0.00  0.00    -0.249 NA
ATOM      3  C   UNL     1      -1.601  -0.585   0.322  0.00  0.00    +0.161 C 
ATOM      4  C   UNL     1      -0.699   1.360  -0.187  0.00  0.00    +0.204 C 
ATOM      5  C   UNL     1      -2.559   0.340  -0.020  0.00  0.00    +0.138 C 
ENDROOT
BRANCH   1   8
ATOM      6  O4* UNL     1       1.857   0.561   0.966  0.00  0.00    -0.336 OA
ATOM      7  C2* UNL     1       1.637  -1.016  -0.786  0.00  0.00    +0.183 C 
ATOM      8  C1* UNL     1       0.970  -0.463   0.469  0.00  0.00    +0.209 C 
ATOM      9  C3* UNL     1       3.108  -0.889  -0.442  0.00  0.00    +0.171 C 
ATOM     10  C4* UNL     1       3.146   0.426   0.326  0.00  0.00    +0.175 C 
BRANCH   7  11
ATOM     11  O2* UNL     1       1.250  -2.344  -1.078  0.00  0.00    -0.378 OA
ATOM     12  H2* UNL     1       0.303  -2.365  -1.290  0.00  0.00    +0.211 HD
ENDBRANCH   7  11
BRANCH   9  13
ATOM     13  O3* UNL     1       3.501  -1.931   0.450  0.00  0.00    -0.379 OA
ATOM     14  H3* UNL     1       3.484  -2.781  -0.018  0.00  0.00    +0.211 HD
ENDBRANCH   9  13
BRANCH  10  15
ATOM     15  C5* UNL     1       3.361   1.636  -0.573  0.00  0.00    +0.169 C 
BRANCH  15  16
ATOM     16  O5* UNL     1       3.370   2.802   0.231  0.00  0.00    -0.379 OA
ATOM     17  H5* UNL     1       3.506   3.581  -0.330  0.00  0.00    +0.211 HD
ENDBRANCH  15  16
ENDBRANCH  10  15
ENDBRANCH   1   8
BRANCH   5  20
ATOM     18  O   UNL     1      -4.496  -0.974   0.243  0.00  0.00    -0.269 OA
ATOM     19  N   UNL     1      -4.803   1.196  -0.433  0.00  0.00    -0.324 N 
ATOM     20  C   UNL     1      -3.975   0.127  -0.060  0.00  0.00    +0.259 C 
ATOM     21  H   UNL     1      -5.779   1.074  -0.468  0.00  0.00    +0.145 HD
ATOM     22  H   UNL     1      -4.407   2.068  -0.661  0.00  0.00    +0.145 HD
ENDBRANCH   5  20
BRANCH   3  23
ATOM     23  N   UNL     1      -1.661  -1.879   0.698  0.00  0.00    -0.305 NA
ATOM     24  H   UNL     1      -0.833  -2.371   0.902  0.00  0.00    +0.120 HD
ATOM     25  H   UNL     1      -2.533  -2.331   0.769  0.00  0.00    +0.120 HD
ENDBRANCH   3  23
TORSDOF 7
