134687173
  -OEChem-03292013293D

 72 73  0     1  0  0  0  0  0999 V2000
    3.3189    0.2542   -0.1185 O   0  0  0  0  0  0  0  0  0  0  0  0
    5.6034    0.3499   -0.3580 O   0  0  0  0  0  0  0  0  0  0  0  0
   -3.8139   -2.6818    1.1081 O   0  0  0  0  0  0  0  0  0  0  0  0
   -0.8517   -3.2137    1.1950 O   0  0  0  0  0  0  0  0  0  0  0  0
   -0.1148    2.9553    0.9456 O   0  0  0  0  0  0  0  0  0  0  0  0
    2.7927   -2.9490   -1.4745 O   0  0  0  0  0  0  0  0  0  0  0  0
    3.2272   -2.1762    0.6642 N   0  0  0  0  0  0  0  0  0  0  0  0
   -1.8250    3.9729   -0.2562 N   0  0  0  0  0  0  0  0  0  0  0  0
    0.0675   -3.2080   -0.8679 N   0  0  0  0  0  0  0  0  0  0  0  0
    3.1300    1.6108   -0.5904 C   0  0  2  0  0  0  0  0  0  0  0  0
    3.3259    2.5488    0.5997 C   0  0  0  0  0  0  0  0  0  0  0  0
    1.7046    1.6833   -1.1892 C   0  0  2  0  0  0  0  0  0  0  0  0
    4.8090    2.8420    0.8124 C   0  0  0  0  0  0  0  0  0  0  0  0
    2.7099    1.9496    1.8617 C   0  0  0  0  0  0  0  0  0  0  0  0
    1.5654    0.7231   -2.3811 C   0  0  0  0  0  0  0  0  0  0  0  0
    1.3364    3.0731   -1.6525 C   0  0  0  0  0  0  0  0  0  0  0  0
    4.5792   -0.2574   -0.0662 C   0  0  0  0  0  0  0  0  0  0  0  0
    4.5843   -1.7099    0.4019 C   0  0  1  0  0  0  0  0  0  0  0  0
    0.3534    3.8667   -1.2029 C   0  0  0  0  0  0  0  0  0  0  0  0
   -3.3676   -2.4189   -0.2211 C   0  0  2  0  0  0  0  0  0  0  0  0
   -4.5723   -2.3406   -1.1731 C   0  0  0  0  0  0  0  0  0  0  0  0
   -2.4212   -3.5545   -0.6380 C   0  0  0  0  0  0  0  0  0  0  0  0
    5.4428   -1.8529    1.6500 C   0  0  0  0  0  0  0  0  0  0  0  0
   -5.6513   -1.3163   -0.7861 C   0  0  0  0  0  0  0  0  0  0  0  0
   -1.0327   -3.3282   -0.1548 C   0  0  0  0  0  0  0  0  0  0  0  0
   -0.5267    3.5343   -0.0535 C   0  0  0  0  0  0  0  0  0  0  0  0
    2.4199   -2.7202   -0.3265 C   0  0  0  0  0  0  0  0  0  0  0  0
   -5.1158    0.0779   -0.6049 C   0  0  0  0  0  0  0  0  0  0  0  0
    1.0466   -2.9593    0.0693 C   0  0  0  0  0  0  0  0  0  0  0  0
   -5.4644    0.9591    0.3536 C   0  0  0  0  0  0  0  0  0  0  0  0
    0.4817   -2.9693    1.3254 C   0  0  0  0  0  0  0  0  0  0  0  0
   -2.8705    3.7984    0.7356 C   0  0  0  0  0  0  0  0  0  0  0  0
   -4.8259    2.2647    0.4507 C   0  0  0  0  0  0  0  0  0  0  0  0
   -3.5013    2.4511    0.5642 C   0  0  0  0  0  0  0  0  0  0  0  0
   -6.5438    0.7410    1.3780 C   0  0  0  0  0  0  0  0  0  0  0  0
    3.8503    1.8289   -1.3906 H   0  0  0  0  0  0  0  0  0  0  0  0
    2.8522    3.5153    0.3990 H   0  0  0  0  0  0  0  0  0  0  0  0
    0.9893    1.3148   -0.4469 H   0  0  0  0  0  0  0  0  0  0  0  0
    5.3373    2.0264    1.3126 H   0  0  0  0  0  0  0  0  0  0  0  0
    3.3212    1.1379    2.2723 H   0  0  0  0  0  0  0  0  0  0  0  0
    1.7064    1.5514    1.7027 H   0  0  0  0  0  0  0  0  0  0  0  0
    2.6419    2.7165    2.6416 H   0  0  0  0  0  0  0  0  0  0  0  0
    4.9154    3.7135    1.4699 H   0  0  0  0  0  0  0  0  0  0  0  0
    5.3179    3.0868   -0.1253 H   0  0  0  0  0  0  0  0  0  0  0  0
    2.2877    0.9571   -3.1714 H   0  0  0  0  0  0  0  0  0  0  0  0
    0.5606    0.7803   -2.8155 H   0  0  0  0  0  0  0  0  0  0  0  0
    1.7277   -0.3146   -2.0753 H   0  0  0  0  0  0  0  0  0  0  0  0
    1.9244    3.4551   -2.4868 H   0  0  0  0  0  0  0  0  0  0  0  0
    4.9990   -2.3101   -0.4158 H   0  0  0  0  0  0  0  0  0  0  0  0
    0.1815    4.8236   -1.6880 H   0  0  0  0  0  0  0  0  0  0  0  0
   -2.8371   -1.4600   -0.2111 H   0  0  0  0  0  0  0  0  0  0  0  0
   -5.0591   -3.3235   -1.2225 H   0  0  0  0  0  0  0  0  0  0  0  0
   -4.2135   -2.1153   -2.1857 H   0  0  0  0  0  0  0  0  0  0  0  0
   -2.3796   -3.6246   -1.7318 H   0  0  0  0  0  0  0  0  0  0  0  0
   -2.7742   -4.5207   -0.2587 H   0  0  0  0  0  0  0  0  0  0  0  0
   -6.1490   -1.6756    0.1198 H   0  0  0  0  0  0  0  0  0  0  0  0
   -6.4073   -1.2957   -1.5801 H   0  0  0  0  0  0  0  0  0  0  0  0
    6.4754   -1.5441    1.4559 H   0  0  0  0  0  0  0  0  0  0  0  0
    5.4565   -2.8915    1.9975 H   0  0  0  0  0  0  0  0  0  0  0  0
    5.0598   -1.2316    2.4677 H   0  0  0  0  0  0  0  0  0  0  0  0
    2.8341   -1.9619    1.5755 H   0  0  0  0  0  0  0  0  0  0  0  0
   -4.3611    0.3740   -1.3334 H   0  0  0  0  0  0  0  0  0  0  0  0
   -2.0737    4.4315   -1.1284 H   0  0  0  0  0  0  0  0  0  0  0  0
   -4.3426   -3.4978    1.0915 H   0  0  0  0  0  0  0  0  0  0  0  0
    0.8419   -2.8310    2.3340 H   0  0  0  0  0  0  0  0  0  0  0  0
   -2.4321    3.8758    1.7360 H   0  0  0  0  0  0  0  0  0  0  0  0
   -3.5883    4.6139    0.6028 H   0  0  0  0  0  0  0  0  0  0  0  0
   -5.4953    3.1207    0.4896 H   0  0  0  0  0  0  0  0  0  0  0  0
   -2.8359    1.5900    0.5740 H   0  0  0  0  0  0  0  0  0  0  0  0
   -7.2301    1.5954    1.4071 H   0  0  0  0  0  0  0  0  0  0  0  0
   -6.1031    0.6212    2.3736 H   0  0  0  0  0  0  0  0  0  0  0  0
   -7.1588   -0.1391    1.1747 H   0  0  0  0  0  0  0  0  0  0  0  0
  1 10  1  0  0  0  0
  1 17  1  0  0  0  0
  2 17  2  0  0  0  0
  3 20  1  0  0  0  0
  3 64  1  0  0  0  0
  4 25  1  0  0  0  0
  4 31  1  0  0  0  0
  5 26  2  0  0  0  0
  6 27  2  0  0  0  0
  7 18  1  0  0  0  0
  7 27  1  0  0  0  0
  7 61  1  0  0  0  0
  8 26  1  0  0  0  0
  8 32  1  0  0  0  0
  8 63  1  0  0  0  0
  9 25  2  0  0  0  0
  9 29  1  0  0  0  0
 10 11  1  0  0  0  0
 10 12  1  0  0  0  0
 10 36  1  0  0  0  0
 11 13  1  0  0  0  0
 11 14  1  0  0  0  0
 11 37  1  0  0  0  0
 12 15  1  0  0  0  0
 12 16  1  0  0  0  0
 12 38  1  0  0  0  0
 13 39  1  0  0  0  0
 13 43  1  0  0  0  0
 13 44  1  0  0  0  0
 14 40  1  0  0  0  0
 14 41  1  0  0  0  0
 14 42  1  0  0  0  0
 15 45  1  0  0  0  0
 15 46  1  0  0  0  0
 15 47  1  0  0  0  0
 16 19  2  0  0  0  0
 16 48  1  0  0  0  0
 17 18  1  0  0  0  0
 18 23  1  0  0  0  0
 18 49  1  0  0  0  0
 19 26  1  0  0  0  0
 19 50  1  0  0  0  0
 20 21  1  0  0  0  0
 20 22  1  0  0  0  0
 20 51  1  0  0  0  0
 21 24  1  0  0  0  0
 21 52  1  0  0  0  0
 21 53  1  0  0  0  0
 22 25  1  0  0  0  0
 22 54  1  0  0  0  0
 22 55  1  0  0  0  0
 23 58  1  0  0  0  0
 23 59  1  0  0  0  0
 23 60  1  0  0  0  0
 24 28  1  0  0  0  0
 24 56  1  0  0  0  0
 24 57  1  0  0  0  0
 27 29  1  0  0  0  0
 28 30  2  0  0  0  0
 28 62  1  0  0  0  0
 29 31  2  0  0  0  0
 30 33  1  0  0  0  0
 30 35  1  0  0  0  0
 31 65  1  0  0  0  0
 32 34  1  0  0  0  0
 32 66  1  0  0  0  0
 32 67  1  0  0  0  0
 33 34  2  0  0  0  0
 33 68  1  0  0  0  0
 34 69  1  0  0  0  0
 35 70  1  0  0  0  0
 35 71  1  0  0  0  0
 35 72  1  0  0  0  0
M  END
> <PUBCHEM_COMPOUND_CID>
134687173

> <PUBCHEM_CONFORMER_RMSD>
0.8

> <PUBCHEM_CONFORMER_DIVERSEORDER>
1
3
2

> <PUBCHEM_MMFF94_PARTIAL_CHARGES>
38
1 -0.43
10 0.28
12 0.14
16 -0.29
17 0.66
18 0.36
19 -0.14
2 -0.57
20 0.28
22 0.18
24 0.14
25 0.3
26 0.62
27 0.72
28 -0.29
29 0.14
3 -0.68
30 -0.14
31 -0.01
32 0.44
33 -0.15
34 -0.29
35 0.14
4 -0.28
48 0.15
5 -0.57
50 0.15
6 -0.57
61 0.37
62 0.15
63 0.37
64 0.4
65 0.15
68 0.15
69 0.15
7 -0.73
8 -0.73
9 -0.57

> <PUBCHEM_EFFECTIVE_ROTOR_COUNT>
3.2

> <PUBCHEM_PHARMACOPHORE_FEATURES>
9
1 2 acceptor
1 3 acceptor
1 3 donor
1 5 acceptor
1 6 acceptor
1 7 donor
1 8 donor
3 11 13 14 hydrophobe
5 4 9 25 29 31 rings

> <PUBCHEM_HEAVY_ATOM_COUNT>
35

> <PUBCHEM_ATOM_DEF_STEREO_COUNT>
4

> <PUBCHEM_ATOM_UDEF_STEREO_COUNT>
0

> <PUBCHEM_BOND_DEF_STEREO_COUNT>
3

> <PUBCHEM_BOND_UDEF_STEREO_COUNT>
0

> <PUBCHEM_ISOTOPIC_ATOM_COUNT>
0

> <PUBCHEM_COMPONENT_COUNT>
1

> <PUBCHEM_CACTVS_TAUTO_COUNT>
12

> <PUBCHEM_CONFORMER_ID>
080729C500000001

> <PUBCHEM_MMFF94_ENERGY>
60.5652

> <PUBCHEM_FEATURE_SELFOVERLAP>
45.672

> <PUBCHEM_SHAPE_FINGERPRINT>
10049733 16 18263950837714142588
10439779 11 18123458642792369162
10815517 723 18337668599314543174
10864689 126 17402616246820942997
11513181 2 18059013865476241727
12925494 130 18409165546050191891
13347071 3 18341894121284216866
13561361 72 18338510825068009960
14394314 77 18341337730331945561
144659 178 18337673134520692581
15001296 14 18335417997643531729
15320467 1 18339641260544849329
15351339 4 18264474248019307587
20764821 26 18337680840124070509
21133410 62 17967807207721185215
21133410 90 17489306425074489441
22121540 332 18058151995095360496
3246872 21 18410009906027851973
325973 47 18194123142997904337
338550 245 18408328774186993197
3493558 16 18413672417688358787
354706 35 17115501300142223341
373842 8 18336551598917378947
437795 70 18126872424792211982
437795 96 17827916227123487397
463206 1 18410862040540708313
50080093 196 18190178980246721971
9543594 6 18267027158988620109

> <PUBCHEM_SHAPE_MULTIPOLES>
670.12
13.14
6.88
1.57
8.34
0.62
0.2
-0.29
-3.11
1.14
0.04
-0.58
0.23
-1.47

> <PUBCHEM_SHAPE_SELFOVERLAP>
1364.332

> <PUBCHEM_SHAPE_VOLUME>
384.1

> <PUBCHEM_COORDINATE_TYPE>
2
5
10

$$$$
