134689687
  -OEChem-03292013293D

 56 56  0     1  0  0  0  0  0999 V2000
   -3.7872    1.2513    0.3481 O   0  0  0  0  0  0  0  0  0  0  0  0
   -1.6503    2.8895   -1.6072 O   0  0  0  0  0  0  0  0  0  0  0  0
   -5.0555    3.1013    0.5052 O   0  0  0  0  0  0  0  0  0  0  0  0
   -4.0537   -3.8471    0.1337 O   0  0  0  0  0  0  0  0  0  0  0  0
    4.4974   -0.8087    1.4120 O   0  0  0  0  0  0  0  0  0  0  0  0
    5.4173    1.2425    1.7188 O   0  0  0  0  0  0  0  0  0  0  0  0
   -1.3075    1.3740    0.2850 C   0  0  1  0  0  0  0  0  0  0  0  0
   -1.4793    2.8172   -0.1939 C   0  0  2  0  0  0  0  0  0  0  0  0
   -2.5720    0.5828   -0.0767 C   0  0  1  0  0  0  0  0  0  0  0  0
   -0.0372    0.7455   -0.2982 C   0  0  0  0  0  0  0  0  0  0  0  0
   -2.6952    3.4361    0.4670 C   0  0  0  0  0  0  0  0  0  0  0  0
   -2.6094   -0.7853    0.5323 C   0  0  0  0  0  0  0  0  0  0  0  0
   -3.9407    2.5924    0.4043 C   0  0  0  0  0  0  0  0  0  0  0  0
    1.2531    1.4538   -0.0107 C   0  0  0  0  0  0  0  0  0  0  0  0
   -2.7289   -1.9161   -0.1787 C   0  0  0  0  0  0  0  0  0  0  0  0
    2.1364    1.9345   -0.8990 C   0  0  0  0  0  0  0  0  0  0  0  0
   -2.7759   -3.2867    0.4368 C   0  0  2  0  0  0  0  0  0  0  0  0
    3.4026    2.6420   -0.5131 C   0  0  0  0  0  0  0  0  0  0  0  0
   -1.6869   -4.2130   -0.1219 C   0  0  0  0  0  0  0  0  0  0  0  0
    4.6747    1.9538   -1.0271 C   0  0  0  0  0  0  0  0  0  0  0  0
    4.8453    0.5140   -0.5333 C   0  0  0  0  0  0  0  0  0  0  0  0
   -0.3011   -3.6919    0.1285 C   0  0  0  0  0  0  0  0  0  0  0  0
    0.5795   -3.4204   -0.8459 C   0  0  0  0  0  0  0  0  0  0  0  0
    4.9505    0.3939    0.9714 C   0  0  0  0  0  0  0  0  0  0  0  0
    1.9661   -2.9067   -0.5967 C   0  0  0  0  0  0  0  0  0  0  0  0
    2.9579   -4.0490   -0.4407 C   0  0  0  0  0  0  0  0  0  0  0  0
   -1.2075    1.4017    1.3802 H   0  0  0  0  0  0  0  0  0  0  0  0
   -0.5999    3.4200    0.0585 H   0  0  0  0  0  0  0  0  0  0  0  0
   -2.6505    0.4953   -1.1683 H   0  0  0  0  0  0  0  0  0  0  0  0
   -0.1524    0.6266   -1.3838 H   0  0  0  0  0  0  0  0  0  0  0  0
    0.0723   -0.2706    0.1004 H   0  0  0  0  0  0  0  0  0  0  0  0
   -2.9266    4.3960   -0.0096 H   0  0  0  0  0  0  0  0  0  0  0  0
   -2.4898    3.6178    1.5284 H   0  0  0  0  0  0  0  0  0  0  0  0
   -2.5438   -0.8438    1.6163 H   0  0  0  0  0  0  0  0  0  0  0  0
    1.4802    1.5710    1.0479 H   0  0  0  0  0  0  0  0  0  0  0  0
   -1.7100    3.8291   -1.8502 H   0  0  0  0  0  0  0  0  0  0  0  0
   -2.8071   -1.8588   -1.2621 H   0  0  0  0  0  0  0  0  0  0  0  0
    1.9322    1.8285   -1.9613 H   0  0  0  0  0  0  0  0  0  0  0  0
   -2.6894   -3.2374    1.5292 H   0  0  0  0  0  0  0  0  0  0  0  0
    3.4621    2.7690    0.5742 H   0  0  0  0  0  0  0  0  0  0  0  0
    3.3640    3.6548   -0.9331 H   0  0  0  0  0  0  0  0  0  0  0  0
   -1.8588   -4.3851   -1.1930 H   0  0  0  0  0  0  0  0  0  0  0  0
   -1.7836   -5.2004    0.3472 H   0  0  0  0  0  0  0  0  0  0  0  0
    4.6680    1.9496   -2.1243 H   0  0  0  0  0  0  0  0  0  0  0  0
    5.5418    2.5511   -0.7195 H   0  0  0  0  0  0  0  0  0  0  0  0
    5.7618    0.0887   -0.9576 H   0  0  0  0  0  0  0  0  0  0  0  0
    4.0075   -0.1004   -0.8816 H   0  0  0  0  0  0  0  0  0  0  0  0
   -0.0123   -3.5398    1.1657 H   0  0  0  0  0  0  0  0  0  0  0  0
   -4.7298   -3.2822    0.5462 H   0  0  0  0  0  0  0  0  0  0  0  0
    0.2997   -3.5866   -1.8831 H   0  0  0  0  0  0  0  0  0  0  0  0
    1.9854   -2.2828    0.3050 H   0  0  0  0  0  0  0  0  0  0  0  0
    2.2642   -2.2600   -1.4297 H   0  0  0  0  0  0  0  0  0  0  0  0
    2.9829   -4.6772   -1.3376 H   0  0  0  0  0  0  0  0  0  0  0  0
    3.9654   -3.6528   -0.2778 H   0  0  0  0  0  0  0  0  0  0  0  0
    2.7034   -4.6842    0.4145 H   0  0  0  0  0  0  0  0  0  0  0  0
    4.5805   -0.8965    2.3855 H   0  0  0  0  0  0  0  0  0  0  0  0
  1  9  1  0  0  0  0
  1 13  1  0  0  0  0
  2  8  1  0  0  0  0
  2 36  1  0  0  0  0
  3 13  2  0  0  0  0
  4 17  1  0  0  0  0
  4 49  1  0  0  0  0
  5 24  1  0  0  0  0
  5 56  1  0  0  0  0
  6 24  2  0  0  0  0
  7  8  1  0  0  0  0
  7  9  1  0  0  0  0
  7 10  1  0  0  0  0
  7 27  1  0  0  0  0
  8 11  1  0  0  0  0
  8 28  1  0  0  0  0
  9 12  1  0  0  0  0
  9 29  1  0  0  0  0
 10 14  1  0  0  0  0
 10 30  1  0  0  0  0
 10 31  1  0  0  0  0
 11 13  1  0  0  0  0
 11 32  1  0  0  0  0
 11 33  1  0  0  0  0
 12 15  2  0  0  0  0
 12 34  1  0  0  0  0
 14 16  2  3  0  0  0
 14 35  1  0  0  0  0
 15 17  1  0  0  0  0
 15 37  1  0  0  0  0
 16 18  1  0  0  0  0
 16 38  1  0  0  0  0
 17 19  1  0  0  0  0
 17 39  1  0  0  0  0
 18 20  1  0  0  0  0
 18 40  1  0  0  0  0
 18 41  1  0  0  0  0
 19 22  1  0  0  0  0
 19 42  1  0  0  0  0
 19 43  1  0  0  0  0
 20 21  1  0  0  0  0
 20 44  1  0  0  0  0
 20 45  1  0  0  0  0
 21 24  1  0  0  0  0
 21 46  1  0  0  0  0
 21 47  1  0  0  0  0
 22 23  2  3  0  0  0
 22 48  1  0  0  0  0
 23 25  1  0  0  0  0
 23 50  1  0  0  0  0
 25 26  1  0  0  0  0
 25 51  1  0  0  0  0
 25 52  1  0  0  0  0
 26 53  1  0  0  0  0
 26 54  1  0  0  0  0
 26 55  1  0  0  0  0
M  END
> <PUBCHEM_COMPOUND_CID>
134689687

> <PUBCHEM_CONFORMER_RMSD>
1.2

> <PUBCHEM_CONFORMER_DIVERSEORDER>
1
112
118
71
59
40
143
84
4
150
96
152
27
123
104
53
30
100
72
134
42
24
48
111
128
93
140
38
133
6
52
65
51
12
13
99
85
16
124
122
2
153
119
91
7
26
103
110
55
76
39
32
94
70
148
106
49
125
68
144
31
67
34
101
81
88
50
15
43
74
89
58
20
115
57
113
63
135
86
142
23
127
29
69
46
61
97
109
102
9
95
126
107
77
45
35
80
41
145
132
62
78
22
79
11
44
66
108
98
92
116
146
117
147
37
120
105
60
149
136
21
64
56
3
18
129
14
82
137
83
17
114
131
138
87
8
139
25
141
33
47
151
10
54
73
121
75
130
36
90
28
5
19

> <PUBCHEM_MMFF94_PARTIAL_CHARGES>
32
1 -0.43
10 0.14
11 0.06
12 -0.29
13 0.66
14 -0.29
15 -0.29
16 -0.29
17 0.42
18 0.14
19 0.14
2 -0.68
21 0.06
22 -0.29
23 -0.29
24 0.66
25 0.14
3 -0.57
34 0.15
35 0.15
36 0.4
37 0.15
38 0.15
4 -0.68
48 0.15
49 0.4
5 -0.65
50 0.15
56 0.5
6 -0.57
8 0.28
9 0.42

> <PUBCHEM_EFFECTIVE_ROTOR_COUNT>
12

> <PUBCHEM_PHARMACOPHORE_FEATURES>
11
1 2 acceptor
1 2 donor
1 26 hydrophobe
1 3 acceptor
1 4 acceptor
1 4 donor
1 5 acceptor
1 6 acceptor
3 5 6 24 anion
4 16 18 20 21 hydrophobe
6 1 7 8 9 11 13 rings

> <PUBCHEM_HEAVY_ATOM_COUNT>
26

> <PUBCHEM_ATOM_DEF_STEREO_COUNT>
4

> <PUBCHEM_ATOM_UDEF_STEREO_COUNT>
0

> <PUBCHEM_BOND_DEF_STEREO_COUNT>
1

> <PUBCHEM_BOND_UDEF_STEREO_COUNT>
2

> <PUBCHEM_ISOTOPIC_ATOM_COUNT>
0

> <PUBCHEM_COMPONENT_COUNT>
1

> <PUBCHEM_CACTVS_TAUTO_COUNT>
1

> <PUBCHEM_CONFORMER_ID>
0807339700000001

> <PUBCHEM_MMFF94_ENERGY>
28.35

> <PUBCHEM_FEATURE_SELFOVERLAP>
55.881

> <PUBCHEM_SHAPE_FINGERPRINT>
10616163 171 18409733992938830994
1100329 8 18122633755653227135
11513181 2 18131068217046223190
12523318 42 18269828873630541744
12788726 201 18048605008313236246
12839892 36 18411131476713220202
13004483 165 17978224186123052993
138480 1 17329154563802734863
14394314 77 17835243715922974779
15250474 111 18261669376576728816
15927050 60 18341341002964526055
19930381 70 17400367741458189383
22113638 7 17621039093714266182
23559900 14 18270131106500633564
3027735 51 18341891930866733247
338550 245 18335992999802583086
3882209 13 16329319725706152966
5047190 48 18409169892034563772
508706 21 18412834594428792982
532947 4 17978507533806043437
653340 110 18269268131522003002
79837 15 18411704270246537000
9981440 41 18265904553828856249

> <PUBCHEM_SHAPE_MULTIPOLES>
499.85
10.33
6.99
1.06
9.04
6.21
-0.11
-5.06
-2.62
-5.09
0.84
1.15
-0.33
-0.25

> <PUBCHEM_SHAPE_SELFOVERLAP>
985.015

> <PUBCHEM_SHAPE_VOLUME>
294.8

> <PUBCHEM_COORDINATE_TYPE>
2
5
10

$$$$
