134688450
  -OEChem-03292013293D

 71 75  0     1  0  0  0  0  0999 V2000
   -2.4331    1.7033   -0.3975 O   0  0  0  0  0  0  0  0  0  0  0  0
    7.2990   -1.9739   -0.4551 O   0  0  0  0  0  0  0  0  0  0  0  0
   -2.5849   -0.5880    0.0144 O   0  0  0  0  0  0  0  0  0  0  0  0
   -5.2339    1.9242   -0.0968 O   0  0  0  0  0  0  0  0  0  0  0  0
   -6.6232   -0.5928   -0.7351 O   0  0  0  0  0  0  0  0  0  0  0  0
   -5.4159   -2.7875    0.7385 O   0  0  0  0  0  0  0  0  0  0  0  0
   -2.9917   -3.9610    0.8995 O   0  0  0  0  0  0  0  0  0  0  0  0
   -1.4406   -2.8428   -0.3414 O   0  0  0  0  0  0  0  0  0  0  0  0
    1.9705    1.5023    0.5845 C   0  0  2  0  0  0  0  0  0  0  0  0
    2.4057    0.6132   -0.6141 C   0  0  1  0  0  0  0  0  0  0  0  0
    1.0809    2.6985    0.1323 C   0  0  1  0  0  0  0  0  0  0  0  0
   -0.0701    2.3217   -0.8343 C   0  0  1  0  0  0  0  0  0  0  0  0
    3.3752   -0.5565   -0.1856 C   0  0  2  0  0  0  0  0  0  0  0  0
    1.1615    0.1317   -1.3795 C   0  0  0  0  0  0  0  0  0  0  0  0
    4.5911    0.0788    0.5593 C   0  0  1  0  0  0  0  0  0  0  0  0
    0.3450    1.3049   -1.9079 C   0  0  0  0  0  0  0  0  0  0  0  0
   -1.1263    1.7638    0.1455 C   0  0  1  0  0  0  0  0  0  0  0  0
    3.2033    2.0212    1.3521 C   0  0  0  0  0  0  0  0  0  0  0  0
    0.3318    3.3301    1.3270 C   0  0  0  0  0  0  0  0  0  0  0  0
    4.1575    0.9081    1.7691 C   0  0  0  0  0  0  0  0  0  0  0  0
   -1.0545    2.6799    1.3677 C   0  0  0  0  0  0  0  0  0  0  0  0
    3.9414   -1.2789   -1.4441 C   0  0  0  0  0  0  0  0  0  0  0  0
   -0.5935    3.5773   -1.5745 C   0  0  0  0  0  0  0  0  0  0  0  0
    2.6326   -1.5966    0.6905 C   0  0  0  0  0  0  0  0  0  0  0  0
    5.6620   -0.9415    0.9548 C   0  0  0  0  0  0  0  0  0  0  0  0
    5.0289   -2.3059   -1.1359 C   0  0  0  0  0  0  0  0  0  0  0  0
    6.1100   -1.7259   -0.2561 C   0  0  0  0  0  0  0  0  0  0  0  0
   -3.2119    0.6762    0.2148 C   0  0  2  0  0  0  0  0  0  0  0  0
   -4.5989    0.6895   -0.4282 C   0  0  1  0  0  0  0  0  0  0  0  0
   -5.4547   -0.4722    0.0774 C   0  0  2  0  0  0  0  0  0  0  0  0
   -3.3059   -1.6532    0.6226 C   0  0  1  0  0  0  0  0  0  0  0  0
   -4.6933   -1.7963    0.0099 C   0  0  1  0  0  0  0  0  0  0  0  0
   -2.4640   -2.8518    0.3263 C   0  0  0  0  0  0  0  0  0  0  0  0
    1.3860    0.8869    1.2797 H   0  0  0  0  0  0  0  0  0  0  0  0
    2.9733    1.2588   -1.3021 H   0  0  0  0  0  0  0  0  0  0  0  0
    1.7320    3.4497   -0.3339 H   0  0  0  0  0  0  0  0  0  0  0  0
    0.5320   -0.5000   -0.7449 H   0  0  0  0  0  0  0  0  0  0  0  0
    1.4497   -0.4809   -2.2394 H   0  0  0  0  0  0  0  0  0  0  0  0
    5.0743    0.7737   -0.1460 H   0  0  0  0  0  0  0  0  0  0  0  0
    0.9462    1.8107   -2.6755 H   0  0  0  0  0  0  0  0  0  0  0  0
   -0.5442    0.9180   -2.4217 H   0  0  0  0  0  0  0  0  0  0  0  0
   -0.7978    0.7705    0.4707 H   0  0  0  0  0  0  0  0  0  0  0  0
    3.7490    2.7386    0.7253 H   0  0  0  0  0  0  0  0  0  0  0  0
    2.9005    2.5657    2.2523 H   0  0  0  0  0  0  0  0  0  0  0  0
    0.2200    4.4091    1.1643 H   0  0  0  0  0  0  0  0  0  0  0  0
    0.8442    3.2131    2.2852 H   0  0  0  0  0  0  0  0  0  0  0  0
    5.0368    1.3599    2.2446 H   0  0  0  0  0  0  0  0  0  0  0  0
    3.6858    0.2752    2.5294 H   0  0  0  0  0  0  0  0  0  0  0  0
   -1.1901    2.1018    2.2886 H   0  0  0  0  0  0  0  0  0  0  0  0
   -1.8424    3.4417    1.3545 H   0  0  0  0  0  0  0  0  0  0  0  0
    4.3575   -0.5287   -2.1300 H   0  0  0  0  0  0  0  0  0  0  0  0
    3.1432   -1.7923   -1.9912 H   0  0  0  0  0  0  0  0  0  0  0  0
   -0.9859    4.3361   -0.8904 H   0  0  0  0  0  0  0  0  0  0  0  0
   -1.4015    3.3163   -2.2675 H   0  0  0  0  0  0  0  0  0  0  0  0
    0.2054    4.0463   -2.1602 H   0  0  0  0  0  0  0  0  0  0  0  0
    2.1451   -1.1429    1.5571 H   0  0  0  0  0  0  0  0  0  0  0  0
    3.3011   -2.3708    1.0773 H   0  0  0  0  0  0  0  0  0  0  0  0
    1.8592   -2.1176    0.1159 H   0  0  0  0  0  0  0  0  0  0  0  0
    5.3095   -1.6425    1.7175 H   0  0  0  0  0  0  0  0  0  0  0  0
    6.5351   -0.4203    1.3652 H   0  0  0  0  0  0  0  0  0  0  0  0
    5.4833   -2.6435   -2.0741 H   0  0  0  0  0  0  0  0  0  0  0  0
    4.6152   -3.1865   -0.6345 H   0  0  0  0  0  0  0  0  0  0  0  0
   -3.2835    0.8917    1.2895 H   0  0  0  0  0  0  0  0  0  0  0  0
   -4.5158    0.6593   -1.5211 H   0  0  0  0  0  0  0  0  0  0  0  0
   -5.8105   -0.2825    1.0970 H   0  0  0  0  0  0  0  0  0  0  0  0
   -3.3298   -1.5123    1.7103 H   0  0  0  0  0  0  0  0  0  0  0  0
   -4.6320   -2.1340   -1.0328 H   0  0  0  0  0  0  0  0  0  0  0  0
   -5.3124    1.9724    0.8713 H   0  0  0  0  0  0  0  0  0  0  0  0
   -6.3392   -0.7413   -1.6532 H   0  0  0  0  0  0  0  0  0  0  0  0
   -4.9900   -3.6460    0.5764 H   0  0  0  0  0  0  0  0  0  0  0  0
   -2.4538   -4.7602    0.7147 H   0  0  0  0  0  0  0  0  0  0  0  0
  1 17  1  0  0  0  0
  1 28  1  0  0  0  0
  2 27  2  0  0  0  0
  3 28  1  0  0  0  0
  3 31  1  0  0  0  0
  4 29  1  0  0  0  0
  4 68  1  0  0  0  0
  5 30  1  0  0  0  0
  5 69  1  0  0  0  0
  6 32  1  0  0  0  0
  6 70  1  0  0  0  0
  7 33  1  0  0  0  0
  7 71  1  0  0  0  0
  8 33  2  0  0  0  0
  9 10  1  0  0  0  0
  9 11  1  0  0  0  0
  9 18  1  0  0  0  0
  9 34  1  0  0  0  0
 10 13  1  0  0  0  0
 10 14  1  0  0  0  0
 10 35  1  0  0  0  0
 11 12  1  0  0  0  0
 11 19  1  0  0  0  0
 11 36  1  0  0  0  0
 12 16  1  0  0  0  0
 12 17  1  0  0  0  0
 12 23  1  0  0  0  0
 13 15  1  0  0  0  0
 13 22  1  0  0  0  0
 13 24  1  0  0  0  0
 14 16  1  0  0  0  0
 14 37  1  0  0  0  0
 14 38  1  0  0  0  0
 15 20  1  0  0  0  0
 15 25  1  0  0  0  0
 15 39  1  0  0  0  0
 16 40  1  0  0  0  0
 16 41  1  0  0  0  0
 17 21  1  0  0  0  0
 17 42  1  0  0  0  0
 18 20  1  0  0  0  0
 18 43  1  0  0  0  0
 18 44  1  0  0  0  0
 19 21  1  0  0  0  0
 19 45  1  0  0  0  0
 19 46  1  0  0  0  0
 20 47  1  0  0  0  0
 20 48  1  0  0  0  0
 21 49  1  0  0  0  0
 21 50  1  0  0  0  0
 22 26  1  0  0  0  0
 22 51  1  0  0  0  0
 22 52  1  0  0  0  0
 23 53  1  0  0  0  0
 23 54  1  0  0  0  0
 23 55  1  0  0  0  0
 24 56  1  0  0  0  0
 24 57  1  0  0  0  0
 24 58  1  0  0  0  0
 25 27  1  0  0  0  0
 25 59  1  0  0  0  0
 25 60  1  0  0  0  0
 26 27  1  0  0  0  0
 26 61  1  0  0  0  0
 26 62  1  0  0  0  0
 28 29  1  0  0  0  0
 28 63  1  0  0  0  0
 29 30  1  0  0  0  0
 29 64  1  0  0  0  0
 30 32  1  0  0  0  0
 30 65  1  0  0  0  0
 31 32  1  0  0  0  0
 31 33  1  0  0  0  0
 31 66  1  0  0  0  0
 32 67  1  0  0  0  0
M  END
> <PUBCHEM_COMPOUND_CID>
134688450

> <PUBCHEM_CONFORMER_RMSD>
0.8

> <PUBCHEM_CONFORMER_DIVERSEORDER>
1
39
15
11
14
35
34
7
31
23
29
4
8
5
27
38
36
13
12
22
26
21
41
6
37
32
3
33
20
42
30
24
40
28
2
18
17
10
9
25
19
16

> <PUBCHEM_MMFF94_PARTIAL_CHARGES>
22
1 -0.56
17 0.28
2 -0.57
25 0.06
26 0.06
27 0.45
28 0.56
29 0.28
3 -0.56
30 0.28
31 0.34
32 0.28
33 0.66
4 -0.68
5 -0.68
6 -0.68
68 0.4
69 0.4
7 -0.65
70 0.4
71 0.5
8 -0.57

> <PUBCHEM_EFFECTIVE_ROTOR_COUNT>
6.2

> <PUBCHEM_PHARMACOPHORE_FEATURES>
17
1 1 acceptor
1 2 acceptor
1 3 acceptor
1 4 acceptor
1 4 donor
1 5 acceptor
1 5 donor
1 6 acceptor
1 6 donor
1 7 acceptor
1 8 acceptor
3 7 8 33 anion
5 11 12 17 19 21 rings
6 13 15 22 25 26 27 rings
6 3 28 29 30 31 32 rings
6 9 10 11 12 14 16 rings
6 9 10 13 15 18 20 rings

> <PUBCHEM_HEAVY_ATOM_COUNT>
33

> <PUBCHEM_ATOM_DEF_STEREO_COUNT>
12

> <PUBCHEM_ATOM_UDEF_STEREO_COUNT>
0

> <PUBCHEM_BOND_DEF_STEREO_COUNT>
0

> <PUBCHEM_BOND_UDEF_STEREO_COUNT>
0

> <PUBCHEM_ISOTOPIC_ATOM_COUNT>
0

> <PUBCHEM_COMPONENT_COUNT>
1

> <PUBCHEM_CACTVS_TAUTO_COUNT>
3

> <PUBCHEM_CONFORMER_ID>
08072EC200000001

> <PUBCHEM_MMFF94_ENERGY>
104.2645

> <PUBCHEM_FEATURE_SELFOVERLAP>
86.589

> <PUBCHEM_SHAPE_FINGERPRINT>
10010297 198 17984416619000953260
11045977 3 18272645723478321976
11135609 12 18410004451857411280
11456790 92 18201170910201612897
11513181 2 18055917847270428686
117089 54 17771637746120812526
11796584 16 18260819389395196041
11828532 37 18263932201482565219
12166972 35 18113623416681836647
12633257 1 18130518430876737608
12645989 146 18272932760248414102
13402501 40 18342457006660245566
13631057 29 18337111155899227870
14068700 675 18259988141635712044
14394314 77 18266181638863381337
14866123 147 18198351658892619841
15351339 4 18190452766968494939
15361156 5 18272928311036328556
15510800 12 18410570721435657891
17492 89 18046913955077311923
17627616 140 17971751073572032163
1813 80 17385996308328971708
18608769 82 18341325666026422800
19611394 137 18343011182986764962
20775530 9 18335133215347006210
21304304 249 18411980260871653639
21781051 124 17677625306105216211
23559900 14 18338514256742091681
23572383 38 18343300383539216351
24893992 56 18333450955374809507
3004659 81 18040435494805216316
3383291 50 18408885157584539787
392239 28 18201723916161200000
4098825 35 8142084273808454960
437815 12 18343863299037648509
4403749 210 17046522320887132993
463206 1 18187367657478161667
508706 21 18260255370395552511
563151 74 16987138634510509472
59755656 215 18338797815084103870
6138700 20 18410011001545407239
6371380 46 18268143167823845281
6823239 73 18412260653658972114

> <PUBCHEM_SHAPE_MULTIPOLES>
632.17
14.22
4.35
1.43
0.98
0.15
0.16
12.09
-0.34
-2.16
-0.48
1.01
-0.65
1.95

> <PUBCHEM_SHAPE_SELFOVERLAP>
1348.812

> <PUBCHEM_SHAPE_VOLUME>
344.7

> <PUBCHEM_COORDINATE_TYPE>
2
5
10

$$$$
