134632
  -OEChem-03292013323D

 55 58  0     1  0  0  0  0  0999 V2000
   -2.3036   -1.7379    2.2769 O   0  0  0  0  0  0  0  0  0  0  0  0
   -1.1455   -4.2189    2.1482 O   0  0  0  0  0  0  0  0  0  0  0  0
    0.9670   -3.1128   -2.5776 O   0  0  0  0  0  0  0  0  0  0  0  0
   -3.6028    3.0857   -1.4203 O   0  0  0  0  0  0  0  0  0  0  0  0
   -5.0723    2.0926    0.2100 O   0  0  0  0  0  0  0  0  0  0  0  0
    1.8701   -2.9811   -0.4888 O   0  0  0  0  0  0  0  0  0  0  0  0
    4.3439    0.8158   -1.5746 O   0  0  0  0  0  0  0  0  0  0  0  0
    1.8951    1.9239    2.3893 O   0  0  0  0  0  0  0  0  0  0  0  0
    4.2397    2.0185    0.9182 O   0  0  0  0  0  0  0  0  0  0  0  0
   -0.3691   -2.1519   -0.8951 C   0  0  1  0  0  0  0  0  0  0  0  0
   -0.7901   -2.4803    0.5467 C   0  0  1  0  0  0  0  0  0  0  0  0
   -0.3244   -0.6260   -1.1630 C   0  0  1  0  0  0  0  0  0  0  0  0
   -2.1777   -1.8745    0.8592 C   0  0  2  0  0  0  0  0  0  0  0  0
   -1.6241    0.0466   -0.7486 C   0  0  0  0  0  0  0  0  0  0  0  0
   -2.4778   -0.5330    0.2237 C   0  0  0  0  0  0  0  0  0  0  0  0
   -0.8246   -4.0000    0.7906 C   0  0  0  0  0  0  0  0  0  0  0  0
    0.9057    0.0880   -0.6023 C   0  0  0  0  0  0  0  0  0  0  0  0
    0.9444   -2.7859   -1.2624 C   0  0  0  0  0  0  0  0  0  0  0  0
   -1.9602    1.2831   -1.3366 C   0  0  0  0  0  0  0  0  0  0  0  0
   -3.6739    0.1255    0.5746 C   0  0  0  0  0  0  0  0  0  0  0  0
   -3.1322    1.8978   -0.9529 C   0  0  0  0  0  0  0  0  0  0  0  0
   -3.9675    1.3333   -0.0234 C   0  0  0  0  0  0  0  0  0  0  0  0
    0.8403    0.6865    0.6497 C   0  0  0  0  0  0  0  0  0  0  0  0
    2.0754    0.1291   -1.3506 C   0  0  0  0  0  0  0  0  0  0  0  0
    3.1981    0.7794   -0.8385 C   0  0  0  0  0  0  0  0  0  0  0  0
    1.9630    1.3370    1.1617 C   0  0  0  0  0  0  0  0  0  0  0  0
   -4.8329    3.2046   -0.6766 C   0  0  0  0  0  0  0  0  0  0  0  0
    3.1419    1.3835    0.4176 C   0  0  0  0  0  0  0  0  0  0  0  0
    5.2697   -0.2525   -1.3856 C   0  0  0  0  0  0  0  0  0  0  0  0
    2.2462    1.1188    3.5128 C   0  0  0  0  0  0  0  0  0  0  0  0
    4.3782    3.4052    0.6177 C   0  0  0  0  0  0  0  0  0  0  0  0
   -1.1347   -2.5963   -1.5505 H   0  0  0  0  0  0  0  0  0  0  0  0
   -0.0607   -2.0562    1.2511 H   0  0  0  0  0  0  0  0  0  0  0  0
   -0.2734   -0.5151   -2.2581 H   0  0  0  0  0  0  0  0  0  0  0  0
   -2.9650   -2.5606    0.5186 H   0  0  0  0  0  0  0  0  0  0  0  0
    0.1333   -4.4870    0.5920 H   0  0  0  0  0  0  0  0  0  0  0  0
   -1.5848   -4.4861    0.1704 H   0  0  0  0  0  0  0  0  0  0  0  0
   -1.3138    1.7445   -2.0768 H   0  0  0  0  0  0  0  0  0  0  0  0
   -4.3579   -0.3060    1.2991 H   0  0  0  0  0  0  0  0  0  0  0  0
   -2.3146   -2.6310    2.6599 H   0  0  0  0  0  0  0  0  0  0  0  0
   -0.0560    0.6527    1.2610 H   0  0  0  0  0  0  0  0  0  0  0  0
    2.1244   -0.3310   -2.3339 H   0  0  0  0  0  0  0  0  0  0  0  0
   -0.4178   -3.8618    2.6856 H   0  0  0  0  0  0  0  0  0  0  0  0
    1.8184   -3.5246   -2.8376 H   0  0  0  0  0  0  0  0  0  0  0  0
   -4.7968    4.1255   -0.0832 H   0  0  0  0  0  0  0  0  0  0  0  0
   -5.6662    3.2745   -1.3851 H   0  0  0  0  0  0  0  0  0  0  0  0
    6.1298   -0.0801   -2.0383 H   0  0  0  0  0  0  0  0  0  0  0  0
    4.8113   -1.2092   -1.6555 H   0  0  0  0  0  0  0  0  0  0  0  0
    5.6176   -0.2818   -0.3483 H   0  0  0  0  0  0  0  0  0  0  0  0
    3.2829    0.7769    3.4333 H   0  0  0  0  0  0  0  0  0  0  0  0
    1.5724    0.2599    3.5942 H   0  0  0  0  0  0  0  0  0  0  0  0
    2.1470    1.7280    4.4153 H   0  0  0  0  0  0  0  0  0  0  0  0
    4.4512    3.5599   -0.4634 H   0  0  0  0  0  0  0  0  0  0  0  0
    5.2983    3.7665    1.0850 H   0  0  0  0  0  0  0  0  0  0  0  0
    3.5346    3.9733    1.0221 H   0  0  0  0  0  0  0  0  0  0  0  0
  1 13  1  0  0  0  0
  1 40  1  0  0  0  0
  2 16  1  0  0  0  0
  2 43  1  0  0  0  0
  3 18  1  0  0  0  0
  3 44  1  0  0  0  0
  4 21  1  0  0  0  0
  4 27  1  0  0  0  0
  5 22  1  0  0  0  0
  5 27  1  0  0  0  0
  6 18  2  0  0  0  0
  7 25  1  0  0  0  0
  7 29  1  0  0  0  0
  8 26  1  0  0  0  0
  8 30  1  0  0  0  0
  9 28  1  0  0  0  0
  9 31  1  0  0  0  0
 10 11  1  0  0  0  0
 10 12  1  0  0  0  0
 10 18  1  0  0  0  0
 10 32  1  0  0  0  0
 11 13  1  0  0  0  0
 11 16  1  0  0  0  0
 11 33  1  0  0  0  0
 12 14  1  0  0  0  0
 12 17  1  0  0  0  0
 12 34  1  0  0  0  0
 13 15  1  0  0  0  0
 13 35  1  0  0  0  0
 14 15  1  0  0  0  0
 14 19  2  0  0  0  0
 15 20  2  0  0  0  0
 16 36  1  0  0  0  0
 16 37  1  0  0  0  0
 17 23  2  0  0  0  0
 17 24  1  0  0  0  0
 19 21  1  0  0  0  0
 19 38  1  0  0  0  0
 20 22  1  0  0  0  0
 20 39  1  0  0  0  0
 21 22  2  0  0  0  0
 23 26  1  0  0  0  0
 23 41  1  0  0  0  0
 24 25  2  0  0  0  0
 24 42  1  0  0  0  0
 25 28  1  0  0  0  0
 26 28  2  0  0  0  0
 27 45  1  0  0  0  0
 27 46  1  0  0  0  0
 29 47  1  0  0  0  0
 29 48  1  0  0  0  0
 29 49  1  0  0  0  0
 30 50  1  0  0  0  0
 30 51  1  0  0  0  0
 30 52  1  0  0  0  0
 31 53  1  0  0  0  0
 31 54  1  0  0  0  0
 31 55  1  0  0  0  0
M  END
> <PUBCHEM_COMPOUND_CID>
134632

> <PUBCHEM_CONFORMER_RMSD>
1

> <PUBCHEM_CONFORMER_DIVERSEORDER>
1
7
5
2
3
4
6

> <PUBCHEM_MMFF94_PARTIAL_CHARGES>
37
1 -0.68
10 0.06
12 0.29
13 0.42
14 -0.14
15 -0.14
16 0.28
17 -0.14
18 0.66
19 -0.15
2 -0.68
20 -0.15
21 0.08
22 0.08
23 -0.15
24 -0.15
25 0.08
26 0.08
27 0.56
28 0.08
29 0.28
3 -0.65
30 0.28
31 0.28
38 0.15
39 0.15
4 -0.36
40 0.4
41 0.15
42 0.15
43 0.4
44 0.5
5 -0.36
6 -0.57
7 -0.36
8 -0.36
9 -0.36

> <PUBCHEM_EFFECTIVE_ROTOR_COUNT>
7.4

> <PUBCHEM_PHARMACOPHORE_FEATURES>
16
1 1 acceptor
1 1 donor
1 2 acceptor
1 2 donor
1 3 acceptor
1 4 acceptor
1 5 acceptor
1 6 acceptor
1 7 acceptor
1 8 acceptor
1 9 acceptor
3 3 6 18 anion
5 4 5 21 22 27 rings
6 10 11 12 13 14 15 rings
6 14 15 19 20 21 22 rings
6 17 23 24 25 26 28 rings

> <PUBCHEM_HEAVY_ATOM_COUNT>
31

> <PUBCHEM_ATOM_DEF_STEREO_COUNT>
4

> <PUBCHEM_ATOM_UDEF_STEREO_COUNT>
0

> <PUBCHEM_BOND_DEF_STEREO_COUNT>
0

> <PUBCHEM_BOND_UDEF_STEREO_COUNT>
0

> <PUBCHEM_ISOTOPIC_ATOM_COUNT>
0

> <PUBCHEM_COMPONENT_COUNT>
1

> <PUBCHEM_CACTVS_TAUTO_COUNT>
1

> <PUBCHEM_CONFORMER_ID>
00020DE800000001

> <PUBCHEM_MMFF94_ENERGY>
122.7426

> <PUBCHEM_FEATURE_SELFOVERLAP>
81.454

> <PUBCHEM_SHAPE_FINGERPRINT>
10165383 225 18268734790814832625
107951 10 18260836998697883974
1100329 8 16973096393402169396
11578080 2 18048069344144641125
12156800 1 13964594350565707176
12160290 23 17905012057684152405
12788726 201 17606689290398163459
13140716 1 18261950722562073611
15230672 131 18115035109168857998
17980427 26 17972589992833625583
21033648 29 18129935792878075600
22149856 69 17899445038474829969
22393880 68 17846205649257162429
23419403 2 17836407836696668815
23559900 14 17825115805372139309
238 59 18059573538379398463
27425 322 16588889947998934860
3298306 158 18341614780832360718
35225 105 18190440835538258041
376196 1 18341889662886299623
469060 322 16183236437042569480
495365 180 18059561452178085309
508706 21 18268710678762983558
5265222 85 18120680139267176326
57124632 79 17971467395661408077
7226269 152 18131632262679670032
7808743 9 18263364861945765652
81228 2 17479163619466612310
9981440 41 18270947042194882888

> <PUBCHEM_SHAPE_MULTIPOLES>
585.14
8.62
4.73
2.3
1.27
3.17
-1.51
-9.75
1.23
-1.93
-0.6
1.47
0.42
3.17

> <PUBCHEM_SHAPE_SELFOVERLAP>
1279.719

> <PUBCHEM_SHAPE_VOLUME>
316

> <PUBCHEM_COORDINATE_TYPE>
2
5
10

$$$$
