REMARK  Name = 134693227
REMARK  4 active torsions:
REMARK  status: ('A' for Active; 'I' for Inactive)
REMARK    1  A    between atoms: C3*_3  and  O3*_15
REMARK    2  A    between atoms: C1*_4  and  N1_8
REMARK    3  A    between atoms: C4*_5  and  C5*_17
REMARK    4  A    between atoms: C5*_17  and  O5*_18
REMARK                            x       y       z     vdW  Elec       q    Type
REMARK                         _______ _______ _______ _____ _____    ______ ____
ROOT
ATOM      1  O4* U   A   1      -1.380  -1.096  -0.778  0.00  0.00    -0.335 OA
ATOM      2  C2* U   A   1      -1.135   1.028   0.285  0.00  0.00    +0.083 C 
ATOM      3  C3* U   A   1      -2.583   0.587   0.333  0.00  0.00    +0.144 C 
ATOM      4  C1* U   A   1      -0.525   0.058  -0.718  0.00  0.00    +0.202 C 
ATOM      5  C4* U   A   1      -2.448  -0.915   0.162  0.00  0.00    +0.173 C 
ENDROOT
BRANCH   4   8
ATOM      6  O2  U   A   1       1.857   1.275  -1.625  0.00  0.00    -0.252 OA
ATOM      7  O4  U   A   1       4.482  -1.632   0.805  0.00  0.00    -0.270 OA
ATOM      8  N1  U   A   1       0.794  -0.360  -0.337  0.00  0.00    -0.219 N 
ATOM      9  N3  U   A   1       3.163  -0.173  -0.414  0.00  0.00    -0.236 N 
ATOM     10  C2  U   A   1       1.925   0.319  -0.850  0.00  0.00    +0.315 C 
ATOM     11  C6  U   A   1       0.959  -1.430   0.534  0.00  0.00    +0.076 C 
ATOM     12  C5  U   A   1       2.145  -1.887   0.941  0.00  0.00    +0.074 C 
ATOM     13  C4  U   A   1       3.376  -1.235   0.452  0.00  0.00    +0.254 C 
ATOM     14  H3  U   A   1       3.965   0.283  -0.758  0.00  0.00    +0.159 HD
ENDBRANCH   4   8
BRANCH   3  15
ATOM     15  O3* U   A   1      -3.194   0.903   1.569  0.00  0.00    -0.382 OA
ATOM     16  H3* U   A   1      -3.269   1.866   1.656  0.00  0.00    +0.210 HD
ENDBRANCH   3  15
BRANCH   5  17
ATOM     17  C5* U   A   1      -3.710  -1.579  -0.359  0.00  0.00    +0.169 C 
BRANCH  17  18
ATOM     18  O5* U   A   1      -3.474  -2.971  -0.493  0.00  0.00    -0.379 OA
ATOM     19  H5* U   A   1      -4.275  -3.405  -0.826  0.00  0.00    +0.211 HD
ENDBRANCH  17  18
ENDBRANCH   5  17
TORSDOF 4
REMARK  Name = 134693227
REMARK  4 active torsions:
REMARK  status: ('A' for Active; 'I' for Inactive)
REMARK    1  A    between atoms: C3*_3  and  O3*_15
REMARK    2  A    between atoms: C1*_4  and  N1_8
REMARK    3  A    between atoms: C4*_5  and  C5*_17
REMARK    4  A    between atoms: C5*_17  and  O5*_18
REMARK                            x       y       z     vdW  Elec       q    Type
REMARK                         _______ _______ _______ _____ _____    ______ ____
ROOT
ATOM      1  N   UNL     1      -0.056   3.053   0.176  0.00  0.00    +0.000 NA
ATOM      2  N   UNL     1       0.847   3.655   0.527  0.00  0.00    +0.000 NA
ENDROOT
TORSDOF 0
