REMARK  Name = 134692167
REMARK  4 active torsions:
REMARK  status: ('A' for Active; 'I' for Inactive)
REMARK    1  A    between atoms: C_12  and  C_24
REMARK    2  A    between atoms: C_13  and  O_28
REMARK    3  A    between atoms: C_14  and  O_30
REMARK    4  A    between atoms: C_18  and  O_32
REMARK                            x       y       z     vdW  Elec       q    Type
REMARK                         _______ _______ _______ _____ _____    ______ ____
ROOT
ATOM      1  O   UNL     1      -0.596   0.244   1.425  0.00  0.00    -0.312 OA
ATOM      2  O   UNL     1      -0.334  -2.951   0.376  0.00  0.00    -0.450 OA
ATOM      3  O   UNL     1       1.356   1.603   1.579  0.00  0.00    -0.423 OA
ATOM      4  O   UNL     1      -2.106   1.644  -1.080  0.00  0.00    -0.447 OA
ATOM      5  O   UNL     1      -1.562  -2.393   2.224  0.00  0.00    -0.247 OA
ATOM      6  O   UNL     1       2.261   3.355   0.414  0.00  0.00    -0.247 OA
ATOM      7  O   UNL     1      -2.907   3.044   0.547  0.00  0.00    -0.250 OA
ATOM      8  C   UNL     1      -0.118  -0.797  -0.658  0.00  0.00    +0.109 C 
ATOM      9  C   UNL     1       1.079   0.091  -0.240  0.00  0.00    +0.108 C 
ATOM     10  C   UNL     1      -1.097  -0.727   0.514  0.00  0.00    +0.216 C 
ATOM     11  C   UNL     1       0.404  -2.243  -0.624  0.00  0.00    +0.174 C 
ATOM     12  C   UNL     1       2.315  -0.774  -0.579  0.00  0.00    +0.013 C 
ATOM     13  C   UNL     1      -2.504  -0.417  -0.054  0.00  0.00    +0.170 C 
ATOM     14  C   UNL     1      -0.927  -0.374  -1.905  0.00  0.00    +0.159 C 
ATOM     15  C   UNL     1       0.823   0.319   1.247  0.00  0.00    +0.294 C 
ATOM     16  C   UNL     1      -2.227   0.257  -1.387  0.00  0.00    +0.223 C 
ATOM     17  C   UNL     1       1.874  -2.185  -0.208  0.00  0.00    +0.044 C 
ATOM     18  C   UNL     1       1.158   1.528  -0.751  0.00  0.00    +0.216 C 
ATOM     19  C   UNL     1      -1.036  -2.089   1.164  0.00  0.00    +0.344 C 
ATOM     20  C   UNL     1      -3.292   0.648   0.706  0.00  0.00    +0.130 C 
ATOM     21  C   UNL     1       1.675   2.285   0.441  0.00  0.00    +0.346 C 
ATOM     22  C   UNL     1      -2.763   1.921   0.088  0.00  0.00    +0.319 C 
ATOM     23  C   UNL     1      -4.804   0.598   0.532  0.00  0.00    +0.014 C 
ENDROOT
BRANCH  12  24
ATOM     24  C   UNL     1       3.625  -0.391   0.098  0.00  0.00    +0.000 C 
ATOM     25  C   UNL     1       4.051   1.021  -0.344  0.00  0.00    +0.000 C 
ATOM     26  C   UNL     1       4.728  -1.393  -0.290  0.00  0.00    +0.000 C 
ATOM     27  C   UNL     1       3.449  -0.407   1.627  0.00  0.00    +0.000 C 
ENDBRANCH  12  24
BRANCH  13  28
ATOM     28  O   UNL     1      -3.233  -1.617  -0.278  0.00  0.00    -0.380 OA
ATOM     29  H   UNL     1      -2.677  -2.247  -0.763  0.00  0.00    +0.211 HD
ENDBRANCH  13  28
BRANCH  14  30
ATOM     30  O   UNL     1      -1.284  -1.494  -2.714  0.00  0.00    -0.380 OA
ATOM     31  H   UNL     1      -0.479  -1.914  -3.057  0.00  0.00    +0.210 HD
ENDBRANCH  14  30
BRANCH  18  32
ATOM     32  O   UNL     1       1.992   1.692  -1.871  0.00  0.00    -0.374 OA
ATOM     33  H   UNL     1       1.629   1.192  -2.619  0.00  0.00    +0.211 HD
ENDBRANCH  18  32
TORSDOF 4
