REMARK  Name = 134688506
REMARK  6 active torsions:
REMARK  status: ('A' for Active; 'I' for Inactive)
REMARK    1  A    between atoms: C_8  and  O_23
REMARK    2  A    between atoms: C_8  and  C_28
REMARK    3  A    between atoms: C_9  and  O_25
REMARK    4  A    between atoms: C_28  and  C_29
REMARK    5  A    between atoms: C_29  and  O_30
REMARK    6  A    between atoms: O_30  and  C_32
REMARK                            x       y       z     vdW  Elec       q    Type
REMARK                         _______ _______ _______ _____ _____    ______ ____
ROOT
ATOM      1  F   UNL     1       2.880  -0.180   2.677  0.00  0.00    -0.237 F 
ATOM      2  O   UNL     1       3.611  -1.064  -3.709  0.00  0.00    -0.287 OA
ATOM      3  C   UNL     1      -0.700   0.656   0.733  0.00  0.00    +0.035 C 
ATOM      4  C   UNL     1       0.613   1.292   0.188  0.00  0.00    +0.010 C 
ATOM      5  C   UNL     1       1.761   1.242   1.208  0.00  0.00    +0.034 C 
ATOM      6  C   UNL     1       2.092  -0.255   1.538  0.00  0.00    +0.164 C 
ATOM      7  C   UNL     1      -0.416  -0.819   1.071  0.00  0.00    +0.035 C 
ATOM      8  C   UNL     1      -1.651   0.928  -0.470  0.00  0.00    +0.158 C 
ATOM      9  C   UNL     1       0.796  -0.978   2.013  0.00  0.00    +0.141 C 
ATOM     10  C   UNL     1       2.994  -0.984   0.433  0.00  0.00    +0.064 C 
ATOM     11  C   UNL     1       0.150   2.648  -0.348  0.00  0.00    +0.025 C 
ATOM     12  C   UNL     1       3.005   2.075   0.818  0.00  0.00    +0.007 C 
ATOM     13  C   UNL     1      -1.219   2.317  -0.911  0.00  0.00    -0.014 C 
ATOM     14  C   UNL     1      -1.240   1.361   2.015  0.00  0.00    +0.003 C 
ATOM     15  C   UNL     1       4.239   1.252   0.466  0.00  0.00    +0.023 C 
ATOM     16  C   UNL     1       3.792   0.072  -0.339  0.00  0.00    -0.035 C 
ATOM     17  C   UNL     1       4.023  -1.917   1.127  0.00  0.00    +0.011 C 
ATOM     18  C   UNL     1       2.250  -1.891  -0.535  0.00  0.00    -0.017 C 
ATOM     19  C   UNL     1      -1.908   3.155  -1.697  0.00  0.00    -0.006 C 
ATOM     20  C   UNL     1       3.988   0.052  -1.667  0.00  0.00    +0.034 C 
ATOM     21  C   UNL     1       2.419  -1.913  -1.862  0.00  0.00    +0.038 C 
ATOM     22  C   UNL     1       3.369  -0.990  -2.510  0.00  0.00    +0.195 C 
ENDROOT
BRANCH   8  23
ATOM     23  O   UNL     1      -1.417   0.044  -1.558  0.00  0.00    -0.376 OA
ATOM     24  H   UNL     1      -0.477   0.066  -1.797  0.00  0.00    +0.211 HD
ENDBRANCH   8  23
BRANCH   9  25
ATOM     25  O   UNL     1       1.016  -2.365   2.247  0.00  0.00    -0.382 OA
ATOM     26  H   UNL     1       1.776  -2.476   2.839  0.00  0.00    +0.210 HD
ENDBRANCH   9  25
BRANCH   8  28
ATOM     27  O   UNL     1      -3.724   1.832   0.297  0.00  0.00    -0.289 OA
ATOM     28  C   UNL     1      -3.118   0.855  -0.140  0.00  0.00    +0.222 C 
BRANCH  28  29
ATOM     29  C   UNL     1      -3.793  -0.479  -0.377  0.00  0.00    +0.275 C 
BRANCH  29  30
ATOM     30  O   UNL     1      -5.163  -0.411  -0.042  0.00  0.00    -0.440 OA
BRANCH  30  32
ATOM     31  O   UNL     1      -5.446  -2.628  -0.628  0.00  0.00    -0.250 OA
ATOM     32  C   UNL     1      -5.886  -1.564  -0.214  0.00  0.00    +0.318 C 
ATOM     33  C   UNL     1      -7.316  -1.343   0.179  0.00  0.00    +0.121 C 
ENDBRANCH  30  32
ENDBRANCH  29  30
ENDBRANCH  28  29
ENDBRANCH   8  28
TORSDOF 6
