REMARK  Name = 134692403
REMARK  7 active torsions:
REMARK  status: ('A' for Active; 'I' for Inactive)
REMARK    1  A    between atoms: C_2  and  O_7
REMARK    2  A    between atoms: C_3  and  O_9
REMARK    3  A    between atoms: C_4  and  O_11
REMARK    4  A    between atoms: C_5  and  C_26
REMARK    5  A    between atoms: C_6  and  O_13
REMARK    6  A    between atoms: O_13  and  C_16
REMARK    7  A    between atoms: C_26  and  O_27
REMARK                            x       y       z     vdW  Elec       q    Type
REMARK                         _______ _______ _______ _____ _____    ______ ____
ROOT
ATOM      1  O   UNL     1      -2.478   0.859  -0.720  0.00  0.00    -0.316 OA
ATOM      2  C   UNL     1      -3.861  -1.381   0.441  0.00  0.00    +0.173 C 
ATOM      3  C   UNL     1      -4.452   0.032   0.457  0.00  0.00    +0.169 C 
ATOM      4  C   UNL     1      -2.879  -1.543  -0.719  0.00  0.00    +0.210 C 
ATOM      5  C   UNL     1      -3.333   1.082   0.412  0.00  0.00    +0.177 C 
ATOM      6  C   UNL     1      -1.837  -0.420  -0.710  0.00  0.00    +0.318 C 
ENDROOT
BRANCH   2   7
ATOM      7  O   UNL     1      -4.902  -2.346   0.317  0.00  0.00    -0.379 OA
ATOM      8  H   UNL     1      -5.526  -2.245   1.053  0.00  0.00    +0.211 HD
ENDBRANCH   2   7
BRANCH   3   9
ATOM      9  O   UNL     1      -5.326   0.203  -0.662  0.00  0.00    -0.379 OA
ATOM     10  H   UNL     1      -6.030  -0.464  -0.626  0.00  0.00    +0.211 HD
ENDBRANCH   3   9
BRANCH   4  11
ATOM     11  O   UNL     1      -2.236  -2.810  -0.621  0.00  0.00    -0.377 OA
ATOM     12  H   UNL     1      -2.904  -3.514  -0.628  0.00  0.00    +0.211 HD
ENDBRANCH   4  11
BRANCH   6  13
ATOM     13  O   UNL     1      -0.965  -0.570   0.410  0.00  0.00    -0.450 OA
BRANCH  13  16
ATOM     14  O   UNL     1       3.714  -1.534   0.365  0.00  0.00    -0.421 OA
ATOM     15  O   UNL     1       5.950  -2.013   0.349  0.00  0.00    -0.244 OA
ATOM     16  C   UNL     1       0.324  -0.143   0.243  0.00  0.00    +0.144 C 
ATOM     17  C   UNL     1       1.380  -1.038   0.384  0.00  0.00    +0.075 C 
ATOM     18  C   UNL     1       0.584   1.190  -0.069  0.00  0.00    +0.037 C 
ATOM     19  C   UNL     1       2.977   0.748  -0.103  0.00  0.00    +0.031 C 
ATOM     20  C   UNL     1       2.687  -0.581   0.210  0.00  0.00    +0.151 C 
ATOM     21  C   UNL     1       1.900   1.633  -0.241  0.00  0.00    +0.006 C 
ATOM     22  C   UNL     1       4.383   1.141  -0.269  0.00  0.00    -0.012 C 
ATOM     23  C   UNL     1       5.339   0.214  -0.115  0.00  0.00    +0.078 C 
ATOM     24  C   UNL     1       4.728   2.562  -0.605  0.00  0.00    +0.031 C 
ATOM     25  C   UNL     1       5.049  -1.192   0.215  0.00  0.00    +0.346 C 
ENDBRANCH  13  16
ENDBRANCH   6  13
BRANCH   5  26
ATOM     26  C   UNL     1      -3.874   2.503   0.298  0.00  0.00    +0.169 C 
BRANCH  26  27
ATOM     27  O   UNL     1      -2.871   3.405   0.731  0.00  0.00    -0.379 OA
ATOM     28  H   UNL     1      -3.202   4.314   0.663  0.00  0.00    +0.211 HD
ENDBRANCH  26  27
ENDBRANCH   5  26
TORSDOF 7
