REMARK  Name = 134613193
REMARK  4 active torsions:
REMARK  status: ('A' for Active; 'I' for Inactive)
REMARK    1  A    between atoms: C_5  and  O_23
REMARK    2  A    between atoms: C_10  and  O_25
REMARK    3  A    between atoms: C_19  and  O_27
REMARK    4  A    between atoms: C_20  and  O_29
REMARK                            x       y       z     vdW  Elec       q    Type
REMARK                         _______ _______ _______ _____ _____    ______ ____
ROOT
ATOM      1  O   UNL     1      -3.284   1.875  -0.089  0.00  0.00    -0.451 OA
ATOM      2  O   UNL     1      -5.516   0.793   0.437  0.00  0.00    -0.318 OA
ATOM      3  O   UNL     1       1.220  -2.532   0.019  0.00  0.00    -0.286 OA
ATOM      4  O   UNL     1       1.756   2.788  -0.029  0.00  0.00    -0.286 OA
ATOM      5  C   UNL     1      -3.654  -0.467  -0.263  0.00  0.00    +0.179 C 
ATOM      6  C   UNL     1      -4.084   0.815   0.463  0.00  0.00    +0.317 C 
ATOM      7  C   UNL     1      -2.217  -0.197  -0.089  0.00  0.00    +0.076 C 
ATOM      8  C   UNL     1      -2.058   1.203  -0.092  0.00  0.00    +0.143 C 
ATOM      9  C   UNL     1      -4.601  -1.349   0.436  0.00  0.00    +0.070 C 
ATOM     10  C   UNL     1      -1.122  -1.033  -0.061  0.00  0.00    +0.138 C 
ATOM     11  C   UNL     1       0.151  -0.441  -0.028  0.00  0.00    +0.076 C 
ATOM     12  C   UNL     1       0.300   0.964  -0.043  0.00  0.00    +0.048 C 
ATOM     13  C   UNL     1      -0.820   1.806  -0.082  0.00  0.00    +0.040 C 
ATOM     14  C   UNL     1      -5.664  -0.582   0.718  0.00  0.00    +0.149 C 
ATOM     15  C   UNL     1       1.344  -1.313   0.008  0.00  0.00    +0.202 C 
ATOM     16  C   UNL     1       1.649   1.568  -0.017  0.00  0.00    +0.199 C 
ATOM     17  C   UNL     1       2.687  -0.700   0.033  0.00  0.00    +0.079 C 
ATOM     18  C   UNL     1       2.834   0.688   0.022  0.00  0.00    +0.079 C 
ATOM     19  C   UNL     1       3.820  -1.522   0.070  0.00  0.00    +0.137 C 
ATOM     20  C   UNL     1       4.114   1.254   0.047  0.00  0.00    +0.137 C 
ATOM     21  C   UNL     1       5.094  -0.953   0.095  0.00  0.00    +0.040 C 
ATOM     22  C   UNL     1       5.241   0.432   0.083  0.00  0.00    +0.040 C 
ENDROOT
BRANCH   5  23
ATOM     23  O   UNL     1      -3.938  -0.442  -1.661  0.00  0.00    -0.376 OA
ATOM     24  H   UNL     1      -3.307   0.143  -2.108  0.00  0.00    +0.211 HD
ENDBRANCH   5  23
BRANCH  10  25
ATOM     25  O   UNL     1      -1.330  -2.375  -0.094  0.00  0.00    -0.506 OA
ATOM     26  H   UNL     1      -2.203  -2.713  -0.116  0.00  0.00    +0.292 HD
ENDBRANCH  10  25
BRANCH  19  27
ATOM     27  O   UNL     1       3.752  -2.883   0.084  0.00  0.00    -0.505 OA
ATOM     28  H   UNL     1       2.918  -3.311   0.068  0.00  0.00    +0.292 HD
ENDBRANCH  19  27
BRANCH  20  29
ATOM     29  O   UNL     1       4.328   2.601   0.035  0.00  0.00    -0.505 OA
ATOM     30  H   UNL     1       3.600   3.191   0.011  0.00  0.00    +0.292 HD
ENDBRANCH  20  29
TORSDOF 4
