REMARK  Name = 134692099
REMARK  9 active torsions:
REMARK  status: ('A' for Active; 'I' for Inactive)
REMARK    1  A    between atoms: C_1  and  C_9
REMARK    2  A    between atoms: C_2  and  N_19
REMARK    3  A    between atoms: N_8  and  C_11
REMARK    4  A    between atoms: C_11  and  O_12
REMARK    5  A    between atoms: C_11  and  C_14
REMARK    6  A    between atoms: C_14  and  C_15
REMARK    7  A    between atoms: C_15  and  S_16
REMARK    8  A    between atoms: C_20  and  C_22
REMARK    9  A    between atoms: C_22  and  N_24
REMARK                            x       y       z     vdW  Elec       q    Type
REMARK                         _______ _______ _______ _____ _____    ______ ____
ROOT
ATOM      1  C   UNL     1      -1.433  -1.266   0.222  0.00  0.00    +0.067 C 
ATOM      2  C   UNL     1      -1.604   0.106   0.042  0.00  0.00    +0.055 C 
ATOM      3  C   UNL     1      -2.546  -2.101   0.320  0.00  0.00    +0.006 C 
ATOM      4  C   UNL     1      -2.889   0.644  -0.040  0.00  0.00    +0.015 C 
ATOM      5  C   UNL     1      -3.831  -1.563   0.239  0.00  0.00    +0.000 C 
ATOM      6  C   UNL     1      -4.002  -0.191   0.059  0.00  0.00    +0.001 C 
ENDROOT
BRANCH   1   9
ATOM      7  O   UNL     1       0.243  -2.468   1.337  0.00  0.00    -0.270 OA
ATOM      8  N   UNL     1       0.735  -1.692  -0.792  0.00  0.00    -0.279 N 
ATOM      9  C   UNL     1      -0.080  -1.871   0.313  0.00  0.00    +0.249 C 
ATOM     10  H   UNL     1       0.380  -1.197  -1.566  0.00  0.00    +0.152 HD
BRANCH   8  11
ATOM     11  C   UNL     1       2.091  -2.204  -0.858  0.00  0.00    +0.188 C 
BRANCH  11  12
ATOM     12  O   UNL     1       2.371  -2.554  -2.206  0.00  0.00    -0.367 OA
ATOM     13  H   UNL     1       1.712  -3.194  -2.517  0.00  0.00    +0.212 HD
ENDBRANCH  11  12
BRANCH  11  14
ATOM     14  C   UNL     1       3.129  -1.192  -0.357  0.00  0.00    +0.062 C 
BRANCH  14  15
ATOM     15  C   UNL     1       2.918  -0.789   1.104  0.00  0.00    +0.058 C 
BRANCH  15  16
ATOM     16  S   UNL     1       4.181   0.411   1.623  0.00  0.00    -0.168 S 
ATOM     17  H   UNL     1       3.974   0.754   2.923  0.00  0.00    +0.102 HD
ENDBRANCH  15  16
ENDBRANCH  14  15
ENDBRANCH  11  14
ENDBRANCH   8  11
ENDBRANCH   1   9
BRANCH   2  19
ATOM     18  O   UNL     1      -1.486   3.079  -0.349  0.00  0.00    -0.277 OA
ATOM     19  N   UNL     1      -0.504   0.962  -0.056  0.00  0.00    -0.285 N 
ATOM     20  C   UNL     1      -0.501   2.355  -0.234  0.00  0.00    +0.206 C 
ATOM     21  H   UNL     1       0.381   0.535   0.007  0.00  0.00    +0.155 HD
BRANCH  20  22
ATOM     22  C   UNL     1       0.917   2.917  -0.292  0.00  0.00    +0.013 C 
ATOM     23  C   UNL     1       0.994   4.171  -1.156  0.00  0.00    -0.015 C 
BRANCH  22  24
ATOM     24  N   UNL     1       1.296   3.246   1.081  0.00  0.00    +0.387 N 
ATOM     25  H   UNL     1       1.244   2.406   1.658  0.00  0.00    -0.089 HD
ATOM     26  H   UNL     1       0.658   3.951   1.450  0.00  0.00    -0.089 HD
ATOM     27  H   UNL     1       2.249   3.609   1.093  0.00  0.00    -0.089 HD
ENDBRANCH  22  24
ENDBRANCH  20  22
ENDBRANCH   2  19
TORSDOF 9
