134694721
  -OEChem-03292013293D

 54 58  0     1  0  0  0  0  0999 V2000
   -0.2531   -0.4690   -2.0536 O   0  0  0  0  0  0  0  0  0  0  0  0
    0.9925   -2.3836   -1.5182 O   0  0  0  0  0  0  0  0  0  0  0  0
   -1.7099   -2.5170   -0.9534 O   0  0  0  0  0  0  0  0  0  0  0  0
    2.2369    0.9110   -2.1479 O   0  0  0  0  0  0  0  0  0  0  0  0
   -1.3637    3.2286   -0.3553 O   0  0  0  0  0  0  0  0  0  0  0  0
    1.7077   -1.9710    1.6178 O   0  0  0  0  0  0  0  0  0  0  0  0
   -0.9685    0.8238   -0.0629 C   0  0  1  0  0  0  0  0  0  0  0  0
    1.2998   -0.3726   -0.2162 C   0  0  1  0  0  0  0  0  0  0  0  0
    0.5465    0.8391    0.4203 C   0  0  1  0  0  0  0  0  0  0  0  0
   -1.6028   -0.5077    0.5265 C   0  0  2  0  0  0  0  0  0  0  0  0
    0.3009   -1.2565   -0.9812 C   0  0  1  0  0  0  0  0  0  0  0  0
   -0.8786   -1.7288   -0.1093 C   0  0  2  0  0  0  0  0  0  0  0  0
    2.5373    0.0510   -1.0670 C   0  0  2  0  0  0  0  0  0  0  0  0
   -3.1720   -0.5624    0.6667 C   0  0  0  0  0  0  0  0  0  0  0  0
   -1.7060    2.0928    0.4379 C   0  0  2  0  0  0  0  0  0  0  0  0
   -0.9274    0.7150   -1.6038 C   0  0  0  0  0  0  0  0  0  0  0  0
    1.3171    2.1681    0.2526 C   0  0  0  0  0  0  0  0  0  0  0  0
    3.4381    0.7107   -0.0159 C   0  0  1  0  0  0  0  0  0  0  0  0
    2.0780   -1.0465    0.9152 C   0  0  0  0  0  0  0  0  0  0  0  0
    2.8367    2.0419    0.4705 C   0  0  0  0  0  0  0  0  0  0  0  0
   -3.6665    0.7760    1.2667 C   0  0  0  0  0  0  0  0  0  0  0  0
   -3.2236    1.9743    0.4463 C   0  0  0  0  0  0  0  0  0  0  0  0
    3.3889   -0.3413    1.0632 C   0  0  0  0  0  0  0  0  0  0  0  0
   -3.5577   -1.6745    1.6734 C   0  0  0  0  0  0  0  0  0  0  0  0
   -3.9707   -0.8251   -0.6288 C   0  0  0  0  0  0  0  0  0  0  0  0
    4.3204   -0.6762    1.9563 C   0  0  0  0  0  0  0  0  0  0  0  0
    0.5144    0.6919    1.5115 H   0  0  0  0  0  0  0  0  0  0  0  0
   -1.2597   -0.5084    1.5746 H   0  0  0  0  0  0  0  0  0  0  0  0
   -0.5276   -2.4040    0.6782 H   0  0  0  0  0  0  0  0  0  0  0  0
    3.0386   -0.8317   -1.4891 H   0  0  0  0  0  0  0  0  0  0  0  0
   -1.3801    2.3068    1.4642 H   0  0  0  0  0  0  0  0  0  0  0  0
   -1.9238    0.7152   -2.0468 H   0  0  0  0  0  0  0  0  0  0  0  0
   -0.4081    1.5661   -2.0555 H   0  0  0  0  0  0  0  0  0  0  0  0
    0.9343    2.9176    0.9556 H   0  0  0  0  0  0  0  0  0  0  0  0
    1.1443    2.5863   -0.7446 H   0  0  0  0  0  0  0  0  0  0  0  0
    4.4554    0.8660   -0.3905 H   0  0  0  0  0  0  0  0  0  0  0  0
    3.3209    2.8687   -0.0647 H   0  0  0  0  0  0  0  0  0  0  0  0
    3.0672    2.1978    1.5322 H   0  0  0  0  0  0  0  0  0  0  0  0
   -3.2901    0.8882    2.2926 H   0  0  0  0  0  0  0  0  0  0  0  0
   -4.7613    0.7804    1.3458 H   0  0  0  0  0  0  0  0  0  0  0  0
   -3.6144    1.9316   -0.5766 H   0  0  0  0  0  0  0  0  0  0  0  0
   -3.6543    2.8868    0.8783 H   0  0  0  0  0  0  0  0  0  0  0  0
   -3.9289   -1.8685   -0.9500 H   0  0  0  0  0  0  0  0  0  0  0  0
   -3.6492   -0.2034   -1.4629 H   0  0  0  0  0  0  0  0  0  0  0  0
   -3.2686   -2.6680    1.3203 H   0  0  0  0  0  0  0  0  0  0  0  0
   -4.6405   -1.6913    1.8452 H   0  0  0  0  0  0  0  0  0  0  0  0
   -3.0753   -1.5170    2.6448 H   0  0  0  0  0  0  0  0  0  0  0  0
   -5.0367   -0.6156   -0.4733 H   0  0  0  0  0  0  0  0  0  0  0  0
    0.3445   -3.0941   -1.6591 H   0  0  0  0  0  0  0  0  0  0  0  0
   -2.1544   -3.1792   -0.3987 H   0  0  0  0  0  0  0  0  0  0  0  0
    3.0807    1.2004   -2.5346 H   0  0  0  0  0  0  0  0  0  0  0  0
   -1.7904    4.0066    0.0423 H   0  0  0  0  0  0  0  0  0  0  0  0
    5.2650   -0.1443    1.9948 H   0  0  0  0  0  0  0  0  0  0  0  0
    4.1660   -1.4807    2.6668 H   0  0  0  0  0  0  0  0  0  0  0  0
  1 11  1  0  0  0  0
  1 16  1  0  0  0  0
  2 11  1  0  0  0  0
  2 49  1  0  0  0  0
  3 12  1  0  0  0  0
  3 50  1  0  0  0  0
  4 13  1  0  0  0  0
  4 51  1  0  0  0  0
  5 15  1  0  0  0  0
  5 52  1  0  0  0  0
  6 19  2  0  0  0  0
  7  9  1  0  0  0  0
  7 10  1  0  0  0  0
  7 15  1  0  0  0  0
  7 16  1  0  0  0  0
  8  9  1  0  0  0  0
  8 11  1  0  0  0  0
  8 13  1  0  0  0  0
  8 19  1  0  0  0  0
  9 17  1  0  0  0  0
  9 27  1  0  0  0  0
 10 12  1  0  0  0  0
 10 14  1  0  0  0  0
 10 28  1  0  0  0  0
 11 12  1  0  0  0  0
 12 29  1  0  0  0  0
 13 18  1  0  0  0  0
 13 30  1  0  0  0  0
 14 21  1  0  0  0  0
 14 24  1  0  0  0  0
 14 25  1  0  0  0  0
 15 22  1  0  0  0  0
 15 31  1  0  0  0  0
 16 32  1  0  0  0  0
 16 33  1  0  0  0  0
 17 20  1  0  0  0  0
 17 34  1  0  0  0  0
 17 35  1  0  0  0  0
 18 20  1  0  0  0  0
 18 23  1  0  0  0  0
 18 36  1  0  0  0  0
 19 23  1  0  0  0  0
 20 37  1  0  0  0  0
 20 38  1  0  0  0  0
 21 22  1  0  0  0  0
 21 39  1  0  0  0  0
 21 40  1  0  0  0  0
 22 41  1  0  0  0  0
 22 42  1  0  0  0  0
 23 26  2  0  0  0  0
 24 45  1  0  0  0  0
 24 46  1  0  0  0  0
 24 47  1  0  0  0  0
 25 43  1  0  0  0  0
 25 44  1  0  0  0  0
 25 48  1  0  0  0  0
 26 53  1  0  0  0  0
 26 54  1  0  0  0  0
M  END
> <PUBCHEM_COMPOUND_CID>
134694721

> <PUBCHEM_CONFORMER_RMSD>
0.6

> <PUBCHEM_CONFORMER_DIVERSEORDER>
1
2

> <PUBCHEM_MMFF94_PARTIAL_CHARGES>
22
1 -0.56
11 0.56
12 0.28
13 0.28
15 0.28
16 0.28
18 0.14
19 0.49
2 -0.68
23 -0.12
26 -0.3
3 -0.68
4 -0.68
49 0.4
5 -0.68
50 0.4
51 0.4
52 0.4
53 0.15
54 0.15
6 -0.57
8 0.06

> <PUBCHEM_EFFECTIVE_ROTOR_COUNT>
2

> <PUBCHEM_PHARMACOPHORE_FEATURES>
14
1 1 acceptor
1 2 acceptor
1 2 donor
1 3 acceptor
1 3 donor
1 4 acceptor
1 4 donor
1 5 acceptor
1 5 donor
1 6 acceptor
3 14 24 25 hydrophobe
6 7 10 14 15 21 22 rings
8 1 7 8 9 10 11 12 16 rings
8 8 9 13 17 18 19 20 23 rings

> <PUBCHEM_HEAVY_ATOM_COUNT>
26

> <PUBCHEM_ATOM_DEF_STEREO_COUNT>
5

> <PUBCHEM_ATOM_UDEF_STEREO_COUNT>
4

> <PUBCHEM_BOND_DEF_STEREO_COUNT>
0

> <PUBCHEM_BOND_UDEF_STEREO_COUNT>
0

> <PUBCHEM_ISOTOPIC_ATOM_COUNT>
0

> <PUBCHEM_COMPONENT_COUNT>
1

> <PUBCHEM_CACTVS_TAUTO_COUNT>
1

> <PUBCHEM_CONFORMER_ID>
0807474100000001

> <PUBCHEM_MMFF94_ENERGY>
126.8469

> <PUBCHEM_FEATURE_SELFOVERLAP>
71.129

> <PUBCHEM_SHAPE_FINGERPRINT>
10165383 225 17130730411880239482
10863032 1 18113336418345586641
10948715 1 17917155012730585532
1100329 8 16467544863718007594
11132069 177 17989489627937822371
11578080 2 17751616944347248037
12011746 2 18413111662631595789
12553582 1 18339374049302117899
12633257 1 18336552612091960809
12892183 10 18260831556710037146
13140716 1 18198059385724210827
13172582 1 18272365347986657488
13224815 77 18334866038548246561
13538477 17 18337949099201555174
13583140 156 17968934322512727585
14178342 30 18058174912323576593
14223421 5 18409735032157354009
14787075 74 17467087665909599651
15209289 33 18186513311622105354
15309172 13 18131356314671696187
16752209 62 18412827971372522013
16945 1 18271535272447264079
17349148 13 18410005564005923807
1813 80 17604428467422808242
18186145 218 16916803863064992615
18981168 100 17703509878767827405
20691752 17 18270981088881010911
20715895 44 18045771296519394853
21033648 29 17559370514875009792
22112679 90 17984971841828063294
22182313 1 18057330483045424254
2334 1 17766279052156696279
23419403 2 17970884869189088085
23559900 14 18052834554271998423
2748010 2 17983867683013777767
296302 2 16805610308172478197
3286 77 18186797006695857744
34934 24 18196930200083198313
3797600 57 18263942071047528536
392239 28 17828493796675553496
474 4 14692274175748285264
7097593 13 17970621887940802978
90525 40 18343862233949010668

> <PUBCHEM_SHAPE_MULTIPOLES>
499.85
6.56
2.66
1.72
0.24
0.73
0.3
-0.27
-3.02
0.87
0.02
-0.55
-0.57
-0.42

> <PUBCHEM_SHAPE_SELFOVERLAP>
1108.214

> <PUBCHEM_SHAPE_VOLUME>
258.3

> <PUBCHEM_COORDINATE_TYPE>
2
5
10

$$$$
