REMARK  Name = 134687968
REMARK  8 active torsions:
REMARK  status: ('A' for Active; 'I' for Inactive)
REMARK    1  A    between atoms: C_3  and  O_27
REMARK    2  A    between atoms: C_6  and  O_21
REMARK    3  A    between atoms: C_7  and  O_23
REMARK    4  A    between atoms: C_13  and  O_25
REMARK    5  A    between atoms: C_15  and  C_31
REMARK    6  A    between atoms: O_27  and  C_29
REMARK    7  A    between atoms: C_31  and  O_32
REMARK    8  A    between atoms: O_32  and  C_34
REMARK                            x       y       z     vdW  Elec       q    Type
REMARK                         _______ _______ _______ _____ _____    ______ ____
ROOT
ATOM      1  O   UNL     1       2.754  -3.442  -0.752  0.00  0.00    -0.289 OA
ATOM      2  C   UNL     1      -1.246   1.523  -0.293  0.00  0.00    +0.049 C 
ATOM      3  C   UNL     1      -2.632   0.931  -0.151  0.00  0.00    +0.161 C 
ATOM      4  C   UNL     1      -2.406   2.421   0.128  0.00  0.00    +0.040 C 
ATOM      5  C   UNL     1      -0.121   1.110   0.646  0.00  0.00    +0.050 C 
ATOM      6  C   UNL     1      -2.871  -0.149   0.872  0.00  0.00    +0.149 C 
ATOM      7  C   UNL     1      -0.292  -0.393   1.070  0.00  0.00    +0.101 C 
ATOM      8  C   UNL     1      -1.683  -0.450   1.803  0.00  0.00    +0.056 C 
ATOM      9  C   UNL     1      -2.874   3.425  -0.906  0.00  0.00    +0.004 C 
ATOM     10  C   UNL     1      -2.527   2.969   1.527  0.00  0.00    +0.004 C 
ATOM     11  C   UNL     1      -0.097  -1.325  -0.172  0.00  0.00    +0.079 C 
ATOM     12  C   UNL     1       1.216   1.573   0.106  0.00  0.00    -0.029 C 
ATOM     13  C   UNL     1       1.345  -1.449  -0.734  0.00  0.00    +0.152 C 
ATOM     14  C   UNL     1      -1.966  -1.693   2.670  0.00  0.00    +0.005 C 
ATOM     15  C   UNL     1       2.321   0.889  -0.228  0.00  0.00    -0.002 C 
ATOM     16  C   UNL     1       2.488  -0.605  -0.170  0.00  0.00    +0.060 C 
ATOM     17  C   UNL     1      -0.477  -2.770   0.042  0.00  0.00    -0.023 C 
ATOM     18  C   UNL     1       1.669  -2.919  -0.538  0.00  0.00    +0.193 C 
ATOM     19  C   UNL     1       0.488  -3.678  -0.113  0.00  0.00    +0.011 C 
ATOM     20  C   UNL     1       0.444  -5.149   0.017  0.00  0.00    +0.034 C 
ENDROOT
BRANCH   6  21
ATOM     21  O   UNL     1      -4.021   0.178   1.652  0.00  0.00    -0.381 OA
ATOM     22  H   UNL     1      -4.768   0.367   1.063  0.00  0.00    +0.210 HD
ENDBRANCH   6  21
BRANCH   7  23
ATOM     23  O   UNL     1       0.694  -0.662   2.075  0.00  0.00    -0.386 OA
ATOM     24  H   UNL     1       0.552  -0.073   2.833  0.00  0.00    +0.210 HD
ENDBRANCH   7  23
BRANCH  13  25
ATOM     25  O   UNL     1       1.335  -1.285  -2.156  0.00  0.00    -0.379 OA
ATOM     26  H   UNL     1       1.134  -0.361  -2.373  0.00  0.00    +0.211 HD
ENDBRANCH  13  25
BRANCH   3  27
ATOM     27  O   UNL     1      -3.305   0.636  -1.398  0.00  0.00    -0.453 OA
BRANCH  27  29
ATOM     28  O   UNL     1      -5.416   1.080  -0.582  0.00  0.00    -0.250 OA
ATOM     29  C   UNL     1      -4.664   0.507  -1.359  0.00  0.00    +0.317 C 
ATOM     30  C   UNL     1      -5.118  -0.447  -2.421  0.00  0.00    +0.121 C 
ENDBRANCH  27  29
ENDBRANCH   3  27
BRANCH  15  31
ATOM     31  C   UNL     1       3.548   1.637  -0.689  0.00  0.00    +0.231 C 
BRANCH  31  32
ATOM     32  O   UNL     1       4.625   1.352   0.179  0.00  0.00    -0.444 OA
BRANCH  32  34
ATOM     33  O   UNL     1       6.072   2.707  -1.002  0.00  0.00    -0.250 OA
ATOM     34  C   UNL     1       5.848   1.944  -0.072  0.00  0.00    +0.318 C 
ATOM     35  C   UNL     1       6.869   1.534   0.946  0.00  0.00    +0.121 C 
ENDBRANCH  32  34
ENDBRANCH  31  32
ENDBRANCH  15  31
TORSDOF 8
