REMARK  Name = 134692605
REMARK  5 active torsions:
REMARK  status: ('A' for Active; 'I' for Inactive)
REMARK    1  A    between atoms: N_1  and  C_28
REMARK    2  A    between atoms: C_4  and  N_9
REMARK    3  A    between atoms: C_13  and  C_19
REMARK    4  A    between atoms: C_33  and  C_34
REMARK    5  A    between atoms: C_34  and  O_36
REMARK                            x       y       z     vdW  Elec       q    Type
REMARK                         _______ _______ _______ _____ _____    ______ ____
ROOT
ATOM      1  N   UNL     1       1.525  -1.264   0.210  0.00  0.00    -0.256 N 
ATOM      2  N   UNL     1       1.872  -2.247   1.058  0.00  0.00    -0.173 NA
ATOM      3  C   UNL     1       0.241  -1.351  -0.240  0.00  0.00    +0.071 A 
ATOM      4  C   UNL     1      -0.289  -2.471   0.353  0.00  0.00    +0.086 A 
ATOM      5  C   UNL     1       0.759  -2.982   1.141  0.00  0.00    +0.094 A 
ATOM      6  C   UNL     1      -0.345  -0.372  -1.176  0.00  0.00    +0.053 C 
ATOM      7  C   UNL     1       0.747  -4.179   2.000  0.00  0.00    +0.055 C 
ENDROOT
BRANCH   4   9
ATOM      8 CL   UNL     1      -6.799  -0.648  -0.883  0.00  0.00    -0.078 Cl
ATOM      9  N   UNL     1      -1.536  -2.963   0.209  0.00  0.00    -0.245 N 
ATOM     10  N   UNL     1      -2.871  -1.038  -0.215  0.00  0.00    -0.336 NA
ATOM     11  N   UNL     1      -3.876  -3.227  -0.135  0.00  0.00    -0.169 NA
ATOM     12  C   UNL     1      -2.835  -2.376  -0.063  0.00  0.00    +0.149 C 
ATOM     13  C   UNL     1      -4.094  -0.527  -0.466  0.00  0.00    +0.159 C 
ATOM     14  C   UNL     1      -5.239  -1.290  -0.565  0.00  0.00    +0.108 C 
ATOM     15  C   UNL     1      -5.068  -2.648  -0.389  0.00  0.00    +0.126 C 
ATOM     16  H   UNL     1      -1.573  -3.942   0.310  0.00  0.00    +0.165 HD
BRANCH  13  19
ATOM     17  N   UNL     1      -3.894   3.083  -0.221  0.00  0.00    -0.189 N 
ATOM     18  N   UNL     1      -4.382   3.000  -1.489  0.00  0.00    -0.172 NA
ATOM     19  C   UNL     1      -4.113   0.902  -0.625  0.00  0.00    +0.068 C 
ATOM     20  C   UNL     1      -3.721   1.809   0.329  0.00  0.00    +0.078 C 
ATOM     21  C   UNL     1      -4.508   1.692  -1.716  0.00  0.00    +0.122 C 
ATOM     22  C   UNL     1      -3.216   1.713   1.656  0.00  0.00    +0.017 C 
ATOM     23  C   UNL     1      -3.586   4.244   0.497  0.00  0.00    +0.089 C 
ATOM     24  C   UNL     1      -2.922   2.836   2.338  0.00  0.00    +0.003 C 
ATOM     25  C   UNL     1      -3.110   4.149   1.748  0.00  0.00    +0.018 C 
ENDBRANCH  13  19
ENDBRANCH   4   9
BRANCH   1  28
ATOM     26  O   UNL     1       7.190   0.349  -1.792  0.00  0.00    -0.272 OA
ATOM     27  N   UNL     1       5.241   0.769  -0.600  0.00  0.00    -0.277 N 
ATOM     28  C   UNL     1       2.547  -0.200  -0.146  0.00  0.00    +0.108 C 
ATOM     29  C   UNL     1       3.511   0.090   1.020  0.00  0.00    +0.046 C 
ATOM     30  C   UNL     1       3.337  -0.562  -1.419  0.00  0.00    +0.046 C 
ATOM     31  C   UNL     1       4.540   1.153   0.631  0.00  0.00    +0.095 C 
ATOM     32  C   UNL     1       4.368   0.516  -1.748  0.00  0.00    +0.095 C 
ATOM     33  C   UNL     1       6.624   0.656  -0.740  0.00  0.00    +0.253 C 
BRANCH  33  34
ATOM     34  C   UNL     1       7.452   0.930   0.490  0.00  0.00    +0.187 C 
ATOM     35  C   UNL     1       7.878   2.379   0.540  0.00  0.00    +0.042 C 
BRANCH  34  36
ATOM     36  O   UNL     1       8.574   0.076   0.406  0.00  0.00    -0.376 OA
ATOM     37  H   UNL     1       8.277  -0.847   0.375  0.00  0.00    +0.211 HD
ENDBRANCH  34  36
ENDBRANCH  33  34
ENDBRANCH   1  28
TORSDOF 5
