REMARK  Name = 134688295
REMARK  14 active torsions:
REMARK  status: ('A' for Active; 'I' for Inactive)
REMARK    1  A    between atoms: C_2  and  C_21
REMARK    2  A    between atoms: C_3  and  O_7
REMARK    3  A    between atoms: C_4  and  C_11
REMARK    4  A    between atoms: C_6  and  O_9
REMARK    5  A    between atoms: C_12  and  C_13
REMARK    6  A    between atoms: C_13  and  O_14
REMARK    7  A    between atoms: C_13  and  C_16
REMARK    8  A    between atoms: C_16  and  C_17
REMARK    9  A    between atoms: C_17  and  C_18
REMARK   10  A    between atoms: C_18  and  C_19
REMARK   11  A    between atoms: C_21  and  C_22
REMARK   12  A    between atoms: C_23  and  C_24
REMARK   13  A    between atoms: C_24  and  C_26
REMARK   14  A    between atoms: C_26  and  O_27
REMARK                            x       y       z     vdW  Elec       q    Type
REMARK                         _______ _______ _______ _____ _____    ______ ____
ROOT
ATOM      1  O   UNL     1      -3.587  -1.044  -0.285  0.00  0.00    -0.329 OA
ATOM      2  C   UNL     1      -1.172  -1.365  -0.436  0.00  0.00    +0.063 C 
ATOM      3  C   UNL     1      -1.341  -2.804   0.094  0.00  0.00    +0.118 C 
ATOM      4  C   UNL     1      -2.324  -0.472   0.076  0.00  0.00    +0.142 C 
ATOM      5  C   UNL     1      -2.753  -3.312  -0.191  0.00  0.00    +0.090 C 
ATOM      6  C   UNL     1      -3.806  -2.323   0.306  0.00  0.00    +0.234 C 
ENDROOT
BRANCH   3   7
ATOM      7  O   UNL     1      -1.129  -2.861   1.503  0.00  0.00    -0.384 OA
ATOM      8  H   UNL     1      -0.236  -2.543   1.709  0.00  0.00    +0.210 HD
ENDBRANCH   3   7
BRANCH   6   9
ATOM      9  O   UNL     1      -5.087  -2.827  -0.063  0.00  0.00    -0.360 OA
ATOM     10  H   UNL     1      -5.775  -2.216   0.242  0.00  0.00    +0.213 HD
ENDBRANCH   6   9
BRANCH   4  11
ATOM     11  C   UNL     1      -2.289   0.903  -0.509  0.00  0.00    +0.001 C 
ATOM     12  C   UNL     1      -2.223   2.025   0.223  0.00  0.00    +0.000 C 
BRANCH  12  13
ATOM     13  C   UNL     1      -2.189   3.406  -0.370  0.00  0.00    +0.132 C 
BRANCH  13  14
ATOM     14  O   UNL     1      -3.351   4.112   0.069  0.00  0.00    -0.380 OA
ATOM     15  H   UNL     1      -4.146   3.624  -0.197  0.00  0.00    +0.211 HD
ENDBRANCH  13  14
BRANCH  13  16
ATOM     16  C   UNL     1      -0.963   4.216   0.073  0.00  0.00    +0.034 C 
BRANCH  16  17
ATOM     17  C   UNL     1       0.365   3.526  -0.248  0.00  0.00    +0.003 C 
BRANCH  17  18
ATOM     18  C   UNL     1       1.588   4.295   0.263  0.00  0.00    +0.000 C 
BRANCH  18  19
ATOM     19  C   UNL     1       2.919   3.645  -0.118  0.00  0.00    +0.000 C 
ATOM     20  C   UNL     1       4.098   4.440   0.423  0.00  0.00    +0.000 C 
ENDBRANCH  18  19
ENDBRANCH  17  18
ENDBRANCH  16  17
ENDBRANCH  13  16
ENDBRANCH  12  13
ENDBRANCH   4  11
BRANCH   2  21
ATOM     21  C   UNL     1       0.206  -0.796  -0.084  0.00  0.00    +0.031 C 
BRANCH  21  22
ATOM     22  C   UNL     1       1.395  -1.579  -0.554  0.00  0.00    -0.030 C 
ATOM     23  C   UNL     1       2.384  -2.092   0.194  0.00  0.00    -0.019 C 
BRANCH  23  24
ATOM     24  C   UNL     1       3.535  -2.869  -0.372  0.00  0.00    +0.135 C 
BRANCH  24  26
ATOM     25  O   UNL     1       4.977  -1.149   0.589  0.00  0.00    -0.250 OA
ATOM     26  C   UNL     1       4.846  -2.190  -0.040  0.00  0.00    +0.318 C 
BRANCH  26  27
ATOM     27  O   UNL     1       5.900  -2.885  -0.544  0.00  0.00    -0.480 OA
ATOM     28  H   UNL     1       5.753  -3.679  -1.020  0.00  0.00    +0.295 HD
ENDBRANCH  26  27
ENDBRANCH  24  26
ENDBRANCH  23  24
ENDBRANCH  21  22
ENDBRANCH   2  21
TORSDOF 14
