134612765
  -OEChem-03292013293D

 42 44  0     1  0  0  0  0  0999 V2000
   -6.3432    1.9377   -1.4588 Cl  0  0  0  0  0  0  0  0  0  0  0  0
    0.0350    0.9551    0.3491 S   0  0  0  0  0  0  0  0  0  0  0  0
   -1.7194   -1.3389    1.2448 S   0  0  0  0  0  0  0  0  0  0  0  0
    2.4107   -2.1575   -0.7277 O   0  0  0  0  0  0  0  0  0  0  0  0
   -0.5677    1.5548   -0.8263 O   0  0  0  0  0  0  0  0  0  0  0  0
   -0.2205    1.5360    1.6543 O   0  0  0  0  0  0  0  0  0  0  0  0
   -1.6278   -0.9276    2.6330 O   0  0  0  0  0  0  0  0  0  0  0  0
   -1.9705   -2.7270    0.9075 O   0  0  0  0  0  0  0  0  0  0  0  0
    5.8972    0.9731   -0.4835 O   0  0  0  0  0  0  0  0  0  0  0  0
   -0.3180   -0.7498    0.3919 N   0  0  1  0  0  0  0  0  0  0  0  0
    1.0520   -2.5660   -0.5392 C   0  0  1  0  0  0  0  0  0  0  0  0
    0.0397   -1.5123   -0.8424 C   0  0  0  0  0  0  0  0  0  0  0  0
    1.9062   -3.1603   -1.6239 C   0  0  0  0  0  0  0  0  0  0  0  0
    1.7875    0.9581    0.0988 C   0  0  0  0  0  0  0  0  0  0  0  0
   -3.0217   -0.4162    0.4835 C   0  0  0  0  0  0  0  0  0  0  0  0
    2.6385    0.5409    1.1225 C   0  0  0  0  0  0  0  0  0  0  0  0
    2.3176    1.3802   -1.1204 C   0  0  0  0  0  0  0  0  0  0  0  0
   -3.6708   -0.9241   -0.6419 C   0  0  0  0  0  0  0  0  0  0  0  0
   -3.3999    0.8197    1.0082 C   0  0  0  0  0  0  0  0  0  0  0  0
    4.0194    0.5460    0.9267 C   0  0  0  0  0  0  0  0  0  0  0  0
    3.6986    1.3853   -1.3160 C   0  0  0  0  0  0  0  0  0  0  0  0
   -4.6979   -0.1963   -1.2425 C   0  0  0  0  0  0  0  0  0  0  0  0
   -4.4271    1.5476    0.4076 C   0  0  0  0  0  0  0  0  0  0  0  0
    4.5496    0.9680   -0.2926 C   0  0  0  0  0  0  0  0  0  0  0  0
   -5.0760    1.0396   -0.7178 C   0  0  0  0  0  0  0  0  0  0  0  0
    6.7086    0.5341    0.6051 C   0  0  0  0  0  0  0  0  0  0  0  0
    0.8114   -3.1863    0.3133 H   0  0  0  0  0  0  0  0  0  0  0  0
   -0.8527   -1.9768   -1.2745 H   0  0  0  0  0  0  0  0  0  0  0  0
    0.4031   -0.8389   -1.6262 H   0  0  0  0  0  0  0  0  0  0  0  0
    2.2674   -4.1719   -1.4929 H   0  0  0  0  0  0  0  0  0  0  0  0
    1.7246   -2.8681   -2.6498 H   0  0  0  0  0  0  0  0  0  0  0  0
    2.2382    0.2064    2.0758 H   0  0  0  0  0  0  0  0  0  0  0  0
    1.6787    1.7076   -1.9351 H   0  0  0  0  0  0  0  0  0  0  0  0
   -3.3912   -1.8816   -1.0717 H   0  0  0  0  0  0  0  0  0  0  0  0
   -2.9166    1.2321    1.8885 H   0  0  0  0  0  0  0  0  0  0  0  0
    4.6220    0.2083    1.7629 H   0  0  0  0  0  0  0  0  0  0  0  0
    4.1059    1.7144   -2.2680 H   0  0  0  0  0  0  0  0  0  0  0  0
   -5.1940   -0.6038   -2.1196 H   0  0  0  0  0  0  0  0  0  0  0  0
   -4.7124    2.5084    0.8283 H   0  0  0  0  0  0  0  0  0  0  0  0
    7.7516    0.6036    0.2793 H   0  0  0  0  0  0  0  0  0  0  0  0
    6.5195   -0.5166    0.8497 H   0  0  0  0  0  0  0  0  0  0  0  0
    6.6016    1.1891    1.4764 H   0  0  0  0  0  0  0  0  0  0  0  0
  1 25  1  0  0  0  0
  2  5  2  0  0  0  0
  2  6  2  0  0  0  0
  2 10  1  0  0  0  0
  2 14  1  0  0  0  0
  3  7  2  0  0  0  0
  3  8  2  0  0  0  0
  3 10  1  0  0  0  0
  3 15  1  0  0  0  0
  4 11  1  0  0  0  0
  4 13  1  0  0  0  0
  9 24  1  0  0  0  0
  9 26  1  0  0  0  0
 10 12  1  0  0  0  0
 11 12  1  0  0  0  0
 11 13  1  0  0  0  0
 11 27  1  0  0  0  0
 12 28  1  0  0  0  0
 12 29  1  0  0  0  0
 13 30  1  0  0  0  0
 13 31  1  0  0  0  0
 14 16  2  0  0  0  0
 14 17  1  0  0  0  0
 15 18  2  0  0  0  0
 15 19  1  0  0  0  0
 16 20  1  0  0  0  0
 16 32  1  0  0  0  0
 17 21  2  0  0  0  0
 17 33  1  0  0  0  0
 18 22  1  0  0  0  0
 18 34  1  0  0  0  0
 19 23  2  0  0  0  0
 19 35  1  0  0  0  0
 20 24  2  0  0  0  0
 20 36  1  0  0  0  0
 21 24  1  0  0  0  0
 21 37  1  0  0  0  0
 22 25  2  0  0  0  0
 22 38  1  0  0  0  0
 23 25  1  0  0  0  0
 23 39  1  0  0  0  0
 26 40  1  0  0  0  0
 26 41  1  0  0  0  0
 26 42  1  0  0  0  0
M  END
> <PUBCHEM_COMPOUND_CID>
134612765

> <PUBCHEM_CONFORMER_RMSD>
0.8

> <PUBCHEM_CONFORMER_DIVERSEORDER>
1
16
89
45
87
50
13
32
29
61
80
51
44
40
72
74
64
71
10
3
66
59
63
54
41
48
6
78
38
46
60
39
65
69
85
28
21
53
52
79
31
37
49
27
56
96
17
75
73
88
19
5
62
7
12
24
18
11
43
34
55
92
77
57
82
90
76
70
67
93
58
23
14
84
30
33
83
42
15
25
68
9
47
8
2
91
81
94
4
36
86
26
20
95
35
22

> <PUBCHEM_MMFF94_PARTIAL_CHARGES>
37
1 -0.18
10 -0.63
11 -0.05
12 0.45
13 -0.05
14 -0.01
15 -0.01
16 -0.15
17 -0.15
18 -0.15
19 -0.15
2 1.45
20 -0.15
21 -0.15
22 -0.15
23 -0.15
24 0.08
25 0.18
26 0.28
27 0.1
3 1.45
30 0.1
31 0.1
32 0.15
33 0.15
34 0.15
35 0.15
36 0.15
37 0.15
38 0.15
39 0.15
4 -0.3
5 -0.65
6 -0.65
7 -0.65
8 -0.65
9 -0.36

> <PUBCHEM_EFFECTIVE_ROTOR_COUNT>
7.6

> <PUBCHEM_PHARMACOPHORE_FEATURES>
8
1 4 acceptor
1 5 acceptor
1 6 acceptor
1 7 acceptor
1 8 acceptor
1 9 acceptor
6 14 16 17 20 21 24 rings
6 15 18 19 22 23 25 rings

> <PUBCHEM_HEAVY_ATOM_COUNT>
26

> <PUBCHEM_ATOM_DEF_STEREO_COUNT>
1

> <PUBCHEM_ATOM_UDEF_STEREO_COUNT>
0

> <PUBCHEM_BOND_DEF_STEREO_COUNT>
0

> <PUBCHEM_BOND_UDEF_STEREO_COUNT>
0

> <PUBCHEM_ISOTOPIC_ATOM_COUNT>
0

> <PUBCHEM_COMPONENT_COUNT>
1

> <PUBCHEM_CACTVS_TAUTO_COUNT>
1

> <PUBCHEM_CONFORMER_ID>
0806071D00000001

> <PUBCHEM_MMFF94_ENERGY>
52.1032

> <PUBCHEM_FEATURE_SELFOVERLAP>
40.638

> <PUBCHEM_SHAPE_FINGERPRINT>
10366900 7 17988925565403697328
10906281 52 18260841379432585700
12236239 1 18040433334922203336
12422481 6 18333726902021644102
12633257 1 17530676636928323184
12788726 201 18335696083791559857
1601671 61 18407760356808983740
17349148 13 18411983576306824649
18608769 82 18338801230131373171
19489759 90 18202002139832245969
200 152 14692577623487882113
20691752 17 17750807540885810813
20715895 44 18261390009864549157
21033648 144 17969778768760110173
22182313 1 18264512670475367299
22393880 68 17632567284442229343
23402539 116 18187361047275975733
23559900 14 18264219032156620542
266924 87 18200599077196091112
2838139 119 18260541247392215581
4017518 198 17989492931617695270
474 4 18334012770586361655
56616090 46 18040155102054892411
59682541 52 18057872555901383037
59755656 215 18338239263324166044
7226269 152 18333729117571349265
9981440 41 18408890654609642859

> <PUBCHEM_SHAPE_MULTIPOLES>
504.44
12.79
2.71
1.66
1.71
2.26
-0.41
-7.95
3.18
0.12
0.83
-0.62
0.22
1.14

> <PUBCHEM_SHAPE_SELFOVERLAP>
1030.42

> <PUBCHEM_SHAPE_VOLUME>
290.9

> <PUBCHEM_COORDINATE_TYPE>
2
5
10

$$$$
