REMARK  Name = 134689687
REMARK  14 active torsions:
REMARK  status: ('A' for Active; 'I' for Inactive)
REMARK    1  A    between atoms: C_3  and  C_20
REMARK    2  A    between atoms: C_4  and  O_8
REMARK    3  A    between atoms: C_5  and  C_10
REMARK    4  A    between atoms: C_11  and  C_12
REMARK    5  A    between atoms: C_12  and  O_13
REMARK    6  A    between atoms: C_12  and  C_15
REMARK    7  A    between atoms: C_15  and  C_16
REMARK    8  A    between atoms: C_17  and  C_18
REMARK    9  A    between atoms: C_20  and  C_21
REMARK   10  A    between atoms: C_22  and  C_23
REMARK   11  A    between atoms: C_23  and  C_24
REMARK   12  A    between atoms: C_24  and  C_25
REMARK   13  A    between atoms: C_25  and  C_27
REMARK   14  A    between atoms: C_27  and  O_28
REMARK                            x       y       z     vdW  Elec       q    Type
REMARK                         _______ _______ _______ _____ _____    ______ ____
ROOT
ATOM      1  O   UNL     1      -3.787   1.251   0.348  0.00  0.00    -0.448 OA
ATOM      2  O   UNL     1      -5.056   3.101   0.505  0.00  0.00    -0.250 OA
ATOM      3  C   UNL     1      -1.308   1.374   0.285  0.00  0.00    +0.076 C 
ATOM      4  C   UNL     1      -1.479   2.817  -0.194  0.00  0.00    +0.126 C 
ATOM      5  C   UNL     1      -2.572   0.583  -0.077  0.00  0.00    +0.193 C 
ATOM      6  C   UNL     1      -2.695   3.436   0.467  0.00  0.00    +0.139 C 
ATOM      7  C   UNL     1      -3.941   2.592   0.404  0.00  0.00    +0.320 C 
ENDROOT
BRANCH   4   8
ATOM      8  O   UNL     1      -1.650   2.889  -1.607  0.00  0.00    -0.384 OA
ATOM      9  H   UNL     1      -0.880   2.497  -2.047  0.00  0.00    +0.210 HD
ENDBRANCH   4   8
BRANCH   5  10
ATOM     10  C   UNL     1      -2.609  -0.785   0.532  0.00  0.00    +0.015 C 
ATOM     11  C   UNL     1      -2.729  -1.916  -0.179  0.00  0.00    +0.002 C 
BRANCH  11  12
ATOM     12  C   UNL     1      -2.776  -3.287   0.437  0.00  0.00    +0.137 C 
BRANCH  12  13
ATOM     13  O   UNL     1      -4.054  -3.847   0.134  0.00  0.00    -0.380 OA
ATOM     14  H   UNL     1      -4.751  -3.270   0.482  0.00  0.00    +0.211 HD
ENDBRANCH  12  13
BRANCH  12  15
ATOM     15  C   UNL     1      -1.687  -4.213  -0.122  0.00  0.00    +0.059 C 
BRANCH  15  16
ATOM     16  C   UNL     1      -0.301  -3.692   0.129  0.00  0.00    -0.028 C 
ATOM     17  C   UNL     1       0.580  -3.420  -0.846  0.00  0.00    -0.031 C 
BRANCH  17  18
ATOM     18  C   UNL     1       1.966  -2.907  -0.597  0.00  0.00    +0.026 C 
ATOM     19  C   UNL     1       2.958  -4.049  -0.441  0.00  0.00    +0.005 C 
ENDBRANCH  17  18
ENDBRANCH  15  16
ENDBRANCH  12  15
ENDBRANCH  11  12
ENDBRANCH   5  10
BRANCH   3  20
ATOM     20  C   UNL     1      -0.037   0.746  -0.298  0.00  0.00    +0.032 C 
BRANCH  20  21
ATOM     21  C   UNL     1       1.253   1.454  -0.011  0.00  0.00    -0.030 C 
ATOM     22  C   UNL     1       2.136   1.935  -0.899  0.00  0.00    -0.031 C 
BRANCH  22  23
ATOM     23  C   UNL     1       3.403   2.642  -0.513  0.00  0.00    +0.026 C 
BRANCH  23  24
ATOM     24  C   UNL     1       4.675   1.954  -1.027  0.00  0.00    +0.016 C 
BRANCH  24  25
ATOM     25  C   UNL     1       4.845   0.514  -0.533  0.00  0.00    +0.110 C 
BRANCH  25  27
ATOM     26  O   UNL     1       5.417   1.242   1.719  0.00  0.00    -0.250 OA
ATOM     27  C   UNL     1       4.950   0.394   0.971  0.00  0.00    +0.314 C 
BRANCH  27  28
ATOM     28  O   UNL     1       4.497  -0.809   1.412  0.00  0.00    -0.480 OA
ATOM     29  H   UNL     1       4.147  -1.429   0.803  0.00  0.00    +0.295 HD
ENDBRANCH  27  28
ENDBRANCH  25  27
ENDBRANCH  24  25
ENDBRANCH  23  24
ENDBRANCH  22  23
ENDBRANCH  20  21
ENDBRANCH   3  20
TORSDOF 14
