REMARK  Name = 134601
REMARK  10 active torsions:
REMARK  status: ('A' for Active; 'I' for Inactive)
REMARK    1  A    between atoms: N_2  and  C_5
REMARK    2  A    between atoms: C_3  and  C_17
REMARK    3  A    between atoms: C_5  and  C_7
REMARK    4  A    between atoms: C_5  and  C_10
REMARK    5  A    between atoms: C_7  and  O_8
REMARK    6  A    between atoms: C_10  and  C_11
REMARK    7  A    between atoms: C_17  and  N_18
REMARK    8  A    between atoms: C_17  and  C_22
REMARK    9  A    between atoms: C_22  and  C_24
REMARK   10  A    between atoms: C_24  and  O_25
REMARK                            x       y       z     vdW  Elec       q    Type
REMARK                         _______ _______ _______ _____ _____    ______ ____
ROOT
ATOM      1  O   UNL     1       2.121  -0.028  -1.608  0.00  0.00    -0.277 OA
ATOM      2  N   UNL     1       0.535   0.167   0.072  0.00  0.00    -0.298 N 
ATOM      3  C   UNL     1       1.723  -0.295  -0.476  0.00  0.00    +0.203 C 
ATOM      4  H   UNL     1       0.299  -0.101   0.990  0.00  0.00    +0.150 HD
ENDROOT
BRANCH   2   5
ATOM      5  C   UNL     1      -0.366   1.028  -0.657  0.00  0.00    +0.176 C 
BRANCH   5   7
ATOM      6  O   UNL     1      -0.928   2.036   1.466  0.00  0.00    -0.248 OA
ATOM      7  C   UNL     1      -1.059   2.040   0.247  0.00  0.00    +0.335 C 
BRANCH   7   8
ATOM      8  O   UNL     1      -1.834   2.912  -0.458  0.00  0.00    -0.443 OA
ATOM      9  C   UNL     1      -2.537   3.886   0.320  0.00  0.00    +0.256 C 
ENDBRANCH   7   8
ENDBRANCH   5   7
BRANCH   5  10
ATOM     10  C   UNL     1      -1.370   0.213  -1.485  0.00  0.00    +0.057 C 
BRANCH  10  11
ATOM     11  C   UNL     1      -2.315  -0.641  -0.669  0.00  0.00    -0.020 C 
ATOM     12  C   UNL     1      -1.953  -1.940  -0.354  0.00  0.00    -0.004 C 
ATOM     13  C   UNL     1      -3.523  -0.106  -0.254  0.00  0.00    -0.004 C 
ATOM     14  C   UNL     1      -2.824  -2.727   0.398  0.00  0.00    -0.000 C 
ATOM     15  C   UNL     1      -4.395  -0.894   0.498  0.00  0.00    -0.000 C 
ATOM     16  C   UNL     1      -4.045  -2.204   0.824  0.00  0.00    -0.000 C 
ENDBRANCH  10  11
ENDBRANCH   5  10
ENDBRANCH   2   5
BRANCH   3  17
ATOM     17  C   UNL     1       2.486  -1.213   0.476  0.00  0.00    +0.024 C 
BRANCH  17  18
ATOM     18  N   UNL     1       1.954  -2.559   0.257  0.00  0.00    +0.388 N 
ATOM     19  H   UNL     1       0.951  -2.562   0.443  0.00  0.00    -0.089 HD
ATOM     20  H   UNL     1       2.419  -3.214   0.886  0.00  0.00    -0.089 HD
ATOM     21  H   UNL     1       2.122  -2.838  -0.710  0.00  0.00    -0.089 HD
ENDBRANCH  17  18
BRANCH  17  22
ATOM     22  C   UNL     1       3.989  -1.216   0.196  0.00  0.00    +0.096 C 
BRANCH  22  24
ATOM     23  O   UNL     1       4.139   0.971   1.212  0.00  0.00    -0.250 OA
ATOM     24  C   UNL     1       4.576   0.159   0.407  0.00  0.00    +0.312 C 
BRANCH  24  25
ATOM     25  O   UNL     1       5.625   0.413  -0.413  0.00  0.00    -0.480 OA
ATOM     26  H   UNL     1       5.921  -0.243  -1.012  0.00  0.00    +0.295 HD
ENDBRANCH  24  25
ENDBRANCH  22  24
ENDBRANCH  17  22
ENDBRANCH   3  17
TORSDOF 10
