134688495
  -OEChem-03292013293D

 69 73  0     1  0  0  0  0  0999 V2000
   -1.8344   -0.0633   -2.4465 O   0  0  0  0  0  0  0  0  0  0  0  0
   -1.0710   -2.1938   -1.8413 O   0  0  0  0  0  0  0  0  0  0  0  0
    1.2678   -1.0967   -2.9727 O   0  0  0  0  0  0  0  0  0  0  0  0
   -1.8118   -1.6268    0.8750 O   0  0  0  0  0  0  0  0  0  0  0  0
    0.7044   -1.0714    1.3267 O   0  0  0  0  0  0  0  0  0  0  0  0
    3.1803   -1.7023   -0.8899 O   0  0  0  0  0  0  0  0  0  0  0  0
    4.6131    0.1436    0.4791 O   0  0  0  0  0  0  0  0  0  0  0  0
   -2.5929   -3.6069   -0.0231 O   0  0  0  0  0  0  0  0  0  0  0  0
    5.2194    0.6375    2.6530 O   0  0  0  0  0  0  0  0  0  0  0  0
    0.0984   -0.1825   -0.9633 C   0  0  1  0  0  0  0  0  0  0  0  0
   -0.2643    1.1988   -0.3014 C   0  0  2  0  0  0  0  0  0  0  0  0
   -1.7840    1.5474   -0.5768 C   0  0  2  0  0  0  0  0  0  0  0  0
   -1.2474   -0.8535   -1.3859 C   0  0  1  0  0  0  0  0  0  0  0  0
   -2.7593    0.5192    0.1001 C   0  0  1  0  0  0  0  0  0  0  0  0
    1.0544    0.0611   -2.1741 C   0  0  1  0  0  0  0  0  0  0  0  0
    1.0310   -1.0594   -0.0511 C   0  0  1  0  0  0  0  0  0  0  0  0
    2.3394    0.4913   -1.4477 C   0  0  2  0  0  0  0  0  0  0  0  0
   -2.2923   -0.9108   -0.2437 C   0  0  2  0  0  0  0  0  0  0  0  0
    2.4812   -0.5742   -0.3240 C   0  0  2  0  0  0  0  0  0  0  0  0
    0.6988    2.3401   -0.7160 C   0  0  0  0  0  0  0  0  0  0  0  0
   -2.0188    1.3195   -2.0943 C   0  0  0  0  0  0  0  0  0  0  0  0
   -3.2376    0.8908    1.5367 C   0  0  0  0  0  0  0  0  0  0  0  0
   -2.1306    2.9930   -0.1577 C   0  0  0  0  0  0  0  0  0  0  0  0
    2.1563    1.9292   -0.9417 C   0  0  0  0  0  0  0  0  0  0  0  0
   -3.9380    2.2897    1.4839 C   0  0  0  0  0  0  0  0  0  0  0  0
   -3.5845    3.1521    0.2657 C   0  0  0  0  0  0  0  0  0  0  0  0
    3.2972   -0.1630    0.8998 C   0  0  0  0  0  0  0  0  0  0  0  0
   -2.1122    0.9518    2.5872 C   0  0  0  0  0  0  0  0  0  0  0  0
   -4.2816   -0.1338    2.0385 C   0  0  0  0  0  0  0  0  0  0  0  0
   -2.0275   -2.9810    0.8634 C   0  0  0  0  0  0  0  0  0  0  0  0
   -1.4678   -3.6052    2.1056 C   0  0  0  0  0  0  0  0  0  0  0  0
    5.4836    0.5344    1.4627 C   0  0  0  0  0  0  0  0  0  0  0  0
    6.8306    0.8252    0.8737 C   0  0  0  0  0  0  0  0  0  0  0  0
   -0.1437    1.1021    0.7799 H   0  0  0  0  0  0  0  0  0  0  0  0
   -3.6951    0.6049   -0.4820 H   0  0  0  0  0  0  0  0  0  0  0  0
    0.6927    0.8367   -2.8557 H   0  0  0  0  0  0  0  0  0  0  0  0
    0.9499   -2.1048   -0.3743 H   0  0  0  0  0  0  0  0  0  0  0  0
    3.2046    0.4427   -2.1201 H   0  0  0  0  0  0  0  0  0  0  0  0
   -3.1942   -1.4163   -0.6212 H   0  0  0  0  0  0  0  0  0  0  0  0
    0.6771    3.1387    0.0355 H   0  0  0  0  0  0  0  0  0  0  0  0
    0.3439    2.8099   -1.6410 H   0  0  0  0  0  0  0  0  0  0  0  0
   -3.0379    1.5947   -2.3901 H   0  0  0  0  0  0  0  0  0  0  0  0
   -1.3518    1.9225   -2.7173 H   0  0  0  0  0  0  0  0  0  0  0  0
   -1.9131    3.6898   -0.9761 H   0  0  0  0  0  0  0  0  0  0  0  0
   -1.5073    3.3074    0.6875 H   0  0  0  0  0  0  0  0  0  0  0  0
    2.5641    2.6074   -1.7044 H   0  0  0  0  0  0  0  0  0  0  0  0
    2.7513    2.1425   -0.0511 H   0  0  0  0  0  0  0  0  0  0  0  0
   -3.7054    2.8575    2.3944 H   0  0  0  0  0  0  0  0  0  0  0  0
   -5.0299    2.1737    1.4894 H   0  0  0  0  0  0  0  0  0  0  0  0
   -3.7898    4.2034    0.4999 H   0  0  0  0  0  0  0  0  0  0  0  0
   -4.2430    2.8934   -0.5725 H   0  0  0  0  0  0  0  0  0  0  0  0
    3.3604   -1.0140    1.5906 H   0  0  0  0  0  0  0  0  0  0  0  0
    2.8463    0.6760    1.4399 H   0  0  0  0  0  0  0  0  0  0  0  0
   -1.9402   -2.6259   -1.8795 H   0  0  0  0  0  0  0  0  0  0  0  0
   -1.4015    1.7573    2.3891 H   0  0  0  0  0  0  0  0  0  0  0  0
   -2.5276    1.1489    3.5836 H   0  0  0  0  0  0  0  0  0  0  0  0
   -1.5594    0.0146    2.6647 H   0  0  0  0  0  0  0  0  0  0  0  0
   -4.7431    0.2044    2.9741 H   0  0  0  0  0  0  0  0  0  0  0  0
   -5.0852   -0.2711    1.3063 H   0  0  0  0  0  0  0  0  0  0  0  0
   -3.8404   -1.1134    2.2392 H   0  0  0  0  0  0  0  0  0  0  0  0
    1.9494   -0.8755   -3.6299 H   0  0  0  0  0  0  0  0  0  0  0  0
   -0.2491   -1.1935    1.4171 H   0  0  0  0  0  0  0  0  0  0  0  0
    4.0820   -1.4115   -1.1101 H   0  0  0  0  0  0  0  0  0  0  0  0
   -0.3799   -3.6659    2.0306 H   0  0  0  0  0  0  0  0  0  0  0  0
   -1.8777   -4.6128    2.2198 H   0  0  0  0  0  0  0  0  0  0  0  0
   -1.7598   -3.0208    2.9823 H   0  0  0  0  0  0  0  0  0  0  0  0
    7.2302   -0.0758    0.4016 H   0  0  0  0  0  0  0  0  0  0  0  0
    7.5151    1.1357    1.6683 H   0  0  0  0  0  0  0  0  0  0  0  0
    6.7488    1.6370    0.1468 H   0  0  0  0  0  0  0  0  0  0  0  0
  1 13  1  0  0  0  0
  1 21  1  0  0  0  0
  2 13  1  0  0  0  0
  2 54  1  0  0  0  0
  3 15  1  0  0  0  0
  3 61  1  0  0  0  0
  4 18  1  0  0  0  0
  4 30  1  0  0  0  0
  5 16  1  0  0  0  0
  5 62  1  0  0  0  0
  6 19  1  0  0  0  0
  6 63  1  0  0  0  0
  7 27  1  0  0  0  0
  7 32  1  0  0  0  0
  8 30  2  0  0  0  0
  9 32  2  0  0  0  0
 10 11  1  0  0  0  0
 10 13  1  0  0  0  0
 10 15  1  0  0  0  0
 10 16  1  0  0  0  0
 11 12  1  0  0  0  0
 11 20  1  0  0  0  0
 11 34  1  0  0  0  0
 12 14  1  0  0  0  0
 12 21  1  0  0  0  0
 12 23  1  0  0  0  0
 13 18  1  0  0  0  0
 14 18  1  0  0  0  0
 14 22  1  0  0  0  0
 14 35  1  0  0  0  0
 15 17  1  0  0  0  0
 15 36  1  0  0  0  0
 16 19  1  0  0  0  0
 16 37  1  0  0  0  0
 17 19  1  0  0  0  0
 17 24  1  0  0  0  0
 17 38  1  0  0  0  0
 18 39  1  0  0  0  0
 19 27  1  0  0  0  0
 20 24  1  0  0  0  0
 20 40  1  0  0  0  0
 20 41  1  0  0  0  0
 21 42  1  0  0  0  0
 21 43  1  0  0  0  0
 22 25  1  0  0  0  0
 22 28  1  0  0  0  0
 22 29  1  0  0  0  0
 23 26  1  0  0  0  0
 23 44  1  0  0  0  0
 23 45  1  0  0  0  0
 24 46  1  0  0  0  0
 24 47  1  0  0  0  0
 25 26  1  0  0  0  0
 25 48  1  0  0  0  0
 25 49  1  0  0  0  0
 26 50  1  0  0  0  0
 26 51  1  0  0  0  0
 27 52  1  0  0  0  0
 27 53  1  0  0  0  0
 28 55  1  0  0  0  0
 28 56  1  0  0  0  0
 28 57  1  0  0  0  0
 29 58  1  0  0  0  0
 29 59  1  0  0  0  0
 29 60  1  0  0  0  0
 30 31  1  0  0  0  0
 31 64  1  0  0  0  0
 31 65  1  0  0  0  0
 31 66  1  0  0  0  0
 32 33  1  0  0  0  0
 33 67  1  0  0  0  0
 33 68  1  0  0  0  0
 33 69  1  0  0  0  0
M  END
> <PUBCHEM_COMPOUND_CID>
134688495

> <PUBCHEM_CONFORMER_RMSD>
1

> <PUBCHEM_CONFORMER_DIVERSEORDER>
1
3
4
2

> <PUBCHEM_MMFF94_PARTIAL_CHARGES>
24
1 -0.56
13 0.56
15 0.28
16 0.28
18 0.28
19 0.28
2 -0.68
21 0.28
27 0.28
3 -0.68
30 0.66
31 0.06
32 0.66
33 0.06
4 -0.43
5 -0.68
54 0.4
6 -0.68
61 0.4
62 0.4
63 0.4
7 -0.43
8 -0.57
9 -0.57

> <PUBCHEM_EFFECTIVE_ROTOR_COUNT>
7.4

> <PUBCHEM_PHARMACOPHORE_FEATURES>
15
1 1 acceptor
1 2 acceptor
1 2 donor
1 3 acceptor
1 3 donor
1 5 acceptor
1 5 donor
1 6 acceptor
1 6 donor
1 8 acceptor
1 9 acceptor
3 22 28 29 hydrophobe
6 12 14 22 23 25 26 rings
8 1 10 11 12 13 14 18 21 rings
8 10 11 15 16 17 19 20 24 rings

> <PUBCHEM_HEAVY_ATOM_COUNT>
33

> <PUBCHEM_ATOM_DEF_STEREO_COUNT>
10

> <PUBCHEM_ATOM_UDEF_STEREO_COUNT>
0

> <PUBCHEM_BOND_DEF_STEREO_COUNT>
0

> <PUBCHEM_BOND_UDEF_STEREO_COUNT>
0

> <PUBCHEM_ISOTOPIC_ATOM_COUNT>
0

> <PUBCHEM_COMPONENT_COUNT>
1

> <PUBCHEM_CACTVS_TAUTO_COUNT>
1

> <PUBCHEM_CONFORMER_ID>
08072EEF00000001

> <PUBCHEM_MMFF94_ENERGY>
162.2095

> <PUBCHEM_FEATURE_SELFOVERLAP>
76.204

> <PUBCHEM_SHAPE_FINGERPRINT>
10006869 2 17910116046563597373
10863032 1 17912119249586096109
10948715 1 17059779880091165861
11578080 2 16988578899894710526
12422481 6 18340484466221617228
12633257 1 18261965131855481536
12788726 201 18191322665444338091
13004483 165 18120945163976154747
131258 38 15945741839633597379
13140716 1 18044386143121008067
13583140 156 17846501461051049626
13994607 96 16487251092779629256
14068700 675 18046890856405726938
14178342 30 18409733984375737898
14856354 85 18261678155743024678
15163728 17 16630530661267822428
15183329 4 14908185270776084688
16728300 4 17241040999291314513
16945 1 18191333566076259645
18981168 100 16916527920011602940
20775530 9 16954223731641712674
21033648 29 18266182725363662600
21033650 10 11527944517607039965
23419403 2 17697291256509230819
23559900 14 17465402819407326869
35225 105 18119845514729830435
376196 1 17485940635673169377
392239 28 18042392686297163240
394222 165 17409918138491838353
469060 322 18114177574974638995
484985 159 17749653169145177170
5104073 3 18337933663996306152
57527358 35 16341742665269974717
70251023 43 13335032632754549689
7288768 16 17988369161106853921
9981440 41 17489295374340017398

> <PUBCHEM_SHAPE_MULTIPOLES>
626.3
8.95
3.4
2.58
15.41
1.97
0.19
-3.08
-7.25
-3.99
-0.63
0.17
0.22
0.15

> <PUBCHEM_SHAPE_SELFOVERLAP>
1355.543

> <PUBCHEM_SHAPE_VOLUME>
331.9

> <PUBCHEM_COORDINATE_TYPE>
2
5
10

$$$$
