REMARK  Name = 134688436
REMARK  8 active torsions:
REMARK  status: ('A' for Active; 'I' for Inactive)
REMARK    1  A    between atoms: N_1  and  O_10
REMARK    2  A    between atoms: C_2  and  C_4
REMARK    3  A    between atoms: C_2  and  C_13
REMARK    4  A    between atoms: C_3  and  C_5
REMARK    5  A    between atoms: C_5  and  N_9
REMARK    6  A    between atoms: O_10  and  C_11
REMARK    7  A    between atoms: C_13  and  N_15
REMARK    8  A    between atoms: C_16  and  C_19
REMARK                            x       y       z     vdW  Elec       q    Type
REMARK                         _______ _______ _______ _____ _____    ______ ____
ROOT
ATOM      1  N   UNL     1       0.748  -2.471   0.726  0.00  0.00    -0.086 NA
ATOM      2  C   UNL     1       1.098  -1.382   0.098  0.00  0.00    +0.117 C 
ENDROOT
BRANCH   2   4
ATOM      3  C   UNL     1       2.793   0.475   0.109  0.00  0.00    +0.004 C 
ATOM      4  C   UNL     1       2.298  -0.659   0.624  0.00  0.00    +0.017 C 
BRANCH   3   5
ATOM      5  C   UNL     1       3.988   1.172   0.684  0.00  0.00    +0.188 C 
ATOM      6  C   UNL     1       3.736   2.639   0.987  0.00  0.00    +0.037 C 
BRANCH   5   9
ATOM      7  O   UNL     1       6.090   0.519  -0.073  0.00  0.00    -0.131 OA
ATOM      8  O   UNL     1       4.773   1.611  -1.461  0.00  0.00    -0.131 OA
ATOM      9  N   UNL     1       5.033   1.100  -0.360  0.00  0.00    +0.037 N 
ENDBRANCH   5   9
ENDBRANCH   3   5
ENDBRANCH   2   4
BRANCH   1  10
ATOM     10  O   UNL     1      -0.397  -3.049   0.166  0.00  0.00    -0.378 OA
BRANCH  10  11
ATOM     11  C   UNL     1      -0.706  -4.221   0.904  0.00  0.00    +0.239 C 
ATOM     12  C   UNL     1      -1.944  -4.863   0.314  0.00  0.00    +0.054 C 
ENDBRANCH  10  11
ENDBRANCH   1  10
BRANCH   2  13
ATOM     13  C   UNL     1       0.351  -0.831  -1.106  0.00  0.00    +0.139 C 
BRANCH  13  15
ATOM     14  O   UNL     1      -2.482  -1.078  -1.502  0.00  0.00    -0.270 OA
ATOM     15  N   UNL     1      -0.662   0.059  -0.618  0.00  0.00    -0.296 N 
ATOM     16  C   UNL     1      -2.019  -0.139  -0.859  0.00  0.00    +0.248 C 
ATOM     17  H   UNL     1      -0.387   0.843  -0.090  0.00  0.00    +0.150 HD
BRANCH  16  19
ATOM     18  N   UNL     1      -3.390   2.575   1.365  0.00  0.00    -0.242 NA
ATOM     19  C   UNL     1      -2.941   0.887  -0.307  0.00  0.00    +0.072 C 
ATOM     20  C   UNL     1      -4.173   1.136  -0.901  0.00  0.00    +0.008 C 
ATOM     21  C   UNL     1      -2.599   1.627   0.814  0.00  0.00    +0.103 C 
ATOM     22  C   UNL     1      -5.014   2.104  -0.363  0.00  0.00    +0.021 C 
ATOM     23  C   UNL     1      -4.580   2.789   0.760  0.00  0.00    +0.099 C 
ENDBRANCH  16  19
ENDBRANCH  13  15
ENDBRANCH   2  13
TORSDOF 8
