REMARK  Name = 134688450
REMARK  7 active torsions:
REMARK  status: ('A' for Active; 'I' for Inactive)
REMARK    1  A    between atoms: C_10  and  O_21
REMARK    2  A    between atoms: O_21  and  C_23
REMARK    3  A    between atoms: C_24  and  O_28
REMARK    4  A    between atoms: C_25  and  O_30
REMARK    5  A    between atoms: C_26  and  C_35
REMARK    6  A    between atoms: C_27  and  O_32
REMARK    7  A    between atoms: C_35  and  O_36
REMARK                            x       y       z     vdW  Elec       q    Type
REMARK                         _______ _______ _______ _____ _____    ______ ____
ROOT
ATOM      1  O   UNL     1       7.299  -1.974  -0.455  0.00  0.00    -0.296 OA
ATOM      2  C   UNL     1       1.970   1.502   0.585  0.00  0.00    +0.000 C 
ATOM      3  C   UNL     1       2.406   0.613  -0.614  0.00  0.00    +0.000 C 
ATOM      4  C   UNL     1       1.081   2.699   0.132  0.00  0.00    +0.002 C 
ATOM      5  C   UNL     1      -0.070   2.322  -0.834  0.00  0.00    +0.025 C 
ATOM      6  C   UNL     1       3.375  -0.556  -0.186  0.00  0.00    +0.001 C 
ATOM      7  C   UNL     1       1.161   0.132  -1.379  0.00  0.00    +0.000 C 
ATOM      8  C   UNL     1       4.591   0.079   0.559  0.00  0.00    +0.007 C 
ATOM      9  C   UNL     1       0.345   1.305  -1.908  0.00  0.00    +0.002 C 
ATOM     10  C   UNL     1      -1.126   1.764   0.145  0.00  0.00    +0.118 C 
ATOM     11  C   UNL     1       3.203   2.021   1.352  0.00  0.00    +0.000 C 
ATOM     12  C   UNL     1       0.332   3.330   1.327  0.00  0.00    +0.003 C 
ATOM     13  C   UNL     1       4.157   0.908   1.769  0.00  0.00    +0.000 C 
ATOM     14  C   UNL     1      -1.054   2.680   1.368  0.00  0.00    +0.030 C 
ATOM     15  C   UNL     1       3.941  -1.279  -1.444  0.00  0.00    +0.008 C 
ATOM     16  C   UNL     1      -0.594   3.577  -1.575  0.00  0.00    +0.002 C 
ATOM     17  C   UNL     1       2.633  -1.597   0.691  0.00  0.00    +0.000 C 
ATOM     18  C   UNL     1       5.662  -0.942   0.955  0.00  0.00    +0.064 C 
ATOM     19  C   UNL     1       5.029  -2.306  -1.136  0.00  0.00    +0.065 C 
ATOM     20  C   UNL     1       6.110  -1.726  -0.256  0.00  0.00    +0.151 C 
ENDROOT
BRANCH  10  21
ATOM     21  O   UNL     1      -2.433   1.703  -0.398  0.00  0.00    -0.331 OA
BRANCH  21  23
ATOM     22  O   UNL     1      -2.585  -0.588   0.014  0.00  0.00    -0.317 OA
ATOM     23  C   UNL     1      -3.212   0.676   0.215  0.00  0.00    +0.266 C 
ATOM     24  C   UNL     1      -4.599   0.690  -0.428  0.00  0.00    +0.196 C 
ATOM     25  C   UNL     1      -5.455  -0.472   0.077  0.00  0.00    +0.172 C 
ATOM     26  C   UNL     1      -3.306  -1.653   0.623  0.00  0.00    +0.245 C 
ATOM     27  C   UNL     1      -4.693  -1.796   0.010  0.00  0.00    +0.178 C 
BRANCH  24  28
ATOM     28  O   UNL     1      -5.234   1.924  -0.097  0.00  0.00    -0.378 OA
ATOM     29  H   UNL     1      -4.692   2.662  -0.417  0.00  0.00    +0.211 HD
ENDBRANCH  24  28
BRANCH  25  30
ATOM     30  O   UNL     1      -6.623  -0.593  -0.735  0.00  0.00    -0.379 OA
ATOM     31  H   UNL     1      -7.123   0.238  -0.707  0.00  0.00    +0.211 HD
ENDBRANCH  25  30
BRANCH  27  32
ATOM     32  O   UNL     1      -5.416  -2.788   0.739  0.00  0.00    -0.379 OA
ATOM     33  H   UNL     1      -6.302  -2.887   0.357  0.00  0.00    +0.211 HD
ENDBRANCH  27  32
BRANCH  26  35
ATOM     34  O   UNL     1      -1.441  -2.843  -0.341  0.00  0.00    -0.247 OA
ATOM     35  C   UNL     1      -2.464  -2.852   0.326  0.00  0.00    +0.344 C 
BRANCH  35  36
ATOM     36  O   UNL     1      -2.992  -3.961   0.899  0.00  0.00    -0.478 OA
ATOM     37  H   UNL     1      -3.781  -3.899   1.400  0.00  0.00    +0.295 HD
ENDBRANCH  35  36
ENDBRANCH  26  35
ENDBRANCH  21  23
ENDBRANCH  10  21
TORSDOF 7
