REMARK  Name = 134693142
REMARK  13 active torsions:
REMARK  status: ('A' for Active; 'I' for Inactive)
REMARK    1  A    between atoms: C_1  and  N_3
REMARK    2  A    between atoms: C_1  and  C_15
REMARK    3  A    between atoms: C_1  and  C_29
REMARK    4  A    between atoms: C_4  and  C_7
REMARK    5  A    between atoms: C_8  and  C_10
REMARK    6  A    between atoms: C_10  and  O_11
REMARK    7  A    between atoms: N_14  and  C_17
REMARK    8  A    between atoms: C_17  and  C_18
REMARK    9  A    between atoms: C_18  and  C_19
REMARK   10  A    between atoms: C_19  and  C_20
REMARK   11  A    between atoms: C_20  and  N_21
REMARK   12  A    between atoms: N_21  and  C_24
REMARK   13  A    between atoms: C_29  and  C_30
REMARK                            x       y       z     vdW  Elec       q    Type
REMARK                         _______ _______ _______ _____ _____    ______ ____
ROOT
ATOM      1  C   UNL     1       1.392   1.649   0.039  0.00  0.00    +0.149 C 
ENDROOT
BRANCH   1   3
ATOM      2  O   UNL     1       0.201  -0.525   1.559  0.00  0.00    -0.272 OA
ATOM      3  N   UNL     1       1.846   0.285   0.122  0.00  0.00    -0.296 N 
ATOM      4  C   UNL     1       1.208  -0.684   0.878  0.00  0.00    +0.253 C 
ATOM      5  H   UNL     1       2.651   0.029  -0.383  0.00  0.00    +0.150 HD
BRANCH   4   7
ATOM      6  O   UNL     1       0.918  -3.059   0.516  0.00  0.00    -0.333 OA
ATOM      7  C   UNL     1       1.851  -2.029   0.817  0.00  0.00    +0.229 C 
ATOM      8  C   UNL     1       1.897  -2.753  -0.486  0.00  0.00    +0.250 C 
BRANCH   8  10
ATOM      9  O   UNL     1       2.569  -4.983  -0.854  0.00  0.00    -0.247 OA
ATOM     10  C   UNL     1       2.884  -3.815  -0.679  0.00  0.00    +0.344 C 
BRANCH  10  11
ATOM     11  O   UNL     1       4.156  -3.351  -0.639  0.00  0.00    -0.478 OA
ATOM     12  H   UNL     1       4.317  -2.438  -0.500  0.00  0.00    +0.295 HD
ENDBRANCH  10  11
ENDBRANCH   8  10
ENDBRANCH   4   7
ENDBRANCH   1   3
BRANCH   1  15
ATOM     13  O   UNL     1       0.422   1.022  -2.094  0.00  0.00    -0.273 OA
ATOM     14  N   UNL     1      -0.685   2.580  -0.775  0.00  0.00    -0.303 N 
ATOM     15  C   UNL     1       0.352   1.708  -1.076  0.00  0.00    +0.240 C 
ATOM     16  H   UNL     1      -0.643   3.083   0.070  0.00  0.00    +0.149 HD
BRANCH  14  17
ATOM     17  C   UNL     1      -1.825   2.784  -1.640  0.00  0.00    +0.090 C 
BRANCH  17  18
ATOM     18  C   UNL     1      -2.969   1.823  -1.332  0.00  0.00    +0.023 C 
BRANCH  18  19
ATOM     19  C   UNL     1      -3.502   1.984   0.097  0.00  0.00    +0.028 C 
BRANCH  19  20
ATOM     20  C   UNL     1      -4.638   1.014   0.405  0.00  0.00    +0.129 C 
BRANCH  20  21
ATOM     21  N   UNL     1      -4.167  -0.364   0.267  0.00  0.00    -0.240 NA
BRANCH  21  24
ATOM     22  N   UNL     1      -4.668  -2.624   0.391  0.00  0.00    -0.370 N 
ATOM     23  N   UNL     1      -6.353  -1.164   0.864  0.00  0.00    -0.370 N 
ATOM     24  C   UNL     1      -5.032  -1.303   0.499  0.00  0.00    +0.189 C 
ATOM     25  H   UNL     1      -3.747  -2.862   0.136  0.00  0.00    +0.159 HD
ATOM     26  H   UNL     1      -5.328  -3.333   0.568  0.00  0.00    +0.159 HD
ATOM     27  H   UNL     1      -6.740  -0.266   0.976  0.00  0.00    +0.159 HD
ATOM     28  H   UNL     1      -6.909  -1.962   1.011  0.00  0.00    +0.159 HD
ENDBRANCH  21  24
ENDBRANCH  20  21
ENDBRANCH  19  20
ENDBRANCH  18  19
ENDBRANCH  17  18
ENDBRANCH  14  17
ENDBRANCH   1  15
BRANCH   1  29
ATOM     29  C   UNL     1       2.538   2.626  -0.252  0.00  0.00    +0.029 C 
BRANCH  29  30
ATOM     30  C   UNL     1       3.675   2.617   0.790  0.00  0.00    +0.002 C 
ATOM     31  C   UNL     1       4.813   3.569   0.418  0.00  0.00    +0.000 C 
ATOM     32  C   UNL     1       3.118   2.992   2.166  0.00  0.00    +0.000 C 
ENDBRANCH  29  30
ENDBRANCH   1  29
TORSDOF 13
