REMARK  Name = 134692548
REMARK  6 active torsions:
REMARK  status: ('A' for Active; 'I' for Inactive)
REMARK    1  A    between atoms: N_2  and  C1*_14
REMARK    2  A    between atoms: C_8  and  C_26
REMARK    3  A    between atoms: C2*_13  and  O2*_17
REMARK    4  A    between atoms: C3*_15  and  O3*_19
REMARK    5  A    between atoms: C4*_16  and  C5*_21
REMARK    6  A    between atoms: C5*_21  and  O5*_22
REMARK                            x       y       z     vdW  Elec       q    Type
REMARK                         _______ _______ _______ _____ _____    ______ ____
ROOT
ATOM      1  O   UNL     1      -3.553   1.445  -0.212  0.00  0.00    -0.290 OA
ATOM      2  N   UNL     1       0.145  -0.192   0.215  0.00  0.00    -0.249 N 
ATOM      3  N   UNL     1      -0.816  -2.399   0.479  0.00  0.00    -0.233 NA
ATOM      4  N   UNL     1      -3.205  -2.714   0.400  0.00  0.00    -0.234 NA
ATOM      5  C   UNL     1      -0.971  -1.065   0.281  0.00  0.00    +0.125 C 
ATOM      6  C   UNL     1      -0.045   1.161   0.013  0.00  0.00    +0.076 C 
ATOM      7  C   UNL     1      -2.253  -0.524   0.137  0.00  0.00    +0.169 C 
ATOM      8  C   UNL     1      -1.229   1.769  -0.135  0.00  0.00    +0.103 C 
ATOM      9  C   UNL     1      -2.451   0.928  -0.080  0.00  0.00    +0.192 C 
ATOM     10  C   UNL     1      -3.333  -1.389   0.204  0.00  0.00    +0.113 C 
ATOM     11  C   UNL     1      -1.939  -3.145   0.527  0.00  0.00    +0.252 C 
ATOM     12  N   UNL     1      -4.655  -0.911   0.067  0.00  0.00    -0.346 N 
ATOM     13  H   UNL     1      -5.413  -1.537   0.117  0.00  0.00    +0.143 HD
ATOM     14  H   UNL     1      -4.818   0.049  -0.078  0.00  0.00    +0.143 HD
ENDROOT
BRANCH   2  17
ATOM     15  O4* UNL     1       2.361   0.113   1.000  0.00  0.00    -0.333 OA
ATOM     16  C2* UNL     1       2.036  -1.153  -0.987  0.00  0.00    +0.187 C 
ATOM     17  C1* UNL     1       1.444  -0.799   0.370  0.00  0.00    +0.227 C 
ATOM     18  C3* UNL     1       3.516  -0.959  -0.748  0.00  0.00    +0.171 C 
ATOM     19  C4* UNL     1       3.513   0.261   0.155  0.00  0.00    +0.175 C 
BRANCH  16  20
ATOM     20  O2* UNL     1       1.756  -2.495  -1.344  0.00  0.00    -0.378 OA
ATOM     21  H2* UNL     1       0.803  -2.598  -1.492  0.00  0.00    +0.211 HD
ENDBRANCH  16  20
BRANCH  18  22
ATOM     22  O3* UNL     1       4.219  -0.704  -1.949  0.00  0.00    -0.379 OA
ATOM     23  H3* UNL     1       4.205  -1.498  -2.506  0.00  0.00    +0.211 HD
ENDBRANCH  18  22
BRANCH  19  24
ATOM     24  C5* UNL     1       4.763   0.383   1.007  0.00  0.00    +0.169 C 
BRANCH  24  25
ATOM     25  O5* UNL     1       4.664   1.554   1.800  0.00  0.00    -0.379 OA
ATOM     26  H5* UNL     1       5.459   1.641   2.349  0.00  0.00    +0.211 HD
ENDBRANCH  24  25
ENDBRANCH  19  24
ENDBRANCH   2  17
BRANCH   8  29
ATOM     27  O   UNL     1      -0.209   3.879  -0.380  0.00  0.00    -0.270 OA
ATOM     28  N   UNL     1      -2.512   3.738  -0.481  0.00  0.00    -0.325 N 
ATOM     29  C   UNL     1      -1.246   3.218  -0.341  0.00  0.00    +0.247 C 
ATOM     30  H   UNL     1      -2.634   4.704  -0.624  0.00  0.00    +0.145 HD
ATOM     31  H   UNL     1      -3.295   3.144  -0.438  0.00  0.00    +0.145 HD
ENDBRANCH   8  29
TORSDOF 6
