134688506
  -OEChem-03292013293D

 60 63  0     1  0  0  0  0  0999 V2000
    2.8799   -0.1796    2.6773 F   0  0  0  0  0  0  0  0  0  0  0  0
   -1.4173    0.0438   -1.5584 O   0  0  0  0  0  0  0  0  0  0  0  0
    1.0159   -2.3648    2.2472 O   0  0  0  0  0  0  0  0  0  0  0  0
   -3.7241    1.8324    0.2966 O   0  0  0  0  0  0  0  0  0  0  0  0
   -5.1634   -0.4110   -0.0420 O   0  0  0  0  0  0  0  0  0  0  0  0
    3.6106   -1.0644   -3.7094 O   0  0  0  0  0  0  0  0  0  0  0  0
   -5.4457   -2.6278   -0.6276 O   0  0  0  0  0  0  0  0  0  0  0  0
   -0.7001    0.6558    0.7333 C   0  0  2  0  0  0  0  0  0  0  0  0
    0.6129    1.2917    0.1875 C   0  0  2  0  0  0  0  0  0  0  0  0
    1.7610    1.2415    1.2080 C   0  0  1  0  0  0  0  0  0  0  0  0
    2.0923   -0.2546    1.5376 C   0  0  2  0  0  0  0  0  0  0  0  0
   -0.4158   -0.8190    1.0708 C   0  0  0  0  0  0  0  0  0  0  0  0
   -1.6510    0.9276   -0.4703 C   0  0  1  0  0  0  0  0  0  0  0  0
    0.7963   -0.9778    2.0129 C   0  0  1  0  0  0  0  0  0  0  0  0
    2.9939   -0.9841    0.4326 C   0  0  1  0  0  0  0  0  0  0  0  0
    0.1499    2.6482   -0.3480 C   0  0  0  0  0  0  0  0  0  0  0  0
    3.0053    2.0754    0.8176 C   0  0  0  0  0  0  0  0  0  0  0  0
   -1.2189    2.3174   -0.9107 C   0  0  0  0  0  0  0  0  0  0  0  0
   -1.2395    1.3615    2.0151 C   0  0  0  0  0  0  0  0  0  0  0  0
    4.2392    1.2523    0.4662 C   0  0  0  0  0  0  0  0  0  0  0  0
    3.7915    0.0717   -0.3394 C   0  0  0  0  0  0  0  0  0  0  0  0
    4.0233   -1.9171    1.1268 C   0  0  0  0  0  0  0  0  0  0  0  0
   -3.1183    0.8551   -0.1404 C   0  0  0  0  0  0  0  0  0  0  0  0
    2.2497   -1.8915   -0.5352 C   0  0  0  0  0  0  0  0  0  0  0  0
   -1.9076    3.1547   -1.6971 C   0  0  0  0  0  0  0  0  0  0  0  0
    3.9876    0.0520   -1.6670 C   0  0  0  0  0  0  0  0  0  0  0  0
    2.4191   -1.9127   -1.8620 C   0  0  0  0  0  0  0  0  0  0  0  0
   -3.7935   -0.4792   -0.3768 C   0  0  0  0  0  0  0  0  0  0  0  0
    3.3694   -0.9901   -2.5096 C   0  0  0  0  0  0  0  0  0  0  0  0
   -5.8865   -1.5639   -0.2141 C   0  0  0  0  0  0  0  0  0  0  0  0
   -7.3160   -1.3435    0.1786 C   0  0  0  0  0  0  0  0  0  0  0  0
    0.9424    0.7161   -0.6904 H   0  0  0  0  0  0  0  0  0  0  0  0
    1.4134    1.7106    2.1366 H   0  0  0  0  0  0  0  0  0  0  0  0
   -0.2659   -1.4029    0.1586 H   0  0  0  0  0  0  0  0  0  0  0  0
   -1.2947   -1.2764    1.5431 H   0  0  0  0  0  0  0  0  0  0  0  0
    0.5379   -0.5677    2.9961 H   0  0  0  0  0  0  0  0  0  0  0  0
    0.8198    3.0211   -1.1290 H   0  0  0  0  0  0  0  0  0  0  0  0
    0.0753    3.3944    0.4496 H   0  0  0  0  0  0  0  0  0  0  0  0
    3.2698    2.7338    1.6556 H   0  0  0  0  0  0  0  0  0  0  0  0
    2.7772    2.7493   -0.0153 H   0  0  0  0  0  0  0  0  0  0  0  0
   -1.4902    2.4136    1.8478 H   0  0  0  0  0  0  0  0  0  0  0  0
   -0.5319    1.3379    2.8470 H   0  0  0  0  0  0  0  0  0  0  0  0
   -2.1479    0.8639    2.3747 H   0  0  0  0  0  0  0  0  0  0  0  0
    4.7587    0.9241    1.3732 H   0  0  0  0  0  0  0  0  0  0  0  0
    4.9545    1.8794   -0.0796 H   0  0  0  0  0  0  0  0  0  0  0  0
    4.6862   -1.3696    1.8062 H   0  0  0  0  0  0  0  0  0  0  0  0
    4.6698   -2.4217    0.3967 H   0  0  0  0  0  0  0  0  0  0  0  0
    3.5289   -2.6978    1.7152 H   0  0  0  0  0  0  0  0  0  0  0  0
    1.5898   -2.6499   -0.1250 H   0  0  0  0  0  0  0  0  0  0  0  0
   -1.8534    0.4003   -2.3514 H   0  0  0  0  0  0  0  0  0  0  0  0
    0.1877   -2.7433    2.5881 H   0  0  0  0  0  0  0  0  0  0  0  0
   -2.8754    2.8866   -2.1060 H   0  0  0  0  0  0  0  0  0  0  0  0
   -1.5060    4.1279   -1.9589 H   0  0  0  0  0  0  0  0  0  0  0  0
    4.5432    0.8315   -2.1773 H   0  0  0  0  0  0  0  0  0  0  0  0
    1.8925   -2.6251   -2.4863 H   0  0  0  0  0  0  0  0  0  0  0  0
   -3.3018   -1.2343    0.2437 H   0  0  0  0  0  0  0  0  0  0  0  0
   -3.7105   -0.7387   -1.4368 H   0  0  0  0  0  0  0  0  0  0  0  0
   -7.3704   -1.0603    1.2327 H   0  0  0  0  0  0  0  0  0  0  0  0
   -7.8786   -2.2707    0.0368 H   0  0  0  0  0  0  0  0  0  0  0  0
   -7.7573   -0.5678   -0.4520 H   0  0  0  0  0  0  0  0  0  0  0  0
  1 11  1  0  0  0  0
  2 13  1  0  0  0  0
  2 50  1  0  0  0  0
  3 14  1  0  0  0  0
  3 51  1  0  0  0  0
  4 23  2  0  0  0  0
  5 28  1  0  0  0  0
  5 30  1  0  0  0  0
  6 29  2  0  0  0  0
  7 30  2  0  0  0  0
  8  9  1  0  0  0  0
  8 12  1  0  0  0  0
  8 13  1  0  0  0  0
  8 19  1  0  0  0  0
  9 10  1  0  0  0  0
  9 16  1  0  0  0  0
  9 32  1  0  0  0  0
 10 11  1  0  0  0  0
 10 17  1  0  0  0  0
 10 33  1  0  0  0  0
 11 14  1  0  0  0  0
 11 15  1  0  0  0  0
 12 14  1  0  0  0  0
 12 34  1  0  0  0  0
 12 35  1  0  0  0  0
 13 18  1  0  0  0  0
 13 23  1  0  0  0  0
 14 36  1  0  0  0  0
 15 21  1  0  0  0  0
 15 22  1  0  0  0  0
 15 24  1  0  0  0  0
 16 18  1  0  0  0  0
 16 37  1  0  0  0  0
 16 38  1  0  0  0  0
 17 20  1  0  0  0  0
 17 39  1  0  0  0  0
 17 40  1  0  0  0  0
 18 25  2  0  0  0  0
 19 41  1  0  0  0  0
 19 42  1  0  0  0  0
 19 43  1  0  0  0  0
 20 21  1  0  0  0  0
 20 44  1  0  0  0  0
 20 45  1  0  0  0  0
 21 26  2  0  0  0  0
 22 46  1  0  0  0  0
 22 47  1  0  0  0  0
 22 48  1  0  0  0  0
 23 28  1  0  0  0  0
 24 27  2  0  0  0  0
 24 49  1  0  0  0  0
 25 52  1  0  0  0  0
 25 53  1  0  0  0  0
 26 29  1  0  0  0  0
 26 54  1  0  0  0  0
 27 29  1  0  0  0  0
 27 55  1  0  0  0  0
 28 56  1  0  0  0  0
 28 57  1  0  0  0  0
 30 31  1  0  0  0  0
 31 58  1  0  0  0  0
 31 59  1  0  0  0  0
 31 60  1  0  0  0  0
M  END
> <PUBCHEM_COMPOUND_CID>
134688506

> <PUBCHEM_CONFORMER_RMSD>
0.8

> <PUBCHEM_CONFORMER_DIVERSEORDER>
1
12
20
19
14
6
5
13
23
11
17
10
4
21
22
9
16
18
24
8
3
15
7
2

> <PUBCHEM_MMFF94_PARTIAL_CHARGES>
31
1 -0.34
11 0.34
13 0.48
14 0.28
15 0.28
16 0.14
18 -0.28
2 -0.68
20 0.14
21 -0.28
23 0.45
24 -0.29
25 -0.3
26 -0.14
27 -0.14
28 0.34
29 0.54
3 -0.68
30 0.66
31 0.06
4 -0.57
49 0.15
5 -0.43
50 0.4
51 0.4
52 0.15
53 0.15
54 0.15
55 0.15
6 -0.57
7 -0.57

> <PUBCHEM_EFFECTIVE_ROTOR_COUNT>
5.2

> <PUBCHEM_PHARMACOPHORE_FEATURES>
11
1 2 acceptor
1 2 donor
1 3 acceptor
1 3 donor
1 4 acceptor
1 6 acceptor
1 7 acceptor
5 8 9 13 16 18 rings
6 10 11 15 17 20 21 rings
6 15 21 24 26 27 29 rings
6 8 9 10 11 12 14 rings

> <PUBCHEM_HEAVY_ATOM_COUNT>
31

> <PUBCHEM_ATOM_DEF_STEREO_COUNT>
7

> <PUBCHEM_ATOM_UDEF_STEREO_COUNT>
0

> <PUBCHEM_BOND_DEF_STEREO_COUNT>
0

> <PUBCHEM_BOND_UDEF_STEREO_COUNT>
0

> <PUBCHEM_ISOTOPIC_ATOM_COUNT>
0

> <PUBCHEM_COMPONENT_COUNT>
1

> <PUBCHEM_CACTVS_TAUTO_COUNT>
20

> <PUBCHEM_CONFORMER_ID>
08072EFA00000001

> <PUBCHEM_MMFF94_ENERGY>
105.8182

> <PUBCHEM_FEATURE_SELFOVERLAP>
55.967

> <PUBCHEM_SHAPE_FINGERPRINT>
10369192 42 17701800306266049616
10940486 97 17103954816784165794
11135609 12 17560520612770561486
11640471 11 15792600554979094756
11796584 16 18341606045512309055
11961588 58 17750813206169090948
12128747 34 16987731099922001057
12166972 35 16443332161880887746
12596599 1 18200882755469672497
12596602 18 14620506891757198159
12623949 98 17988368186476377263
13224815 77 17604433981205995481
13533116 47 16773804709984211743
13617811 41 17385437765903169599
15664445 248 18261677094111227333
15721738 202 17989215871080847963
17349148 13 16515684386106274993
17492 54 17241345666658847854
17980427 23 16661762160189645064
1813 80 18408608080506055901
19319366 153 17095511929436138891
20691752 17 18113629966544165616
20715895 44 13551459380958879967
20775438 99 18119243119412257655
20775530 9 16342306731687560078
21421861 104 14333123049295677138
21475661 188 11674886635850978662
22907989 373 17241915140694335257
23559900 14 17702951322619139181
239999 70 18341609373183587800
24893989 43 17907579482520486095
25222932 49 18118388764744434791
2838139 119 12180116618940429391
3388396 114 16660945304311462150
345986 75 14332856924010297702
4112364 45 13841111528503203156
4340502 62 17274815926322336392
46194498 28 18202288021967661452
57527585 103 15616977468954281375
6823239 73 18273215261758432159
7399639 24 18268972336777025344

> <PUBCHEM_SHAPE_MULTIPOLES>
595.48
11.05
2.89
2.44
19.67
0.82
0.88
-7.07
2.4
1.13
0.5
-3.19
-0.78
0.78

> <PUBCHEM_SHAPE_SELFOVERLAP>
1290.077

> <PUBCHEM_SHAPE_VOLUME>
325.6

> <PUBCHEM_COORDINATE_TYPE>
2
5
10

$$$$
