134693227
  -OEChem-03292013293D

 30 31  0     1  0  0  0  0  0999 V2000
   -1.3803   -1.0958   -0.7785 O   0  0  0  0  0  0  0  0  0  0  0  0
   -3.1944    0.9030    1.5688 O   0  0  0  0  0  0  0  0  0  0  0  0
   -3.4736   -2.9709   -0.4929 O   0  0  0  0  0  0  0  0  0  0  0  0
    1.8572    1.2749   -1.6246 O   0  0  0  0  0  0  0  0  0  0  0  0
    4.4823   -1.6316    0.8055 O   0  0  0  0  0  0  0  0  0  0  0  0
    0.7944   -0.3598   -0.3373 N   0  0  0  0  0  0  0  0  0  0  0  0
   -1.0429    2.4005   -0.2106 N   0  0  0  0  0  0  0  0  0  0  0  0
    3.1628   -0.1734   -0.4137 N   0  0  0  0  0  0  0  0  0  0  0  0
   -0.0555    3.0525    0.1764 N   0  3  0  0  0  0  0  0  0  0  0  0
    0.8472    3.6550    0.5274 N   0  5  0  0  0  0  0  0  0  0  0  0
   -1.1352    1.0279    0.2849 C   0  0  1  0  0  0  0  0  0  0  0  0
   -2.5826    0.5871    0.3334 C   0  0  1  0  0  0  0  0  0  0  0  0
   -0.5254    0.0582   -0.7184 C   0  0  2  0  0  0  0  0  0  0  0  0
   -2.4484   -0.9148    0.1615 C   0  0  1  0  0  0  0  0  0  0  0  0
   -3.7100   -1.5788   -0.3594 C   0  0  0  0  0  0  0  0  0  0  0  0
    1.9253    0.3186   -0.8496 C   0  0  0  0  0  0  0  0  0  0  0  0
    0.9585   -1.4300    0.5343 C   0  0  0  0  0  0  0  0  0  0  0  0
    2.1446   -1.8872    0.9412 C   0  0  0  0  0  0  0  0  0  0  0  0
    3.3760   -1.2353    0.4516 C   0  0  0  0  0  0  0  0  0  0  0  0
   -0.6798    0.9445    1.2821 H   0  0  0  0  0  0  0  0  0  0  0  0
   -3.1667    1.0380   -0.4776 H   0  0  0  0  0  0  0  0  0  0  0  0
   -0.4968    0.4855   -1.7280 H   0  0  0  0  0  0  0  0  0  0  0  0
   -2.1560   -1.4024    1.1001 H   0  0  0  0  0  0  0  0  0  0  0  0
   -3.9762   -1.1917   -1.3485 H   0  0  0  0  0  0  0  0  0  0  0  0
   -4.5484   -1.4271    0.3272 H   0  0  0  0  0  0  0  0  0  0  0  0
   -2.6742    0.4968    2.2826 H   0  0  0  0  0  0  0  0  0  0  0  0
    0.0659   -1.9100    0.9149 H   0  0  0  0  0  0  0  0  0  0  0  0
   -4.2947   -3.3700   -0.8275 H   0  0  0  0  0  0  0  0  0  0  0  0
    3.9893    0.2986   -0.7697 H   0  0  0  0  0  0  0  0  0  0  0  0
    2.2340   -2.7209    1.6268 H   0  0  0  0  0  0  0  0  0  0  0  0
  1 13  1  0  0  0  0
  1 14  1  0  0  0  0
  2 12  1  0  0  0  0
  2 26  1  0  0  0  0
  3 15  1  0  0  0  0
  3 28  1  0  0  0  0
  4 16  2  0  0  0  0
  5 19  2  0  0  0  0
  6 13  1  0  0  0  0
  6 16  1  0  0  0  0
  6 17  1  0  0  0  0
  7  9  2  0  0  0  0
  7 11  1  0  0  0  0
  8 16  1  0  0  0  0
  8 19  1  0  0  0  0
  8 29  1  0  0  0  0
  9 10  2  0  0  0  0
 11 12  1  0  0  0  0
 11 13  1  0  0  0  0
 11 20  1  0  0  0  0
 12 14  1  0  0  0  0
 12 21  1  0  0  0  0
 13 22  1  0  0  0  0
 14 15  1  0  0  0  0
 14 23  1  0  0  0  0
 15 24  1  0  0  0  0
 15 25  1  0  0  0  0
 17 18  2  0  0  0  0
 17 27  1  0  0  0  0
 18 19  1  0  0  0  0
 18 30  1  0  0  0  0
M  CHG  2   9   1  10  -1
M  END
> <PUBCHEM_COMPOUND_CID>
134693227

> <PUBCHEM_CONFORMER_RMSD>
0.6

> <PUBCHEM_CONFORMER_DIVERSEORDER>
1
114
57
98
97
120
106
29
107
108
70
83
65
48
16
13
75
86
56
80
85
119
41
99
59
33
88
109
42
73
126
12
105
101
113
61
90
134
14
54
53
7
122
21
81
49
30
94
123
45
92
84
63
96
132
10
47
115
111
118
50
43
8
25
79
55
36
2
77
27
46
40
4
22
37
125
35
103
104
67
117
19
34
20
102
78
91
6
110
74
93
130
66
82
128
64
95
51
135
28
17
72
38
9
62
15
5
124
32
121
89
18
23
31
76
68
26
127
112
71
87
131
3
116
11
69
133
129
60
24
52
44
100
39
58

> <PUBCHEM_MMFF94_PARTIAL_CHARGES>
24
1 -0.56
10 -0.37
11 0.25
12 0.28
13 0.58
14 0.28
15 0.28
16 0.69
17 -0.04
18 -0.14
19 0.62
2 -0.68
26 0.4
27 0.15
28 0.4
29 0.37
3 -0.68
30 0.15
4 -0.57
5 -0.57
6 -0.47
7 -0.56
8 -0.49
9 0.69

> <PUBCHEM_EFFECTIVE_ROTOR_COUNT>
4

> <PUBCHEM_PHARMACOPHORE_FEATURES>
10
1 1 acceptor
1 2 acceptor
1 2 donor
1 3 acceptor
1 3 donor
1 4 acceptor
1 5 acceptor
1 8 donor
5 1 11 12 13 14 rings
6 6 8 16 17 18 19 rings

> <PUBCHEM_HEAVY_ATOM_COUNT>
19

> <PUBCHEM_ATOM_DEF_STEREO_COUNT>
2

> <PUBCHEM_ATOM_UDEF_STEREO_COUNT>
2

> <PUBCHEM_BOND_DEF_STEREO_COUNT>
0

> <PUBCHEM_BOND_UDEF_STEREO_COUNT>
0

> <PUBCHEM_ISOTOPIC_ATOM_COUNT>
0

> <PUBCHEM_COMPONENT_COUNT>
1

> <PUBCHEM_CACTVS_TAUTO_COUNT>
15

> <PUBCHEM_CONFORMER_ID>
0807416B00000001

> <PUBCHEM_MMFF94_ENERGY>
41.6223

> <PUBCHEM_FEATURE_SELFOVERLAP>
50.752

> <PUBCHEM_SHAPE_FINGERPRINT>
10989021 7 18341608282551992805
11578080 2 18042382759878968021
12553582 1 18411146822351982311
13140716 1 18410299098733765593
14787075 74 18189051048888575224
15375462 189 18263661674239419601
15375462 478 18263084310270257700
16945 1 18195813963815536718
19868273 325 18412262813790105741
200 152 18114455699850634079
20510252 161 17839175212615674680
20600515 1 18059863818039546585
21650355 55 18340197492953018619
22112679 90 18341621416472196351
22344851 341 17476641348355664879
23388829 49 18260551078450575350
23402539 116 18128240204614459637
23419403 2 17973968960239000020
23557571 272 18059857195188952214
43471831 8 17691964182280264273
6992083 37 17683247962938588964
7364860 26 18123747814202703038
7471813 234 18198888383300757159
81228 2 18129666279600834193
90316 7 18340208470900347017

> <PUBCHEM_SHAPE_MULTIPOLES>
336.76
6.2
3.28
1.06
1.32
2.43
-0.02
-4.73
0.87
-0.72
0.38
0.09
0.1
-1.32

> <PUBCHEM_SHAPE_SELFOVERLAP>
707.583

> <PUBCHEM_SHAPE_VOLUME>
188.7

> <PUBCHEM_COORDINATE_TYPE>
2
5
10

$$$$
