134688436
  -OEChem-03292013293D

 40 40  0     1  0  0  0  0  0999 V2000
   -0.3973   -3.0490    0.1658 O   0  0  0  0  0  0  0  0  0  0  0  0
   -2.4819   -1.0776   -1.5022 O   0  0  0  0  0  0  0  0  0  0  0  0
    6.0905    0.5186   -0.0729 O   0  5  0  0  0  0  0  0  0  0  0  0
    4.7731    1.6106   -1.4607 O   0  0  0  0  0  0  0  0  0  0  0  0
   -0.6625    0.0587   -0.6178 N   0  0  0  0  0  0  0  0  0  0  0  0
    5.0326    1.0998   -0.3601 N   0  3  0  0  0  0  0  0  0  0  0  0
    0.7482   -2.4710    0.7256 N   0  0  0  0  0  0  0  0  0  0  0  0
   -3.3898    2.5748    1.3645 N   0  0  0  0  0  0  0  0  0  0  0  0
    3.9881    1.1722    0.6839 C   0  0  2  0  0  0  0  0  0  0  0  0
    0.3511   -0.8306   -1.1056 C   0  0  0  0  0  0  0  0  0  0  0  0
    1.0984   -1.3818    0.0981 C   0  0  0  0  0  0  0  0  0  0  0  0
    2.7927    0.4753    0.1086 C   0  0  0  0  0  0  0  0  0  0  0  0
    2.2979   -0.6589    0.6235 C   0  0  0  0  0  0  0  0  0  0  0  0
    3.7360    2.6389    0.9869 C   0  0  0  0  0  0  0  0  0  0  0  0
   -2.0191   -0.1391   -0.8590 C   0  0  0  0  0  0  0  0  0  0  0  0
   -2.9406    0.8871   -0.3073 C   0  0  0  0  0  0  0  0  0  0  0  0
   -4.1732    1.1363   -0.9006 C   0  0  0  0  0  0  0  0  0  0  0  0
   -2.5990    1.6268    0.8135 C   0  0  0  0  0  0  0  0  0  0  0  0
   -0.7064   -4.2211    0.9040 C   0  0  0  0  0  0  0  0  0  0  0  0
   -5.0145    2.1040   -0.3628 C   0  0  0  0  0  0  0  0  0  0  0  0
   -4.5802    2.7892    0.7604 C   0  0  0  0  0  0  0  0  0  0  0  0
   -1.9441   -4.8631    0.3143 C   0  0  0  0  0  0  0  0  0  0  0  0
    4.3744    0.6647    1.5754 H   0  0  0  0  0  0  0  0  0  0  0  0
    1.0062   -0.2735   -1.7777 H   0  0  0  0  0  0  0  0  0  0  0  0
   -0.0801   -1.6401   -1.7016 H   0  0  0  0  0  0  0  0  0  0  0  0
    2.3088    0.9615   -0.7326 H   0  0  0  0  0  0  0  0  0  0  0  0
    2.7818   -1.1187    1.4816 H   0  0  0  0  0  0  0  0  0  0  0  0
    4.6553    3.1386    1.3135 H   0  0  0  0  0  0  0  0  0  0  0  0
    2.9986    2.7414    1.7911 H   0  0  0  0  0  0  0  0  0  0  0  0
    3.3514    3.1898    0.1201 H   0  0  0  0  0  0  0  0  0  0  0  0
   -0.3464    0.8906   -0.1305 H   0  0  0  0  0  0  0  0  0  0  0  0
   -4.4924    0.5898   -1.7838 H   0  0  0  0  0  0  0  0  0  0  0  0
   -1.6699    1.4773    1.3534 H   0  0  0  0  0  0  0  0  0  0  0  0
    0.1355   -4.9210    0.8529 H   0  0  0  0  0  0  0  0  0  0  0  0
   -0.8879   -3.9582    1.9523 H   0  0  0  0  0  0  0  0  0  0  0  0
   -5.9793    2.3159   -0.8092 H   0  0  0  0  0  0  0  0  0  0  0  0
   -5.1991    3.5539    1.2182 H   0  0  0  0  0  0  0  0  0  0  0  0
   -2.7901   -4.1685    0.3450 H   0  0  0  0  0  0  0  0  0  0  0  0
   -1.7814   -5.1192   -0.7379 H   0  0  0  0  0  0  0  0  0  0  0  0
   -2.2123   -5.7711    0.8615 H   0  0  0  0  0  0  0  0  0  0  0  0
  1  7  1  0  0  0  0
  1 19  1  0  0  0  0
  2 15  2  0  0  0  0
  3  6  1  0  0  0  0
  4  6  2  0  0  0  0
  5 10  1  0  0  0  0
  5 15  1  0  0  0  0
  5 31  1  0  0  0  0
  6  9  1  0  0  0  0
  7 11  2  0  0  0  0
  8 18  1  0  0  0  0
  8 21  2  0  0  0  0
  9 12  1  0  0  0  0
  9 14  1  0  0  0  0
  9 23  1  0  0  0  0
 10 11  1  0  0  0  0
 10 24  1  0  0  0  0
 10 25  1  0  0  0  0
 11 13  1  0  0  0  0
 12 13  2  0  0  0  0
 12 26  1  0  0  0  0
 13 27  1  0  0  0  0
 14 28  1  0  0  0  0
 14 29  1  0  0  0  0
 14 30  1  0  0  0  0
 15 16  1  0  0  0  0
 16 17  1  0  0  0  0
 16 18  2  0  0  0  0
 17 20  2  0  0  0  0
 17 32  1  0  0  0  0
 18 33  1  0  0  0  0
 19 22  1  0  0  0  0
 19 34  1  0  0  0  0
 19 35  1  0  0  0  0
 20 21  1  0  0  0  0
 20 36  1  0  0  0  0
 21 37  1  0  0  0  0
 22 38  1  0  0  0  0
 22 39  1  0  0  0  0
 22 40  1  0  0  0  0
M  CHG  2   3  -1   6   1
M  END
> <PUBCHEM_COMPOUND_CID>
134688436

> <PUBCHEM_CONFORMER_RMSD>
1

> <PUBCHEM_CONFORMER_DIVERSEORDER>
1
42
131
14
92
78
73
140
126
41
20
16
128
71
52
114
65
30
99
110
139
38
28
127
129
95
9
35
115
84
69
60
66
85
107
141
54
10
120
89
68
90
80
50
34
57
93
143
96
51
70
40
24
46
103
118
56
58
61
62
106
104
29
138
94
23
130
136
33
49
55
135
6
121
145
109
64
15
47
32
98
63
18
13
147
25
2
88
22
76
86
91
39
48
133
59
108
81
87
45
97
125
111
75
82
124
67
134
26
146
117
8
105
77
27
12
53
5
102
36
19
37
132
116
72
44
17
74
123
142
112
122
144
4
100
137
119
113
3
43
11
83
79
101
21
31
7

> <PUBCHEM_MMFF94_PARTIAL_CHARGES>
27
1 -0.22
10 0.36
11 0.37
12 -0.29
13 -0.14
15 0.54
16 0.09
17 -0.15
18 0.16
19 0.28
2 -0.57
20 -0.15
21 0.16
26 0.15
27 0.15
3 -0.52
31 0.37
32 0.15
33 0.15
36 0.15
37 0.15
4 -0.52
5 -0.73
6 0.8
7 -0.51
8 -0.62
9 0.38

> <PUBCHEM_EFFECTIVE_ROTOR_COUNT>
9

> <PUBCHEM_PHARMACOPHORE_FEATURES>
8
1 2 acceptor
1 3 acceptor
1 3 anion
1 4 acceptor
1 5 donor
1 7 acceptor
1 8 acceptor
6 8 16 17 18 20 21 rings

> <PUBCHEM_HEAVY_ATOM_COUNT>
22

> <PUBCHEM_ATOM_DEF_STEREO_COUNT>
0

> <PUBCHEM_ATOM_UDEF_STEREO_COUNT>
1

> <PUBCHEM_BOND_DEF_STEREO_COUNT>
2

> <PUBCHEM_BOND_UDEF_STEREO_COUNT>
0

> <PUBCHEM_ISOTOPIC_ATOM_COUNT>
0

> <PUBCHEM_COMPONENT_COUNT>
1

> <PUBCHEM_CACTVS_TAUTO_COUNT>
23

> <PUBCHEM_CONFORMER_ID>
08072EB400000001

> <PUBCHEM_MMFF94_ENERGY>
43.8533

> <PUBCHEM_FEATURE_SELFOVERLAP>
40.677

> <PUBCHEM_SHAPE_FINGERPRINT>
12390115 104 18410865364470524023
12788726 201 17684941584491954398
12954195 1 18266179607586553790
13583140 156 17832431895824860233
13828863 39 16372440153564714180
14251757 17 16271631378120948344
14787075 74 18271231842288865255
15142526 21 18412538808452240385
15342168 16 18260830379920893301
17868525 174 17257367441141274713
204376 136 18334294236609121431
20739085 24 18115592513517178996
21756936 100 18412822516911813994
22182937 141 18338795744661388800
2255824 54 18051689941282661851
23559900 14 16698353821299289685
23845131 108 18335419033173917747
283562 15 17900253414699934986
38570 142 18270414780046710924
394222 165 18126842695202551339
474 4 18338230453919129697
5486654 2 18337668732827852783
59755656 520 18334573542754260086
633830 44 18270394984305171127
7097593 13 17475230203039575347

> <PUBCHEM_SHAPE_MULTIPOLES>
409.35
11
5.11
1.2
7.74
8.09
0.13
-13.29
0.66
-3.54
-2.09
-0.21
-0.26
-0.67

> <PUBCHEM_SHAPE_SELFOVERLAP>
825.984

> <PUBCHEM_SHAPE_VOLUME>
237.8

> <PUBCHEM_COORDINATE_TYPE>
2
5
10

$$$$
