REMARK  Name = 134688495
REMARK  9 active torsions:
REMARK  status: ('A' for Active; 'I' for Inactive)
REMARK    1  A    between atoms: C_5  and  O_21
REMARK    2  A    between atoms: C_7  and  O_23
REMARK    3  A    between atoms: C_8  and  O_25
REMARK    4  A    between atoms: C_10  and  O_29
REMARK    5  A    between atoms: C_11  and  O_27
REMARK    6  A    between atoms: C_11  and  C_33
REMARK    7  A    between atoms: O_29  and  C_31
REMARK    8  A    between atoms: C_33  and  O_34
REMARK    9  A    between atoms: O_34  and  C_36
REMARK                            x       y       z     vdW  Elec       q    Type
REMARK                         _______ _______ _______ _____ _____    ______ ____
ROOT
ATOM      1  O   UNL     1      -1.834  -0.063  -2.446  0.00  0.00    -0.331 OA
ATOM      2  C   UNL     1       0.098  -0.182  -0.963  0.00  0.00    +0.102 C 
ATOM      3  C   UNL     1      -0.264   1.199  -0.301  0.00  0.00    +0.012 C 
ATOM      4  C   UNL     1      -1.784   1.547  -0.577  0.00  0.00    +0.031 C 
ATOM      5  C   UNL     1      -1.247  -0.854  -1.386  0.00  0.00    +0.226 C 
ATOM      6  C   UNL     1      -2.759   0.519   0.100  0.00  0.00    +0.047 C 
ATOM      7  C   UNL     1       1.054   0.061  -2.174  0.00  0.00    +0.120 C 
ATOM      8  C   UNL     1       1.031  -1.059  -0.051  0.00  0.00    +0.145 C 
ATOM      9  C   UNL     1       2.339   0.491  -1.448  0.00  0.00    +0.058 C 
ATOM     10  C   UNL     1      -2.292  -0.911  -0.244  0.00  0.00    +0.219 C 
ATOM     11  C   UNL     1       2.481  -0.574  -0.324  0.00  0.00    +0.155 C 
ATOM     12  C   UNL     1       0.699   2.340  -0.716  0.00  0.00    +0.001 C 
ATOM     13  C   UNL     1      -2.019   1.319  -2.094  0.00  0.00    +0.145 C 
ATOM     14  C   UNL     1      -3.238   0.891   1.537  0.00  0.00    +0.004 C 
ATOM     15  C   UNL     1      -2.131   2.993  -0.158  0.00  0.00    +0.003 C 
ATOM     16  C   UNL     1       2.156   1.929  -0.942  0.00  0.00    +0.005 C 
ATOM     17  C   UNL     1      -3.938   2.290   1.484  0.00  0.00    +0.000 C 
ATOM     18  C   UNL     1      -3.584   3.152   0.266  0.00  0.00    +0.000 C 
ATOM     19  C   UNL     1      -2.112   0.952   2.587  0.00  0.00    +0.000 C 
ATOM     20  C   UNL     1      -4.282  -0.134   2.038  0.00  0.00    +0.000 C 
ENDROOT
BRANCH   5  21
ATOM     21  O   UNL     1      -1.071  -2.194  -1.841  0.00  0.00    -0.361 OA
ATOM     22  H   UNL     1      -0.421  -2.208  -2.561  0.00  0.00    +0.213 HD
ENDBRANCH   5  21
BRANCH   7  23
ATOM     23  O   UNL     1       1.268  -1.097  -2.973  0.00  0.00    -0.384 OA
ATOM     24  H   UNL     1       0.440  -1.341  -3.416  0.00  0.00    +0.210 HD
ENDBRANCH   7  23
BRANCH   8  25
ATOM     25  O   UNL     1       0.704  -1.071   1.327  0.00  0.00    -0.382 OA
ATOM     26  H   UNL     1      -0.208  -1.381   1.440  0.00  0.00    +0.210 HD
ENDBRANCH   8  25
BRANCH  11  27
ATOM     27  O   UNL     1       3.180  -1.702  -0.890  0.00  0.00    -0.381 OA
ATOM     28  H   UNL     1       2.708  -2.013  -1.678  0.00  0.00    +0.210 HD
ENDBRANCH  11  27
BRANCH  10  29
ATOM     29  O   UNL     1      -1.812  -1.627   0.875  0.00  0.00    -0.447 OA
BRANCH  29  31
ATOM     30  O   UNL     1      -2.593  -3.607  -0.023  0.00  0.00    -0.250 OA
ATOM     31  C   UNL     1      -2.027  -2.981   0.863  0.00  0.00    +0.318 C 
ATOM     32  C   UNL     1      -1.468  -3.605   2.106  0.00  0.00    +0.121 C 
ENDBRANCH  29  31
ENDBRANCH  10  29
BRANCH  11  33
ATOM     33  C   UNL     1       3.297  -0.163   0.900  0.00  0.00    +0.237 C 
BRANCH  33  34
ATOM     34  O   UNL     1       4.613   0.144   0.479  0.00  0.00    -0.446 OA
BRANCH  34  36
ATOM     35  O   UNL     1       5.219   0.637   2.653  0.00  0.00    -0.250 OA
ATOM     36  C   UNL     1       5.484   0.534   1.463  0.00  0.00    +0.318 C 
ATOM     37  C   UNL     1       6.831   0.825   0.874  0.00  0.00    +0.121 C 
ENDBRANCH  34  36
ENDBRANCH  33  34
ENDBRANCH  11  33
TORSDOF 9
