REMARK  Name = 134613244
REMARK  9 active torsions:
REMARK  status: ('A' for Active; 'I' for Inactive)
REMARK    1  A    between atoms: N_2  and  C_20
REMARK    2  A    between atoms: C_3  and  CA_5
REMARK    3  A    between atoms: CA_5  and  N_7
REMARK    4  A    between atoms: CA_5  and  C_17
REMARK    5  A    between atoms: C_8  and  CA_12
REMARK    6  A    between atoms: C_17  and  O_18
REMARK    7  A    between atoms: C_20  and  C_23
REMARK    8  A    between atoms: C_20  and  C_26
REMARK    9  A    between atoms: C_26  and  C_27
REMARK                            x       y       z     vdW  Elec       q    Type
REMARK                         _______ _______ _______ _____ _____    ______ ____
ROOT
ATOM      1  O   UNL     1       0.904  -1.192  -1.581  0.00  0.00    -0.273 OA
ATOM      2  N   UNL     1       1.869  -1.135   0.529  0.00  0.00    -0.297 N 
ATOM      3  C   UNL     1       0.864  -1.442  -0.379  0.00  0.00    +0.243 C 
ATOM      4  H   UNL     1       1.740  -1.379   1.474  0.00  0.00    +0.150 HD
ENDROOT
BRANCH   3   5
ATOM      5  CA  UNL     1      -0.339  -2.094   0.296  0.00  0.00    +0.178 C 
BRANCH   5   7
ATOM      6  O   UNL     1      -1.844   0.313   0.906  0.00  0.00    -0.273 OA
ATOM      7  N   UNL     1      -1.532  -1.619  -0.356  0.00  0.00    -0.295 N 
ATOM      8  C   UNL     1      -2.186  -0.451   0.007  0.00  0.00    +0.241 C 
ATOM      9  H   UNL     1      -1.902  -2.151  -1.097  0.00  0.00    +0.150 HD
BRANCH   8  12
ATOM     10  O   UNL     1      -5.703   1.775   0.968  0.00  0.00    -0.275 OA
ATOM     11  N   UNL     1      -3.937   1.066  -0.397  0.00  0.00    -0.298 N 
ATOM     12  CA  UNL     1      -3.382  -0.178  -0.848  0.00  0.00    +0.149 C 
ATOM     13  C   UNL     1      -4.503  -1.176  -0.624  0.00  0.00    +0.039 C 
ATOM     14  C   UNL     1      -5.313  -0.582   0.528  0.00  0.00    +0.087 C 
ATOM     15  C   UNL     1      -5.056   0.900   0.412  0.00  0.00    +0.223 C 
ATOM     16  H   UNL     1      -3.565   1.946  -0.635  0.00  0.00    +0.150 HD
ENDBRANCH   8  12
ENDBRANCH   5   7
BRANCH   5  17
ATOM     17  C   UNL     1      -0.250  -3.616   0.273  0.00  0.00    +0.166 C 
BRANCH  17  18
ATOM     18  O   UNL     1      -0.202  -4.087  -1.069  0.00  0.00    -0.380 OA
ATOM     19  H   UNL     1      -0.146  -5.056  -1.070  0.00  0.00    +0.211 HD
ENDBRANCH  17  18
ENDBRANCH   5  17
ENDBRANCH   3   5
BRANCH   2  20
ATOM     20  C   UNL     1       3.094  -0.474   0.145  0.00  0.00    +0.153 C 
BRANCH  20  23
ATOM     21  O   UNL     1       4.247  -2.230   1.368  0.00  0.00    -0.274 OA
ATOM     22  N   UNL     1       5.228  -1.387  -0.530  0.00  0.00    -0.327 N 
ATOM     23  C   UNL     1       4.233  -1.445   0.423  0.00  0.00    +0.238 C 
ATOM     24  H   UNL     1       6.017  -1.971  -0.454  0.00  0.00    +0.145 HD
ATOM     25  H   UNL     1       5.150  -0.762  -1.286  0.00  0.00    +0.145 HD
ENDBRANCH  20  23
BRANCH  20  26
ATOM     26  C   UNL     1       3.310   0.836   0.911  0.00  0.00    +0.055 C 
BRANCH  26  27
ATOM     27  C   UNL     1       2.499   1.980   0.352  0.00  0.00    -0.020 C 
ATOM     28  C   UNL     1       3.035   2.792  -0.647  0.00  0.00    -0.004 C 
ATOM     29  C   UNL     1       1.214   2.224   0.836  0.00  0.00    -0.004 C 
ATOM     30  C   UNL     1       2.285   3.849  -1.163  0.00  0.00    -0.000 C 
ATOM     31  C   UNL     1       0.465   3.281   0.320  0.00  0.00    -0.000 C 
ATOM     32  C   UNL     1       1.000   4.094  -0.680  0.00  0.00    -0.000 C 
ENDBRANCH  26  27
ENDBRANCH  20  26
ENDBRANCH   2  20
TORSDOF 9
