REMARK  Name = 134694842
REMARK  5 active torsions:
REMARK  status: ('A' for Active; 'I' for Inactive)
REMARK    1  A    between atoms: N_1  and  C_13
REMARK    2  A    between atoms: C_11  and  O_15
REMARK    3  A    between atoms: C_12  and  O_17
REMARK    4  A    between atoms: C_14  and  C_19
REMARK    5  A    between atoms: C_19  and  S_20
REMARK                            x       y       z     vdW  Elec       q    Type
REMARK                         _______ _______ _______ _____ _____    ______ ____
ROOT
ATOM      1  N   UNL     1       0.556   0.123   0.055  0.00  0.00    -0.247 N 
ATOM      2  N   UNL     1       1.876   1.776  -0.649  0.00  0.00    -0.242 NA
ATOM      3  N   UNL     1       2.233  -1.417   0.902  0.00  0.00    -0.228 NA
ATOM      4  N   UNL     1       4.485  -0.517   0.621  0.00  0.00    -0.229 NA
ATOM      5  C   UNL     1       1.835  -0.272   0.328  0.00  0.00    +0.152 C 
ATOM      6  C   UNL     1       0.633   1.358  -0.531  0.00  0.00    +0.223 C 
ATOM      7  C   UNL     1       2.638   0.767  -0.116  0.00  0.00    +0.140 C 
ATOM      8  C   UNL     1       4.011   0.615   0.048  0.00  0.00    +0.143 C 
ATOM      9  C   UNL     1       3.580  -1.449   1.007  0.00  0.00    +0.253 C 
ATOM     10  N   UNL     1       4.900   1.619  -0.373  0.00  0.00    -0.342 N 
ATOM     11  H   UNL     1       5.870   1.501  -0.252  0.00  0.00    +0.144 HD
ATOM     12  H   UNL     1       4.553   2.441  -0.788  0.00  0.00    +0.144 HD
ENDROOT
BRANCH   1  16
ATOM     13  O   UNL     1      -1.811   0.229   0.657  0.00  0.00    -0.335 OA
ATOM     14  C   UNL     1      -1.164  -1.530  -0.834  0.00  0.00    +0.187 C 
ATOM     15  C   UNL     1      -2.427  -0.859  -1.338  0.00  0.00    +0.169 C 
ATOM     16  C   UNL     1      -0.713  -0.651   0.341  0.00  0.00    +0.225 C 
ATOM     17  C   UNL     1      -2.969  -0.200  -0.077  0.00  0.00    +0.157 C 
BRANCH  14  18
ATOM     18  O   UNL     1      -1.480  -2.824  -0.326  0.00  0.00    -0.378 OA
ATOM     19  H   UNL     1      -1.767  -3.397  -1.055  0.00  0.00    +0.211 HD
ENDBRANCH  14  18
BRANCH  15  20
ATOM     20  O   UNL     1      -2.100   0.099  -2.337  0.00  0.00    -0.379 OA
ATOM     21  H   UNL     1      -1.760  -0.357  -3.123  0.00  0.00    +0.211 HD
ENDBRANCH  15  20
BRANCH  17  22
ATOM     22  C   UNL     1      -3.889   0.986  -0.304  0.00  0.00    +0.090 C 
BRANCH  22  23
ATOM     23  S   UNL     1      -4.445   1.672   1.280  0.00  0.00    -0.137 S 
ATOM     24  C   UNL     1      -5.750   0.475   1.643  0.00  0.00    +0.069 C 
ENDBRANCH  22  23
ENDBRANCH  17  22
ENDBRANCH   1  16
TORSDOF 5
