REMARK  Name = 134693095
REMARK  7 active torsions:
REMARK  status: ('A' for Active; 'I' for Inactive)
REMARK    1  A    between atoms: N_1  and  C1*_11
REMARK    2  A    between atoms: C2*_12  and  O2*_15
REMARK    3  A    between atoms: C3*_13  and  O3*_17
REMARK    4  A    between atoms: C4*_14  and  C5*_19
REMARK    5  A    between atoms: C5*_19  and  O5*_20
REMARK    6  A    between atoms: N_22  and  C_24
REMARK    7  A    between atoms: C_25  and  O_29
REMARK                            x       y       z     vdW  Elec       q    Type
REMARK                         _______ _______ _______ _____ _____    ______ ____
ROOT
ATOM      1  N   UNL     1       1.463   0.078  -0.315  0.00  0.00    -0.247 N 
ATOM      2  N   UNL     1      -0.128  -1.455  -0.019  0.00  0.00    -0.242 NA
ATOM      3  N   UNL     1       0.088   2.010  -0.842  0.00  0.00    -0.228 NA
ATOM      4  N   UNL     1      -2.286   1.442  -0.813  0.00  0.00    -0.228 NA
ATOM      5  C   UNL     1       0.276   0.721  -0.523  0.00  0.00    +0.152 C 
ATOM      6  C   UNL     1      -2.021   0.153  -0.491  0.00  0.00    +0.146 C 
ATOM      7  C   UNL     1      -0.698  -0.247  -0.335  0.00  0.00    +0.140 C 
ATOM      8  C   UNL     1       1.169  -1.225  -0.015  0.00  0.00    +0.223 C 
ATOM      9  C   UNL     1      -1.230   2.278  -0.966  0.00  0.00    +0.253 C 
ATOM     10  N   UNL     1      -3.058  -0.748  -0.321  0.00  0.00    -0.316 N 
ATOM     11  H   UNL     1      -2.832  -1.678  -0.087  0.00  0.00    +0.148 HD
ENDROOT
BRANCH   1  13
ATOM     12  O4* UNL     1       3.806  -0.285  -0.872  0.00  0.00    -0.333 OA
ATOM     13  C1* UNL     1       2.848   0.682  -0.397  0.00  0.00    +0.225 C 
ATOM     14  C2* UNL     1       3.355   1.195   0.957  0.00  0.00    +0.187 C 
ATOM     15  C3* UNL     1       4.419   0.191   1.356  0.00  0.00    +0.171 C 
ATOM     16  C4* UNL     1       4.942  -0.284   0.007  0.00  0.00    +0.175 C 
BRANCH  14  17
ATOM     17  O2* UNL     1       3.941   2.485   0.789  0.00  0.00    -0.378 OA
ATOM     18  H2* UNL     1       3.254   3.121   0.534  0.00  0.00    +0.211 HD
ENDBRANCH  14  17
BRANCH  15  19
ATOM     19  O3* UNL     1       3.815  -0.884   2.065  0.00  0.00    -0.379 OA
ATOM     20  H3* UNL     1       3.488  -0.565   2.920  0.00  0.00    +0.211 HD
ENDBRANCH  15  19
BRANCH  16  21
ATOM     21  C5* UNL     1       5.581  -1.661   0.003  0.00  0.00    +0.169 C 
BRANCH  21  22
ATOM     22  O5* UNL     1       6.006  -1.965  -1.316  0.00  0.00    -0.379 OA
ATOM     23  H5* UNL     1       6.416  -2.844  -1.329  0.00  0.00    +0.211 HD
ENDBRANCH  21  22
ENDBRANCH  16  21
ENDBRANCH   1  13
BRANCH  10  24
ATOM     24  C   UNL     1      -4.455  -0.400  -0.468  0.00  0.00    +0.097 C 
ATOM     25  C   UNL     1      -4.977   0.233   0.830  0.00  0.00    +0.128 C 
ATOM     26  C   UNL     1      -5.302  -1.661  -0.688  0.00  0.00    +0.022 C 
ATOM     27  C   UNL     1      -6.324  -0.432   1.080  0.00  0.00    +0.031 C 
ATOM     28  C   UNL     1      -6.094  -1.853   0.600  0.00  0.00    +0.004 C 
BRANCH  25  29
ATOM     29  O   UNL     1      -5.138   1.634   0.694  0.00  0.00    -0.383 OA
ATOM     30  H   UNL     1      -4.273   2.045   0.535  0.00  0.00    +0.210 HD
ENDBRANCH  25  29
ENDBRANCH  10  24
TORSDOF 7
