134692403
  -OEChem-03292013293D

 42 44  0     1  0  0  0  0  0999 V2000
   -2.4780    0.8588   -0.7196 O   0  0  0  0  0  0  0  0  0  0  0  0
   -0.9652   -0.5702    0.4096 O   0  0  0  0  0  0  0  0  0  0  0  0
   -4.9020   -2.3460    0.3170 O   0  0  0  0  0  0  0  0  0  0  0  0
   -5.3258    0.2025   -0.6616 O   0  0  0  0  0  0  0  0  0  0  0  0
   -2.2359   -2.8103   -0.6208 O   0  0  0  0  0  0  0  0  0  0  0  0
   -2.8712    3.4046    0.7308 O   0  0  0  0  0  0  0  0  0  0  0  0
    3.7140   -1.5338    0.3655 O   0  0  0  0  0  0  0  0  0  0  0  0
    5.9501   -2.0125    0.3491 O   0  0  0  0  0  0  0  0  0  0  0  0
   -3.8606   -1.3811    0.4411 C   0  0  2  0  0  0  0  0  0  0  0  0
   -4.4520    0.0323    0.4572 C   0  0  1  0  0  0  0  0  0  0  0  0
   -2.8792   -1.5432   -0.7194 C   0  0  1  0  0  0  0  0  0  0  0  0
   -3.3335    1.0824    0.4119 C   0  0  2  0  0  0  0  0  0  0  0  0
   -1.8375   -0.4201   -0.7096 C   0  0  1  0  0  0  0  0  0  0  0  0
   -3.8742    2.5033    0.2978 C   0  0  0  0  0  0  0  0  0  0  0  0
    0.3239   -0.1434    0.2428 C   0  0  0  0  0  0  0  0  0  0  0  0
    1.3796   -1.0379    0.3843 C   0  0  0  0  0  0  0  0  0  0  0  0
    0.5835    1.1901   -0.0694 C   0  0  0  0  0  0  0  0  0  0  0  0
    2.9774    0.7477   -0.1030 C   0  0  0  0  0  0  0  0  0  0  0  0
    2.6872   -0.5811    0.2098 C   0  0  0  0  0  0  0  0  0  0  0  0
    1.9000    1.6331   -0.2411 C   0  0  0  0  0  0  0  0  0  0  0  0
    4.3833    1.1408   -0.2687 C   0  0  0  0  0  0  0  0  0  0  0  0
    5.3389    0.2136   -0.1146 C   0  0  0  0  0  0  0  0  0  0  0  0
    4.7282    2.5623   -0.6045 C   0  0  0  0  0  0  0  0  0  0  0  0
    5.0490   -1.1919    0.2155 C   0  0  0  0  0  0  0  0  0  0  0  0
   -3.3468   -1.5868    1.3882 H   0  0  0  0  0  0  0  0  0  0  0  0
   -5.0701    0.1643    1.3521 H   0  0  0  0  0  0  0  0  0  0  0  0
   -3.4348   -1.5349   -1.6649 H   0  0  0  0  0  0  0  0  0  0  0  0
   -2.7237    1.0073    1.3217 H   0  0  0  0  0  0  0  0  0  0  0  0
   -1.2519   -0.5028   -1.6352 H   0  0  0  0  0  0  0  0  0  0  0  0
   -4.7454    2.6447    0.9451 H   0  0  0  0  0  0  0  0  0  0  0  0
   -4.1401    2.7543   -0.7342 H   0  0  0  0  0  0  0  0  0  0  0  0
   -5.5165   -2.2093    1.0582 H   0  0  0  0  0  0  0  0  0  0  0  0
   -4.7817    0.2554   -1.4653 H   0  0  0  0  0  0  0  0  0  0  0  0
   -1.6051   -2.8761   -1.3579 H   0  0  0  0  0  0  0  0  0  0  0  0
   -3.2381    4.3017    0.6529 H   0  0  0  0  0  0  0  0  0  0  0  0
    1.1875   -2.0792    0.6269 H   0  0  0  0  0  0  0  0  0  0  0  0
   -0.2217    1.9117   -0.1683 H   0  0  0  0  0  0  0  0  0  0  0  0
    2.0575    2.6816   -0.4801 H   0  0  0  0  0  0  0  0  0  0  0  0
    6.3881    0.4689   -0.2295 H   0  0  0  0  0  0  0  0  0  0  0  0
    5.8101    2.7094   -0.6974 H   0  0  0  0  0  0  0  0  0  0  0  0
    4.2796    2.8563   -1.5594 H   0  0  0  0  0  0  0  0  0  0  0  0
    4.3762    3.2433    0.1778 H   0  0  0  0  0  0  0  0  0  0  0  0
  1 12  1  0  0  0  0
  1 13  1  0  0  0  0
  2 13  1  0  0  0  0
  2 15  1  0  0  0  0
  3  9  1  0  0  0  0
  3 32  1  0  0  0  0
  4 10  1  0  0  0  0
  4 33  1  0  0  0  0
  5 11  1  0  0  0  0
  5 34  1  0  0  0  0
  6 14  1  0  0  0  0
  6 35  1  0  0  0  0
  7 19  1  0  0  0  0
  7 24  1  0  0  0  0
  8 24  2  0  0  0  0
  9 10  1  0  0  0  0
  9 11  1  0  0  0  0
  9 25  1  0  0  0  0
 10 12  1  0  0  0  0
 10 26  1  0  0  0  0
 11 13  1  0  0  0  0
 11 27  1  0  0  0  0
 12 14  1  0  0  0  0
 12 28  1  0  0  0  0
 13 29  1  0  0  0  0
 14 30  1  0  0  0  0
 14 31  1  0  0  0  0
 15 16  2  0  0  0  0
 15 17  1  0  0  0  0
 16 19  1  0  0  0  0
 16 36  1  0  0  0  0
 17 20  2  0  0  0  0
 17 37  1  0  0  0  0
 18 19  2  0  0  0  0
 18 20  1  0  0  0  0
 18 21  1  0  0  0  0
 20 38  1  0  0  0  0
 21 22  2  0  0  0  0
 21 23  1  0  0  0  0
 22 24  1  0  0  0  0
 22 39  1  0  0  0  0
 23 40  1  0  0  0  0
 23 41  1  0  0  0  0
 23 42  1  0  0  0  0
M  END
> <PUBCHEM_COMPOUND_CID>
134692403

> <PUBCHEM_CONFORMER_RMSD>
0.8

> <PUBCHEM_CONFORMER_DIVERSEORDER>
1
211
219
54
160
239
13
256
51
76
168
220
213
117
132
120
136
145
84
255
200
129
21
260
57
226
162
191
198
108
204
109
49
4
242
212
196
149
118
174
45
188
86
150
121
270
194
73
102
172
227
16
224
154
169
24
249
180
166
38
17
170
231
78
85
125
251
184
265
22
269
199
171
65
205
197
89
11
137
55
268
80
62
182
261
262
103
114
93
225
193
187
33
263
27
74
181
235
9
186
229
177
69
66
146
63
195
175
243
148
59
142
32
104
99
92
257
190
217
139
98
53
82
133
244
130
208
41
110
222
52
101
157
40
201
105
30
252
75
96
81
202
25
14
223
209
138
254
173
155
8
143
131
152
216
203
79
10
90
258
7
48
115
248
245
250
112
206
207
135
233
42
141
158
106
159
35
237
123
36
246
56
113
178
2
83
26
221
28
183
58
111
50
144
127
3
163
240
44
34
124
77
232
234
5
39
230
241
20
164
189
60
64
228
214
179
29
140
266
70
247
6
88
267
47
87
15
18
264
156
72
94
119
192
128
37
126
185
68
151
134
71
61
12
31
95
165
153
215
46
236
147
116
91
100
253
122
259
210
23
67
167
161
43
218
238
97
176
19
107

> <PUBCHEM_MMFF94_PARTIAL_CHARGES>
32
1 -0.56
10 0.28
11 0.28
12 0.28
13 0.56
14 0.28
15 0.08
16 -0.15
17 -0.15
18 0.03
19 0.08
2 -0.36
20 -0.15
21 -0.17
22 -0.14
23 0.14
24 0.71
3 -0.68
32 0.4
33 0.4
34 0.4
35 0.4
36 0.15
37 0.15
38 0.15
39 0.15
4 -0.68
5 -0.68
6 -0.68
7 -0.23
8 -0.57
9 0.28

> <PUBCHEM_EFFECTIVE_ROTOR_COUNT>
4.2

> <PUBCHEM_PHARMACOPHORE_FEATURES>
14
1 1 acceptor
1 2 acceptor
1 3 acceptor
1 3 donor
1 4 acceptor
1 4 donor
1 5 acceptor
1 5 donor
1 6 acceptor
1 6 donor
1 8 acceptor
6 1 9 10 11 12 13 rings
6 15 16 17 18 19 20 rings
6 7 18 19 21 22 24 rings

> <PUBCHEM_HEAVY_ATOM_COUNT>
24

> <PUBCHEM_ATOM_DEF_STEREO_COUNT>
1

> <PUBCHEM_ATOM_UDEF_STEREO_COUNT>
4

> <PUBCHEM_BOND_DEF_STEREO_COUNT>
0

> <PUBCHEM_BOND_UDEF_STEREO_COUNT>
0

> <PUBCHEM_ISOTOPIC_ATOM_COUNT>
0

> <PUBCHEM_COMPONENT_COUNT>
1

> <PUBCHEM_CACTVS_TAUTO_COUNT>
1

> <PUBCHEM_CONFORMER_ID>
08073E3300000001

> <PUBCHEM_MMFF94_ENERGY>
83.1783

> <PUBCHEM_FEATURE_SELFOVERLAP>
71.137

> <PUBCHEM_SHAPE_FINGERPRINT>
10595046 47 18337674221468652068
11405975 8 18409728444052074898
12107183 9 17905325130845964728
12236239 1 18411138047511951627
12788726 201 17703240554449075416
13073987 5 18410293631678364536
13167823 11 18409165519731534482
13583140 156 17417798544254079930
14341114 176 18334019410305107937
14420673 8 18266744571679313230
14790565 3 18409172095305131736
15183329 4 18412267216311036230
15196674 1 18408323298024510876
15250474 111 18341038722834632382
15788980 27 18411136944048462294
17492 89 18336828709564043899
17818456 19 18341052896189389392
17834072 33 18408887364743178238
17844677 252 18410018736459513456
1813 80 17095240341357351748
18186145 218 17312817182819257682
200 152 18339922714189154835
20612939 158 18259987076546846628
20645477 70 18408605868814201870
21065198 48 18410014350949907069
21267235 1 18409455777621050786
23402539 116 18273207604433045957
23559900 14 18338789130844652969
23598288 3 18201994452188543319
245318 6 16666005484704751948
3004659 81 18407761431041268646
34797466 226 17274830207178675188
350125 39 18411139156135974353
3633792 109 18187633684190562887
4073 2 17967820496054600394
4214541 1 18410292480157689041
5104073 3 18410291406795654520
543358 83 18336267856319053760
559249 180 18339075969723689906
633830 44 17676488358840497640
7495541 125 17846213397298828520
77779 3 18409167722870149380

> <PUBCHEM_SHAPE_MULTIPOLES>
446.95
13.34
2.91
0.78
5.32
0.94
-0.04
-1.46
0.22
-1.22
0.14
-0.28
0.02
-1.2

> <PUBCHEM_SHAPE_SELFOVERLAP>
958.944

> <PUBCHEM_SHAPE_VOLUME>
245.6

> <PUBCHEM_COORDINATE_TYPE>
2
5
10

$$$$
