REMARK  Name = 134692567
REMARK  9 active torsions:
REMARK  status: ('A' for Active; 'I' for Inactive)
REMARK    1  A    between atoms: N_2  and  C_7
REMARK    2  A    between atoms: N_2  and  O_17
REMARK    3  A    between atoms: C_3  and  O_13
REMARK    4  A    between atoms: C_4  and  O_15
REMARK    5  A    between atoms: C_5  and  N_9
REMARK    6  A    between atoms: C_6  and  C_28
REMARK    7  A    between atoms: O_17  and  C_20
REMARK    8  A    between atoms: N_19  and  C_22
REMARK    9  A    between atoms: C_28  and  O_29
REMARK                            x       y       z     vdW  Elec       q    Type
REMARK                         _______ _______ _______ _____ _____    ______ ____
ROOT
ATOM      1  O   UNL     1      -1.344  -1.423   0.143  0.00  0.00    -0.333 OA
ATOM      2  C   UNL     1      -3.967  -0.310   0.261  0.00  0.00    +0.161 C 
ATOM      3  C   UNL     1      -3.766  -1.750  -0.190  0.00  0.00    +0.169 C 
ATOM      4  C   UNL     1      -2.793   0.559  -0.168  0.00  0.00    +0.149 C 
ATOM      5  C   UNL     1      -2.482  -2.263   0.453  0.00  0.00    +0.175 C 
ATOM      6  C   UNL     1      -1.440  -0.094  -0.031  0.00  0.00    +0.251 C 
ENDROOT
BRANCH   4   8
ATOM      7  O   UNL     1      -4.088   3.082  -0.783  0.00  0.00    -0.275 OA
ATOM      8  N   UNL     1      -2.752   1.777   0.606  0.00  0.00    -0.300 N 
ATOM      9  C   UNL     1      -3.407   2.937   0.228  0.00  0.00    +0.223 C 
ATOM     10  C   UNL     1      -3.219   4.048   1.226  0.00  0.00    +0.095 C 
ATOM     11  H   UNL     1      -2.234   1.783   1.443  0.00  0.00    +0.150 HD
ENDBRANCH   4   8
BRANCH   2  12
ATOM     12  O   UNL     1      -5.173   0.184  -0.319  0.00  0.00    -0.380 OA
ATOM     13  H   UNL     1      -5.917  -0.373  -0.042  0.00  0.00    +0.211 HD
ENDBRANCH   2  12
BRANCH   3  14
ATOM     14  O   UNL     1      -3.672  -1.791  -1.613  0.00  0.00    -0.379 OA
ATOM     15  H   UNL     1      -4.497  -1.460  -2.001  0.00  0.00    +0.211 HD
ENDBRANCH   3  14
BRANCH   6  16
ATOM     16  N   UNL     1      -0.350   0.589  -0.160  0.00  0.00    +0.008 NA
BRANCH  16  17
ATOM     17  O   UNL     1       0.736  -0.278   0.018  0.00  0.00    -0.330 OA
BRANCH  17  20
ATOM     18  O   UNL     1       1.945   1.637  -0.354  0.00  0.00    -0.224 OA
ATOM     19  N   UNL     1       2.965  -0.427   0.060  0.00  0.00    -0.249 N 
ATOM     20  C   UNL     1       1.900   0.435  -0.117  0.00  0.00    +0.425 C 
ATOM     21  H   UNL     1       2.733  -1.366   0.244  0.00  0.00    +0.158 HD
BRANCH  19  22
ATOM     22  C   UNL     1       4.346  -0.129   0.009  0.00  0.00    +0.053 C 
ATOM     23  C   UNL     1       5.286  -1.139   0.214  0.00  0.00    +0.015 C 
ATOM     24  C   UNL     1       4.768   1.176  -0.246  0.00  0.00    +0.015 C 
ATOM     25  C   UNL     1       6.648  -0.845   0.164  0.00  0.00    +0.001 C 
ATOM     26  C   UNL     1       6.131   1.470  -0.296  0.00  0.00    +0.001 C 
ATOM     27  C   UNL     1       7.071   0.460  -0.091  0.00  0.00    +0.000 C 
ENDBRANCH  19  22
ENDBRANCH  17  20
ENDBRANCH  16  17
ENDBRANCH   6  16
BRANCH   5  28
ATOM     28  C   UNL     1      -2.122  -3.679   0.019  0.00  0.00    +0.169 C 
BRANCH  28  29
ATOM     29  O   UNL     1      -1.222  -4.227   0.966  0.00  0.00    -0.379 OA
ATOM     30  H   UNL     1      -0.984  -5.130   0.701  0.00  0.00    +0.211 HD
ENDBRANCH  28  29
ENDBRANCH   5  28
TORSDOF 9
