134693095
  -OEChem-03292013293D

 46 49  0     1  0  0  0  0  0999 V2000
    3.8058   -0.2855   -0.8722 O   0  0  0  0  0  0  0  0  0  0  0  0
    3.9409    2.4848    0.7892 O   0  0  0  0  0  0  0  0  0  0  0  0
    3.8150   -0.8845    2.0648 O   0  0  0  0  0  0  0  0  0  0  0  0
   -5.1375    1.6343    0.6943 O   0  0  0  0  0  0  0  0  0  0  0  0
    6.0061   -1.9653   -1.3159 O   0  0  0  0  0  0  0  0  0  0  0  0
    1.4631    0.0783   -0.3147 N   0  0  0  0  0  0  0  0  0  0  0  0
   -3.0576   -0.7484   -0.3208 N   0  0  0  0  0  0  0  0  0  0  0  0
   -0.1280   -1.4548   -0.0186 N   0  0  0  0  0  0  0  0  0  0  0  0
    0.0880    2.0099   -0.8418 N   0  0  0  0  0  0  0  0  0  0  0  0
   -2.2856    1.4423   -0.8132 N   0  0  0  0  0  0  0  0  0  0  0  0
   -4.4548   -0.4004   -0.4678 C   0  0  2  0  0  0  0  0  0  0  0  0
    2.8482    0.6819   -0.3969 C   0  0  1  0  0  0  0  0  0  0  0  0
    3.3554    1.1951    0.9566 C   0  0  1  0  0  0  0  0  0  0  0  0
    4.4188    0.1906    1.3561 C   0  0  2  0  0  0  0  0  0  0  0  0
   -4.9770    0.2328    0.8298 C   0  0  2  0  0  0  0  0  0  0  0  0
    4.9420   -0.2841    0.0072 C   0  0  1  0  0  0  0  0  0  0  0  0
   -5.3020   -1.6611   -0.6884 C   0  0  0  0  0  0  0  0  0  0  0  0
   -6.3235   -0.4318    1.0801 C   0  0  0  0  0  0  0  0  0  0  0  0
   -6.0939   -1.8525    0.5998 C   0  0  0  0  0  0  0  0  0  0  0  0
    5.5811   -1.6610    0.0028 C   0  0  0  0  0  0  0  0  0  0  0  0
    0.2759    0.7205   -0.5232 C   0  0  0  0  0  0  0  0  0  0  0  0
   -2.0211    0.1533   -0.4912 C   0  0  0  0  0  0  0  0  0  0  0  0
   -0.6979   -0.2472   -0.3348 C   0  0  0  0  0  0  0  0  0  0  0  0
    1.1686   -1.2254   -0.0149 C   0  0  0  0  0  0  0  0  0  0  0  0
   -1.2301    2.2783   -0.9663 C   0  0  0  0  0  0  0  0  0  0  0  0
   -4.5853    0.2647   -1.3308 H   0  0  0  0  0  0  0  0  0  0  0  0
    2.7710    1.4733   -1.1514 H   0  0  0  0  0  0  0  0  0  0  0  0
    2.5575    1.2894    1.7010 H   0  0  0  0  0  0  0  0  0  0  0  0
    5.2210    0.6093    1.9717 H   0  0  0  0  0  0  0  0  0  0  0  0
   -4.3004    0.0454    1.6731 H   0  0  0  0  0  0  0  0  0  0  0  0
    5.6417    0.4522   -0.4087 H   0  0  0  0  0  0  0  0  0  0  0  0
   -4.7210   -2.5529   -0.9451 H   0  0  0  0  0  0  0  0  0  0  0  0
   -6.0041   -1.4810   -1.5124 H   0  0  0  0  0  0  0  0  0  0  0  0
   -7.1178    0.0572    0.5029 H   0  0  0  0  0  0  0  0  0  0  0  0
   -6.6121   -0.3891    2.1349 H   0  0  0  0  0  0  0  0  0  0  0  0
   -7.0295   -2.3944    0.4353 H   0  0  0  0  0  0  0  0  0  0  0  0
   -5.4968   -2.4104    1.3308 H   0  0  0  0  0  0  0  0  0  0  0  0
   -2.8170   -1.6868   -0.0202 H   0  0  0  0  0  0  0  0  0  0  0  0
    4.8638   -2.4342    0.2961 H   0  0  0  0  0  0  0  0  0  0  0  0
    6.4465   -1.6942    0.6716 H   0  0  0  0  0  0  0  0  0  0  0  0
    1.9318   -1.9618    0.1955 H   0  0  0  0  0  0  0  0  0  0  0  0
    3.2370    3.0862    0.4915 H   0  0  0  0  0  0  0  0  0  0  0  0
    3.4544   -0.5222    2.8920 H   0  0  0  0  0  0  0  0  0  0  0  0
   -5.5373    1.9637    1.5172 H   0  0  0  0  0  0  0  0  0  0  0  0
    6.4136   -2.8478   -1.2889 H   0  0  0  0  0  0  0  0  0  0  0  0
   -1.4788    3.3023   -1.2238 H   0  0  0  0  0  0  0  0  0  0  0  0
  1 12  1  0  0  0  0
  1 16  1  0  0  0  0
  2 13  1  0  0  0  0
  2 42  1  0  0  0  0
  3 14  1  0  0  0  0
  3 43  1  0  0  0  0
  4 15  1  0  0  0  0
  4 44  1  0  0  0  0
  5 20  1  0  0  0  0
  5 45  1  0  0  0  0
  6 12  1  0  0  0  0
  6 21  1  0  0  0  0
  6 24  1  0  0  0  0
  7 11  1  0  0  0  0
  7 22  1  0  0  0  0
  7 38  1  0  0  0  0
  8 23  1  0  0  0  0
  8 24  2  0  0  0  0
  9 21  2  0  0  0  0
  9 25  1  0  0  0  0
 10 22  1  0  0  0  0
 10 25  2  0  0  0  0
 11 15  1  0  0  0  0
 11 17  1  0  0  0  0
 11 26  1  0  0  0  0
 12 13  1  0  0  0  0
 12 27  1  0  0  0  0
 13 14  1  0  0  0  0
 13 28  1  0  0  0  0
 14 16  1  0  0  0  0
 14 29  1  0  0  0  0
 15 18  1  0  0  0  0
 15 30  1  0  0  0  0
 16 20  1  0  0  0  0
 16 31  1  0  0  0  0
 17 19  1  0  0  0  0
 17 32  1  0  0  0  0
 17 33  1  0  0  0  0
 18 19  1  0  0  0  0
 18 34  1  0  0  0  0
 18 35  1  0  0  0  0
 19 36  1  0  0  0  0
 19 37  1  0  0  0  0
 20 39  1  0  0  0  0
 20 40  1  0  0  0  0
 21 23  1  0  0  0  0
 22 23  2  0  0  0  0
 24 41  1  0  0  0  0
 25 46  1  0  0  0  0
M  END
> <PUBCHEM_COMPOUND_CID>
134693095

> <PUBCHEM_CONFORMER_RMSD>
0.8

> <PUBCHEM_CONFORMER_DIVERSEORDER>
1
286
243
97
253
283
320
22
279
148
213
274
92
183
322
181
62
229
186
304
225
26
115
284
326
71
94
321
91
255
176
182
259
9
210
178
51
269
79
301
189
162
161
256
17
306
159
120
150
325
80
305
19
316
67
238
262
8
295
38
201
104
324
12
215
75
273
147
313
263
240
14
180
113
90
149
188
252
278
230
239
250
16
121
232
200
84
307
185
187
93
317
282
118
117
50
100
105
173
177
251
242
28
206
63
246
101
275
220
70
128
216
179
18
155
258
270
221
315
289
193
311
83
302
43
140
58
223
244
202
5
87
247
165
142
102
267
40
318
56
89
174
36
197
319
44
69
88
146
4
95
234
154
13
153
31
103
125
261
127
308
81
190
194
114
6
277
241
254
309
235
107
164
42
85
287
129
264
218
15
96
34
268
266
46
66
211
57
170
157
68
292
199
191
136
139
82
2
131
192
11
25
205
212
296
227
119
141
60
217
198
310
145
41
65
76
209
110
163
116
196
7
312
106
10
133
135
49
138
300
299
207
293
122
285
219
245
98
45
290
175
134
257
39
151
298
54
108
260
74
152
3
169
64
314
47
172
195
233
294
228
73
297
271
327
167
137
276
204
288
27
86
203
130
126
226
77
99
272
109
168
231
184
281
52
166
61
20
111
144
48
171
33
123
291
72
59
24
237
303
224
143
35
21
156
222
265
29
78
208
53
158
323
55
160
132
236
37
112
249
280
32
248
124
214
30
23

> <PUBCHEM_MMFF94_PARTIAL_CHARGES>
29
1 -0.56
10 -0.62
11 0.37
12 0.54
13 0.28
14 0.28
15 0.28
16 0.28
2 -0.68
20 0.28
21 0.11
22 0.41
23 0.23
24 0.04
25 0.47
3 -0.68
38 0.4
4 -0.68
41 0.15
42 0.4
43 0.4
44 0.4
45 0.4
46 0.15
5 -0.68
6 0.05
7 -0.87
8 -0.57
9 -0.57

> <PUBCHEM_EFFECTIVE_ROTOR_COUNT>
6

> <PUBCHEM_PHARMACOPHORE_FEATURES>
18
1 1 acceptor
1 2 acceptor
1 2 donor
1 3 acceptor
1 3 donor
1 4 acceptor
1 4 donor
1 5 acceptor
1 5 donor
1 7 cation
1 7 donor
3 6 8 24 cation
3 6 9 21 cation
3 9 10 25 cation
5 1 12 13 14 16 rings
5 11 15 17 18 19 rings
5 6 8 21 23 24 rings
6 9 10 21 22 23 25 rings

> <PUBCHEM_HEAVY_ATOM_COUNT>
25

> <PUBCHEM_ATOM_DEF_STEREO_COUNT>
3

> <PUBCHEM_ATOM_UDEF_STEREO_COUNT>
3

> <PUBCHEM_BOND_DEF_STEREO_COUNT>
0

> <PUBCHEM_BOND_UDEF_STEREO_COUNT>
0

> <PUBCHEM_ISOTOPIC_ATOM_COUNT>
0

> <PUBCHEM_COMPONENT_COUNT>
1

> <PUBCHEM_CACTVS_TAUTO_COUNT>
4

> <PUBCHEM_CONFORMER_ID>
080740E700000001

> <PUBCHEM_MMFF94_ENERGY>
59.4727

> <PUBCHEM_FEATURE_SELFOVERLAP>
91.96

> <PUBCHEM_SHAPE_FINGERPRINT>
10366900 7 17749393641851853560
11796584 16 15430308157806746545
11963148 33 18186515522961641995
12166972 35 18341619243060957033
12236239 1 18130508626136144543
12403259 415 18410002218131773060
12422481 6 18060700589279857423
12596602 18 18272090539147142667
12616971 3 17346874567799605980
13533116 47 18202002153291647546
13685833 64 18343021056863850806
13782708 43 18341331115301269462
13862211 1 18260544550237812199
14251764 18 18411697695495514858
14341114 176 18202002122968608504
14955137 171 18410299142047630109
15142383 8 16128377026171674042
15183329 4 9511465532857849699
15348495 7 17560797779462303995
15788980 27 17095234831130510175
15880784 105 18343586269705471963
17349148 13 17385446505422988701
17844677 252 18201444683489902425
1813 80 17676205788330869269
18222031 100 17385439938217637324
19141452 34 18131067181652649055
20028762 73 18340484568847639183
20715895 44 11384113046713133450
21150785 3 15936418848803197798
21267235 1 18334020483793951910
22182313 1 18267866086444866927
23081809 10 17131829906470376437
23402539 116 18113614582540685613
23402655 69 9223242832107945325
23522609 53 18046378325105237100
23559900 14 16660936581122327180
2767999 5 11887954341504194931
2838139 119 15195284184452405977
293599 30 10952053363940206727
300161 21 9871747983655687758
3004659 81 17458346355205912366
3472631 163 11311761900482502162
350125 39 18340489976331939460
4340502 62 15985110720885635639
465052 167 18113339725623599634
5104073 3 18410283701213206481
59755656 215 18334574590473410646
960060 61 7997696432254399432

> <PUBCHEM_SHAPE_MULTIPOLES>
460.24
15.82
2.14
1.21
6.48
0.58
-0.33
-7.26
-3.42
-0.39
0.26
-0.66
-0.02
0.76

> <PUBCHEM_SHAPE_SELFOVERLAP>
993.452

> <PUBCHEM_SHAPE_VOLUME>
251.6

> <PUBCHEM_COORDINATE_TYPE>
2
5
10

$$$$
