REMARK  Name = 134612765
REMARK  7 active torsions:
REMARK  status: ('A' for Active; 'I' for Inactive)
REMARK    1  A    between atoms: N_1  and  S_2
REMARK    2  A    between atoms: N_1  and  S_13
REMARK    3  A    between atoms: N_1  and  C_23
REMARK    4  A    between atoms: S_2  and  C_5
REMARK    5  A    between atoms: C_10  and  O_11
REMARK    6  A    between atoms: S_13  and  C_17
REMARK    7  A    between atoms: C_23  and  C_25
REMARK                            x       y       z     vdW  Elec       q    Type
REMARK                         _______ _______ _______ _____ _____    ______ ____
ROOT
ATOM      1  N   UNL     1      -0.318  -0.750   0.392  0.00  0.00    -0.031 NA
ENDROOT
BRANCH   1   2
ATOM      2  S   UNL     1       0.035   0.955   0.349  0.00  0.00    +0.081 S 
ATOM      3  O   UNL     1      -0.568   1.555  -0.826  0.00  0.00    -0.151 OA
ATOM      4  O   UNL     1      -0.221   1.536   1.654  0.00  0.00    -0.151 OA
BRANCH   2   5
ATOM      5  C   UNL     1       1.788   0.958   0.099  0.00  0.00    +0.124 C 
ATOM      6  C   UNL     1       2.639   0.541   1.123  0.00  0.00    +0.023 C 
ATOM      7  C   UNL     1       2.318   1.380  -1.120  0.00  0.00    +0.023 C 
ATOM      8  C   UNL     1       4.019   0.546   0.927  0.00  0.00    +0.038 C 
ATOM      9  C   UNL     1       3.699   1.385  -1.316  0.00  0.00    +0.038 C 
ATOM     10  C   UNL     1       4.550   0.968  -0.293  0.00  0.00    +0.139 C 
BRANCH  10  11
ATOM     11  O   UNL     1       5.897   0.973  -0.483  0.00  0.00    -0.471 OA
ATOM     12  C   UNL     1       6.709   0.534   0.605  0.00  0.00    +0.252 C 
ENDBRANCH  10  11
ENDBRANCH   2   5
ENDBRANCH   1   2
BRANCH   1  13
ATOM     13  S   UNL     1      -1.719  -1.339   1.245  0.00  0.00    +0.081 S 
ATOM     14  O   UNL     1      -1.628  -0.928   2.633  0.00  0.00    -0.151 OA
ATOM     15  O   UNL     1      -1.970  -2.727   0.907  0.00  0.00    -0.151 OA
BRANCH  13  17
ATOM     16 CL   UNL     1      -6.343   1.938  -1.459  0.00  0.00    -0.082 Cl
ATOM     17  C   UNL     1      -3.022  -0.416   0.483  0.00  0.00    +0.124 C 
ATOM     18  C   UNL     1      -3.671  -0.924  -0.642  0.00  0.00    +0.021 C 
ATOM     19  C   UNL     1      -3.400   0.820   1.008  0.00  0.00    +0.021 C 
ATOM     20  C   UNL     1      -4.698  -0.196  -1.242  0.00  0.00    +0.013 C 
ATOM     21  C   UNL     1      -4.427   1.548   0.408  0.00  0.00    +0.013 C 
ATOM     22  C   UNL     1      -5.076   1.040  -0.718  0.00  0.00    +0.058 C 
ENDBRANCH  13  17
ENDBRANCH   1  13
BRANCH   1  23
ATOM     23  C   UNL     1       0.040  -1.512  -0.842  0.00  0.00    +0.153 C 
BRANCH  23  25
ATOM     24  O   UNL     1       2.411  -2.158  -0.728  0.00  0.00    -0.349 OA
ATOM     25  C   UNL     1       1.052  -2.566  -0.539  0.00  0.00    +0.164 C 
ATOM     26  C   UNL     1       1.906  -3.160  -1.624  0.00  0.00    +0.173 C 
ENDBRANCH  23  25
ENDBRANCH   1  23
TORSDOF 7
