REMARK  Name = 134694237
REMARK  8 active torsions:
REMARK  status: ('A' for Active; 'I' for Inactive)
REMARK    1  A    between atoms: C_3  and  O_30
REMARK    2  A    between atoms: C_4  and  C_22
REMARK    3  A    between atoms: C_4  and  O_24
REMARK    4  A    between atoms: C_9  and  O_26
REMARK    5  A    between atoms: C_10  and  O_28
REMARK    6  A    between atoms: O_30  and  C_32
REMARK    7  A    between atoms: C_33  and  N_38
REMARK    8  A    between atoms: C_35  and  O_42
REMARK                            x       y       z     vdW  Elec       q    Type
REMARK                         _______ _______ _______ _____ _____    ______ ____
ROOT
ATOM      1  O   UNL     1      -2.342  -2.370  -1.020  0.00  0.00    -0.286 OA
ATOM      2  O   UNL     1      -4.163   2.242   0.970  0.00  0.00    -0.286 OA
ATOM      3  C   UNL     1       1.736   0.731  -1.317  0.00  0.00    +0.145 C 
ATOM      4  C   UNL     1       2.194   3.073  -0.429  0.00  0.00    +0.146 C 
ATOM      5  C   UNL     1       2.449   2.065  -1.550  0.00  0.00    +0.069 C 
ATOM      6  C   UNL     1       0.698   3.328  -0.233  0.00  0.00    +0.063 C 
ATOM      7  C   UNL     1       0.311   0.884  -0.848  0.00  0.00    +0.038 A 
ATOM      8  C   UNL     1      -0.165   2.092  -0.310  0.00  0.00    +0.016 A 
ATOM      9  C   UNL     1      -0.551  -0.224  -0.918  0.00  0.00    +0.135 A 
ATOM     10  C   UNL     1      -1.498   2.177   0.124  0.00  0.00    +0.133 A 
ATOM     11  C   UNL     1      -1.875  -0.133  -0.475  0.00  0.00    +0.078 A 
ATOM     12  C   UNL     1      -2.349   1.069   0.046  0.00  0.00    +0.078 A 
ATOM     13  C   UNL     1      -2.759  -1.313  -0.564  0.00  0.00    +0.199 C 
ATOM     14  C   UNL     1      -3.745   1.185   0.514  0.00  0.00    +0.199 C 
ATOM     15  C   UNL     1      -4.155  -1.200  -0.094  0.00  0.00    +0.042 C 
ATOM     16  C   UNL     1      -4.631   0.006   0.426  0.00  0.00    +0.042 C 
ATOM     17  C   UNL     1      -5.004  -2.310  -0.172  0.00  0.00    +0.003 C 
ATOM     18  C   UNL     1      -5.956   0.101   0.868  0.00  0.00    +0.003 C 
ATOM     19  C   UNL     1      -6.324  -2.211   0.269  0.00  0.00    +0.000 C 
ATOM     20  C   UNL     1      -6.799  -1.008   0.788  0.00  0.00    +0.000 C 
ENDROOT
BRANCH   4  22
ATOM     21  O   UNL     1       2.282   2.043   1.726  0.00  0.00    -0.294 OA
ATOM     22  C   UNL     1       2.878   2.661   0.845  0.00  0.00    +0.175 C 
ATOM     23  C   UNL     1       4.326   3.042   0.989  0.00  0.00    +0.075 C 
ENDBRANCH   4  22
BRANCH   4  24
ATOM     24  O   UNL     1       2.839   4.297  -0.780  0.00  0.00    -0.379 OA
ATOM     25  H   UNL     1       2.456   4.640  -1.602  0.00  0.00    +0.211 HD
ENDBRANCH   4  24
BRANCH   9  26
ATOM     26  O   UNL     1      -0.058  -1.393  -1.429  0.00  0.00    -0.506 OA
ATOM     27  H   UNL     1       0.831  -1.439  -1.722  0.00  0.00    +0.292 HD
ENDBRANCH   9  26
BRANCH  10  28
ATOM     28  O   UNL     1      -1.941   3.374   0.615  0.00  0.00    -0.506 OA
ATOM     29  H   UNL     1      -1.358   4.106   0.661  0.00  0.00    +0.292 HD
ENDBRANCH  10  28
BRANCH   3  30
ATOM     30  O   UNL     1       2.439  -0.035  -0.340  0.00  0.00    -0.328 OA
BRANCH  30  32
ATOM     31  O   UNL     1       2.998  -2.101  -1.367  0.00  0.00    -0.331 OA
ATOM     32  C   UNL     1       3.464  -0.822  -0.938  0.00  0.00    +0.233 C 
ATOM     33  C   UNL     1       4.252  -1.869   1.219  0.00  0.00    -0.031 C 
ATOM     34  C   UNL     1       4.632  -0.975   0.035  0.00  0.00    +0.042 C 
ATOM     35  C   UNL     1       3.669  -3.196   0.713  0.00  0.00    +0.118 C 
ATOM     36  C   UNL     1       2.543  -2.935  -0.298  0.00  0.00    +0.142 C 
ATOM     37  C   UNL     1       2.035  -4.233  -0.920  0.00  0.00    +0.035 C 
BRANCH  33  38
ATOM     38  N   UNL     1       5.434  -2.103   2.050  0.00  0.00    +0.384 N 
ATOM     39  H   UNL     1       5.804  -1.210   2.375  0.00  0.00    -0.089 HD
ATOM     40  H   UNL     1       6.145  -2.586   1.502  0.00  0.00    -0.089 HD
ATOM     41  H   UNL     1       5.177  -2.677   2.854  0.00  0.00    -0.089 HD
ENDBRANCH  33  38
BRANCH  35  42
ATOM     42  O   UNL     1       3.135  -3.942   1.803  0.00  0.00    -0.384 OA
ATOM     43  H   UNL     1       3.836  -4.115   2.451  0.00  0.00    +0.210 HD
ENDBRANCH  35  42
ENDBRANCH  30  32
ENDBRANCH   3  30
TORSDOF 8
