REMARK  Name = 134692643
REMARK  6 active torsions:
REMARK  status: ('A' for Active; 'I' for Inactive)
REMARK    1  A    between atoms: C_4  and  C_13
REMARK    2  A    between atoms: C_7  and  C_10
REMARK    3  A    between atoms: C_8  and  S_17
REMARK    4  A    between atoms: C_10  and  O_11
REMARK    5  A    between atoms: C_13  and  O_15
REMARK    6  A    between atoms: S_17  and  C_20
REMARK                            x       y       z     vdW  Elec       q    Type
REMARK                         _______ _______ _______ _____ _____    ______ ____
ROOT
ATOM      1  S   UNL     1      -0.813   1.923   0.673  0.00  0.00    -0.086 S 
ATOM      2  O   UNL     1      -3.101  -1.965   0.405  0.00  0.00    -0.274 OA
ATOM      3  N   UNL     1      -1.524  -0.383  -0.366  0.00  0.00    -0.244 N 
ATOM      4  C   UNL     1      -3.307   0.576   0.130  0.00  0.00    +0.133 C 
ATOM      5  C   UNL     1      -1.945   1.025  -0.453  0.00  0.00    +0.143 C 
ATOM      6  C   UNL     1      -2.724  -0.863   0.076  0.00  0.00    +0.235 C 
ATOM      7  C   UNL     1      -0.314  -0.576   0.252  0.00  0.00    +0.142 C 
ATOM      8  C   UNL     1       0.228   0.518   0.814  0.00  0.00    +0.072 C 
ENDROOT
BRANCH   7  10
ATOM      9  O   UNL     1       0.923  -2.371   1.199  0.00  0.00    -0.244 OA
ATOM     10  C   UNL     1       0.241  -1.929   0.291  0.00  0.00    +0.353 C 
BRANCH  10  11
ATOM     11  O   UNL     1      -0.118  -2.599  -0.825  0.00  0.00    -0.476 OA
ATOM     12  H   UNL     1      -0.647  -2.179  -1.474  0.00  0.00    +0.295 HD
ENDBRANCH  10  11
ENDBRANCH   7  10
BRANCH   4  13
ATOM     13  C   UNL     1      -4.522   0.814  -0.746  0.00  0.00    +0.122 C 
ATOM     14  C   UNL     1      -5.037   2.238  -0.586  0.00  0.00    +0.032 C 
BRANCH  13  15
ATOM     15  O   UNL     1      -5.560  -0.093  -0.384  0.00  0.00    -0.384 OA
ATOM     16  H   UNL     1      -5.242  -1.004  -0.482  0.00  0.00    +0.210 HD
ENDBRANCH  13  15
ENDBRANCH   4  13
BRANCH   8  17
ATOM     17  S   UNL     1       1.719   0.597   1.673  0.00  0.00    -0.106 S 
BRANCH  17  20
ATOM     18  S   UNL     1       4.764   0.105  -1.396  0.00  0.00    +0.043 S 
ATOM     19  O   UNL     1       5.801  -0.890  -0.965  0.00  0.00    -0.256 OA
ATOM     20  C   UNL     1       2.850   0.971   0.304  0.00  0.00    +0.067 C 
ATOM     21  C   UNL     1       4.166   1.551   0.804  0.00  0.00    +0.026 C 
ATOM     22  C   UNL     1       3.227  -0.286  -0.467  0.00  0.00    +0.103 C 
ATOM     23  C   UNL     1       5.046   1.635  -0.431  0.00  0.00    +0.093 C 
ENDBRANCH  17  20
ENDBRANCH   8  17
TORSDOF 6
