REMARK  Name = 134694028
REMARK  10 active torsions:
REMARK  status: ('A' for Active; 'I' for Inactive)
REMARK    1  A    between atoms: C_1  and  N_3
REMARK    2  A    between atoms: C_1  and  C_15
REMARK    3  A    between atoms: C_1  and  C_22
REMARK    4  A    between atoms: C_4  and  C_7
REMARK    5  A    between atoms: C_8  and  C_10
REMARK    6  A    between atoms: C_10  and  O_11
REMARK    7  A    between atoms: N_14  and  C_17
REMARK    8  A    between atoms: C_17  and  C_18
REMARK    9  A    between atoms: C_18  and  C_19
REMARK   10  A    between atoms: C_22  and  C_23
REMARK                            x       y       z     vdW  Elec       q    Type
REMARK                         _______ _______ _______ _____ _____    ______ ____
ROOT
ATOM      1  C   UNL     1       0.392  -0.701   0.309  0.00  0.00    +0.149 C 
ENDROOT
BRANCH   1   3
ATOM      2  O   UNL     1      -1.384   0.548   2.245  0.00  0.00    -0.272 OA
ATOM      3  N   UNL     1      -1.030  -0.500   0.195  0.00  0.00    -0.296 N 
ATOM      4  C   UNL     1      -1.793   0.109   1.177  0.00  0.00    +0.253 C 
ATOM      5  H   UNL     1      -1.481  -0.812  -0.622  0.00  0.00    +0.150 HD
BRANCH   4   7
ATOM      6  O   UNL     1      -3.747   1.531   1.030  0.00  0.00    -0.333 OA
ATOM      7  C   UNL     1      -3.245   0.213   0.846  0.00  0.00    +0.229 C 
ATOM      8  C   UNL     1      -3.667   1.046  -0.317  0.00  0.00    +0.250 C 
BRANCH   8  10
ATOM      9  O   UNL     1      -5.866   1.645  -0.918  0.00  0.00    -0.247 OA
ATOM     10  C   UNL     1      -4.974   0.810  -0.928  0.00  0.00    +0.344 C 
BRANCH  10  11
ATOM     11  O   UNL     1      -5.065  -0.418  -1.492  0.00  0.00    -0.478 OA
ATOM     12  H   UNL     1      -4.335  -1.004  -1.459  0.00  0.00    +0.295 HD
ENDBRANCH  10  11
ENDBRANCH   8  10
ENDBRANCH   4   7
ENDBRANCH   1   3
BRANCH   1  15
ATOM     13  O   UNL     1       0.615   1.247  -1.117  0.00  0.00    -0.273 OA
ATOM     14  N   UNL     1       2.201   0.885   0.539  0.00  0.00    -0.303 N 
ATOM     15  C   UNL     1       1.066   0.571  -0.195  0.00  0.00    +0.240 C 
ATOM     16  H   UNL     1       2.477   0.272   1.259  0.00  0.00    +0.149 HD
BRANCH  14  17
ATOM     17  C   UNL     1       2.998   2.066   0.300  0.00  0.00    +0.089 C 
BRANCH  17  18
ATOM     18  C   UNL     1       4.114   1.823  -0.714  0.00  0.00    +0.021 C 
BRANCH  18  19
ATOM     19  C   UNL     1       5.113   0.713  -0.330  0.00  0.00    +0.002 C 
ATOM     20  C   UNL     1       5.798   1.070   0.992  0.00  0.00    +0.000 C 
ATOM     21  C   UNL     1       6.170   0.479  -1.411  0.00  0.00    +0.000 C 
ENDBRANCH  18  19
ENDBRANCH  17  18
ENDBRANCH  14  17
ENDBRANCH   1  15
BRANCH   1  22
ATOM     22  C   UNL     1       0.874  -1.913  -0.497  0.00  0.00    +0.029 C 
BRANCH  22  23
ATOM     23  C   UNL     1       0.219  -3.253  -0.103  0.00  0.00    +0.002 C 
ATOM     24  C   UNL     1       0.697  -4.414  -0.977  0.00  0.00    +0.000 C 
ATOM     25  C   UNL     1       0.514  -3.559   1.368  0.00  0.00    +0.000 C 
ENDBRANCH  22  23
ENDBRANCH   1  22
TORSDOF 10
