134692167
  -OEChem-03292013293D

 54 59  0     1  0  0  0  0  0999 V2000
   -0.5964    0.2442    1.4249 O   0  0  0  0  0  0  0  0  0  0  0  0
   -0.3341   -2.9515    0.3760 O   0  0  0  0  0  0  0  0  0  0  0  0
    1.3562    1.6032    1.5793 O   0  0  0  0  0  0  0  0  0  0  0  0
   -2.1059    1.6441   -1.0800 O   0  0  0  0  0  0  0  0  0  0  0  0
   -3.2326   -1.6168   -0.2779 O   0  0  0  0  0  0  0  0  0  0  0  0
   -1.2838   -1.4936   -2.7144 O   0  0  0  0  0  0  0  0  0  0  0  0
    1.9917    1.6919   -1.8710 O   0  0  0  0  0  0  0  0  0  0  0  0
   -1.5617   -2.3929    2.2237 O   0  0  0  0  0  0  0  0  0  0  0  0
    2.2611    3.3552    0.4139 O   0  0  0  0  0  0  0  0  0  0  0  0
   -2.9068    3.0441    0.5473 O   0  0  0  0  0  0  0  0  0  0  0  0
   -0.1181   -0.7974   -0.6579 C   0  0  2  0  0  0  0  0  0  0  0  0
    1.0789    0.0914   -0.2404 C   0  0  2  0  0  0  0  0  0  0  0  0
   -1.0971   -0.7268    0.5137 C   0  0  2  0  0  0  0  0  0  0  0  0
    0.4037   -2.2427   -0.6236 C   0  0  1  0  0  0  0  0  0  0  0  0
    2.3148   -0.7736   -0.5793 C   0  0  2  0  0  0  0  0  0  0  0  0
   -2.5041   -0.4174   -0.0540 C   0  0  1  0  0  0  0  0  0  0  0  0
   -0.9274   -0.3738   -1.9046 C   0  0  2  0  0  0  0  0  0  0  0  0
    0.8230    0.3192    1.2473 C   0  0  2  0  0  0  0  0  0  0  0  0
   -2.2270    0.2573   -1.3874 C   0  0  2  0  0  0  0  0  0  0  0  0
    1.8736   -2.1854   -0.2076 C   0  0  0  0  0  0  0  0  0  0  0  0
    1.1583    1.5283   -0.7507 C   0  0  1  0  0  0  0  0  0  0  0  0
   -1.0357   -2.0886    1.1637 C   0  0  0  0  0  0  0  0  0  0  0  0
    3.6251   -0.3912    0.0979 C   0  0  0  0  0  0  0  0  0  0  0  0
   -3.2915    0.6478    0.7061 C   0  0  1  0  0  0  0  0  0  0  0  0
    1.6749    2.2846    0.4412 C   0  0  0  0  0  0  0  0  0  0  0  0
   -2.7626    1.9208    0.0884 C   0  0  0  0  0  0  0  0  0  0  0  0
    4.0513    1.0209   -0.3439 C   0  0  0  0  0  0  0  0  0  0  0  0
    4.7279   -1.3928   -0.2903 C   0  0  0  0  0  0  0  0  0  0  0  0
    3.4489   -0.4067    1.6274 C   0  0  0  0  0  0  0  0  0  0  0  0
   -4.8044    0.5981    0.5324 C   0  0  0  0  0  0  0  0  0  0  0  0
    0.3083   -2.7747   -1.5739 H   0  0  0  0  0  0  0  0  0  0  0  0
    2.4582   -0.7608   -1.6705 H   0  0  0  0  0  0  0  0  0  0  0  0
   -0.3648    0.3133   -2.5422 H   0  0  0  0  0  0  0  0  0  0  0  0
    1.1871   -0.4369    1.9354 H   0  0  0  0  0  0  0  0  0  0  0  0
   -3.0425    0.1353   -2.1107 H   0  0  0  0  0  0  0  0  0  0  0  0
    2.4400   -2.9368   -0.7704 H   0  0  0  0  0  0  0  0  0  0  0  0
    1.9736   -2.4549    0.8447 H   0  0  0  0  0  0  0  0  0  0  0  0
    0.1844    1.9555   -0.9801 H   0  0  0  0  0  0  0  0  0  0  0  0
   -3.0481    0.6275    1.7734 H   0  0  0  0  0  0  0  0  0  0  0  0
   -3.9979   -1.4194   -0.8431 H   0  0  0  0  0  0  0  0  0  0  0  0
   -1.7709   -1.1552   -3.4850 H   0  0  0  0  0  0  0  0  0  0  0  0
    3.1370    0.5200    2.0977 H   0  0  0  0  0  0  0  0  0  0  0  0
    2.9588   -1.2807    2.0554 H   0  0  0  0  0  0  0  0  0  0  0  0
    4.8322   -1.4617   -1.3791 H   0  0  0  0  0  0  0  0  0  0  0  0
    4.5266   -2.3978    0.0955 H   0  0  0  0  0  0  0  0  0  0  0  0
    3.9781    1.2117   -1.4120 H   0  0  0  0  0  0  0  0  0  0  0  0
    3.8101    1.8335    0.3185 H   0  0  0  0  0  0  0  0  0  0  0  0
    5.1486    1.0531   -0.2222 H   0  0  0  0  0  0  0  0  0  0  0  0
    4.4635   -0.4956    2.0514 H   0  0  0  0  0  0  0  0  0  0  0  0
    5.7026   -1.0945    0.1137 H   0  0  0  0  0  0  0  0  0  0  0  0
   -5.0956    0.6569   -0.5221 H   0  0  0  0  0  0  0  0  0  0  0  0
   -5.2780    1.4428    1.0450 H   0  0  0  0  0  0  0  0  0  0  0  0
   -5.2179   -0.3229    0.9555 H   0  0  0  0  0  0  0  0  0  0  0  0
    1.9572    2.6284   -2.1306 H   0  0  0  0  0  0  0  0  0  0  0  0
  1 13  1  0  0  0  0
  1 18  1  0  0  0  0
  2 14  1  0  0  0  0
  2 22  1  0  0  0  0
  3 18  1  0  0  0  0
  3 25  1  0  0  0  0
  4 19  1  0  0  0  0
  4 26  1  0  0  0  0
  5 16  1  0  0  0  0
  5 40  1  0  0  0  0
  6 17  1  0  0  0  0
  6 41  1  0  0  0  0
  7 21  1  0  0  0  0
  7 54  1  0  0  0  0
  8 22  2  0  0  0  0
  9 25  2  0  0  0  0
 10 26  2  0  0  0  0
 11 12  1  0  0  0  0
 11 13  1  0  0  0  0
 11 14  1  0  0  0  0
 11 17  1  0  0  0  0
 12 15  1  0  0  0  0
 12 18  1  0  0  0  0
 12 21  1  0  0  0  0
 13 16  1  0  0  0  0
 13 22  1  0  0  0  0
 14 20  1  0  0  0  0
 14 31  1  0  0  0  0
 15 20  1  0  0  0  0
 15 23  1  0  0  0  0
 15 32  1  0  0  0  0
 16 19  1  0  0  0  0
 16 24  1  0  0  0  0
 17 19  1  0  0  0  0
 17 33  1  0  0  0  0
 18 34  1  0  0  0  0
 19 35  1  0  0  0  0
 20 36  1  0  0  0  0
 20 37  1  0  0  0  0
 21 25  1  0  0  0  0
 21 38  1  0  0  0  0
 23 27  1  0  0  0  0
 23 28  1  0  0  0  0
 23 29  1  0  0  0  0
 24 26  1  0  0  0  0
 24 30  1  0  0  0  0
 24 39  1  0  0  0  0
 27 46  1  0  0  0  0
 27 47  1  0  0  0  0
 27 48  1  0  0  0  0
 28 44  1  0  0  0  0
 28 45  1  0  0  0  0
 28 50  1  0  0  0  0
 29 42  1  0  0  0  0
 29 43  1  0  0  0  0
 29 49  1  0  0  0  0
 30 51  1  0  0  0  0
 30 52  1  0  0  0  0
 30 53  1  0  0  0  0
M  END
> <PUBCHEM_COMPOUND_CID>
134692167

> <PUBCHEM_CONFORMER_RMSD>
0.8

> <PUBCHEM_CONFORMER_DIVERSEORDER>
1
4
6
3
5
2
7

> <PUBCHEM_MMFF94_PARTIAL_CHARGES>
24
1 -0.56
10 -0.57
13 0.34
14 0.28
16 0.28
17 0.28
18 0.56
19 0.28
2 -0.43
21 0.34
22 0.66
24 0.06
25 0.66
26 0.66
3 -0.43
4 -0.43
40 0.4
41 0.4
5 -0.68
54 0.4
6 -0.68
7 -0.68
8 -0.57
9 -0.57

> <PUBCHEM_EFFECTIVE_ROTOR_COUNT>
2.8

> <PUBCHEM_PHARMACOPHORE_FEATURES>
17
1 1 acceptor
1 10 acceptor
1 5 acceptor
1 5 donor
1 6 acceptor
1 6 donor
1 7 acceptor
1 7 donor
1 8 acceptor
1 9 acceptor
4 23 27 28 29 hydrophobe
5 1 11 12 13 18 rings
5 11 12 14 15 20 rings
5 11 13 16 17 19 rings
5 2 11 13 14 22 rings
5 3 12 18 21 25 rings
5 4 16 19 24 26 rings

> <PUBCHEM_HEAVY_ATOM_COUNT>
30

> <PUBCHEM_ATOM_DEF_STEREO_COUNT>
6

> <PUBCHEM_ATOM_UDEF_STEREO_COUNT>
5

> <PUBCHEM_BOND_DEF_STEREO_COUNT>
0

> <PUBCHEM_BOND_UDEF_STEREO_COUNT>
0

> <PUBCHEM_ISOTOPIC_ATOM_COUNT>
0

> <PUBCHEM_COMPONENT_COUNT>
1

> <PUBCHEM_CACTVS_TAUTO_COUNT>
4

> <PUBCHEM_CONFORMER_ID>
08073D4700000001

> <PUBCHEM_MMFF94_ENERGY>
160.6221

> <PUBCHEM_FEATURE_SELFOVERLAP>
89.414

> <PUBCHEM_SHAPE_FINGERPRINT>
10165383 225 17823147726222551679
10863032 1 18267022743583008431
10948715 1 18340208475110677735
11578080 2 16844431916112627282
12011746 2 18114464474558250407
12035758 1 18408041805825636360
12422481 6 17763163758090758618
12633257 1 18259987063176563883
13132413 78 18200591372167063260
13140716 1 18191028000238017779
14223421 5 18121223344417069480
14713325 29 17830458637224691640
14790565 3 18338807728148210972
14955137 171 18059864921798460798
15209289 33 18408885109695534827
15295992 7 18342182214583829233
1601671 61 18198906907463101424
16945 1 18270668788638959287
18981168 100 17896865750396174228
20600515 1 18188501172894802486
20691752 17 18263065725904797341
20905425 154 17765154968878802957
21033648 29 17273961472253152514
21330990 113 17824271401436815078
23419403 2 16385335444972950839
23493267 7 18187653462172530434
23559900 14 18187648071429203198
238 59 18046873092499358973
25 1 18266176132419479798
296302 2 15697989769420258610
350125 39 18410580604102379129
392239 28 18262819423069109795
70251023 43 18057586849675640463
9981440 41 17265499892827865496

> <PUBCHEM_SHAPE_MULTIPOLES>
558.69
6.57
3.01
1.7
0.69
0.67
-0.32
1.25
0.62
0.07
0.43
-0.3
-0.4
0.05

> <PUBCHEM_SHAPE_SELFOVERLAP>
1283.655

> <PUBCHEM_SHAPE_VOLUME>
288.5

> <PUBCHEM_COORDINATE_TYPE>
2
5
10

$$$$
