REMARK  Name = 134692354
REMARK  0 active torsions:
REMARK  status: ('A' for Active; 'I' for Inactive)
REMARK                            x       y       z     vdW  Elec       q    Type
REMARK                         _______ _______ _______ _____ _____    ______ ____
ROOT
ATOM      1  F   UNL     1       0.141   3.443   0.424  0.00  0.00    -0.200 F 
ATOM      2  O   UNL     1      -4.526   2.225  -0.406  0.00  0.00    -0.355 OA
ATOM      3  O   UNL     1      -3.687  -1.843  -2.146  0.00  0.00    -0.274 OA
ATOM      4  O   UNL     1      -1.963  -0.282   2.005  0.00  0.00    -0.274 OA
ATOM      5  O   UNL     1       2.866   2.650   0.494  0.00  0.00    -0.350 OA
ATOM      6  O   UNL     1      -3.057  -4.683   1.392  0.00  0.00    -0.252 OA
ATOM      7  O   UNL     1       6.530  -1.505   0.156  0.00  0.00    -0.432 OA
ATOM      8  O   UNL     1       6.628   0.770   0.398  0.00  0.00    -0.226 OA
ATOM      9  N   UNL     1      -1.813   1.516  -0.445  0.00  0.00    -0.302 N 
ATOM     10  N   UNL     1      -3.312  -3.250  -0.385  0.00  0.00    -0.239 N 
ATOM     11  N   UNL     1      -2.433  -2.488   1.647  0.00  0.00    -0.239 N 
ATOM     12  N   UNL     1       4.599  -0.352  -0.001  0.00  0.00    -0.205 N 
ATOM     13  N   UNL     1       4.049   1.921   0.473  0.00  0.00    -0.061 NA
ATOM     14  C   UNL     1      -2.839   0.464  -0.673  0.00  0.00    +0.117 C 
ATOM     15  C   UNL     1      -2.353  -0.972  -0.303  0.00  0.00    +0.161 C 
ATOM     16  C   UNL     1      -4.134   0.924   0.064  0.00  0.00    +0.134 C 
ATOM     17  C   UNL     1      -0.942  -1.194  -0.901  0.00  0.00    +0.047 C 
ATOM     18  C   UNL     1      -2.230   2.854  -0.888  0.00  0.00    +0.120 C 
ATOM     19  C   UNL     1      -0.454   1.219  -0.323  0.00  0.00    +0.075 C 
ATOM     20  C   UNL     1       0.020  -0.097  -0.529  0.00  0.00    -0.005 C 
ATOM     21  C   UNL     1      -3.543   3.241  -0.210  0.00  0.00    +0.135 C 
ATOM     22  C   UNL     1      -3.203  -2.028  -1.028  0.00  0.00    +0.239 C 
ATOM     23  C   UNL     1      -2.253  -1.183   1.217  0.00  0.00    +0.239 C 
ATOM     24  C   UNL     1      -5.350   0.032  -0.156  0.00  0.00    +0.034 C 
ATOM     25  C   UNL     1       1.393  -0.432  -0.438  0.00  0.00    +0.003 C 
ATOM     26  C   UNL     1       0.487   2.203   0.057  0.00  0.00    +0.190 C 
ATOM     27  C   UNL     1      -3.372   3.601   1.265  0.00  0.00    +0.034 C 
ATOM     28  C   UNL     1       2.305   0.566  -0.087  0.00  0.00    +0.074 A 
ATOM     29  C   UNL     1       1.829   1.836   0.153  0.00  0.00    +0.207 A 
ATOM     30  C   UNL     1      -2.929  -3.554   0.913  0.00  0.00    +0.312 C 
ATOM     31  C   UNL     1       3.692   0.681   0.125  0.00  0.00    +0.182 A 
ATOM     32  C   UNL     1       4.271  -1.707  -0.369  0.00  0.00    +0.128 C 
ATOM     33  C   UNL     1       5.466  -2.462   0.179  0.00  0.00    +0.230 C 
ATOM     34  C   UNL     1       5.972  -0.246   0.207  0.00  0.00    +0.410 C 
ATOM     35  C   UNL     1       4.142  -1.869  -1.882  0.00  0.00    +0.026 C 
ATOM     36  H   UNL     1      -3.705  -3.986  -0.908  0.00  0.00    +0.159 HD
ATOM     37  H   UNL     1      -2.179  -2.679   2.579  0.00  0.00    +0.159 HD
ENDROOT
TORSDOF 0
