134692354
  -OEChem-03292013293D

 57 62  0     1  0  0  0  0  0999 V2000
    0.1410    3.4432    0.4244 F   0  0  0  0  0  0  0  0  0  0  0  0
   -4.5264    2.2251   -0.4056 O   0  0  0  0  0  0  0  0  0  0  0  0
   -3.6873   -1.8425   -2.1461 O   0  0  0  0  0  0  0  0  0  0  0  0
   -1.9626   -0.2823    2.0045 O   0  0  0  0  0  0  0  0  0  0  0  0
    2.8659    2.6498    0.4944 O   0  0  0  0  0  0  0  0  0  0  0  0
   -3.0570   -4.6825    1.3917 O   0  0  0  0  0  0  0  0  0  0  0  0
    6.5299   -1.5047    0.1564 O   0  0  0  0  0  0  0  0  0  0  0  0
    6.6283    0.7698    0.3975 O   0  0  0  0  0  0  0  0  0  0  0  0
   -1.8125    1.5156   -0.4448 N   0  0  2  0  0  0  0  0  0  0  0  0
   -3.3118   -3.2502   -0.3851 N   0  0  0  0  0  0  0  0  0  0  0  0
   -2.4325   -2.4877    1.6474 N   0  0  0  0  0  0  0  0  0  0  0  0
    4.5990   -0.3519   -0.0013 N   0  0  0  0  0  0  0  0  0  0  0  0
    4.0494    1.9212    0.4734 N   0  0  0  0  0  0  0  0  0  0  0  0
   -2.8392    0.4637   -0.6727 C   0  0  1  0  0  0  0  0  0  0  0  0
   -2.3530   -0.9719   -0.3035 C   0  0  0  0  0  0  0  0  0  0  0  0
   -4.1339    0.9241    0.0636 C   0  0  2  0  0  0  0  0  0  0  0  0
   -0.9418   -1.1940   -0.9011 C   0  0  0  0  0  0  0  0  0  0  0  0
   -2.2300    2.8543   -0.8881 C   0  0  0  0  0  0  0  0  0  0  0  0
   -0.4538    1.2190   -0.3230 C   0  0  0  0  0  0  0  0  0  0  0  0
    0.0203   -0.0974   -0.5287 C   0  0  0  0  0  0  0  0  0  0  0  0
   -3.5426    3.2413   -0.2100 C   0  0  2  0  0  0  0  0  0  0  0  0
   -3.2032   -2.0278   -1.0284 C   0  0  0  0  0  0  0  0  0  0  0  0
   -2.2526   -1.1831    1.2169 C   0  0  0  0  0  0  0  0  0  0  0  0
   -5.3501    0.0316   -0.1559 C   0  0  0  0  0  0  0  0  0  0  0  0
    1.3927   -0.4319   -0.4377 C   0  0  0  0  0  0  0  0  0  0  0  0
    0.4873    2.2033    0.0571 C   0  0  0  0  0  0  0  0  0  0  0  0
   -3.3719    3.6011    1.2649 C   0  0  0  0  0  0  0  0  0  0  0  0
    2.3053    0.5657   -0.0871 C   0  0  0  0  0  0  0  0  0  0  0  0
    1.8294    1.8361    0.1534 C   0  0  0  0  0  0  0  0  0  0  0  0
   -2.9291   -3.5543    0.9129 C   0  0  0  0  0  0  0  0  0  0  0  0
    3.6916    0.6815    0.1250 C   0  0  0  0  0  0  0  0  0  0  0  0
    4.2710   -1.7073   -0.3687 C   0  0  2  0  0  0  0  0  0  0  0  0
    5.4660   -2.4619    0.1789 C   0  0  0  0  0  0  0  0  0  0  0  0
    5.9722   -0.2457    0.2067 C   0  0  0  0  0  0  0  0  0  0  0  0
    4.1419   -1.8694   -1.8816 C   0  0  0  0  0  0  0  0  0  0  0  0
   -3.0496    0.4904   -1.7518 H   0  0  0  0  0  0  0  0  0  0  0  0
   -3.9705    0.9904    1.1437 H   0  0  0  0  0  0  0  0  0  0  0  0
   -0.9844   -1.2372   -1.9984 H   0  0  0  0  0  0  0  0  0  0  0  0
   -0.5449   -2.1615   -0.5641 H   0  0  0  0  0  0  0  0  0  0  0  0
   -2.3940    2.8009   -1.9730 H   0  0  0  0  0  0  0  0  0  0  0  0
   -1.5074    3.6560   -0.7424 H   0  0  0  0  0  0  0  0  0  0  0  0
   -3.9319    4.1338   -0.7144 H   0  0  0  0  0  0  0  0  0  0  0  0
   -5.5613   -0.0916   -1.2232 H   0  0  0  0  0  0  0  0  0  0  0  0
   -6.2422    0.4945    0.2820 H   0  0  0  0  0  0  0  0  0  0  0  0
   -5.2289   -0.9503    0.3071 H   0  0  0  0  0  0  0  0  0  0  0  0
    1.6733   -1.4557   -0.6463 H   0  0  0  0  0  0  0  0  0  0  0  0
   -2.8996    2.7966    1.8368 H   0  0  0  0  0  0  0  0  0  0  0  0
   -4.3465    3.7931    1.7259 H   0  0  0  0  0  0  0  0  0  0  0  0
   -2.7500    4.4953    1.3751 H   0  0  0  0  0  0  0  0  0  0  0  0
   -2.2470   -2.6677    2.6302 H   0  0  0  0  0  0  0  0  0  0  0  0
   -3.7703   -3.9938   -0.9043 H   0  0  0  0  0  0  0  0  0  0  0  0
    3.3902   -2.0784    0.1580 H   0  0  0  0  0  0  0  0  0  0  0  0
    5.3169   -2.7727    1.2193 H   0  0  0  0  0  0  0  0  0  0  0  0
    5.7379   -3.3395   -0.4150 H   0  0  0  0  0  0  0  0  0  0  0  0
    5.0777   -1.6117   -2.3913 H   0  0  0  0  0  0  0  0  0  0  0  0
    3.8990   -2.9067   -2.1349 H   0  0  0  0  0  0  0  0  0  0  0  0
    3.3645   -1.2270   -2.3039 H   0  0  0  0  0  0  0  0  0  0  0  0
  1 26  1  0  0  0  0
  2 16  1  0  0  0  0
  2 21  1  0  0  0  0
  3 22  2  0  0  0  0
  4 23  2  0  0  0  0
  5 13  1  0  0  0  0
  5 29  1  0  0  0  0
  6 30  2  0  0  0  0
  7 33  1  0  0  0  0
  7 34  1  0  0  0  0
  8 34  2  0  0  0  0
  9 14  1  0  0  0  0
  9 18  1  0  0  0  0
  9 19  1  0  0  0  0
 10 22  1  0  0  0  0
 10 30  1  0  0  0  0
 10 51  1  0  0  0  0
 11 23  1  0  0  0  0
 11 30  1  0  0  0  0
 11 50  1  0  0  0  0
 12 31  1  0  0  0  0
 12 32  1  0  0  0  0
 12 34  1  0  0  0  0
 13 31  2  0  0  0  0
 14 15  1  0  0  0  0
 14 16  1  0  0  0  0
 14 36  1  0  0  0  0
 15 17  1  0  0  0  0
 15 22  1  0  0  0  0
 15 23  1  0  0  0  0
 16 24  1  0  0  0  0
 16 37  1  0  0  0  0
 17 20  1  0  0  0  0
 17 38  1  0  0  0  0
 17 39  1  0  0  0  0
 18 21  1  0  0  0  0
 18 40  1  0  0  0  0
 18 41  1  0  0  0  0
 19 20  1  0  0  0  0
 19 26  2  0  0  0  0
 20 25  2  0  0  0  0
 21 27  1  0  0  0  0
 21 42  1  0  0  0  0
 24 43  1  0  0  0  0
 24 44  1  0  0  0  0
 24 45  1  0  0  0  0
 25 28  1  0  0  0  0
 25 46  1  0  0  0  0
 26 29  1  0  0  0  0
 27 47  1  0  0  0  0
 27 48  1  0  0  0  0
 27 49  1  0  0  0  0
 28 29  2  0  0  0  0
 28 31  1  0  0  0  0
 32 33  1  0  0  0  0
 32 35  1  0  0  0  0
 32 52  1  0  0  0  0
 33 53  1  0  0  0  0
 33 54  1  0  0  0  0
 35 55  1  0  0  0  0
 35 56  1  0  0  0  0
 35 57  1  0  0  0  0
M  END
> <PUBCHEM_COMPOUND_CID>
134692354

> <PUBCHEM_CONFORMER_RMSD>
0.8

> <PUBCHEM_CONFORMER_DIVERSEORDER>
1
8
13
12
4
2
6
7
10
11
5
9
3

> <PUBCHEM_MMFF94_PARTIAL_CHARGES>
34
1 -0.19
10 -0.49
11 -0.49
12 -0.42
13 -0.41
14 0.37
15 0.12
16 0.28
17 0.14
18 0.37
19 0.1
2 -0.56
20 -0.14
21 0.28
22 0.57
23 0.57
25 -0.15
26 0.19
29 0.14
3 -0.57
30 0.69
31 0.35
32 0.3
33 0.28
34 0.78
4 -0.57
46 0.15
5 -0.02
50 0.37
51 0.37
6 -0.57
7 -0.43
8 -0.57
9 -0.84

> <PUBCHEM_EFFECTIVE_ROTOR_COUNT>
3.2

> <PUBCHEM_PHARMACOPHORE_FEATURES>
14
1 10 donor
1 11 donor
1 2 acceptor
1 3 acceptor
1 4 acceptor
1 6 acceptor
1 8 acceptor
1 9 cation
5 5 13 28 29 31 rings
5 7 12 32 33 34 rings
6 10 11 15 22 23 30 rings
6 19 20 25 26 28 29 rings
6 2 9 14 16 18 21 rings
6 9 14 15 17 19 20 rings

> <PUBCHEM_HEAVY_ATOM_COUNT>
35

> <PUBCHEM_ATOM_DEF_STEREO_COUNT>
2

> <PUBCHEM_ATOM_UDEF_STEREO_COUNT>
2

> <PUBCHEM_BOND_DEF_STEREO_COUNT>
0

> <PUBCHEM_BOND_UDEF_STEREO_COUNT>
0

> <PUBCHEM_ISOTOPIC_ATOM_COUNT>
0

> <PUBCHEM_COMPONENT_COUNT>
1

> <PUBCHEM_CACTVS_TAUTO_COUNT>
10

> <PUBCHEM_CONFORMER_ID>
08073E0200000001

> <PUBCHEM_MMFF94_ENERGY>
114.4873

> <PUBCHEM_FEATURE_SELFOVERLAP>
71.234

> <PUBCHEM_SHAPE_FINGERPRINT>
10254770 206 17541083283011891826
10675989 125 15748082767779657334
10906281 52 17986685766024224236
1100329 8 16539050936979683124
11135609 12 18188496894326595233
11227688 84 17619344750480015830
11405975 8 18411138035065081624
11578080 2 17130125715119144857
12422481 6 18199491985705243099
12549972 3 18059558213984008016
12788726 201 18195238915382660040
131258 38 15945465841103965227
13140716 1 18412268358344958484
13402501 40 18269835328992423316
13583140 156 17632288029953249360
14659021 117 18335971038922849832
14790565 3 17834958568338080873
14866123 147 18409166589342032155
15042514 8 18335706096050532859
15361156 5 18411706516946878294
15927050 60 18264765463934859659
17492 89 18193555786107584346
18393751 57 16760825241084731425
19301679 30 18119538884219909627
19315092 285 16627137709791340047
19319366 153 17314796191843196586
19958102 18 18189610549350281564
21033648 29 17416946388588530960
21133410 171 17400301001983944266
21133410 52 16325684774724015118
21133410 58 17617653706367165215
21279426 13 18123750851082510196
21703447 108 18124861602544513954
21781051 124 17823158803787324353
23559900 14 18337663217588613216
335352 9 18340764849707007517
3383291 50 18408604743290379091
4015057 19 18200578276764551989
404807 14 15834545548730890255
4073 2 18335419084961048792
44062 13 18410857650820218542
4408954 64 16158545555475302777
460360 51 18341911687800509204
4616759 239 18130211680782212912
508706 21 18409444791295317126
5104073 3 18342453790030207376
5309563 4 17833554874373472967
563151 74 17059472154606944416
59755656 520 18262791870648502061
70251023 43 18124023796385961467
9709674 26 18410290358412163973

> <PUBCHEM_SHAPE_MULTIPOLES>
647.02
12.8
4.71
1.28
19.1
1.29
0
2.68
-0.16
-5.22
-1.26
-0.9
0.79
1

> <PUBCHEM_SHAPE_SELFOVERLAP>
1445.449

> <PUBCHEM_SHAPE_VOLUME>
340.8

> <PUBCHEM_COORDINATE_TYPE>
2
5
10

$$$$
