REMARK  Name = 134632
REMARK  9 active torsions:
REMARK  status: ('A' for Active; 'I' for Inactive)
REMARK    1  A    between atoms: C_3  and  C_29
REMARK    2  A    between atoms: C_4  and  C_32
REMARK    3  A    between atoms: C_5  and  C_14
REMARK    4  A    between atoms: C_6  and  O_26
REMARK    5  A    between atoms: C_17  and  O_20
REMARK    6  A    between atoms: C_18  and  O_22
REMARK    7  A    between atoms: C_19  and  O_24
REMARK    8  A    between atoms: C_29  and  O_30
REMARK    9  A    between atoms: C_32  and  O_33
REMARK                            x       y       z     vdW  Elec       q    Type
REMARK                         _______ _______ _______ _____ _____    ______ ____
ROOT
ATOM      1  O   UNL     1      -3.603   3.086  -1.420  0.00  0.00    -0.435 OA
ATOM      2  O   UNL     1      -5.072   2.093   0.210  0.00  0.00    -0.435 OA
ATOM      3  C   UNL     1      -0.369  -2.152  -0.895  0.00  0.00    +0.112 C 
ATOM      4  C   UNL     1      -0.790  -2.480   0.547  0.00  0.00    +0.072 C 
ATOM      5  C   UNL     1      -0.324  -0.626  -1.163  0.00  0.00    +0.055 C 
ATOM      6  C   UNL     1      -2.178  -1.875   0.859  0.00  0.00    +0.135 C 
ATOM      7  C   UNL     1      -1.624   0.047  -0.749  0.00  0.00    -0.016 C 
ATOM      8  C   UNL     1      -2.478  -0.533   0.224  0.00  0.00    +0.004 C 
ATOM      9  C   UNL     1      -1.960   1.283  -1.337  0.00  0.00    +0.036 C 
ATOM     10  C   UNL     1      -3.674   0.126   0.575  0.00  0.00    +0.038 C 
ATOM     11  C   UNL     1      -3.132   1.898  -0.953  0.00  0.00    +0.176 C 
ATOM     12  C   UNL     1      -3.967   1.333  -0.023  0.00  0.00    +0.176 C 
ATOM     13  C   UNL     1      -4.833   3.205  -0.677  0.00  0.00    +0.429 C 
ENDROOT
BRANCH   5  14
ATOM     14  C   UNL     1       0.906   0.088  -0.602  0.00  0.00    -0.012 C 
ATOM     15  C   UNL     1       0.840   0.686   0.650  0.00  0.00    +0.036 C 
ATOM     16  C   UNL     1       2.075   0.129  -1.351  0.00  0.00    +0.036 C 
ATOM     17  C   UNL     1       3.198   0.779  -0.839  0.00  0.00    +0.175 C 
ATOM     18  C   UNL     1       1.963   1.337   1.162  0.00  0.00    +0.175 C 
ATOM     19  C   UNL     1       3.142   1.383   0.418  0.00  0.00    +0.206 C 
BRANCH  17  20
ATOM     20  O   UNL     1       4.344   0.816  -1.575  0.00  0.00    -0.468 OA
ATOM     21  C   UNL     1       5.270  -0.253  -1.386  0.00  0.00    +0.253 C 
ENDBRANCH  17  20
BRANCH  18  22
ATOM     22  O   UNL     1       1.895   1.924   2.389  0.00  0.00    -0.468 OA
ATOM     23  C   UNL     1       2.246   1.119   3.513  0.00  0.00    +0.253 C 
ENDBRANCH  18  22
BRANCH  19  24
ATOM     24  O   UNL     1       4.240   2.018   0.918  0.00  0.00    -0.465 OA
ATOM     25  C   UNL     1       4.378   3.405   0.618  0.00  0.00    +0.253 C 
ENDBRANCH  19  24
ENDBRANCH   5  14
BRANCH   6  26
ATOM     26  O   UNL     1      -2.304  -1.738   2.277  0.00  0.00    -0.380 OA
ATOM     27  H   UNL     1      -2.115  -2.589   2.702  0.00  0.00    +0.211 HD
ENDBRANCH   6  26
BRANCH   3  29
ATOM     28  O   UNL     1       1.870  -2.981  -0.489  0.00  0.00    -0.250 OA
ATOM     29  C   UNL     1       0.944  -2.786  -1.262  0.00  0.00    +0.314 C 
BRANCH  29  30
ATOM     30  O   UNL     1       0.967  -3.113  -2.578  0.00  0.00    -0.480 OA
ATOM     31  H   UNL     1       0.222  -2.936  -3.117  0.00  0.00    +0.295 HD
ENDBRANCH  29  30
ENDBRANCH   3  29
BRANCH   4  32
ATOM     32  C   UNL     1      -0.825  -4.000   0.791  0.00  0.00    +0.140 C 
BRANCH  32  33
ATOM     33  O   UNL     1      -1.145  -4.219   2.148  0.00  0.00    -0.382 OA
ATOM     34  H   UNL     1      -1.173  -5.172   2.324  0.00  0.00    +0.210 HD
ENDBRANCH  32  33
ENDBRANCH   4  32
TORSDOF 9
