REMARK  Name = 134687862
REMARK  9 active torsions:
REMARK  status: ('A' for Active; 'I' for Inactive)
REMARK    1  A    between atoms: C_7  and  C_20
REMARK    2  A    between atoms: C_19  and  O_24
REMARK    3  A    between atoms: C_20  and  O_22
REMARK    4  A    between atoms: O_24  and  C_26
REMARK    5  A    between atoms: C_27  and  O_31
REMARK    6  A    between atoms: C_28  and  O_33
REMARK    7  A    between atoms: C_29  and  C_38
REMARK    8  A    between atoms: C_30  and  O_35
REMARK    9  A    between atoms: C_38  and  O_39
REMARK                            x       y       z     vdW  Elec       q    Type
REMARK                         _______ _______ _______ _____ _____    ______ ____
ROOT
ATOM      1  C   UNL     1       3.139  -1.257  -0.366  0.00  0.00    +0.000 C 
ATOM      2  C   UNL     1       4.067  -0.309  -1.179  0.00  0.00    +0.000 C 
ATOM      3  C   UNL     1       2.211  -0.461   0.586  0.00  0.00    +0.000 C 
ATOM      4  C   UNL     1       4.654   0.892  -0.371  0.00  0.00    +0.002 C 
ATOM      5  C   UNL     1       1.140  -1.360   1.312  0.00  0.00    +0.000 C 
ATOM      6  C   UNL     1       0.345  -2.193   0.255  0.00  0.00    +0.002 C 
ATOM      7  C   UNL     1       6.147   0.936  -0.807  0.00  0.00    +0.027 C 
ATOM      8  C   UNL     1       3.023   0.426   1.557  0.00  0.00    +0.000 C 
ATOM      9  C   UNL     1       4.475   0.660   1.141  0.00  0.00    +0.000 C 
ATOM     10  C   UNL     1       2.335  -2.142  -1.340  0.00  0.00    +0.000 C 
ATOM     11  C   UNL     1       5.282  -1.066  -1.761  0.00  0.00    +0.000 C 
ATOM     12  C   UNL     1       1.283  -3.002  -0.652  0.00  0.00    +0.000 C 
ATOM     13  C   UNL     1       6.500  -0.530  -1.029  0.00  0.00    +0.002 C 
ATOM     14  C   UNL     1       0.135  -0.504   2.138  0.00  0.00    +0.002 C 
ATOM     15  C   UNL     1      -0.617  -1.330  -0.585  0.00  0.00    +0.030 C 
ATOM     16  C   UNL     1       3.972   2.214  -0.775  0.00  0.00    +0.000 C 
ATOM     17  C   UNL     1       1.812  -2.341   2.312  0.00  0.00    +0.000 C 
ATOM     18  C   UNL     1      -0.802   0.346   1.288  0.00  0.00    +0.030 C 
ATOM     19  C   UNL     1      -1.565  -0.512   0.287  0.00  0.00    +0.118 C 
ENDROOT
BRANCH   7  20
ATOM     20  C   UNL     1       7.115   1.629   0.142  0.00  0.00    +0.111 C 
ATOM     21  C   UNL     1       8.418   1.998  -0.549  0.00  0.00    +0.032 C 
BRANCH  20  22
ATOM     22  O   UNL     1       7.395   0.763   1.238  0.00  0.00    -0.384 OA
ATOM     23  H   UNL     1       6.565   0.526   1.682  0.00  0.00    +0.210 HD
ENDBRANCH  20  22
ENDBRANCH   7  20
BRANCH  19  24
ATOM     24  O   UNL     1      -2.373   0.322  -0.537  0.00  0.00    -0.331 OA
BRANCH  24  26
ATOM     25  O   UNL     1      -4.561  -0.477  -0.401  0.00  0.00    -0.317 OA
ATOM     26  C   UNL     1      -3.660   0.536   0.040  0.00  0.00    +0.266 C 
ATOM     27  C   UNL     1      -4.153   1.914  -0.402  0.00  0.00    +0.196 C 
ATOM     28  C   UNL     1      -5.587   2.166   0.064  0.00  0.00    +0.172 C 
ATOM     29  C   UNL     1      -5.860  -0.329   0.161  0.00  0.00    +0.245 C 
ATOM     30  C   UNL     1      -6.498   0.985  -0.272  0.00  0.00    +0.178 C 
BRANCH  27  31
ATOM     31  O   UNL     1      -3.291   2.901   0.165  0.00  0.00    -0.378 OA
ATOM     32  H   UNL     1      -2.380   2.742  -0.130  0.00  0.00    +0.211 HD
ENDBRANCH  27  31
BRANCH  28  33
ATOM     33  O   UNL     1      -6.105   3.324  -0.592  0.00  0.00    -0.379 OA
ATOM     34  H   UNL     1      -5.542   4.088  -0.392  0.00  0.00    +0.211 HD
ENDBRANCH  28  33
BRANCH  30  35
ATOM     35  O   UNL     1      -7.737   1.141   0.417  0.00  0.00    -0.379 OA
ATOM     36  H   UNL     1      -8.153   1.976   0.150  0.00  0.00    +0.211 HD
ENDBRANCH  30  35
BRANCH  29  38
ATOM     37  O   UNL     1      -6.157  -2.308  -1.189  0.00  0.00    -0.247 OA
ATOM     38  C   UNL     1      -6.610  -1.496  -0.395  0.00  0.00    +0.344 C 
BRANCH  38  39
ATOM     39  O   UNL     1      -7.871  -1.535   0.100  0.00  0.00    -0.478 OA
ATOM     40  H   UNL     1      -8.156  -0.880   0.707  0.00  0.00    +0.295 HD
ENDBRANCH  38  39
ENDBRANCH  29  38
ENDBRANCH  24  26
ENDBRANCH  19  24
TORSDOF 9
