REMARK  Name = 134692352
REMARK  10 active torsions:
REMARK  status: ('A' for Active; 'I' for Inactive)
REMARK    1  A    between atoms: N_2  and  C_5
REMARK    2  A    between atoms: C_3  and  C_20
REMARK    3  A    between atoms: C_5  and  C_6
REMARK    4  A    between atoms: C_5  and  C_10
REMARK    5  A    between atoms: C_10  and  C_14
REMARK    6  A    between atoms: C_20  and  C_21
REMARK    7  A    between atoms: C_21  and  C_22
REMARK    8  A    between atoms: C_21  and  N_29
REMARK    9  A    between atoms: C_30  and  C_32
REMARK   10  A    between atoms: C_33  and  C_34
REMARK                            x       y       z     vdW  Elec       q    Type
REMARK                         _______ _______ _______ _____ _____    ______ ____
ROOT
ATOM      1  O   UNL     1      -1.002  -2.184  -1.441  0.00  0.00    -0.275 OA
ATOM      2  N   UNL     1      -0.231  -1.916   0.733  0.00  0.00    -0.300 N 
ATOM      3  C   UNL     1      -1.186  -1.848  -0.275  0.00  0.00    +0.225 C 
ATOM      4  H   UNL     1      -0.481  -1.620   1.639  0.00  0.00    +0.150 HD
ENDROOT
BRANCH   2   5
ATOM      5  C   UNL     1       1.108  -2.399   0.514  0.00  0.00    +0.130 C 
BRANCH   5   6
ATOM      6  C   UNL     1       1.476  -3.617   1.381  0.00  0.00    +0.025 C 
ATOM      7  C   UNL     1       0.540  -4.796   1.094  0.00  0.00    +0.002 C 
ATOM      8  C   UNL     1       1.482  -3.316   2.883  0.00  0.00    +0.002 C 
ENDBRANCH   5   6
BRANCH   5  10
ATOM      9  O   UNL     1       1.900  -0.395   1.618  0.00  0.00    -0.294 OA
ATOM     10  C   UNL     1       2.063  -1.230   0.728  0.00  0.00    +0.177 C 
BRANCH  10  14
ATOM     11  O   UNL     1       4.627   0.272   1.218  0.00  0.00    -0.274 OA
ATOM     12  O   UNL     1       3.592   0.685  -3.241  0.00  0.00    -0.275 OA
ATOM     13  N   UNL     1       4.295   0.736  -1.031  0.00  0.00    -0.255 N 
ATOM     14  C   UNL     1       3.265  -1.164  -0.180  0.00  0.00    +0.144 C 
ATOM     15  C   UNL     1       2.834  -0.979  -1.639  0.00  0.00    +0.093 C 
ATOM     16  C   UNL     1       4.143   0.015   0.125  0.00  0.00    +0.235 C 
ATOM     17  C   UNL     1       3.603   0.236  -2.104  0.00  0.00    +0.229 C 
ATOM     18  C   UNL     1       3.172  -2.189  -2.499  0.00  0.00    +0.011 C 
ATOM     19  H   UNL     1       4.855   1.544  -1.087  0.00  0.00    +0.158 HD
ENDBRANCH  10  14
ENDBRANCH   5  10
ENDBRANCH   2   5
BRANCH   3  20
ATOM     20  C   UNL     1      -2.514  -1.312   0.245  0.00  0.00    +0.109 C 
BRANCH  20  21
ATOM     21  C   UNL     1      -2.951  -0.003  -0.430  0.00  0.00    +0.103 C 
BRANCH  21  22
ATOM     22  C   UNL     1      -4.440   0.235  -0.274  0.00  0.00    -0.004 C 
ATOM     23  C   UNL     1      -5.110  -0.250   0.849  0.00  0.00    -0.003 C 
ATOM     24  C   UNL     1      -5.140   0.939  -1.254  0.00  0.00    -0.003 C 
ATOM     25  C   UNL     1      -6.480  -0.031   0.993  0.00  0.00    -0.000 C 
ATOM     26  C   UNL     1      -6.510   1.158  -1.110  0.00  0.00    -0.000 C 
ATOM     27  C   UNL     1      -7.180   0.673   0.013  0.00  0.00    -0.000 C 
ENDBRANCH  21  22
BRANCH  21  29
ATOM     28  O   UNL     1      -0.376   0.952  -1.349  0.00  0.00    -0.270 OA
ATOM     29  N   UNL     1      -2.203   1.126   0.078  0.00  0.00    -0.298 N 
ATOM     30  C   UNL     1      -0.973   1.505  -0.431  0.00  0.00    +0.246 C 
ATOM     31  H   UNL     1      -2.586   1.649   0.819  0.00  0.00    +0.150 HD
BRANCH  30  32
ATOM     32  C   UNL     1      -0.427   2.698   0.275  0.00  0.00    +0.058 C 
ATOM     33  C   UNL     1       0.898   2.866   0.389  0.00  0.00    +0.004 C 
BRANCH  33  34
ATOM     34  C   UNL     1       1.486   4.002   1.064  0.00  0.00    -0.004 C 
ATOM     35  C   UNL     1       2.810   4.180   1.183  0.00  0.00    -0.026 C 
ATOM     36  C   UNL     1       3.429   5.348   1.878  0.00  0.00    +0.031 C 
ENDBRANCH  33  34
ENDBRANCH  30  32
ENDBRANCH  21  29
ENDBRANCH  20  21
ENDBRANCH   3  20
TORSDOF 10
