REMARK  Name = 134694721
REMARK  4 active torsions:
REMARK  status: ('A' for Active; 'I' for Inactive)
REMARK    1  A    between atoms: C_7  and  O_23
REMARK    2  A    between atoms: C_8  and  O_25
REMARK    3  A    between atoms: C_9  and  O_27
REMARK    4  A    between atoms: C_11  and  O_29
REMARK                            x       y       z     vdW  Elec       q    Type
REMARK                         _______ _______ _______ _____ _____    ______ ____
ROOT
ATOM      1  O   UNL     1      -0.253  -0.469  -2.054  0.00  0.00    -0.332 OA
ATOM      2  O   UNL     1       1.708  -1.971   1.618  0.00  0.00    -0.291 OA
ATOM      3  C   UNL     1      -0.969   0.824  -0.063  0.00  0.00    +0.055 C 
ATOM      4  C   UNL     1       1.300  -0.373  -0.216  0.00  0.00    +0.129 C 
ATOM      5  C   UNL     1       0.546   0.839   0.420  0.00  0.00    +0.019 C 
ATOM      6  C   UNL     1      -1.603  -0.508   0.526  0.00  0.00    +0.036 C 
ATOM      7  C   UNL     1       0.301  -1.256  -0.981  0.00  0.00    +0.217 C 
ATOM      8  C   UNL     1      -0.879  -1.729  -0.109  0.00  0.00    +0.162 C 
ATOM      9  C   UNL     1       2.537   0.051  -1.067  0.00  0.00    +0.126 C 
ATOM     10  C   UNL     1      -3.172  -0.562   0.667  0.00  0.00    +0.003 C 
ATOM     11  C   UNL     1      -1.706   2.093   0.438  0.00  0.00    +0.113 C 
ATOM     12  C   UNL     1      -0.927   0.715  -1.604  0.00  0.00    +0.147 C 
ATOM     13  C   UNL     1       1.317   2.168   0.253  0.00  0.00    +0.001 C 
ATOM     14  C   UNL     1       3.438   0.711  -0.016  0.00  0.00    +0.053 C 
ATOM     15  C   UNL     1       2.078  -1.046   0.915  0.00  0.00    +0.175 C 
ATOM     16  C   UNL     1       2.837   2.042   0.470  0.00  0.00    +0.007 C 
ATOM     17  C   UNL     1      -3.667   0.776   1.267  0.00  0.00    +0.003 C 
ATOM     18  C   UNL     1      -3.224   1.974   0.446  0.00  0.00    +0.029 C 
ATOM     19  C   UNL     1       3.389  -0.341   1.063  0.00  0.00    +0.015 C 
ATOM     20  C   UNL     1      -3.558  -1.675   1.673  0.00  0.00    +0.000 C 
ATOM     21  C   UNL     1      -3.971  -0.825  -0.629  0.00  0.00    +0.000 C 
ATOM     22  C   UNL     1       4.320  -0.676   1.956  0.00  0.00    -0.002 C 
ENDROOT
BRANCH   7  23
ATOM     23  O   UNL     1       0.993  -2.384  -1.518  0.00  0.00    -0.361 OA
ATOM     24  H   UNL     1       1.733  -2.078  -2.065  0.00  0.00    +0.213 HD
ENDBRANCH   7  23
BRANCH   8  25
ATOM     25  O   UNL     1      -1.710  -2.517  -0.953  0.00  0.00    -0.380 OA
ATOM     26  H   UNL     1      -2.472  -2.840  -0.447  0.00  0.00    +0.211 HD
ENDBRANCH   8  25
BRANCH   9  27
ATOM     27  O   UNL     1       2.237   0.911  -2.148  0.00  0.00    -0.384 OA
ATOM     28  H   UNL     1       1.667   0.447  -2.781  0.00  0.00    +0.210 HD
ENDBRANCH   9  27
BRANCH  11  29
ATOM     29  O   UNL     1      -1.364   3.229  -0.355  0.00  0.00    -0.384 OA
ATOM     30  H   UNL     1      -0.399   3.328  -0.378  0.00  0.00    +0.210 HD
ENDBRANCH  11  29
TORSDOF 4
