134694950
  -OEChem-03292013293D

 32 33  0     1  0  0  0  0  0999 V2000
    1.8571    0.5606    0.9655 O   0  0  0  0  0  0  0  0  0  0  0  0
    1.2497   -2.3435   -1.0783 O   0  0  0  0  0  0  0  0  0  0  0  0
    3.5011   -1.9314    0.4495 O   0  0  0  0  0  0  0  0  0  0  0  0
    3.3696    2.8021    0.2312 O   0  0  0  0  0  0  0  0  0  0  0  0
   -4.4962   -0.9737    0.2431 O   0  0  0  0  0  0  0  0  0  0  0  0
   -0.4141    0.0833    0.2098 N   0  0  0  0  0  0  0  0  0  0  0  0
   -1.9909    1.5491   -0.3347 N   0  0  0  0  0  0  0  0  0  0  0  0
   -1.6611   -1.8790    0.6981 N   0  0  0  0  0  0  0  0  0  0  0  0
   -4.8026    1.1959   -0.4332 N   0  0  0  0  0  0  0  0  0  0  0  0
    1.6369   -1.0157   -0.7861 C   0  0  1  0  0  0  0  0  0  0  0  0
    0.9699   -0.4629    0.4692 C   0  0  1  0  0  0  0  0  0  0  0  0
    3.1076   -0.8894   -0.4423 C   0  0  1  0  0  0  0  0  0  0  0  0
    3.1459    0.4258    0.3256 C   0  0  1  0  0  0  0  0  0  0  0  0
    3.3607    1.6358   -0.5731 C   0  0  0  0  0  0  0  0  0  0  0  0
   -1.6008   -0.5850    0.3215 C   0  0  0  0  0  0  0  0  0  0  0  0
   -0.6985    1.3604   -0.1866 C   0  0  0  0  0  0  0  0  0  0  0  0
   -2.5592    0.3402   -0.0196 C   0  0  0  0  0  0  0  0  0  0  0  0
   -3.9751    0.1274   -0.0596 C   0  0  0  0  0  0  0  0  0  0  0  0
    1.3986   -0.3894   -1.6545 H   0  0  0  0  0  0  0  0  0  0  0  0
    0.8571   -1.2139    1.2585 H   0  0  0  0  0  0  0  0  0  0  0  0
    3.7634   -0.9299   -1.3167 H   0  0  0  0  0  0  0  0  0  0  0  0
    3.8940    0.4216    1.1265 H   0  0  0  0  0  0  0  0  0  0  0  0
    2.5528    1.7435   -1.3035 H   0  0  0  0  0  0  0  0  0  0  0  0
    4.3171    1.5653   -1.1004 H   0  0  0  0  0  0  0  0  0  0  0  0
    1.7989   -2.6506   -1.8196 H   0  0  0  0  0  0  0  0  0  0  0  0
    4.4378   -1.7883    0.6686 H   0  0  0  0  0  0  0  0  0  0  0  0
    0.0664    2.1059   -0.3549 H   0  0  0  0  0  0  0  0  0  0  0  0
    3.5108    3.5590   -0.3627 H   0  0  0  0  0  0  0  0  0  0  0  0
   -2.5475   -2.3671    0.7825 H   0  0  0  0  0  0  0  0  0  0  0  0
   -0.8402   -2.4412    0.8963 H   0  0  0  0  0  0  0  0  0  0  0  0
   -4.4265    2.1060   -0.6792 H   0  0  0  0  0  0  0  0  0  0  0  0
   -5.8107    1.0872   -0.4680 H   0  0  0  0  0  0  0  0  0  0  0  0
  1 11  1  0  0  0  0
  1 13  1  0  0  0  0
  2 10  1  0  0  0  0
  2 25  1  0  0  0  0
  3 12  1  0  0  0  0
  3 26  1  0  0  0  0
  4 14  1  0  0  0  0
  4 28  1  0  0  0  0
  5 18  2  0  0  0  0
  6 11  1  0  0  0  0
  6 15  1  0  0  0  0
  6 16  1  0  0  0  0
  7 16  2  0  0  0  0
  7 17  1  0  0  0  0
  8 15  1  0  0  0  0
  8 29  1  0  0  0  0
  8 30  1  0  0  0  0
  9 18  1  0  0  0  0
  9 31  1  0  0  0  0
  9 32  1  0  0  0  0
 10 11  1  0  0  0  0
 10 12  1  0  0  0  0
 10 19  1  0  0  0  0
 11 20  1  0  0  0  0
 12 13  1  0  0  0  0
 12 21  1  0  0  0  0
 13 14  1  0  0  0  0
 13 22  1  0  0  0  0
 14 23  1  0  0  0  0
 14 24  1  0  0  0  0
 15 17  2  0  0  0  0
 16 27  1  0  0  0  0
 17 18  1  0  0  0  0
M  END
> <PUBCHEM_COMPOUND_CID>
134694950

> <PUBCHEM_CONFORMER_RMSD>
0.6

> <PUBCHEM_CONFORMER_DIVERSEORDER>
1
55
57
9
64
22
43
66
65
49
27
21
60
12
54
47
59
63
56
58
26
18
46
50
23
42
45
6
7
29
16
70
17
33
52
5
40
69
61
37
38
62
24
11
53
10
44
8
20
2
67
3
34
19
13
36
28
32
48
68
51
14
4
35
39
25
41
15
31
30

> <PUBCHEM_MMFF94_PARTIAL_CHARGES>
26
1 -0.56
10 0.28
11 0.54
12 0.28
13 0.28
14 0.28
15 -0.07
16 0.04
17 0.14
18 0.72
2 -0.68
25 0.4
26 0.4
27 0.15
28 0.4
29 0.4
3 -0.68
30 0.4
31 0.37
32 0.37
4 -0.68
5 -0.57
6 0.05
7 -0.57
8 -0.88
9 -0.8

> <PUBCHEM_EFFECTIVE_ROTOR_COUNT>
4

> <PUBCHEM_PHARMACOPHORE_FEATURES>
14
1 1 acceptor
1 2 acceptor
1 2 donor
1 3 acceptor
1 3 donor
1 4 acceptor
1 4 donor
1 5 acceptor
1 8 cation
1 8 donor
1 9 donor
3 6 7 16 cation
5 1 10 11 12 13 rings
5 6 7 15 16 17 rings

> <PUBCHEM_HEAVY_ATOM_COUNT>
18

> <PUBCHEM_ATOM_DEF_STEREO_COUNT>
3

> <PUBCHEM_ATOM_UDEF_STEREO_COUNT>
1

> <PUBCHEM_BOND_DEF_STEREO_COUNT>
0

> <PUBCHEM_BOND_UDEF_STEREO_COUNT>
0

> <PUBCHEM_ISOTOPIC_ATOM_COUNT>
0

> <PUBCHEM_COMPONENT_COUNT>
1

> <PUBCHEM_CACTVS_TAUTO_COUNT>
5

> <PUBCHEM_CONFORMER_ID>
0807482600000001

> <PUBCHEM_MMFF94_ENERGY>
38.5902

> <PUBCHEM_FEATURE_SELFOVERLAP>
71.064

> <PUBCHEM_SHAPE_FINGERPRINT>
10608611 8 18408884018631689588
11471102 20 18343581815523776684
12403259 226 18189330161195397262
14415576 193 18413390925404847244
15196674 1 18408885144398067011
15219456 202 18410578404709793579
15375358 24 18408603682179696707
15375462 6 18335986449671377790
15536298 74 18409450297190053141
16945 1 18269005189081410402
18186145 218 17749384837126717781
200 152 17632287931168916991
20201158 50 18271528589362392574
20528008 55 18408604768648134517
20645477 70 18342176635400413775
21452121 103 18409720777467308560
21501502 16 18341902835535418832
23402539 116 18335412435608200823
23402655 69 18273213071530820077
23557571 272 18043830868179127466
23559900 14 18410290272845250802
2748010 2 18338529654204888710
3060560 45 18202571666055291948
3286 77 18188770544358260726
449060 62 18337676416165538572
474 4 17168996745279746244
495365 180 17988910189325604568
5104073 3 18335423465353152065
58051976 378 18343864402838904052
633830 44 18338229372009247445
69090 78 18412258424471049543
7364860 26 18410856556025401728
9709674 26 18411424977303506263

> <PUBCHEM_SHAPE_MULTIPOLES>
321.16
8.1
2.23
0.82
5.54
0.25
0.04
1.54
0.3
-1.81
0.17
-0.28
-0.15
0.51

> <PUBCHEM_SHAPE_SELFOVERLAP>
678.865

> <PUBCHEM_SHAPE_VOLUME>
182.3

> <PUBCHEM_COORDINATE_TYPE>
2
5
10

$$$$
