REMARK  Name = 134715044
REMARK  15 active torsions:
REMARK  status: ('A' for Active; 'I' for Inactive)
REMARK    1  A    between atoms: C_2  and  C_5
REMARK    2  A    between atoms: C_2  and  C_18
REMARK    3  A    between atoms: C_5  and  O_10
REMARK    4  A    between atoms: C_6  and  O_12
REMARK    5  A    between atoms: CA_7  and  C_14
REMARK    6  A    between atoms: C_14  and  O_15
REMARK    7  A    between atoms: C_17  and  C_21
REMARK    8  A    between atoms: C_20  and  C_22
REMARK    9  A    between atoms: C_22  and  C_23
REMARK   10  A    between atoms: C_23  and  C_24
REMARK   11  A    between atoms: C_24  and  C_25
REMARK   12  A    between atoms: C_25  and  C_26
REMARK   13  A    between atoms: C_26  and  C_27
REMARK   14  A    between atoms: C_27  and  C_28
REMARK   15  A    between atoms: C_28  and  C_29
REMARK                            x       y       z     vdW  Elec       q    Type
REMARK                         _______ _______ _______ _____ _____    ______ ____
ROOT
ATOM      1  O   UNL     1      -4.378   1.696  -0.146  0.00  0.00    -0.288 OA
ATOM      2  C   UNL     1      -3.414   0.964  -0.360  0.00  0.00    +0.208 C 
ENDROOT
BRANCH   2   5
ATOM      3  O   UNL     1      -5.999  -0.510  -0.747  0.00  0.00    -0.272 OA
ATOM      4  N   UNL     1      -4.932  -2.197   0.470  0.00  0.00    -0.299 N 
ATOM      5  C   UNL     1      -3.578  -0.520  -0.451  0.00  0.00    +0.238 C 
ATOM      6  C   UNL     1      -2.799  -1.276   0.637  0.00  0.00    +0.171 C 
ATOM      7  CA  UNL     1      -3.587  -2.575   0.841  0.00  0.00    +0.131 C 
ATOM      8  C   UNL     1      -4.995  -1.028  -0.282  0.00  0.00    +0.256 C 
ATOM      9  H   UNL     1      -5.727  -2.717   0.726  0.00  0.00    +0.150 HD
BRANCH   5  10
ATOM     10  O   UNL     1      -3.136  -0.921  -1.733  0.00  0.00    -0.370 OA
ATOM     11  H   UNL     1      -3.231  -1.883  -1.822  0.00  0.00    +0.211 HD
ENDBRANCH   5  10
BRANCH   6  12
ATOM     12  O   UNL     1      -2.800  -0.549   1.867  0.00  0.00    -0.379 OA
ATOM     13  H   UNL     1      -2.304   0.277   1.754  0.00  0.00    +0.211 HD
ENDBRANCH   6  12
BRANCH   7  14
ATOM     14  C   UNL     1      -3.089  -3.723  -0.028  0.00  0.00    +0.159 C 
BRANCH  14  15
ATOM     15  O   UNL     1      -3.874  -4.870   0.245  0.00  0.00    -0.380 OA
ATOM     16  H   UNL     1      -3.566  -5.610  -0.303  0.00  0.00    +0.211 HD
ENDBRANCH  14  15
ENDBRANCH   7  14
ENDBRANCH   2   5
BRANCH   2  18
ATOM     17  C   UNL     1      -1.792   2.815  -0.455  0.00  0.00    +0.008 C 
ATOM     18  C   UNL     1      -2.034   1.498  -0.521  0.00  0.00    +0.038 C 
BRANCH  17  21
ATOM     19  O   UNL     1      -0.158   4.694   0.022  0.00  0.00    -0.349 OA
ATOM     20  C   UNL     1       0.408   3.522   0.616  0.00  0.00    +0.147 C 
ATOM     21  C   UNL     1      -0.485   3.436  -0.598  0.00  0.00    +0.164 C 
BRANCH  20  22
ATOM     22  C   UNL     1       1.919   3.417   0.487  0.00  0.00    +0.032 C 
BRANCH  22  23
ATOM     23  C   UNL     1       2.376   1.959   0.435  0.00  0.00    +0.003 C 
BRANCH  23  24
ATOM     24  C   UNL     1       3.901   1.857   0.339  0.00  0.00    +0.000 C 
BRANCH  24  25
ATOM     25  C   UNL     1       4.353   0.398   0.249  0.00  0.00    +0.000 C 
BRANCH  25  26
ATOM     26  C   UNL     1       5.875   0.237   0.163  0.00  0.00    +0.000 C 
BRANCH  26  27
ATOM     27  C   UNL     1       6.321  -1.217  -0.003  0.00  0.00    +0.000 C 
BRANCH  27  28
ATOM     28  C   UNL     1       7.838  -1.371  -0.148  0.00  0.00    +0.000 C 
BRANCH  28  29
ATOM     29  C   UNL     1       8.283  -2.814  -0.389  0.00  0.00    +0.000 C 
ATOM     30  C   UNL     1       9.773  -2.921  -0.506  0.00  0.00    +0.000 C 
ENDBRANCH  28  29
ENDBRANCH  27  28
ENDBRANCH  26  27
ENDBRANCH  25  26
ENDBRANCH  24  25
ENDBRANCH  23  24
ENDBRANCH  22  23
ENDBRANCH  20  22
ENDBRANCH  17  21
ENDBRANCH   2  18
TORSDOF 15
