REMARK  Name = 134778
REMARK  8 active torsions:
REMARK  status: ('A' for Active; 'I' for Inactive)
REMARK    1  A    between atoms: N_1  and  C_13
REMARK    2  A    between atoms: N_4  and  C_9
REMARK    3  A    between atoms: N_4  and  C_22
REMARK    4  A    between atoms: C_13  and  C_14
REMARK    5  A    between atoms: C_14  and  C_15
REMARK    6  A    between atoms: C_15  and  C_16
REMARK    7  A    between atoms: C_16  and  C_19
REMARK    8  A    between atoms: C_22  and  C_26
REMARK                            x       y       z     vdW  Elec       q    Type
REMARK                         _______ _______ _______ _____ _____    ______ ____
ROOT
ATOM      1  N   UNL     1       0.986  -2.438   0.783  0.00  0.00    -0.209 N 
ATOM      2  N   UNL     1      -0.079  -1.682   0.497  0.00  0.00    -0.160 NA
ATOM      3  N   UNL     1      -1.917  -2.114  -0.984  0.00  0.00    -0.310 N 
ATOM      4  N   UNL     1      -3.627  -0.852  -1.808  0.00  0.00    -0.370 N 
ATOM      5  C   UNL     1       1.030  -3.628   0.136  0.00  0.00    +0.087 C 
ATOM      6  C   UNL     1      -0.745  -2.438  -0.380  0.00  0.00    +0.161 C 
ATOM      7  C   UNL     1      -0.100  -3.662  -0.642  0.00  0.00    +0.056 C 
ATOM      8  C   UNL     1      -2.568  -0.877  -0.919  0.00  0.00    +0.197 C 
ATOM      9  H   UNL     1      -2.352  -2.817  -1.518  0.00  0.00    +0.170 HD
ATOM     10  H   UNL     1      -3.832  -1.646  -2.352  0.00  0.00    +0.159 HD
ATOM     11  H   UNL     1      -4.176  -0.039  -1.897  0.00  0.00    +0.159 HD
ENDROOT
BRANCH   8  12
ATOM     12  N   UNL     1      -2.204   0.107  -0.151  0.00  0.00    -0.231 NA
BRANCH  12  13
ATOM     13  C   UNL     1      -2.979   1.338  -0.206  0.00  0.00    +0.231 C 
BRANCH  13  17
ATOM     14  F   UNL     1      -2.387   1.895   2.012  0.00  0.00    -0.168 F 
ATOM     15  F   UNL     1      -1.102   2.636   0.406  0.00  0.00    -0.168 F 
ATOM     16  F   UNL     1      -3.081   3.501   0.710  0.00  0.00    -0.168 F 
ATOM     17  C   UNL     1      -2.378   2.347   0.740  0.00  0.00    +0.420 C 
ENDBRANCH  13  17
ENDBRANCH  12  13
ENDBRANCH   8  12
BRANCH   1  18
ATOM     18  C   UNL     1       1.977  -1.942   1.730  0.00  0.00    +0.116 C 
BRANCH  18  19
ATOM     19  C   UNL     1       3.102  -1.132   1.080  0.00  0.00    +0.024 C 
BRANCH  19  20
ATOM     20  C   UNL     1       2.602   0.143   0.392  0.00  0.00    +0.011 C 
BRANCH  20  21
ATOM     21  C   UNL     1       3.746   0.978  -0.182  0.00  0.00    +0.085 C 
BRANCH  21  24
ATOM     22  O   UNL     1       2.109   2.595  -0.957  0.00  0.00    -0.275 OA
ATOM     23  N   UNL     1       4.335   2.979  -1.383  0.00  0.00    -0.329 N 
ATOM     24  C   UNL     1       3.283   2.246  -0.875  0.00  0.00    +0.219 C 
ATOM     25  H   UNL     1       4.162   3.825  -1.857  0.00  0.00    +0.145 HD
ATOM     26  H   UNL     1       5.258   2.657  -1.272  0.00  0.00    +0.145 HD
ENDBRANCH  21  24
ENDBRANCH  20  21
ENDBRANCH  19  20
ENDBRANCH  18  19
ENDBRANCH   1  18
TORSDOF 8
