134754
  -OEChem-03292013323D

 55 58  0     1  0  0  0  0  0999 V2000
   -2.9191    4.2497   -0.7736 O   0  0  0  0  0  0  0  0  0  0  0  0
   -5.3085    2.5965   -0.6245 O   0  0  0  0  0  0  0  0  0  0  0  0
    2.3291   -0.6952    0.4329 O   0  0  0  0  0  0  0  0  0  0  0  0
    1.6116   -5.7036    0.2500 O   0  0  0  0  0  0  0  0  0  0  0  0
    2.5897    1.0898    1.8697 O   0  0  0  0  0  0  0  0  0  0  0  0
    6.5157    3.5879   -0.3255 O   0  0  0  0  0  0  0  0  0  0  0  0
    6.0526    1.8366   -1.6970 O   0  0  0  0  0  0  0  0  0  0  0  0
   -2.1791    1.2545   -0.0171 C   0  0  2  0  0  0  0  0  0  0  0  0
   -3.6850    0.9443    0.1195 C   0  0  2  0  0  0  0  0  0  0  0  0
   -1.3282    0.0374    0.3450 C   0  0  1  0  0  0  0  0  0  0  0  0
   -1.6528   -1.1080   -0.6622 C   0  0  2  0  0  0  0  0  0  0  0  0
   -4.0384   -0.1183   -0.9151 C   0  0  0  0  0  0  0  0  0  0  0  0
   -1.9889    2.5674    0.7424 C   0  0  0  0  0  0  0  0  0  0  0  0
   -3.1803   -1.3847   -0.7325 C   0  0  0  0  0  0  0  0  0  0  0  0
    0.1699    0.3268    0.2883 C   0  0  0  0  0  0  0  0  0  0  0  0
   -4.2166    2.3430   -0.1336 C   0  0  0  0  0  0  0  0  0  0  0  0
   -3.2105    3.3974    0.3110 C   0  0  2  0  0  0  0  0  0  0  0  0
   -4.1672    0.5361    1.5233 C   0  0  0  0  0  0  0  0  0  0  0  0
   -0.7844   -2.3361   -0.3973 C   0  0  0  0  0  0  0  0  0  0  0  0
    0.9601   -0.8822    0.7886 C   0  0  1  0  0  0  0  0  0  0  0  0
    0.4630   -2.2095    0.2560 C   0  0  0  0  0  0  0  0  0  0  0  0
   -1.1674   -3.6070   -0.8645 C   0  0  0  0  0  0  0  0  0  0  0  0
    1.2474   -3.3573    0.4802 C   0  0  0  0  0  0  0  0  0  0  0  0
   -0.3691   -4.7316   -0.6488 C   0  0  0  0  0  0  0  0  0  0  0  0
    0.8353   -4.6085    0.0300 C   0  0  0  0  0  0  0  0  0  0  0  0
    2.8981    0.4744    0.8587 C   0  0  0  0  0  0  0  0  0  0  0  0
    3.9712    0.8859   -0.1264 C   0  0  0  0  0  0  0  0  0  0  0  0
    4.7288    2.1369    0.3020 C   0  0  0  0  0  0  0  0  0  0  0  0
    5.8230    2.4773   -0.6795 C   0  0  0  0  0  0  0  0  0  0  0  0
   -1.9625    1.4920   -1.0731 H   0  0  0  0  0  0  0  0  0  0  0  0
   -1.5667   -0.2873    1.3661 H   0  0  0  0  0  0  0  0  0  0  0  0
   -1.3579   -0.7625   -1.6654 H   0  0  0  0  0  0  0  0  0  0  0  0
   -3.8855    0.2760   -1.9283 H   0  0  0  0  0  0  0  0  0  0  0  0
   -5.1013   -0.3818   -0.8538 H   0  0  0  0  0  0  0  0  0  0  0  0
   -1.0487    3.0603    0.4753 H   0  0  0  0  0  0  0  0  0  0  0  0
   -1.9948    2.3946    1.8240 H   0  0  0  0  0  0  0  0  0  0  0  0
   -3.4991   -1.9177    0.1718 H   0  0  0  0  0  0  0  0  0  0  0  0
   -3.4055   -2.0493   -1.5747 H   0  0  0  0  0  0  0  0  0  0  0  0
    0.3901    1.2072    0.8997 H   0  0  0  0  0  0  0  0  0  0  0  0
    0.4697    0.5875   -0.7362 H   0  0  0  0  0  0  0  0  0  0  0  0
   -3.6017    3.9790    1.1507 H   0  0  0  0  0  0  0  0  0  0  0  0
   -5.2545    0.3920    1.5225 H   0  0  0  0  0  0  0  0  0  0  0  0
   -3.7168   -0.3970    1.8721 H   0  0  0  0  0  0  0  0  0  0  0  0
   -3.9589    1.3031    2.2769 H   0  0  0  0  0  0  0  0  0  0  0  0
    0.8840   -0.9366    1.8838 H   0  0  0  0  0  0  0  0  0  0  0  0
   -2.0952   -3.7492   -1.4105 H   0  0  0  0  0  0  0  0  0  0  0  0
   -3.7263    4.7531   -0.9757 H   0  0  0  0  0  0  0  0  0  0  0  0
    2.1913   -3.2659    1.0145 H   0  0  0  0  0  0  0  0  0  0  0  0
   -0.6970   -5.7006   -1.0156 H   0  0  0  0  0  0  0  0  0  0  0  0
    3.4912    1.0560   -1.0975 H   0  0  0  0  0  0  0  0  0  0  0  0
    4.6717    0.0483   -0.2286 H   0  0  0  0  0  0  0  0  0  0  0  0
    2.4108   -5.4326    0.7337 H   0  0  0  0  0  0  0  0  0  0  0  0
    5.1849    1.9807    1.2860 H   0  0  0  0  0  0  0  0  0  0  0  0
    4.0414    2.9876    0.3654 H   0  0  0  0  0  0  0  0  0  0  0  0
    7.2172    3.8048   -0.9761 H   0  0  0  0  0  0  0  0  0  0  0  0
  1 17  1  0  0  0  0
  1 47  1  0  0  0  0
  2 16  2  0  0  0  0
  3 20  1  0  0  0  0
  3 26  1  0  0  0  0
  4 25  1  0  0  0  0
  4 52  1  0  0  0  0
  5 26  2  0  0  0  0
  6 29  1  0  0  0  0
  6 55  1  0  0  0  0
  7 29  2  0  0  0  0
  8  9  1  0  0  0  0
  8 10  1  0  0  0  0
  8 13  1  0  0  0  0
  8 30  1  0  0  0  0
  9 12  1  0  0  0  0
  9 16  1  0  0  0  0
  9 18  1  0  0  0  0
 10 11  1  0  0  0  0
 10 15  1  0  0  0  0
 10 31  1  0  0  0  0
 11 14  1  0  0  0  0
 11 19  1  0  0  0  0
 11 32  1  0  0  0  0
 12 14  1  0  0  0  0
 12 33  1  0  0  0  0
 12 34  1  0  0  0  0
 13 17  1  0  0  0  0
 13 35  1  0  0  0  0
 13 36  1  0  0  0  0
 14 37  1  0  0  0  0
 14 38  1  0  0  0  0
 15 20  1  0  0  0  0
 15 39  1  0  0  0  0
 15 40  1  0  0  0  0
 16 17  1  0  0  0  0
 17 41  1  0  0  0  0
 18 42  1  0  0  0  0
 18 43  1  0  0  0  0
 18 44  1  0  0  0  0
 19 21  2  0  0  0  0
 19 22  1  0  0  0  0
 20 21  1  0  0  0  0
 20 45  1  0  0  0  0
 21 23  1  0  0  0  0
 22 24  2  0  0  0  0
 22 46  1  0  0  0  0
 23 25  2  0  0  0  0
 23 48  1  0  0  0  0
 24 25  1  0  0  0  0
 24 49  1  0  0  0  0
 26 27  1  0  0  0  0
 27 28  1  0  0  0  0
 27 50  1  0  0  0  0
 27 51  1  0  0  0  0
 28 29  1  0  0  0  0
 28 53  1  0  0  0  0
 28 54  1  0  0  0  0
M  END
> <PUBCHEM_COMPOUND_CID>
134754

> <PUBCHEM_CONFORMER_RMSD>
0.8

> <PUBCHEM_CONFORMER_DIVERSEORDER>
1
12
11
16
13
26
27
19
29
25
6
32
24
22
14
18
3
5
21
30
4
9
31
10
2
28
20
17
23
15
8
33
7

> <PUBCHEM_MMFF94_PARTIAL_CHARGES>
28
1 -0.68
11 0.14
16 0.45
17 0.34
19 -0.14
2 -0.57
20 0.42
21 -0.14
22 -0.15
23 -0.15
24 -0.15
25 0.08
26 0.66
27 0.06
28 0.06
29 0.66
3 -0.43
4 -0.53
46 0.15
47 0.4
48 0.15
49 0.15
5 -0.57
52 0.45
55 0.5
6 -0.65
7 -0.57
9 0.06

> <PUBCHEM_EFFECTIVE_ROTOR_COUNT>
6.2

> <PUBCHEM_PHARMACOPHORE_FEATURES>
12
1 1 acceptor
1 1 donor
1 2 acceptor
1 4 donor
1 5 acceptor
1 6 acceptor
1 7 acceptor
3 6 7 29 anion
5 8 9 13 16 17 rings
6 10 11 15 19 20 21 rings
6 19 21 22 23 24 25 rings
6 8 9 10 11 12 14 rings

> <PUBCHEM_HEAVY_ATOM_COUNT>
29

> <PUBCHEM_ATOM_DEF_STEREO_COUNT>
6

> <PUBCHEM_ATOM_UDEF_STEREO_COUNT>
0

> <PUBCHEM_BOND_DEF_STEREO_COUNT>
0

> <PUBCHEM_BOND_UDEF_STEREO_COUNT>
0

> <PUBCHEM_ISOTOPIC_ATOM_COUNT>
0

> <PUBCHEM_COMPONENT_COUNT>
1

> <PUBCHEM_CACTVS_TAUTO_COUNT>
12

> <PUBCHEM_CONFORMER_ID>
00020E6200000001

> <PUBCHEM_MMFF94_ENERGY>
79.5422

> <PUBCHEM_FEATURE_SELFOVERLAP>
61.055

> <PUBCHEM_SHAPE_FINGERPRINT>
10411042 1 17330553658085066406
10670039 82 18411134779559466796
107951 10 18270971240468410022
10871710 139 18340760537902259237
10937287 8 18410572873139984932
1100329 8 17691114260298746239
11049842 53 18340189848840251290
11211813 163 18410583911976485172
12107183 9 18335125477018303410
12173636 292 18340753923061734063
12390115 104 18272379693240859849
12741549 16 16888082167206618334
12788726 201 17902500816540832378
13757389 114 18266187321157433116
13761468 95 18040984155903818876
138480 1 17691965960217188330
13911987 19 18264188370637704999
14114211 68 18341340998089452937
14251757 5 18123471845875186738
14508225 48 17477759551549757790
1454969 45 18411419557797882153
14790565 3 18410575063731691346
14840074 17 17676208000355571532
15082195 135 18121483671223345453
15198563 99 17980198913433862855
15230672 131 18409174316811253958
15297060 5 18342184370700265768
15463212 79 18337386149443299842
15513586 35 16664594789811218668
15575132 122 18334011705139788005
15876981 60 17686340172099137780
15950262 2 15939461162948789607
16087824 20 18195243546144154743
16988056 13 17183049255549830564
16991981 162 17541420089761399108
16992828 155 17749658697259257180
17492 89 18124305014203139647
18785283 64 18050001095548365307
20101258 96 17616820271977476314
20642791 178 18339071571962321130
20642791 239 17837510556728571742
21133410 127 17969504797302925284
23366157 5 18119804707971627627
23559900 14 17694201293674659881
23576562 1 17836919010950829799
24771750 20 18269001903437159246
283562 15 18341330106389967715
3610482 184 17825403018752400068
394222 165 18189044322484792682
5252454 2 18201719514168251713
53794403 172 17977663105008673405
550186 7 18128260176048765262
57527293 21 18057893451349832955
6058803 2 17984691230814667887
6086070 43 16961804426692124541
6700243 42 17189299352551930734
7288768 16 17894912961889453562
7808743 9 18338515356559720200
9981440 41 18409722967584047435

> <PUBCHEM_SHAPE_MULTIPOLES>
555.72
10.87
7.04
1.11
14.15
7.8
-0.1
-17.61
2.72
1.92
1
0.25
-0.27
-1.27

> <PUBCHEM_SHAPE_SELFOVERLAP>
1200.888

> <PUBCHEM_SHAPE_VOLUME>
303.2

> <PUBCHEM_COORDINATE_TYPE>
2
5
10

$$$$
