REMARK  Name = 134715003
REMARK  5 active torsions:
REMARK  status: ('A' for Active; 'I' for Inactive)
REMARK    1  A    between atoms: C_12  and  C_20
REMARK    2  A    between atoms: C_14  and  O_23
REMARK    3  A    between atoms: C_15  and  O_25
REMARK    4  A    between atoms: C_15  and  C_27
REMARK    5  A    between atoms: C_27  and  O_29
REMARK                            x       y       z     vdW  Elec       q    Type
REMARK                         _______ _______ _______ _____ _____    ______ ____
ROOT
ATOM      1  O   UNL     1       0.891  -0.969  -0.309  0.00  0.00    -0.454 OA
ATOM      2  O   UNL     1      -0.177   1.606  -0.872  0.00  0.00    -0.442 OA
ATOM      3  O   UNL     1      -0.369  -1.367  -2.200  0.00  0.00    -0.250 OA
ATOM      4  O   UNL     1      -0.638   2.832   1.019  0.00  0.00    -0.247 OA
ATOM      5  N   UNL     1       3.917   0.083   0.206  0.00  0.00    +0.396 N 
ATOM      6  C   UNL     1       2.878   0.413  -0.816  0.00  0.00    +0.006 C 
ATOM      7  C   UNL     1       2.110  -0.890  -1.075  0.00  0.00    +0.152 C 
ATOM      8  C   UNL     1       3.051  -1.959  -0.533  0.00  0.00    +0.019 C 
ATOM      9  C   UNL     1       3.648  -1.276   0.686  0.00  0.00    -0.073 C 
ATOM     10  C   UNL     1       2.155   1.616  -0.301  0.00  0.00    -0.023 C 
ATOM     11  C   UNL     1       3.813   1.108   1.263  0.00  0.00    -0.050 C 
ATOM     12  C   UNL     1      -1.409  -1.527  -0.033  0.00  0.00    +0.129 C 
ATOM     13  C   UNL     1       2.697   2.010   0.855  0.00  0.00    -0.056 C 
ATOM     14  C   UNL     1      -1.743  -0.395   0.962  0.00  0.00    +0.158 C 
ATOM     15  C   UNL     1      -2.108   0.999   0.389  0.00  0.00    +0.227 C 
ATOM     16  C   UNL     1       1.067   2.304  -1.054  0.00  0.00    +0.229 C 
ATOM     17  C   UNL     1      -0.256  -1.264  -0.983  0.00  0.00    +0.319 C 
ATOM     18  C   UNL     1      -0.911   1.934   0.229  0.00  0.00    +0.346 C 
ATOM     19  H   UNL     1       4.871   0.095  -0.154  0.00  0.00    -0.079 HD
ENDROOT
BRANCH  12  20
ATOM     20  C   UNL     1      -1.150  -2.865   0.668  0.00  0.00    +0.013 C 
ATOM     21  C   UNL     1      -2.263  -3.167   1.665  0.00  0.00    +0.001 C 
ATOM     22  C   UNL     1      -1.023  -3.986  -0.358  0.00  0.00    +0.001 C 
ENDBRANCH  12  20
BRANCH  14  23
ATOM     23  O   UNL     1      -0.711  -0.236   1.940  0.00  0.00    -0.381 OA
ATOM     24  H   UNL     1      -0.476  -1.104   2.304  0.00  0.00    +0.210 HD
ENDBRANCH  14  23
BRANCH  15  25
ATOM     25  O   UNL     1      -2.911   1.659   1.388  0.00  0.00    -0.373 OA
ATOM     26  H   UNL     1      -3.708   1.133   1.561  0.00  0.00    +0.211 HD
ENDBRANCH  15  25
BRANCH  15  27
ATOM     27  C   UNL     1      -2.972   0.967  -0.869  0.00  0.00    +0.148 C 
ATOM     28  C   UNL     1      -3.552   2.334  -1.187  0.00  0.00    +0.035 C 
BRANCH  27  29
ATOM     29  O   UNL     1      -4.031   0.037  -0.680  0.00  0.00    -0.381 OA
ATOM     30  H   UNL     1      -3.662  -0.837  -0.477  0.00  0.00    +0.210 HD
ENDBRANCH  27  29
ENDBRANCH  15  27
TORSDOF 5
