REMARK  Name = 134787
REMARK  5 active torsions:
REMARK  status: ('A' for Active; 'I' for Inactive)
REMARK    1  A    between atoms: C_5  and  O_25
REMARK    2  A    between atoms: C_8  and  O_27
REMARK    3  A    between atoms: C_16  and  N_21
REMARK    4  A    between atoms: C_17  and  N_24
REMARK    5  A    between atoms: C_18  and  O_29
REMARK                            x       y       z     vdW  Elec       q    Type
REMARK                         _______ _______ _______ _____ _____    ______ ____
ROOT
ATOM      1  C   UNL     1      -3.471  -0.824   0.342  0.00  0.00    +0.027 C 
ATOM      2  C   UNL     1      -2.903   0.447  -0.324  0.00  0.00    +0.005 C 
ATOM      3  C   UNL     1      -1.430   0.669   0.019  0.00  0.00    +0.005 C 
ATOM      4  C   UNL     1      -0.606  -0.543  -0.514  0.00  0.00    +0.022 C 
ATOM      5  C   UNL     1      -4.931  -0.719  -0.143  0.00  0.00    +0.137 C 
ATOM      6  C   UNL     1      -2.700  -2.032  -0.204  0.00  0.00    +0.003 C 
ATOM      7  C   UNL     1      -3.925   1.528   0.032  0.00  0.00    +0.032 C 
ATOM      8  C   UNL     1      -5.272   0.778   0.029  0.00  0.00    +0.137 C 
ATOM      9  C   UNL     1      -1.181  -1.887   0.010  0.00  0.00    +0.004 C 
ATOM     10  C   UNL     1      -0.871   1.956  -0.591  0.00  0.00    +0.005 C 
ATOM     11  C   UNL     1      -3.412  -0.832   1.890  0.00  0.00    +0.002 C 
ATOM     12  C   UNL     1       0.889  -0.343  -0.279  0.00  0.00    -0.023 C 
ATOM     13  C   UNL     1       0.552   2.188  -0.093  0.00  0.00    +0.028 C 
ATOM     14  C   UNL     1       1.423   0.955  -0.125  0.00  0.00    -0.001 C 
ATOM     15  C   UNL     1       1.780  -1.430  -0.298  0.00  0.00    +0.023 C 
ATOM     16  C   UNL     1       2.807   1.127   0.056  0.00  0.00    +0.174 C 
ATOM     17  C   UNL     1       3.154  -1.245  -0.126  0.00  0.00    +0.178 C 
ATOM     18  C   UNL     1       3.667   0.033   0.056  0.00  0.00    +0.178 C 
ENDROOT
BRANCH  16  21
ATOM     19  O   UNL     1       2.593   3.413   0.272  0.00  0.00    -0.126 OA
ATOM     20  O   UNL     1       4.599   2.532   0.416  0.00  0.00    -0.126 OA
ATOM     21  N   UNL     1       3.363   2.426   0.258  0.00  0.00    +0.060 N 
ENDBRANCH  16  21
BRANCH  17  24
ATOM     22  O   UNL     1       3.510  -3.515  -0.315  0.00  0.00    -0.126 OA
ATOM     23  O   UNL     1       5.244  -2.209   0.010  0.00  0.00    -0.126 OA
ATOM     24  N   UNL     1       4.012  -2.380  -0.144  0.00  0.00    +0.061 N 
ENDBRANCH  17  24
BRANCH   5  25
ATOM     25  O   UNL     1      -5.832  -1.521   0.599  0.00  0.00    -0.382 OA
ATOM     26  H   UNL     1      -5.604  -2.457   0.480  0.00  0.00    +0.210 HD
ENDBRANCH   5  25
BRANCH   8  27
ATOM     27  O   UNL     1      -6.069   1.220  -1.063  0.00  0.00    -0.382 OA
ATOM     28  H   UNL     1      -6.914   0.745  -1.060  0.00  0.00    +0.210 HD
ENDBRANCH   8  27
BRANCH  18  29
ATOM     29  O   UNL     1       5.010   0.210   0.231  0.00  0.00    -0.503 OA
ATOM     30  H   UNL     1       5.357   1.071   0.353  0.00  0.00    +0.292 HD
ENDBRANCH  18  29
TORSDOF 5
