134702
  -OEChem-03292013323D

 60 60  0     1  0  0  0  0  0999 V2000
    2.1224   -0.1244    2.1173 O   0  0  0  0  0  0  0  0  0  0  0  0
    4.8737    2.1242    0.3592 O   0  0  0  0  0  0  0  0  0  0  0  0
   -1.0520   -1.4697   -0.9016 O   0  0  0  0  0  0  0  0  0  0  0  0
   -4.4691   -0.3134    0.9465 O   0  0  0  0  0  0  0  0  0  0  0  0
    3.0371    0.1174   -0.0047 N   0  0  0  0  0  0  0  0  0  0  0  0
   -0.3498   -0.2471    0.9467 N   0  0  0  0  0  0  0  0  0  0  0  0
    5.9793    0.7559    1.8355 N   0  0  0  0  0  0  0  0  0  0  0  0
   -3.2733   -2.2627    0.5468 N   0  0  0  0  0  0  0  0  0  0  0  0
   -6.2770   -1.0266   -1.0103 N   0  0  0  0  0  0  0  0  0  0  0  0
    5.1314   -0.8583   -0.8770 C   0  0  0  0  0  0  0  0  0  0  0  0
    4.3881   -0.2576    0.3226 C   0  0  1  0  0  0  0  0  0  0  0  0
    4.8788   -2.3623   -1.1075 C   0  0  0  0  0  0  0  0  0  0  0  0
    0.6703    0.5313    0.2906 C   0  0  1  0  0  0  0  0  0  0  0  0
    0.4238    2.0385    0.4235 C   0  0  0  0  0  0  0  0  0  0  0  0
    2.0039    0.1544    0.9260 C   0  0  0  0  0  0  0  0  0  0  0  0
    5.7172   -2.8513   -2.2919 C   0  0  0  0  0  0  0  0  0  0  0  0
    3.4028   -2.6737   -1.3583 C   0  0  0  0  0  0  0  0  0  0  0  0
    5.0959    1.0013    0.8054 C   0  0  0  0  0  0  0  0  0  0  0  0
   -0.8992    2.4674   -0.1625 C   0  0  0  0  0  0  0  0  0  0  0  0
   -1.1326   -1.1902    0.2919 C   0  0  0  0  0  0  0  0  0  0  0  0
   -0.9784    2.8465   -1.5026 C   0  0  0  0  0  0  0  0  0  0  0  0
   -2.0431    2.4843    0.6357 C   0  0  0  0  0  0  0  0  0  0  0  0
   -2.0787   -1.8894    1.2447 C   0  0  0  0  0  0  0  0  0  0  0  0
   -2.2011    3.2426   -2.0444 C   0  0  0  0  0  0  0  0  0  0  0  0
   -3.2659    2.8804    0.0938 C   0  0  0  0  0  0  0  0  0  0  0  0
   -3.3447    3.2596   -1.2463 C   0  0  0  0  0  0  0  0  0  0  0  0
   -4.3918   -1.4353    0.4498 C   0  0  0  0  0  0  0  0  0  0  0  0
   -5.5271   -2.0819   -0.3338 C   0  0  1  0  0  0  0  0  0  0  0  0
   -6.4410   -2.8596    0.6049 C   0  0  0  0  0  0  0  0  0  0  0  0
    4.8865   -0.2973   -1.7892 H   0  0  0  0  0  0  0  0  0  0  0  0
    6.2117   -0.7254   -0.7266 H   0  0  0  0  0  0  0  0  0  0  0  0
    4.3561   -0.9809    1.1468 H   0  0  0  0  0  0  0  0  0  0  0  0
    5.2004   -2.9142   -0.2152 H   0  0  0  0  0  0  0  0  0  0  0  0
    0.6882    0.2583   -0.7717 H   0  0  0  0  0  0  0  0  0  0  0  0
    2.8512    0.4355   -0.9516 H   0  0  0  0  0  0  0  0  0  0  0  0
    0.4619    2.3381    1.4801 H   0  0  0  0  0  0  0  0  0  0  0  0
    1.2369    2.5957   -0.0605 H   0  0  0  0  0  0  0  0  0  0  0  0
    6.7826   -2.6677   -2.1170 H   0  0  0  0  0  0  0  0  0  0  0  0
    5.5863   -3.9281   -2.4433 H   0  0  0  0  0  0  0  0  0  0  0  0
    5.4321   -2.3415   -3.2186 H   0  0  0  0  0  0  0  0  0  0  0  0
    3.2708   -3.7249   -1.6375 H   0  0  0  0  0  0  0  0  0  0  0  0
    2.8020   -2.5084   -0.4594 H   0  0  0  0  0  0  0  0  0  0  0  0
    2.9959   -2.0581   -2.1675 H   0  0  0  0  0  0  0  0  0  0  0  0
   -0.4617   -0.1233    1.9491 H   0  0  0  0  0  0  0  0  0  0  0  0
   -0.0945    2.8349   -2.1348 H   0  0  0  0  0  0  0  0  0  0  0  0
   -1.9960    2.1926    1.6815 H   0  0  0  0  0  0  0  0  0  0  0  0
    6.5059    1.5120    2.2602 H   0  0  0  0  0  0  0  0  0  0  0  0
    6.1512   -0.1766    2.1977 H   0  0  0  0  0  0  0  0  0  0  0  0
   -1.5962   -2.7976    1.6174 H   0  0  0  0  0  0  0  0  0  0  0  0
   -2.3363   -1.2441    2.0904 H   0  0  0  0  0  0  0  0  0  0  0  0
   -2.2629    3.5369   -3.0880 H   0  0  0  0  0  0  0  0  0  0  0  0
   -4.1567    2.8928    0.7150 H   0  0  0  0  0  0  0  0  0  0  0  0
   -3.2929   -3.1749    0.1002 H   0  0  0  0  0  0  0  0  0  0  0  0
   -4.2970    3.5671   -1.6682 H   0  0  0  0  0  0  0  0  0  0  0  0
   -5.1161   -2.7597   -1.0907 H   0  0  0  0  0  0  0  0  0  0  0  0
   -6.8668   -2.2114    1.3796 H   0  0  0  0  0  0  0  0  0  0  0  0
   -5.8857   -3.6541    1.1156 H   0  0  0  0  0  0  0  0  0  0  0  0
   -7.2670   -3.3257    0.0570 H   0  0  0  0  0  0  0  0  0  0  0  0
   -5.6787   -0.5680   -1.6965 H   0  0  0  0  0  0  0  0  0  0  0  0
   -7.0485   -1.4368   -1.5353 H   0  0  0  0  0  0  0  0  0  0  0  0
  1 15  2  0  0  0  0
  2 18  2  0  0  0  0
  3 20  2  0  0  0  0
  4 27  2  0  0  0  0
  5 11  1  0  0  0  0
  5 15  1  0  0  0  0
  5 35  1  0  0  0  0
  6 13  1  0  0  0  0
  6 20  1  0  0  0  0
  6 44  1  0  0  0  0
  7 18  1  0  0  0  0
  7 47  1  0  0  0  0
  7 48  1  0  0  0  0
  8 23  1  0  0  0  0
  8 27  1  0  0  0  0
  8 53  1  0  0  0  0
  9 28  1  0  0  0  0
  9 59  1  0  0  0  0
  9 60  1  0  0  0  0
 10 11  1  0  0  0  0
 10 12  1  0  0  0  0
 10 30  1  0  0  0  0
 10 31  1  0  0  0  0
 11 18  1  0  0  0  0
 11 32  1  0  0  0  0
 12 16  1  0  0  0  0
 12 17  1  0  0  0  0
 12 33  1  0  0  0  0
 13 14  1  0  0  0  0
 13 15  1  0  0  0  0
 13 34  1  0  0  0  0
 14 19  1  0  0  0  0
 14 36  1  0  0  0  0
 14 37  1  0  0  0  0
 16 38  1  0  0  0  0
 16 39  1  0  0  0  0
 16 40  1  0  0  0  0
 17 41  1  0  0  0  0
 17 42  1  0  0  0  0
 17 43  1  0  0  0  0
 19 21  2  0  0  0  0
 19 22  1  0  0  0  0
 20 23  1  0  0  0  0
 21 24  1  0  0  0  0
 21 45  1  0  0  0  0
 22 25  2  0  0  0  0
 22 46  1  0  0  0  0
 23 49  1  0  0  0  0
 23 50  1  0  0  0  0
 24 26  2  0  0  0  0
 24 51  1  0  0  0  0
 25 26  1  0  0  0  0
 25 52  1  0  0  0  0
 26 54  1  0  0  0  0
 27 28  1  0  0  0  0
 28 29  1  0  0  0  0
 28 55  1  0  0  0  0
 29 56  1  0  0  0  0
 29 57  1  0  0  0  0
 29 58  1  0  0  0  0
M  END
> <PUBCHEM_COMPOUND_CID>
134702

> <PUBCHEM_CONFORMER_RMSD>
1.2

> <PUBCHEM_CONFORMER_DIVERSEORDER>
1
46
17
36
23
44
50
29
11
9
18
15
34
3
10
39
4
55
16
7
32
33
37
19
51
22
54
6
13
53
30
47
14
35
38
27
41
57
24
21
48
8
2
59
42
52
12
31
26
25
5
40
43
56
28
58
20
49
45

> <PUBCHEM_MMFF94_PARTIAL_CHARGES>
36
1 -0.57
11 0.36
13 0.36
14 0.14
15 0.57
18 0.57
19 -0.14
2 -0.57
20 0.57
21 -0.15
22 -0.15
23 0.36
24 -0.15
25 -0.15
26 -0.15
27 0.57
28 0.33
3 -0.57
35 0.37
4 -0.57
44 0.37
45 0.15
46 0.15
47 0.37
48 0.37
5 -0.73
51 0.15
52 0.15
53 0.37
54 0.15
59 0.36
6 -0.73
60 0.36
7 -0.8
8 -0.73
9 -0.99

> <PUBCHEM_EFFECTIVE_ROTOR_COUNT>
14

> <PUBCHEM_PHARMACOPHORE_FEATURES>
12
1 1 acceptor
1 2 acceptor
1 3 acceptor
1 4 acceptor
1 5 donor
1 6 donor
1 7 donor
1 8 donor
1 9 cation
1 9 donor
3 12 16 17 hydrophobe
6 19 21 22 24 25 26 rings

> <PUBCHEM_HEAVY_ATOM_COUNT>
29

> <PUBCHEM_ATOM_DEF_STEREO_COUNT>
3

> <PUBCHEM_ATOM_UDEF_STEREO_COUNT>
0

> <PUBCHEM_BOND_DEF_STEREO_COUNT>
0

> <PUBCHEM_BOND_UDEF_STEREO_COUNT>
0

> <PUBCHEM_ISOTOPIC_ATOM_COUNT>
0

> <PUBCHEM_COMPONENT_COUNT>
1

> <PUBCHEM_CACTVS_TAUTO_COUNT>
16

> <PUBCHEM_CONFORMER_ID>
00020E2E00000001

> <PUBCHEM_MMFF94_ENERGY>
57.8549

> <PUBCHEM_FEATURE_SELFOVERLAP>
60.898

> <PUBCHEM_SHAPE_FINGERPRINT>
12422481 6 18267329593638077961
12788726 201 18041547096966235377
13533116 47 17489875959661810634
13540713 4 18270959051767435074
13782708 43 18201444636219317302
14910302 57 18411986827876687822
15082195 135 18262532467709270348
16090146 7 16153712020607254202
19958102 18 18335981956782613135
21236236 1 18409442579540088681
21285901 2 18411705404344905638
21307412 95 17767419989303582406
21641784 216 17530964670193585941
22182313 1 18343295943096543528
23557571 272 18408887330779364784
23559900 14 18270962316111586544
244849 19 17631431420021499384
24771750 20 17178010696249632533
46194498 28 18341899597910637134
469060 322 17240476992475588637
59755656 520 17983589498325505209
6608658 132 16878794781465219540
7237137 82 18263093132001228174

> <PUBCHEM_SHAPE_MULTIPOLES>
548.42
14.91
4.58
1.73
4.14
1.37
-0.39
-11.32
-1.65
-4.45
-2.01
1.56
0.05
4.37

> <PUBCHEM_SHAPE_SELFOVERLAP>
1102.819

> <PUBCHEM_SHAPE_VOLUME>
319.2

> <PUBCHEM_COORDINATE_TYPE>
2
5
10

$$$$
