REMARK  Name = 134702
REMARK  12 active torsions:
REMARK  status: ('A' for Active; 'I' for Inactive)
REMARK    1  A    between atoms: C_1  and  C_4
REMARK    2  A    between atoms: C_1  and  N_17
REMARK    3  A    between atoms: C_1  and  C_31
REMARK    4  A    between atoms: N_3  and  C_6
REMARK    5  A    between atoms: C_6  and  C_9
REMARK    6  A    between atoms: C_6  and  C_12
REMARK    7  A    between atoms: C_12  and  C_13
REMARK    8  A    between atoms: C_18  and  C_20
REMARK    9  A    between atoms: C_20  and  N_22
REMARK   10  A    between atoms: C_23  and  C_25
REMARK   11  A    between atoms: C_25  and  N_27
REMARK   12  A    between atoms: C_31  and  C_32
REMARK                            x       y       z     vdW  Elec       q    Type
REMARK                         _______ _______ _______ _____ _____    ______ ____
ROOT
ATOM      1  C   UNL     1       0.670   0.531   0.291  0.00  0.00    +0.153 C 
ENDROOT
BRANCH   1   4
ATOM      2  O   UNL     1       2.122  -0.124   2.117  0.00  0.00    -0.273 OA
ATOM      3  N   UNL     1       3.037   0.117  -0.005  0.00  0.00    -0.297 N 
ATOM      4  C   UNL     1       2.004   0.154   0.926  0.00  0.00    +0.241 C 
ATOM      5  H   UNL     1       2.834   0.361  -0.937  0.00  0.00    +0.150 HD
BRANCH   3   6
ATOM      6  C   UNL     1       4.388  -0.258   0.323  0.00  0.00    +0.148 C 
BRANCH   6   9
ATOM      7  O   UNL     1       4.874   2.124   0.359  0.00  0.00    -0.274 OA
ATOM      8  N   UNL     1       5.979   0.756   1.835  0.00  0.00    -0.327 N 
ATOM      9  C   UNL     1       5.096   1.001   0.805  0.00  0.00    +0.237 C 
ATOM     10  H   UNL     1       6.495   1.497   2.229  0.00  0.00    +0.145 HD
ATOM     11  H   UNL     1       6.094  -0.160   2.178  0.00  0.00    +0.145 HD
ENDBRANCH   6   9
BRANCH   6  12
ATOM     12  C   UNL     1       5.131  -0.858  -0.877  0.00  0.00    +0.029 C 
BRANCH  12  13
ATOM     13  C   UNL     1       4.879  -2.362  -1.107  0.00  0.00    +0.002 C 
ATOM     14  C   UNL     1       5.717  -2.851  -2.292  0.00  0.00    +0.000 C 
ATOM     15  C   UNL     1       3.403  -2.674  -1.358  0.00  0.00    +0.000 C 
ENDBRANCH  12  13
ENDBRANCH   6  12
ENDBRANCH   3   6
ENDBRANCH   1   4
BRANCH   1  17
ATOM     16  O   UNL     1      -1.052  -1.470  -0.902  0.00  0.00    -0.273 OA
ATOM     17  N   UNL     1      -0.350  -0.247   0.947  0.00  0.00    -0.297 N 
ATOM     18  C   UNL     1      -1.133  -1.190   0.292  0.00  0.00    +0.243 C 
ATOM     19  H   UNL     1      -0.500  -0.103   1.909  0.00  0.00    +0.150 HD
BRANCH  18  20
ATOM     20  C   UNL     1      -2.079  -1.889   1.245  0.00  0.00    +0.176 C 
BRANCH  20  22
ATOM     21  O   UNL     1      -4.469  -0.313   0.947  0.00  0.00    -0.277 OA
ATOM     22  N   UNL     1      -3.273  -2.263   0.547  0.00  0.00    -0.298 N 
ATOM     23  C   UNL     1      -4.392  -1.435   0.450  0.00  0.00    +0.202 C 
ATOM     24  H   UNL     1      -3.306  -3.147   0.115  0.00  0.00    +0.150 HD
BRANCH  23  25
ATOM     25  C   UNL     1      -5.527  -2.082  -0.334  0.00  0.00    +0.013 C 
ATOM     26  C   UNL     1      -6.441  -2.860   0.605  0.00  0.00    -0.015 C 
BRANCH  25  27
ATOM     27  N   UNL     1      -6.277  -1.027  -1.010  0.00  0.00    +0.387 N 
ATOM     28  H   UNL     1      -5.654  -0.514  -1.635  0.00  0.00    -0.089 HD
ATOM     29  H   UNL     1      -6.665  -0.387  -0.317  0.00  0.00    -0.089 HD
ATOM     30  H   UNL     1      -7.035  -1.442  -1.551  0.00  0.00    -0.089 HD
ENDBRANCH  25  27
ENDBRANCH  23  25
ENDBRANCH  20  22
ENDBRANCH  18  20
ENDBRANCH   1  17
BRANCH   1  31
ATOM     31  C   UNL     1       0.424   2.038   0.423  0.00  0.00    +0.055 C 
BRANCH  31  32
ATOM     32  C   UNL     1      -0.899   2.467  -0.163  0.00  0.00    -0.020 C 
ATOM     33  C   UNL     1      -0.978   2.846  -1.503  0.00  0.00    -0.004 C 
ATOM     34  C   UNL     1      -2.043   2.484   0.636  0.00  0.00    -0.004 C 
ATOM     35  C   UNL     1      -2.201   3.243  -2.044  0.00  0.00    -0.000 C 
ATOM     36  C   UNL     1      -3.266   2.880   0.094  0.00  0.00    -0.000 C 
ATOM     37  C   UNL     1      -3.345   3.260  -1.246  0.00  0.00    -0.000 C 
ENDBRANCH  31  32
ENDBRANCH   1  31
TORSDOF 12
