REMARK  Name = 134715584
REMARK  15 active torsions:
REMARK  status: ('A' for Active; 'I' for Inactive)
REMARK    1  A    between atoms: C_1  and  C_24
REMARK    2  A    between atoms: C_2  and  C_10
REMARK    3  A    between atoms: C_3  and  O_6
REMARK    4  A    between atoms: C_4  and  O_8
REMARK    5  A    between atoms: C_11  and  C_12
REMARK    6  A    between atoms: C_12  and  O_13
REMARK    7  A    between atoms: C_12  and  C_15
REMARK    8  A    between atoms: C_15  and  O_16
REMARK    9  A    between atoms: O_16  and  C_18
REMARK   10  A    between atoms: C_24  and  C_25
REMARK   11  A    between atoms: C_26  and  C_27
REMARK   12  A    between atoms: C_27  and  C_28
REMARK   13  A    between atoms: C_28  and  C_29
REMARK   14  A    between atoms: C_29  and  C_31
REMARK   15  A    between atoms: C_31  and  O_32
REMARK                            x       y       z     vdW  Elec       q    Type
REMARK                         _______ _______ _______ _____ _____    ______ ____
ROOT
ATOM      1  C   UNL     1       2.052  -2.169   0.162  0.00  0.00    +0.038 C 
ATOM      2  C   UNL     1       3.218  -1.337  -0.405  0.00  0.00    +0.051 C 
ATOM      3  C   UNL     1       2.348  -3.588  -0.364  0.00  0.00    +0.114 C 
ATOM      4  C   UNL     1       4.412  -2.281  -0.208  0.00  0.00    +0.117 C 
ATOM      5  C   UNL     1       3.866  -3.653  -0.609  0.00  0.00    +0.059 C 
ENDROOT
BRANCH   3   6
ATOM      6  O   UNL     1       1.663  -3.868  -1.579  0.00  0.00    -0.384 OA
ATOM      7  H   UNL     1       0.705  -3.827  -1.427  0.00  0.00    +0.210 HD
ENDBRANCH   3   6
BRANCH   4   8
ATOM      8  O   UNL     1       4.802  -2.319   1.163  0.00  0.00    -0.384 OA
ATOM      9  H   UNL     1       5.150  -1.453   1.425  0.00  0.00    +0.210 HD
ENDBRANCH   4   8
BRANCH   2  10
ATOM     10  C   UNL     1       3.401   0.002   0.232  0.00  0.00    -0.026 C 
ATOM     11  C   UNL     1       3.372   1.161  -0.443  0.00  0.00    +0.002 C 
BRANCH  11  12
ATOM     12  C   UNL     1       3.557   2.507   0.199  0.00  0.00    +0.176 C 
BRANCH  12  13
ATOM     13  O   UNL     1       4.729   3.094  -0.361  0.00  0.00    -0.376 OA
ATOM     14  H   UNL     1       5.490   2.516  -0.197  0.00  0.00    +0.211 HD
ENDBRANCH  12  13
BRANCH  12  15
ATOM     15  C   UNL     1       2.365   3.424  -0.064  0.00  0.00    +0.239 C 
BRANCH  15  16
ATOM     16  O   UNL     1       1.300   3.097   0.816  0.00  0.00    -0.472 OA
BRANCH  16  18
ATOM     17 CL   UNL     1      -3.628   1.796   0.883  0.00  0.00    -0.082 Cl
ATOM     18  C   UNL     1       0.028   3.335   0.364  0.00  0.00    +0.140 C 
ATOM     19  C   UNL     1      -1.029   2.538   0.803  0.00  0.00    +0.048 C 
ATOM     20  C   UNL     1      -0.210   4.375  -0.535  0.00  0.00    +0.037 C 
ATOM     21  C   UNL     1      -2.323   2.780   0.343  0.00  0.00    +0.061 C 
ATOM     22  C   UNL     1      -1.504   4.617  -0.996  0.00  0.00    +0.004 C 
ATOM     23  C   UNL     1      -2.561   3.819  -0.556  0.00  0.00    +0.012 C 
ENDBRANCH  16  18
ENDBRANCH  15  16
ENDBRANCH  12  15
ENDBRANCH  11  12
ENDBRANCH   2  10
BRANCH   1  24
ATOM     24  C   UNL     1       0.673  -1.633  -0.206  0.00  0.00    +0.028 C 
BRANCH  24  25
ATOM     25  C   UNL     1      -0.513  -2.414   0.289  0.00  0.00    -0.031 C 
ATOM     26  C   UNL     1      -1.464  -1.993   1.137  0.00  0.00    -0.031 C 
BRANCH  26  27
ATOM     27  C   UNL     1      -2.624  -2.841   1.571  0.00  0.00    +0.026 C 
BRANCH  27  28
ATOM     28  C   UNL     1      -3.992  -2.249   1.203  0.00  0.00    +0.016 C 
BRANCH  28  29
ATOM     29  C   UNL     1      -4.205  -2.066  -0.303  0.00  0.00    +0.110 C 
BRANCH  29  31
ATOM     30  O   UNL     1      -6.445  -1.218   0.135  0.00  0.00    -0.250 OA
ATOM     31  C   UNL     1      -5.565  -1.510  -0.663  0.00  0.00    +0.314 C 
BRANCH  31  32
ATOM     32  O   UNL     1      -5.724  -1.405  -2.008  0.00  0.00    -0.480 OA
ATOM     33  H   UNL     1      -5.022  -1.639  -2.583  0.00  0.00    +0.295 HD
ENDBRANCH  31  32
ENDBRANCH  29  31
ENDBRANCH  28  29
ENDBRANCH  27  28
ENDBRANCH  26  27
ENDBRANCH  24  25
ENDBRANCH   1  24
TORSDOF 15
