REMARK  Name = 134782
REMARK  9 active torsions:
REMARK  status: ('A' for Active; 'I' for Inactive)
REMARK    1  A    between atoms: N_2  and  C_6
REMARK    2  A    between atoms: N_2  and  C_14
REMARK    3  A    between atoms: C_3  and  C_12
REMARK    4  A    between atoms: C_14  and  C_16
REMARK    5  A    between atoms: C_14  and  C_20
REMARK    6  A    between atoms: C_16  and  O_17
REMARK    7  A    between atoms: O_17  and  C_18
REMARK    8  A    between atoms: C_20  and  C_21
REMARK    9  A    between atoms: C_21  and  C_24
REMARK                            x       y       z     vdW  Elec       q    Type
REMARK                         _______ _______ _______ _____ _____    ______ ____
ROOT
ATOM      1  O   UNL     1      -0.176   2.124   1.875  0.00  0.00    -0.275 OA
ATOM      2  N   UNL     1      -0.931   0.665   0.213  0.00  0.00    -0.265 N 
ATOM      3  C   UNL     1      -1.087   1.699   1.159  0.00  0.00    +0.226 C 
ENDROOT
BRANCH   2   6
ATOM      4  O   UNL     1      -2.208  -1.635   0.956  0.00  0.00    -0.273 OA
ATOM      5  N   UNL     1      -2.848  -2.046  -1.198  0.00  0.00    -0.303 N 
ATOM      6  C   UNL     1      -2.025   0.201  -0.600  0.00  0.00    +0.152 C 
ATOM      7  C   UNL     1      -1.721   0.397  -2.079  0.00  0.00    +0.031 C 
ATOM      8  C   UNL     1      -2.810  -0.258  -2.914  0.00  0.00    +0.023 C 
ATOM      9  C   UNL     1      -2.325  -1.241  -0.206  0.00  0.00    +0.241 C 
ATOM     10  C   UNL     1      -2.835  -1.746  -2.617  0.00  0.00    +0.090 C 
ATOM     11  H   UNL     1      -3.264  -2.893  -0.919  0.00  0.00    +0.149 HD
ENDBRANCH   2   6
BRANCH   3  12
ATOM     12  C   UNL     1      -2.486   2.288   1.262  0.00  0.00    +0.085 C 
ATOM     13  C   UNL     1      -2.585   3.386   2.310  0.00  0.00    +0.010 C 
ENDBRANCH   3  12
BRANCH   2  14
ATOM     14  C   UNL     1       0.334   0.006   0.001  0.00  0.00    +0.175 C 
BRANCH  14  16
ATOM     15  O   UNL     1       0.589  -0.377   2.374  0.00  0.00    -0.248 OA
ATOM     16  C   UNL     1       0.797  -0.766   1.230  0.00  0.00    +0.335 C 
BRANCH  16  17
ATOM     17  O   UNL     1       1.455  -1.912   0.898  0.00  0.00    -0.447 OA
BRANCH  17  18
ATOM     18  C   UNL     1       1.928  -2.698   1.996  0.00  0.00    +0.209 C 
ATOM     19  C   UNL     1       2.631  -3.926   1.458  0.00  0.00    +0.051 C 
ENDBRANCH  17  18
ENDBRANCH  16  17
ENDBRANCH  14  16
BRANCH  14  20
ATOM     20  C   UNL     1       1.409   0.988  -0.479  0.00  0.00    +0.041 C 
BRANCH  20  21
ATOM     21  C   UNL     1       2.714   0.312  -0.913  0.00  0.00    +0.087 C 
BRANCH  21  24
ATOM     22  O   UNL     1       3.538   2.522  -1.487  0.00  0.00    -0.275 OA
ATOM     23  N   UNL     1       4.909   0.705  -1.816  0.00  0.00    -0.329 N 
ATOM     24  C   UNL     1       3.734   1.311  -1.425  0.00  0.00    +0.219 C 
ATOM     25  H   UNL     1       5.650   1.249  -2.167  0.00  0.00    +0.145 HD
ATOM     26  H   UNL     1       5.007  -0.272  -1.742  0.00  0.00    +0.145 HD
ENDBRANCH  21  24
ENDBRANCH  20  21
ENDBRANCH  14  20
ENDBRANCH   2  14
TORSDOF 9
