REMARK  Name = 134754
REMARK  8 active torsions:
REMARK  status: ('A' for Active; 'I' for Inactive)
REMARK    1  A    between atoms: C_11  and  O_20
REMARK    2  A    between atoms: C_14  and  O_24
REMARK    3  A    between atoms: C_19  and  O_22
REMARK    4  A    between atoms: O_24  and  C_26
REMARK    5  A    between atoms: C_26  and  C_27
REMARK    6  A    between atoms: C_27  and  C_28
REMARK    7  A    between atoms: C_28  and  C_30
REMARK    8  A    between atoms: C_30  and  O_31
REMARK                            x       y       z     vdW  Elec       q    Type
REMARK                         _______ _______ _______ _____ _____    ______ ____
ROOT
ATOM      1  O   UNL     1      -5.309   2.596  -0.625  0.00  0.00    -0.294 OA
ATOM      2  C   UNL     1      -2.179   1.254  -0.017  0.00  0.00    +0.010 C 
ATOM      3  C   UNL     1      -3.685   0.944   0.119  0.00  0.00    +0.054 C 
ATOM      4  C   UNL     1      -1.328   0.037   0.345  0.00  0.00    +0.008 C 
ATOM      5  C   UNL     1      -1.653  -1.108  -0.662  0.00  0.00    +0.022 C 
ATOM      6  C   UNL     1      -4.038  -0.118  -0.915  0.00  0.00    +0.007 C 
ATOM      7  C   UNL     1      -1.989   2.567   0.742  0.00  0.00    +0.037 C 
ATOM      8  C   UNL     1      -3.180  -1.385  -0.733  0.00  0.00    +0.005 C 
ATOM      9  C   UNL     1       0.170   0.327   0.288  0.00  0.00    +0.049 C 
ATOM     10  C   UNL     1      -4.217   2.343  -0.134  0.00  0.00    +0.176 C 
ATOM     11  C   UNL     1      -3.211   3.397   0.311  0.00  0.00    +0.167 C 
ATOM     12  C   UNL     1      -4.167   0.536   1.523  0.00  0.00    +0.007 C 
ATOM     13  C   UNL     1      -0.784  -2.336  -0.397  0.00  0.00    -0.023 C 
ATOM     14  C   UNL     1       0.960  -0.882   0.789  0.00  0.00    +0.191 C 
ATOM     15  C   UNL     1       0.463  -2.209   0.256  0.00  0.00    +0.016 C 
ATOM     16  C   UNL     1      -1.167  -3.607  -0.865  0.00  0.00    -0.001 C 
ATOM     17  C   UNL     1       1.247  -3.357   0.480  0.00  0.00    +0.035 C 
ATOM     18  C   UNL     1      -0.369  -4.732  -0.649  0.00  0.00    +0.036 C 
ATOM     19  C   UNL     1       0.835  -4.609   0.030  0.00  0.00    +0.133 C 
ENDROOT
BRANCH  11  20
ATOM     20  O   UNL     1      -2.919   4.250  -0.774  0.00  0.00    -0.377 OA
ATOM     21  H   UNL     1      -2.279   4.922  -0.493  0.00  0.00    +0.211 HD
ENDBRANCH  11  20
BRANCH  19  22
ATOM     22  O   UNL     1       1.612  -5.704   0.250  0.00  0.00    -0.506 OA
ATOM     23  H   UNL     1       2.424  -5.617   0.709  0.00  0.00    +0.292 HD
ENDBRANCH  19  22
BRANCH  14  24
ATOM     24  O   UNL     1       2.329  -0.695   0.433  0.00  0.00    -0.448 OA
BRANCH  24  26
ATOM     25  O   UNL     1       2.590   1.090   1.870  0.00  0.00    -0.250 OA
ATOM     26  C   UNL     1       2.898   0.474   0.859  0.00  0.00    +0.318 C 
BRANCH  26  27
ATOM     27  C   UNL     1       3.971   0.886  -0.126  0.00  0.00    +0.121 C 
BRANCH  27  28
ATOM     28  C   UNL     1       4.729   2.137   0.302  0.00  0.00    +0.121 C 
BRANCH  28  30
ATOM     29  O   UNL     1       6.053   1.837  -1.697  0.00  0.00    -0.250 OA
ATOM     30  C   UNL     1       5.823   2.477  -0.679  0.00  0.00    +0.314 C 
BRANCH  30  31
ATOM     31  O   UNL     1       6.516   3.588  -0.326  0.00  0.00    -0.480 OA
ATOM     32  H   UNL     1       6.300   4.043   0.465  0.00  0.00    +0.295 HD
ENDBRANCH  30  31
ENDBRANCH  28  30
ENDBRANCH  27  28
ENDBRANCH  26  27
ENDBRANCH  24  26
ENDBRANCH  14  24
TORSDOF 8
