134787
  -OEChem-03292013323D

 49 52  0     1  0  0  0  0  0999 V2000
   -5.8315   -1.5214    0.5989 O   0  0  0  0  0  0  0  0  0  0  0  0
   -6.0685    1.2200   -1.0627 O   0  0  0  0  0  0  0  0  0  0  0  0
    5.0097    0.2096    0.2306 O   0  0  0  0  0  0  0  0  0  0  0  0
    2.5933    3.4125    0.2718 O   0  5  0  0  0  0  0  0  0  0  0  0
    4.5990    2.5321    0.4156 O   0  0  0  0  0  0  0  0  0  0  0  0
    3.5104   -3.5155   -0.3149 O   0  5  0  0  0  0  0  0  0  0  0  0
    5.2443   -2.2090    0.0102 O   0  0  0  0  0  0  0  0  0  0  0  0
    3.3626    2.4264    0.2584 N   0  3  0  0  0  0  0  0  0  0  0  0
    4.0121   -2.3796   -0.1442 N   0  3  0  0  0  0  0  0  0  0  0  0
   -3.4715   -0.8241    0.3418 C   0  0  1  0  0  0  0  0  0  0  0  0
   -2.9033    0.4472   -0.3235 C   0  0  2  0  0  0  0  0  0  0  0  0
   -1.4298    0.6686    0.0187 C   0  0  1  0  0  0  0  0  0  0  0  0
   -0.6062   -0.5431   -0.5141 C   0  0  2  0  0  0  0  0  0  0  0  0
   -4.9308   -0.7186   -0.1434 C   0  0  2  0  0  0  0  0  0  0  0  0
   -2.6997   -2.0322   -0.2036 C   0  0  0  0  0  0  0  0  0  0  0  0
   -3.9252    1.5281    0.0315 C   0  0  0  0  0  0  0  0  0  0  0  0
   -5.2724    0.7776    0.0287 C   0  0  1  0  0  0  0  0  0  0  0  0
   -1.1807   -1.8867    0.0099 C   0  0  0  0  0  0  0  0  0  0  0  0
   -0.8713    1.9559   -0.5907 C   0  0  0  0  0  0  0  0  0  0  0  0
   -3.4118   -0.8318    1.8898 C   0  0  0  0  0  0  0  0  0  0  0  0
    0.8886   -0.3431   -0.2786 C   0  0  0  0  0  0  0  0  0  0  0  0
    0.5524    2.1879   -0.0933 C   0  0  0  0  0  0  0  0  0  0  0  0
    1.4227    0.9553   -0.1253 C   0  0  0  0  0  0  0  0  0  0  0  0
    1.7803   -1.4302   -0.2977 C   0  0  0  0  0  0  0  0  0  0  0  0
    2.8066    1.1266    0.0558 C   0  0  0  0  0  0  0  0  0  0  0  0
    3.1538   -1.2451   -0.1256 C   0  0  0  0  0  0  0  0  0  0  0  0
    3.6669    0.0326    0.0559 C   0  0  0  0  0  0  0  0  0  0  0  0
   -2.9610    0.3253   -1.4183 H   0  0  0  0  0  0  0  0  0  0  0  0
   -1.3139    0.7420    1.1078 H   0  0  0  0  0  0  0  0  0  0  0  0
   -0.7198   -0.5658   -1.6092 H   0  0  0  0  0  0  0  0  0  0  0  0
   -5.0166   -1.0203   -1.1951 H   0  0  0  0  0  0  0  0  0  0  0  0
   -2.8876   -2.1411   -1.2799 H   0  0  0  0  0  0  0  0  0  0  0  0
   -3.0507   -2.9597    0.2646 H   0  0  0  0  0  0  0  0  0  0  0  0
   -3.7213    1.9320    1.0296 H   0  0  0  0  0  0  0  0  0  0  0  0
   -3.9021    2.3596   -0.6805 H   0  0  0  0  0  0  0  0  0  0  0  0
   -5.8354    0.9760    0.9466 H   0  0  0  0  0  0  0  0  0  0  0  0
   -0.9390   -2.0040    1.0731 H   0  0  0  0  0  0  0  0  0  0  0  0
   -0.7069   -2.7299   -0.5055 H   0  0  0  0  0  0  0  0  0  0  0  0
   -1.4865    2.8226   -0.3235 H   0  0  0  0  0  0  0  0  0  0  0  0
   -0.8834    1.8836   -1.6866 H   0  0  0  0  0  0  0  0  0  0  0  0
   -2.3905   -0.7645    2.2735 H   0  0  0  0  0  0  0  0  0  0  0  0
   -3.9744   -0.0055    2.3351 H   0  0  0  0  0  0  0  0  0  0  0  0
   -3.8380   -1.7608    2.2865 H   0  0  0  0  0  0  0  0  0  0  0  0
    0.4929    2.5810    0.9290 H   0  0  0  0  0  0  0  0  0  0  0  0
    0.8979    2.9393   -0.8109 H   0  0  0  0  0  0  0  0  0  0  0  0
   -6.7283   -1.3277    0.2771 H   0  0  0  0  0  0  0  0  0  0  0  0
   -5.5579    1.0917   -1.8804 H   0  0  0  0  0  0  0  0  0  0  0  0
    1.3867   -2.4290   -0.4608 H   0  0  0  0  0  0  0  0  0  0  0  0
    5.3984   -0.5710    0.6556 H   0  0  0  0  0  0  0  0  0  0  0  0
  1 14  1  0  0  0  0
  1 46  1  0  0  0  0
  2 17  1  0  0  0  0
  2 47  1  0  0  0  0
  3 27  1  0  0  0  0
  3 49  1  0  0  0  0
  4  8  1  0  0  0  0
  5  8  2  0  0  0  0
  6  9  1  0  0  0  0
  7  9  2  0  0  0  0
  8 25  1  0  0  0  0
  9 26  1  0  0  0  0
 10 11  1  0  0  0  0
 10 14  1  0  0  0  0
 10 15  1  0  0  0  0
 10 20  1  0  0  0  0
 11 12  1  0  0  0  0
 11 16  1  0  0  0  0
 11 28  1  0  0  0  0
 12 13  1  0  0  0  0
 12 19  1  0  0  0  0
 12 29  1  0  0  0  0
 13 18  1  0  0  0  0
 13 21  1  0  0  0  0
 13 30  1  0  0  0  0
 14 17  1  0  0  0  0
 14 31  1  0  0  0  0
 15 18  1  0  0  0  0
 15 32  1  0  0  0  0
 15 33  1  0  0  0  0
 16 17  1  0  0  0  0
 16 34  1  0  0  0  0
 16 35  1  0  0  0  0
 17 36  1  0  0  0  0
 18 37  1  0  0  0  0
 18 38  1  0  0  0  0
 19 22  1  0  0  0  0
 19 39  1  0  0  0  0
 19 40  1  0  0  0  0
 20 41  1  0  0  0  0
 20 42  1  0  0  0  0
 20 43  1  0  0  0  0
 21 23  1  0  0  0  0
 21 24  2  0  0  0  0
 22 23  1  0  0  0  0
 22 44  1  0  0  0  0
 22 45  1  0  0  0  0
 23 25  2  0  0  0  0
 24 26  1  0  0  0  0
 24 48  1  0  0  0  0
 25 27  1  0  0  0  0
 26 27  2  0  0  0  0
M  CHG  4   4  -1   6  -1   8   1   9   1
M  END
> <PUBCHEM_COMPOUND_CID>
134787

> <PUBCHEM_CONFORMER_RMSD>
0.8

> <PUBCHEM_CONFORMER_DIVERSEORDER>
1

> <PUBCHEM_MMFF94_PARTIAL_CHARGES>
23
1 -0.68
13 0.14
14 0.28
17 0.28
2 -0.68
21 -0.14
22 0.14
23 -0.14
24 -0.15
25 0.13
26 0.13
27 0.08
3 -0.53
4 -0.52
46 0.4
47 0.4
48 0.15
49 0.45
5 -0.52
6 -0.52
7 -0.52
8 0.91
9 0.91

> <PUBCHEM_EFFECTIVE_ROTOR_COUNT>
3.4

> <PUBCHEM_PHARMACOPHORE_FEATURES>
15
1 1 acceptor
1 1 donor
1 2 acceptor
1 2 donor
1 3 donor
1 4 acceptor
1 4 anion
1 5 acceptor
1 6 acceptor
1 6 anion
1 7 acceptor
5 10 11 14 16 17 rings
6 10 11 12 13 15 18 rings
6 12 13 19 21 22 23 rings
6 21 23 24 25 26 27 rings

> <PUBCHEM_HEAVY_ATOM_COUNT>
27

> <PUBCHEM_ATOM_DEF_STEREO_COUNT>
6

> <PUBCHEM_ATOM_UDEF_STEREO_COUNT>
0

> <PUBCHEM_BOND_DEF_STEREO_COUNT>
0

> <PUBCHEM_BOND_UDEF_STEREO_COUNT>
0

> <PUBCHEM_ISOTOPIC_ATOM_COUNT>
0

> <PUBCHEM_COMPONENT_COUNT>
1

> <PUBCHEM_CACTVS_TAUTO_COUNT>
17

> <PUBCHEM_CONFORMER_ID>
00020E8300000001

> <PUBCHEM_MMFF94_ENERGY>
123.0198

> <PUBCHEM_FEATURE_SELFOVERLAP>
76.385

> <PUBCHEM_SHAPE_FINGERPRINT>
10 15 18263354953867566680
10411042 1 18124033426003767718
10622 236 17844218900497741495
10835480 77 18408878555977036957
11045977 3 18260832583492173883
11405975 8 18411705357247529849
11578080 2 17241586352937790724
12107183 9 17983024349279918825
12236239 1 17632859737176013239
12403259 226 18263923246195483204
12403259 415 18186798050895345037
12403260 363 18272931584038420557
12507560 40 18335423504118438207
13140716 1 18339370647677827337
13402501 40 18336264552814184367
13533116 47 18272651281392473235
13583140 156 17844525720012219225
13675066 3 18114185271824772563
138480 1 18411700968055112884
14341114 176 18412831282523275320
14739800 52 17131545150223334424
14866123 147 17548702876409433000
15042514 8 17689995640329542434
15196674 1 18410293618803791117
15927050 60 18125721442946045750
16992752 21 17905895774131688174
17349148 13 17632580435600596863
17492 89 18338517568362733195
17844677 252 18341338820646138953
1813 80 17095240332408805372
19591789 44 18337390439878245103
200 152 18131630076282704127
20028762 73 18130499760791721327
20511986 3 17916852629673645471
20645477 70 18409445899243508870
20832881 197 18188772730402110738
21033648 29 17458615680416676717
21033650 10 16298948632664765805
21065198 57 18410294718109839927
21267235 1 18410864260527058174
21279426 13 18263360300921858853
21421861 104 18114730569684232026
21452121 103 18410849993062231088
21521239 73 18270661127282408759
21859007 373 17678718073785239069
221490 88 18408889508063818680
22182313 1 18114728374333886821
23559900 14 18411133623722036626
3004659 81 18114465561601882958
335352 9 18338234856355430557
3421961 26 18411980235365476672
34934 24 18339355365740719173
350125 39 18410012118089230668
3633792 109 18340759348486799693
4015057 19 18340475738721373717
4073 2 18114467846202374131
4214541 1 18410293593034065261
460360 51 18267890318450331777
5104073 3 18409453587704337993
5265222 85 17760939832963711276
5283173 99 18188201010410450437
59755656 215 18410296934750990276
9709674 26 18335143137159121379
9981440 41 17834389399514647800

> <PUBCHEM_SHAPE_MULTIPOLES>
504.6
12.25
3.22
0.83
4.72
0.13
-0.22
-1.47
-0.54
-3.85
0.02
0.74
-0.06
1.13

> <PUBCHEM_SHAPE_SELFOVERLAP>
1109.579

> <PUBCHEM_SHAPE_VOLUME>
270.5

> <PUBCHEM_COORDINATE_TYPE>
2
5
10

$$$$
