REMARK  Name = 13470393
REMARK  15 active torsions:
REMARK  status: ('A' for Active; 'I' for Inactive)
REMARK    1  A    between atoms: C_1  and  C_24
REMARK    2  A    between atoms: C_2  and  C_10
REMARK    3  A    between atoms: C_3  and  O_6
REMARK    4  A    between atoms: C_4  and  O_8
REMARK    5  A    between atoms: C_11  and  C_12
REMARK    6  A    between atoms: C_12  and  O_13
REMARK    7  A    between atoms: C_12  and  C_15
REMARK    8  A    between atoms: C_15  and  O_16
REMARK    9  A    between atoms: O_16  and  C_18
REMARK   10  A    between atoms: C_24  and  C_25
REMARK   11  A    between atoms: C_26  and  C_27
REMARK   12  A    between atoms: C_27  and  C_28
REMARK   13  A    between atoms: C_28  and  C_29
REMARK   14  A    between atoms: C_29  and  C_31
REMARK   15  A    between atoms: C_31  and  O_32
REMARK                            x       y       z     vdW  Elec       q    Type
REMARK                         _______ _______ _______ _____ _____    ______ ____
ROOT
ATOM      1  C   UNL     1       2.160  -1.670   0.178  0.00  0.00    +0.038 C 
ATOM      2  C   UNL     1       0.638  -1.452   0.157  0.00  0.00    +0.051 C 
ATOM      3  C   UNL     1       2.283  -3.149  -0.200  0.00  0.00    +0.114 C 
ATOM      4  C   UNL     1       0.163  -2.283  -1.048  0.00  0.00    +0.117 C 
ATOM      5  C   UNL     1       1.269  -3.313  -1.331  0.00  0.00    +0.059 C 
ENDROOT
BRANCH   3   6
ATOM      6  O   UNL     1       1.961  -4.017   0.880  0.00  0.00    -0.384 OA
ATOM      7  H   UNL     1       2.612  -3.904   1.591  0.00  0.00    +0.210 HD
ENDBRANCH   3   6
BRANCH   4   8
ATOM      8  O   UNL     1      -1.048  -2.958  -0.732  0.00  0.00    -0.384 OA
ATOM      9  H   UNL     1      -1.744  -2.306  -0.553  0.00  0.00    +0.210 HD
ENDBRANCH   4   8
BRANCH   2  10
ATOM     10  C   UNL     1       0.241  -0.013   0.041  0.00  0.00    -0.026 C 
ATOM     11  C   UNL     1      -0.529   0.623   0.936  0.00  0.00    +0.002 C 
BRANCH  11  12
ATOM     12  C   UNL     1      -0.928   2.067   0.817  0.00  0.00    +0.176 C 
BRANCH  12  13
ATOM     13  O   UNL     1      -0.385   2.758   1.939  0.00  0.00    -0.376 OA
ATOM     14  H   UNL     1       0.580   2.656   1.945  0.00  0.00    +0.211 HD
ENDBRANCH  12  13
BRANCH  12  15
ATOM     15  C   UNL     1      -2.445   2.233   0.816  0.00  0.00    +0.239 C 
BRANCH  15  16
ATOM     16  O   UNL     1      -3.008   1.536  -0.286  0.00  0.00    -0.472 OA
BRANCH  16  18
ATOM     17 CL   UNL     1      -6.405  -2.061  -1.475  0.00  0.00    -0.082 Cl
ATOM     18  C   UNL     1      -4.270   1.028  -0.118  0.00  0.00    +0.140 C 
ATOM     19  C   UNL     1      -4.645  -0.122  -0.802  0.00  0.00    +0.048 C 
ATOM     20  C   UNL     1      -5.162   1.670   0.733  0.00  0.00    +0.037 C 
ATOM     21  C   UNL     1      -5.930  -0.638  -0.632  0.00  0.00    +0.061 C 
ATOM     22  C   UNL     1      -6.446   1.155   0.903  0.00  0.00    +0.004 C 
ATOM     23  C   UNL     1      -6.830   0.000   0.220  0.00  0.00    +0.012 C 
ENDBRANCH  16  18
ENDBRANCH  15  16
ENDBRANCH  12  15
ENDBRANCH  11  12
ENDBRANCH   2  10
BRANCH   1  24
ATOM     24  C   UNL     1       2.803  -1.327   1.515  0.00  0.00    +0.028 C 
BRANCH  24  25
ATOM     25  C   UNL     1       4.283  -1.567   1.637  0.00  0.00    -0.031 C 
ATOM     26  C   UNL     1       5.271  -0.721   1.310  0.00  0.00    -0.031 C 
BRANCH  26  27
ATOM     27  C   UNL     1       5.038   0.652   0.748  0.00  0.00    +0.026 C 
BRANCH  27  28
ATOM     28  C   UNL     1       5.651   0.860  -0.643  0.00  0.00    +0.016 C 
BRANCH  28  29
ATOM     29  C   UNL     1       5.435   2.265  -1.214  0.00  0.00    +0.110 C 
BRANCH  29  31
ATOM     30  O   UNL     1       3.076   1.842  -1.645  0.00  0.00    -0.250 OA
ATOM     31  C   UNL     1       3.978   2.631  -1.400  0.00  0.00    +0.314 C 
BRANCH  31  32
ATOM     32  O   UNL     1       3.781   3.971  -1.304  0.00  0.00    -0.480 OA
ATOM     33  H   UNL     1       4.502   4.539  -1.114  0.00  0.00    +0.295 HD
ENDBRANCH  31  32
ENDBRANCH  29  31
ENDBRANCH  28  29
ENDBRANCH  27  28
ENDBRANCH  26  27
ENDBRANCH  24  25
ENDBRANCH   1  24
TORSDOF 15
