REMARK  Name = 134715239
REMARK  3 active torsions:
REMARK  status: ('A' for Active; 'I' for Inactive)
REMARK    1  A    between atoms: C_11  and  C_24
REMARK    2  A    between atoms: C_13  and  O_28
REMARK    3  A    between atoms: C_16  and  O_30
REMARK                            x       y       z     vdW  Elec       q    Type
REMARK                         _______ _______ _______ _____ _____    ______ ____
ROOT
ATOM      1  O   UNL     1      -0.289  -0.069   1.635  0.00  0.00    -0.310 OA
ATOM      2  O   UNL     1      -0.328  -2.757  -0.485  0.00  0.00    -0.450 OA
ATOM      3  O   UNL     1       1.577   1.597   1.606  0.00  0.00    -0.422 OA
ATOM      4  O   UNL     1      -3.677   0.702  -1.254  0.00  0.00    -0.443 OA
ATOM      5  O   UNL     1      -1.298  -2.911   1.582  0.00  0.00    -0.247 OA
ATOM      6  O   UNL     1       3.140   3.010   0.653  0.00  0.00    -0.247 OA
ATOM      7  O   UNL     1      -5.264   1.399   0.263  0.00  0.00    -0.245 OA
ATOM      8  C   UNL     1      -0.191  -0.377  -0.769  0.00  0.00    +0.110 C 
ATOM      9  C   UNL     1       1.064   0.321  -0.235  0.00  0.00    +0.108 C 
ATOM     10  C   UNL     1      -0.933  -0.744   0.551  0.00  0.00    +0.208 C 
ATOM     11  C   UNL     1       2.037  -0.888   0.037  0.00  0.00    +0.013 C 
ATOM     12  C   UNL     1       0.241  -1.736  -1.326  0.00  0.00    +0.174 C 
ATOM     13  C   UNL     1      -1.220   0.427  -1.602  0.00  0.00    +0.161 C 
ATOM     14  C   UNL     1       0.469   0.962   1.001  0.00  0.00    +0.294 C 
ATOM     15  C   UNL     1       1.759  -1.780  -1.180  0.00  0.00    +0.044 C 
ATOM     16  C   UNL     1       1.787   1.541  -0.776  0.00  0.00    +0.216 C 
ATOM     17  C   UNL     1      -2.329  -0.309   0.272  0.00  0.00    +0.034 C 
ATOM     18  C   UNL     1      -2.557  -0.164  -1.178  0.00  0.00    +0.217 C 
ATOM     19  C   UNL     1      -0.884  -2.242   0.648  0.00  0.00    +0.346 C 
ATOM     20  C   UNL     1       2.273   2.157   0.541  0.00  0.00    +0.346 C 
ATOM     21  C   UNL     1      -3.307   0.223   0.995  0.00  0.00    +0.052 C 
ATOM     22  C   UNL     1      -4.219   0.826   0.002  0.00  0.00    +0.337 C 
ATOM     23  C   UNL     1      -3.459   0.404   2.454  0.00  0.00    +0.037 C 
ENDROOT
BRANCH  11  24
ATOM     24  C   UNL     1       3.535  -0.650   0.200  0.00  0.00    +0.000 C 
ATOM     25  C   UNL     1       3.794   0.191   1.462  0.00  0.00    +0.000 C 
ATOM     26  C   UNL     1       4.266  -1.997   0.333  0.00  0.00    +0.000 C 
ATOM     27  C   UNL     1       4.080   0.101  -1.027  0.00  0.00    +0.000 C 
ENDBRANCH  11  24
BRANCH  13  28
ATOM     28  O   UNL     1      -1.025   0.273  -2.995  0.00  0.00    -0.380 OA
ATOM     29  H   UNL     1      -0.169   0.655  -3.247  0.00  0.00    +0.211 HD
ENDBRANCH  13  28
BRANCH  16  30
ATOM     30  O   UNL     1       0.958   2.490  -1.405  0.00  0.00    -0.374 OA
ATOM     31  H   UNL     1       0.633   2.130  -2.245  0.00  0.00    +0.211 HD
ENDBRANCH  16  30
TORSDOF 3
