134715044
  -OEChem-03292013293D

 57 58  0     1  0  0  0  0  0999 V2000
   -0.1577    4.6938    0.0217 O   0  0  0  0  0  0  0  0  0  0  0  0
   -3.1365   -0.9213   -1.7332 O   0  0  0  0  0  0  0  0  0  0  0  0
   -2.7997   -0.5493    1.8665 O   0  0  0  0  0  0  0  0  0  0  0  0
   -5.9990   -0.5100   -0.7472 O   0  0  0  0  0  0  0  0  0  0  0  0
   -4.3777    1.6959   -0.1464 O   0  0  0  0  0  0  0  0  0  0  0  0
   -3.8739   -4.8702    0.2447 O   0  0  0  0  0  0  0  0  0  0  0  0
   -4.9316   -2.1968    0.4701 N   0  0  0  0  0  0  0  0  0  0  0  0
    0.4079    3.5224    0.6159 C   0  0  1  0  0  0  0  0  0  0  0  0
   -0.4847    3.4364   -0.5982 C   0  0  1  0  0  0  0  0  0  0  0  0
    1.9192    3.4167    0.4869 C   0  0  0  0  0  0  0  0  0  0  0  0
   -3.5781   -0.5201   -0.4509 C   0  0  2  0  0  0  0  0  0  0  0  0
   -2.7985   -1.2762    0.6372 C   0  0  2  0  0  0  0  0  0  0  0  0
    2.3764    1.9591    0.4346 C   0  0  0  0  0  0  0  0  0  0  0  0
   -3.5869   -2.5747    0.8405 C   0  0  2  0  0  0  0  0  0  0  0  0
   -1.7920    2.8149   -0.4548 C   0  0  0  0  0  0  0  0  0  0  0  0
    3.9006    1.8567    0.3389 C   0  0  0  0  0  0  0  0  0  0  0  0
   -4.9950   -1.0285   -0.2824 C   0  0  0  0  0  0  0  0  0  0  0  0
   -3.4140    0.9639   -0.3601 C   0  0  0  0  0  0  0  0  0  0  0  0
    4.3532    0.3977    0.2486 C   0  0  0  0  0  0  0  0  0  0  0  0
   -2.0337    1.4979   -0.5213 C   0  0  0  0  0  0  0  0  0  0  0  0
   -3.0889   -3.7228   -0.0276 C   0  0  0  0  0  0  0  0  0  0  0  0
    5.8746    0.2375    0.1631 C   0  0  0  0  0  0  0  0  0  0  0  0
    6.3212   -1.2173   -0.0028 C   0  0  0  0  0  0  0  0  0  0  0  0
    7.8383   -1.3707   -0.1483 C   0  0  0  0  0  0  0  0  0  0  0  0
    8.2834   -2.8142   -0.3889 C   0  0  0  0  0  0  0  0  0  0  0  0
    9.7734   -2.9212   -0.5064 C   0  0  0  0  0  0  0  0  0  0  0  0
    0.0370    3.2165    1.5851 H   0  0  0  0  0  0  0  0  0  0  0  0
   -0.0130    3.2497   -1.5577 H   0  0  0  0  0  0  0  0  0  0  0  0
    2.3740    3.9230    1.3461 H   0  0  0  0  0  0  0  0  0  0  0  0
    2.2567    3.9430   -0.4144 H   0  0  0  0  0  0  0  0  0  0  0  0
   -1.7561   -1.4676    0.3593 H   0  0  0  0  0  0  0  0  0  0  0  0
    1.9151    1.4613   -0.4273 H   0  0  0  0  0  0  0  0  0  0  0  0
    2.0241    1.4304    1.3290 H   0  0  0  0  0  0  0  0  0  0  0  0
   -3.6247   -2.8836    1.8914 H   0  0  0  0  0  0  0  0  0  0  0  0
   -2.6190    3.4999   -0.2846 H   0  0  0  0  0  0  0  0  0  0  0  0
    4.3579    2.3293    1.2164 H   0  0  0  0  0  0  0  0  0  0  0  0
    4.2529    2.4032   -0.5442 H   0  0  0  0  0  0  0  0  0  0  0  0
   -5.7523   -2.7421    0.7145 H   0  0  0  0  0  0  0  0  0  0  0  0
    3.8944   -0.0659   -0.6337 H   0  0  0  0  0  0  0  0  0  0  0  0
    3.9851   -0.1531    1.1230 H   0  0  0  0  0  0  0  0  0  0  0  0
   -1.2271    0.7941   -0.6955 H   0  0  0  0  0  0  0  0  0  0  0  0
   -2.0450   -3.9556    0.2057 H   0  0  0  0  0  0  0  0  0  0  0  0
   -3.1713   -3.4999   -1.0959 H   0  0  0  0  0  0  0  0  0  0  0  0
    6.3341    0.6575    1.0662 H   0  0  0  0  0  0  0  0  0  0  0  0
    6.2477    0.8250   -0.6849 H   0  0  0  0  0  0  0  0  0  0  0  0
   -3.7039   -0.4937   -2.3977 H   0  0  0  0  0  0  0  0  0  0  0  0
    5.9788   -1.8026    0.8593 H   0  0  0  0  0  0  0  0  0  0  0  0
    5.8331   -1.6424   -0.8886 H   0  0  0  0  0  0  0  0  0  0  0  0
   -2.3095   -1.0793    2.5180 H   0  0  0  0  0  0  0  0  0  0  0  0
    8.1830   -0.7457   -0.9818 H   0  0  0  0  0  0  0  0  0  0  0  0
    8.3234   -0.9852    0.7572 H   0  0  0  0  0  0  0  0  0  0  0  0
   -3.5310   -5.5909   -0.3109 H   0  0  0  0  0  0  0  0  0  0  0  0
    7.8154   -3.1948   -1.3042 H   0  0  0  0  0  0  0  0  0  0  0  0
    7.9356   -3.4471    0.4358 H   0  0  0  0  0  0  0  0  0  0  0  0
   10.1501   -2.3229   -1.3425 H   0  0  0  0  0  0  0  0  0  0  0  0
   10.2699   -2.5781    0.4071 H   0  0  0  0  0  0  0  0  0  0  0  0
   10.0706   -3.9607   -0.6784 H   0  0  0  0  0  0  0  0  0  0  0  0
  1  8  1  0  0  0  0
  1  9  1  0  0  0  0
  2 11  1  0  0  0  0
  2 46  1  0  0  0  0
  3 12  1  0  0  0  0
  3 49  1  0  0  0  0
  4 17  2  0  0  0  0
  5 18  2  0  0  0  0
  6 21  1  0  0  0  0
  6 52  1  0  0  0  0
  7 14  1  0  0  0  0
  7 17  1  0  0  0  0
  7 38  1  0  0  0  0
  8  9  1  0  0  0  0
  8 10  1  0  0  0  0
  8 27  1  0  0  0  0
  9 15  1  0  0  0  0
  9 28  1  0  0  0  0
 10 13  1  0  0  0  0
 10 29  1  0  0  0  0
 10 30  1  0  0  0  0
 11 12  1  0  0  0  0
 11 17  1  0  0  0  0
 11 18  1  0  0  0  0
 12 14  1  0  0  0  0
 12 31  1  0  0  0  0
 13 16  1  0  0  0  0
 13 32  1  0  0  0  0
 13 33  1  0  0  0  0
 14 21  1  0  0  0  0
 14 34  1  0  0  0  0
 15 20  2  0  0  0  0
 15 35  1  0  0  0  0
 16 19  1  0  0  0  0
 16 36  1  0  0  0  0
 16 37  1  0  0  0  0
 18 20  1  0  0  0  0
 19 22  1  0  0  0  0
 19 39  1  0  0  0  0
 19 40  1  0  0  0  0
 20 41  1  0  0  0  0
 21 42  1  0  0  0  0
 21 43  1  0  0  0  0
 22 23  1  0  0  0  0
 22 44  1  0  0  0  0
 22 45  1  0  0  0  0
 23 24  1  0  0  0  0
 23 47  1  0  0  0  0
 23 48  1  0  0  0  0
 24 25  1  0  0  0  0
 24 50  1  0  0  0  0
 24 51  1  0  0  0  0
 25 26  1  0  0  0  0
 25 53  1  0  0  0  0
 25 54  1  0  0  0  0
 26 55  1  0  0  0  0
 26 56  1  0  0  0  0
 26 57  1  0  0  0  0
M  END
> <PUBCHEM_COMPOUND_CID>
134715044

> <PUBCHEM_CONFORMER_RMSD>
1.4

> <PUBCHEM_CONFORMER_DIVERSEORDER>
1
136
2
50
25
63
100
73
45
143
109
89
39
140
41
127
18
65
43
11
97
35
68
131
48
34
132
26
40
29
83
126
124
117
61
55
108
128
64
59
62
71
57
51
14
70
123
54
101
32
130
22
79
80
58
44
28
116
72
137
110
47
37
92
17
75
120
134
33
119
104
133
52
93
38
91
114
16
95
53
135
7
88
60
9
81
49
122
66
106
90
23
113
67
129
76
87
121
19
69
84
31
78
96
46
138
13
105
8
142
36
102
56
111
118
141
15
21
27
24
10
139
115
4
94
99
6
85
20
42
125
107
30
74
112
3
82
98
12
86
5
103
77

> <PUBCHEM_MMFF94_PARTIAL_CHARGES>
26
1 -0.3
10 0.09
11 0.4
12 0.28
14 0.3
15 -0.19
17 0.57
18 0.49
2 -0.68
20 -0.14
21 0.28
27 0.1
28 0.1
3 -0.68
35 0.15
38 0.37
4 -0.57
41 0.15
46 0.4
49 0.4
5 -0.57
52 0.4
6 -0.68
7 -0.73
8 -0.05
9 0.09

> <PUBCHEM_EFFECTIVE_ROTOR_COUNT>
13.4

> <PUBCHEM_PHARMACOPHORE_FEATURES>
12
1 1 acceptor
1 2 acceptor
1 2 donor
1 26 hydrophobe
1 3 acceptor
1 3 donor
1 4 acceptor
1 5 acceptor
1 6 acceptor
1 6 donor
1 7 donor
5 7 11 12 14 17 rings

> <PUBCHEM_HEAVY_ATOM_COUNT>
26

> <PUBCHEM_ATOM_DEF_STEREO_COUNT>
4

> <PUBCHEM_ATOM_UDEF_STEREO_COUNT>
1

> <PUBCHEM_BOND_DEF_STEREO_COUNT>
1

> <PUBCHEM_BOND_UDEF_STEREO_COUNT>
0

> <PUBCHEM_ISOTOPIC_ATOM_COUNT>
0

> <PUBCHEM_COMPONENT_COUNT>
1

> <PUBCHEM_CACTVS_TAUTO_COUNT>
2

> <PUBCHEM_CONFORMER_ID>
080796A400000001

> <PUBCHEM_MMFF94_ENERGY>
28.1313

> <PUBCHEM_FEATURE_SELFOVERLAP>
60.907

> <PUBCHEM_SHAPE_FINGERPRINT>
10049733 31 17971773304249170043
10391435 84 18339067226082950400
10864689 126 18335974298797577179
11197282 1 18410855495089247930
11273773 46 18409725141306899749
117089 54 18336832017116279154
11756154 5 18411691072724425230
12107183 9 18268160906492205705
12643181 29 18337386033484840740
12645989 146 18341893030436760414
1361 4 18410294723233183812
14114211 68 16153974786574678153
14178184 131 18202277009940845446
14251764 30 18338517547045522228
14420673 8 18410012139458584913
14866123 147 18340208501630321721
14931854 50 17967805025228712072
15230672 131 18116987797904211552
17492 89 17977944914949887883
19246450 95 18054812610673274561
20609170 109 13325416338475354167
21196832 93 18410296909423901734
21307412 95 18336253596700921805
229767 8 18264496263821856378
23379529 103 18409728508413839400
23559900 14 18193829569362591313
23569914 152 17983546832811444823
23569914 2 11919410940132448691
23569917 315 18264490754338813623
25025965 108 17557678319431063878
32027 91 18340481287180940313
404807 14 18265900340381022851
437795 96 18272090448990623166
484985 159 18338798905583882137
7970288 3 18410008853935132576
9709674 26 17320976869337168449
9980921 52 17554877042744710823

> <PUBCHEM_SHAPE_MULTIPOLES>
494.87
21.81
6.29
0.97
62.45
0.6
0.05
-28.65
-3.31
-1.96
0.38
-0.76
-0.13
2.07

> <PUBCHEM_SHAPE_SELFOVERLAP>
987.587

> <PUBCHEM_SHAPE_VOLUME>
292.2

> <PUBCHEM_COORDINATE_TYPE>
2
5
10

$$$$
