134778
  -OEChem-03292013323D

 38 38  0     0  0  0  0  0  0999 V2000
   -2.3870    1.8947    2.0118 F   0  0  0  0  0  0  0  0  0  0  0  0
   -1.1024    2.6359    0.4060 F   0  0  0  0  0  0  0  0  0  0  0  0
   -3.0806    3.5008    0.7103 F   0  0  0  0  0  0  0  0  0  0  0  0
    2.1091    2.5945   -0.9568 O   0  0  0  0  0  0  0  0  0  0  0  0
    0.9855   -2.4380    0.7834 N   0  0  0  0  0  0  0  0  0  0  0  0
   -0.0794   -1.6823    0.4975 N   0  0  0  0  0  0  0  0  0  0  0  0
   -1.9175   -2.1139   -0.9835 N   0  0  0  0  0  0  0  0  0  0  0  0
    4.3346    2.9792   -1.3830 N   0  0  0  0  0  0  0  0  0  0  0  0
   -2.2043    0.1067   -0.1512 N   0  0  0  0  0  0  0  0  0  0  0  0
   -3.6275   -0.8516   -1.8082 N   0  0  0  0  0  0  0  0  0  0  0  0
    3.1024   -1.1324    1.0801 C   0  0  0  0  0  0  0  0  0  0  0  0
    1.9769   -1.9416    1.7304 C   0  0  0  0  0  0  0  0  0  0  0  0
    2.6015    0.1432    0.3921 C   0  0  0  0  0  0  0  0  0  0  0  0
    3.7458    0.9783   -0.1817 C   0  0  0  0  0  0  0  0  0  0  0  0
    1.0305   -3.6281    0.1363 C   0  0  0  0  0  0  0  0  0  0  0  0
   -0.7450   -2.4380   -0.3799 C   0  0  0  0  0  0  0  0  0  0  0  0
   -0.1003   -3.6617   -0.6425 C   0  0  0  0  0  0  0  0  0  0  0  0
    3.2833    2.2461   -0.8755 C   0  0  0  0  0  0  0  0  0  0  0  0
   -2.5684   -0.8768   -0.9187 C   0  0  0  0  0  0  0  0  0  0  0  0
   -2.9791    1.3384   -0.2065 C   0  0  0  0  0  0  0  0  0  0  0  0
   -2.3781    2.3468    0.7397 C   0  0  0  0  0  0  0  0  0  0  0  0
    3.8306   -0.8644    1.8549 H   0  0  0  0  0  0  0  0  0  0  0  0
    3.6283   -1.7558    0.3463 H   0  0  0  0  0  0  0  0  0  0  0  0
    2.3937   -2.8153    2.2448 H   0  0  0  0  0  0  0  0  0  0  0  0
    1.4450   -1.3431    2.4794 H   0  0  0  0  0  0  0  0  0  0  0  0
    2.0302    0.7479    1.1073 H   0  0  0  0  0  0  0  0  0  0  0  0
    1.9173   -0.1115   -0.4253 H   0  0  0  0  0  0  0  0  0  0  0  0
    4.3110    0.3814   -0.9078 H   0  0  0  0  0  0  0  0  0  0  0  0
    4.4344    1.2643    0.6226 H   0  0  0  0  0  0  0  0  0  0  0  0
    1.8356   -4.3371    0.2717 H   0  0  0  0  0  0  0  0  0  0  0  0
   -0.4046   -4.4614   -1.3026 H   0  0  0  0  0  0  0  0  0  0  0  0
   -2.3422   -2.7956   -1.6093 H   0  0  0  0  0  0  0  0  0  0  0  0
    4.1735    3.8561   -1.8672 H   0  0  0  0  0  0  0  0  0  0  0  0
    5.2993    2.6753   -1.2977 H   0  0  0  0  0  0  0  0  0  0  0  0
   -2.9681    1.7586   -1.2188 H   0  0  0  0  0  0  0  0  0  0  0  0
   -4.0187    1.1542    0.0874 H   0  0  0  0  0  0  0  0  0  0  0  0
   -4.2229   -0.0387   -1.9181 H   0  0  0  0  0  0  0  0  0  0  0  0
   -3.8503   -1.6571   -2.3830 H   0  0  0  0  0  0  0  0  0  0  0  0
  1 21  1  0  0  0  0
  2 21  1  0  0  0  0
  3 21  1  0  0  0  0
  4 18  2  0  0  0  0
  5  6  1  0  0  0  0
  5 12  1  0  0  0  0
  5 15  1  0  0  0  0
  6 16  2  0  0  0  0
  7 16  1  0  0  0  0
  7 19  1  0  0  0  0
  7 32  1  0  0  0  0
  8 18  1  0  0  0  0
  8 33  1  0  0  0  0
  8 34  1  0  0  0  0
  9 19  2  0  0  0  0
  9 20  1  0  0  0  0
 10 19  1  0  0  0  0
 10 37  1  0  0  0  0
 10 38  1  0  0  0  0
 11 12  1  0  0  0  0
 11 13  1  0  0  0  0
 11 22  1  0  0  0  0
 11 23  1  0  0  0  0
 12 24  1  0  0  0  0
 12 25  1  0  0  0  0
 13 14  1  0  0  0  0
 13 26  1  0  0  0  0
 13 27  1  0  0  0  0
 14 18  1  0  0  0  0
 14 28  1  0  0  0  0
 14 29  1  0  0  0  0
 15 17  2  0  0  0  0
 15 30  1  0  0  0  0
 16 17  1  0  0  0  0
 17 31  1  0  0  0  0
 20 21  1  0  0  0  0
 20 35  1  0  0  0  0
 20 36  1  0  0  0  0
M  END
> <PUBCHEM_COMPOUND_CID>
134778

> <PUBCHEM_CONFORMER_RMSD>
1

> <PUBCHEM_CONFORMER_DIVERSEORDER>
1
256
126
15
113
202
67
93
240
48
90
80
174
170
177
21
53
198
99
72
147
71
5
127
117
118
91
3
160
35
239
30
238
154
86
14
148
129
142
87
11
264
183
172
47
219
231
75
251
17
78
65
10
164
211
218
241
145
188
46
27
224
82
180
260
184
2
217
43
146
23
32
228
212
191
18
144
210
189
45
242
96
95
104
16
55
207
237
22
167
229
199
249
175
28
150
227
125
39
122
254
64
158
225
73
9
106
88
36
60
137
221
192
115
236
169
57
84
62
108
26
257
41
255
247
136
94
220
20
13
163
132
105
222
252
233
33
131
232
114
34
98
77
208
203
178
92
263
103
69
112
139
25
107
213
133
246
171
119
79
149
185
7
204
250
42
259
54
100
50
74
19
143
245
182
162
230
12
49
130
83
8
244
215
138
52
179
206
165
6
70
216
157
186
195
151
190
156
109
101
223
187
234
243
261
85
56
253
248
59
181
58
4
166
196
141
123
29
168
193
66
205
120
265
110
266
140
197
76
134
128
111
194
226
24
116
40
51
155
214
159
81
209
63
124
258
173
68
44
262
102
97
135
38
153
89
161
152
37
200
61
176
31
201
121
235

> <PUBCHEM_MMFF94_PARTIAL_CHARGES>
26
1 -0.34
10 -0.85
12 0.26
14 0.06
15 -0.3
16 0.37
17 -0.15
18 0.57
19 0.55
2 -0.34
20 0.25
21 1.02
3 -0.34
30 0.15
31 0.15
32 0.4
33 0.37
34 0.37
37 0.4
38 0.4
4 -0.57
5 0.31
6 -0.71
7 -0.53
8 -0.8
9 -0.7

> <PUBCHEM_EFFECTIVE_ROTOR_COUNT>
9

> <PUBCHEM_PHARMACOPHORE_FEATURES>
6
1 10 donor
1 4 acceptor
1 7 donor
1 8 donor
4 7 9 10 19 cation
5 5 6 15 16 17 rings

> <PUBCHEM_HEAVY_ATOM_COUNT>
21

> <PUBCHEM_ATOM_DEF_STEREO_COUNT>
0

> <PUBCHEM_ATOM_UDEF_STEREO_COUNT>
0

> <PUBCHEM_BOND_DEF_STEREO_COUNT>
0

> <PUBCHEM_BOND_UDEF_STEREO_COUNT>
0

> <PUBCHEM_ISOTOPIC_ATOM_COUNT>
0

> <PUBCHEM_COMPONENT_COUNT>
1

> <PUBCHEM_CACTVS_TAUTO_COUNT>
10

> <PUBCHEM_CONFORMER_ID>
00020E7A00000001

> <PUBCHEM_MMFF94_ENERGY>
31.4494

> <PUBCHEM_FEATURE_SELFOVERLAP>
30.503

> <PUBCHEM_SHAPE_FINGERPRINT>
10708813 3 18336257960150187396
12788726 201 18199750404606295125
13402501 40 15743313094511067212
13583140 156 17318450887337353051
13899415 154 18127965507444762847
13965767 371 17475765699071476618
14123250 116 18264777738623824316
14251740 79 18048045348368483188
14787075 74 17898842711332901499
14931854 50 18048309239347833324
15003188 8 17617350919497565096
17859628 37 17548130035167466911
20531524 4 17115217625773686528
21141583 151 17401210470055698020
469060 322 16736651270908537315
474 4 18191861228378241531
5048184 11 18410300198414880236
57100710 29 18054484946921214787

> <PUBCHEM_SHAPE_MULTIPOLES>
374.59
6.77
5.41
1.45
2.62
0.22
-0.21
-6.12
1.72
0.12
-0.01
-0.14
-0.28
-3.45

> <PUBCHEM_SHAPE_SELFOVERLAP>
756.997

> <PUBCHEM_SHAPE_VOLUME>
219.2

> <PUBCHEM_COORDINATE_TYPE>
2
5
10

$$$$
