REMARK  Name = 13479156
REMARK  13 active torsions:
REMARK  status: ('A' for Active; 'I' for Inactive)
REMARK    1  A    between atoms: SG_1  and  SG_2
REMARK    2  A    between atoms: SG_1  and  CB_19
REMARK    3  A    between atoms: SG_2  and  CB_3
REMARK    4  A    between atoms: CB_3  and  CA_4
REMARK    5  A    between atoms: CA_4  and  N_6
REMARK    6  A    between atoms: CA_4  and  C_16
REMARK    7  A    between atoms: C_7  and  C_9
REMARK    8  A    between atoms: C_16  and  O_17
REMARK    9  A    between atoms: CB_19  and  CA_20
REMARK   10  A    between atoms: CA_20  and  N_22
REMARK   11  A    between atoms: CA_20  and  C_32
REMARK   12  A    between atoms: C_23  and  C_25
REMARK   13  A    between atoms: C_32  and  O_33
REMARK                            x       y       z     vdW  Elec       q    Type
REMARK                         _______ _______ _______ _____ _____    ______ ____
ROOT
ATOM      1  SG  CYS A   1      -1.273   3.098   0.044  0.00  0.00    -0.080 S 
ENDROOT
BRANCH   1   2
ATOM      2  SG  CYS A   1      -0.297   1.291   0.015  0.00  0.00    -0.080 S 
BRANCH   2   3
ATOM      3  CB  CYS A   1       0.662   1.365   1.547  0.00  0.00    +0.100 C 
BRANCH   3   4
ATOM      4  CA  CYS A   1       1.514   0.119   1.801  0.00  0.00    +0.183 C 
BRANCH   4   6
ATOM      5  O   UNK A   0       4.143   1.257   1.988  0.00  0.00    -0.270 OA
ATOM      6  N   CYS A   1       2.579  -0.012   0.839  0.00  0.00    -0.293 N 
ATOM      7  C   UNK A   0       3.823   0.578   1.017  0.00  0.00    +0.246 C 
ATOM      8  H   CYS A   1       2.418  -0.540   0.023  0.00  0.00    +0.150 HD
BRANCH   7   9
ATOM      9  C   UNK A   0       4.804   0.371  -0.079  0.00  0.00    +0.053 C 
ATOM     10  C   UNK A   0       5.811   1.310  -0.300  0.00  0.00    +0.005 C 
ATOM     11  C   UNK A   0       4.718  -0.763  -0.887  0.00  0.00    +0.005 C 
ATOM     12  C   UNK A   0       6.733   1.116  -1.329  0.00  0.00    +0.000 C 
ATOM     13  C   UNK A   0       5.640  -0.957  -1.916  0.00  0.00    +0.000 C 
ATOM     14  C   UNK A   0       6.647  -0.018  -2.137  0.00  0.00    +0.000 C 
ENDBRANCH   7   9
ENDBRANCH   4   6
BRANCH   4  16
ATOM     15  OXT CYS A   1      -0.219  -1.309   2.715  0.00  0.00    -0.248 OA
ATOM     16  C   CYS A   1       0.676  -1.145   1.896  0.00  0.00    +0.333 C 
BRANCH  16  17
ATOM     17  O   CYS A   1       1.027  -2.089   0.989  0.00  0.00    -0.479 OA
ATOM     18  H   CYS A   1       1.719  -1.920   0.381  0.00  0.00    +0.295 HD
ENDBRANCH  16  17
ENDBRANCH   4  16
ENDBRANCH   3   4
ENDBRANCH   2   3
ENDBRANCH   1   2
BRANCH   1  19
ATOM     19  CB  CYS A   1      -2.804   2.664   0.937  0.00  0.00    +0.100 C 
BRANCH  19  20
ATOM     20  CA  CYS A   1      -3.854   1.978   0.061  0.00  0.00    +0.183 C 
BRANCH  20  22
ATOM     21  O   UNK A   0      -4.238  -0.495   1.468  0.00  0.00    -0.270 OA
ATOM     22  N   CYS A   1      -3.428   0.668  -0.367  0.00  0.00    -0.293 N 
ATOM     23  C   UNK A   0      -3.660  -0.475   0.385  0.00  0.00    +0.246 C 
ATOM     24  H   CYS A   1      -2.954   0.582  -1.225  0.00  0.00    +0.150 HD
BRANCH  23  25
ATOM     25  C   UNK A   0      -3.134  -1.744  -0.181  0.00  0.00    +0.053 C 
ATOM     26  C   UNK A   0      -2.800  -2.800   0.666  0.00  0.00    +0.005 C 
ATOM     27  C   UNK A   0      -2.976  -1.879  -1.561  0.00  0.00    +0.005 C 
ATOM     28  C   UNK A   0      -2.306  -3.991   0.134  0.00  0.00    +0.000 C 
ATOM     29  C   UNK A   0      -2.483  -3.071  -2.092  0.00  0.00    +0.000 C 
ATOM     30  C   UNK A   0      -2.148  -4.127  -1.245  0.00  0.00    +0.000 C 
ENDBRANCH  23  25
ENDBRANCH  20  22
BRANCH  20  32
ATOM     31  OXT CYS A   1      -4.784   3.957  -0.986  0.00  0.00    -0.248 OA
ATOM     32  C   CYS A   1      -4.288   2.844  -1.110  0.00  0.00    +0.333 C 
BRANCH  32  33
ATOM     33  O   CYS A   1      -4.085   2.258  -2.314  0.00  0.00    -0.479 OA
ATOM     34  H   CYS A   1      -3.701   1.404  -2.360  0.00  0.00    +0.295 HD
ENDBRANCH  32  33
ENDBRANCH  20  32
ENDBRANCH  19  20
ENDBRANCH   1  19
TORSDOF 13
