REMARK  Name = 134716624
REMARK  11 active torsions:
REMARK  status: ('A' for Active; 'I' for Inactive)
REMARK    1  A    between atoms: N_1  and  C_4
REMARK    2  A    between atoms: N_1  and  CA_18
REMARK    3  A    between atoms: C_4  and  C_5
REMARK    4  A    between atoms: C_5  and  CA_6
REMARK    5  A    between atoms: CA_6  and  C_9
REMARK    6  A    between atoms: CA_6  and  N_10
REMARK    7  A    between atoms: N_10  and  CA_13
REMARK    8  A    between atoms: CA_13  and  C_17
REMARK    9  A    between atoms: CA_18  and  C_21
REMARK   10  A    between atoms: CA_18  and  CB_22
REMARK   11  A    between atoms: CB_22  and  CG_25
REMARK                            x       y       z     vdW  Elec       q    Type
REMARK                         _______ _______ _______ _____ _____    ______ ____
ROOT
ATOM      1  N   ALA A   1       1.490   0.442   0.523  0.00  0.00    +0.392 N 
ATOM      2  H1  ALA A   1       1.768  -0.539   0.539  0.00  0.00    -0.084 HD
ATOM      3  H2  ALA A   1       1.347   0.829   1.456  0.00  0.00    -0.084 HD
ENDROOT
BRANCH   1   4
ATOM      4  C   ALA A   1       0.187   0.544  -0.182  0.00  0.00    -0.082 C 
BRANCH   4   5
ATOM      5  C   ALA A   1      -0.828  -0.351   0.522  0.00  0.00    -0.034 C 
BRANCH   5   6
ATOM      6  CA  ALA A   1      -2.236  -0.296  -0.085  0.00  0.00    +0.043 C 
BRANCH   6   9
ATOM      7  O   ALA A   1      -1.968  -1.836  -1.866  0.00  0.00    -0.248 OA
ATOM      8  OXT ALA A   1      -2.763   0.248  -2.340  0.00  0.00    -0.248 OA
ATOM      9  C   ALA A   1      -2.323  -0.658  -1.578  0.00  0.00    +0.345 C 
ENDBRANCH   6   9
BRANCH   6  10
ATOM     10  N   ALA A   1      -3.163  -1.087   0.784  0.00  0.00    +0.400 N 
ATOM     11  H1  ALA A   1      -3.059  -0.761   1.745  0.00  0.00    -0.083 HD
ATOM     12  H2  ALA A   1      -2.908  -2.068   0.674  0.00  0.00    -0.083 HD
BRANCH  10  13
ATOM     13  CA  ALA A   1      -4.592  -0.968   0.404  0.00  0.00    +0.045 C 
ATOM     14  CB  ALA A   1      -5.367  -1.990   1.222  0.00  0.00    -0.012 C 
BRANCH  13  17
ATOM     15  O   ALA A   1      -5.140   0.972   1.675  0.00  0.00    -0.248 OA
ATOM     16  OXT ALA A   1      -5.456   0.992  -0.585  0.00  0.00    -0.248 OA
ATOM     17  C   ALA A   1      -5.110   0.474   0.516  0.00  0.00    +0.345 C 
ENDBRANCH  13  17
ENDBRANCH  10  13
ENDBRANCH   6  10
ENDBRANCH   5   6
ENDBRANCH   4   5
ENDBRANCH   1   4
BRANCH   1  18
ATOM     18  CA  ALA A   1       2.588   1.228  -0.100  0.00  0.00    +0.050 C 
BRANCH  18  21
ATOM     19  O   ALA A   1       2.213   3.253   1.058  0.00  0.00    -0.248 OA
ATOM     20  OXT ALA A   1       2.162   3.274  -1.228  0.00  0.00    -0.248 OA
ATOM     21  C   ALA A   1       2.288   2.735  -0.092  0.00  0.00    +0.346 C 
ENDBRANCH  18  21
BRANCH  18  22
ATOM     22  CB  ALA A   1       3.879   0.897   0.657  0.00  0.00    +0.032 C 
BRANCH  22  25
ATOM     23  ND1 ALA A   1       4.613  -1.442   1.269  0.00  0.00    -0.319 N 
ATOM     24  NE2 ALA A   1       5.220  -2.350  -0.665  0.00  0.00    -0.315 N 
ATOM     25  CG  ALA A   1       4.413  -0.476   0.323  0.00  0.00    +0.036 C 
ATOM     26  CD2 ALA A   1       4.795  -1.060  -0.862  0.00  0.00    +0.069 C 
ATOM     27  CE1 ALA A   1       5.098  -2.548   0.629  0.00  0.00    +0.182 C 
ATOM     28  HD1 ALA A   1       4.439  -1.357   2.234  0.00  0.00    +0.148 HD
ATOM     29  HE2 ALA A   1       5.545  -2.986  -1.342  0.00  0.00    +0.148 HD
ENDBRANCH  22  25
ENDBRANCH  18  22
ENDBRANCH   1  18
TORSDOF 11
