REMARK  Name = 134714983
REMARK  4 active torsions:
REMARK  status: ('A' for Active; 'I' for Inactive)
REMARK    1  A    between atoms: C_8  and  O_26
REMARK    2  A    between atoms: C_23  and  C_28
REMARK    3  A    between atoms: C_28  and  O_29
REMARK    4  A    between atoms: O_29  and  C_31
REMARK                            x       y       z     vdW  Elec       q    Type
REMARK                         _______ _______ _______ _____ _____    ______ ____
ROOT
ATOM      1  O   UNL     1       0.647  -0.931  -0.110  0.00  0.00    -0.442 OA
ATOM      2  O   UNL     1       1.143   2.149  -0.122  0.00  0.00    -0.442 OA
ATOM      3  O   UNL     1      -0.207   3.275  -1.608  0.00  0.00    -0.248 OA
ATOM      4  O   UNL     1       2.670  -0.662  -2.415  0.00  0.00    -0.288 OA
ATOM      5  O   UNL     1      -0.091  -3.018   0.521  0.00  0.00    -0.245 OA
ATOM      6  N   UNL     1       4.998  -1.389   0.104  0.00  0.00    +0.388 N 
ATOM      7  C   UNL     1      -1.266   1.229   1.114  0.00  0.00    +0.040 C 
ATOM      8  C   UNL     1      -1.056   2.687   0.605  0.00  0.00    +0.177 C 
ATOM      9  C   UNL     1      -1.788   0.287   0.000  0.00  0.00    +0.036 C 
ATOM     10  C   UNL     1       2.010  -1.381  -0.219  0.00  0.00    +0.228 C 
ATOM     11  C   UNL     1      -2.180   1.170   2.350  0.00  0.00    +0.003 C 
ATOM     12  C   UNL     1       2.682  -1.389   1.156  0.00  0.00    +0.029 C 
ATOM     13  C   UNL     1      -2.349   3.378   0.169  0.00  0.00    +0.041 C 
ATOM     14  C   UNL     1      -1.632  -1.181   0.319  0.00  0.00    +0.053 C 
ATOM     15  C   UNL     1       4.103  -1.966   1.123  0.00  0.00    -0.073 C 
ATOM     16  C   UNL     1      -0.016   2.752  -0.517  0.00  0.00    +0.342 C 
ATOM     17  C   UNL     1       3.090   0.924  -0.730  0.00  0.00    +0.053 C 
ATOM     18  C   UNL     1       2.627  -0.407  -1.211  0.00  0.00    +0.212 C 
ATOM     19  C   UNL     1       5.289   0.033   0.333  0.00  0.00    -0.051 C 
ATOM     20  C   UNL     1       2.213   2.092  -1.080  0.00  0.00    +0.238 C 
ATOM     21  C   UNL     1      -0.294  -1.839   0.265  0.00  0.00    +0.337 C 
ATOM     22  C   UNL     1       4.261   1.056  -0.084  0.00  0.00    -0.047 C 
ATOM     23  C   UNL     1      -2.682  -1.964   0.614  0.00  0.00    +0.023 C 
ATOM     24  C   UNL     1       6.248  -2.158   0.067  0.00  0.00    -0.100 C 
ATOM     25  H   UNL     1       4.516  -1.446  -0.793  0.00  0.00    -0.079 HD
ENDROOT
BRANCH   8  26
ATOM     26  O   UNL     1      -0.495   3.486   1.651  0.00  0.00    -0.376 OA
ATOM     27  H   UNL     1      -1.100   3.497   2.409  0.00  0.00    +0.211 HD
ENDBRANCH   8  26
BRANCH  23  28
ATOM     28  C   UNL     1      -4.084  -1.468   0.709  0.00  0.00    +0.235 C 
BRANCH  28  29
ATOM     29  O   UNL     1      -4.692  -1.575  -0.571  0.00  0.00    -0.443 OA
BRANCH  29  31
ATOM     30  O   UNL     1      -6.661  -0.708   0.270  0.00  0.00    -0.250 OA
ATOM     31  C   UNL     1      -5.992  -1.157  -0.651  0.00  0.00    +0.318 C 
ATOM     32  C   UNL     1      -6.498  -1.327  -2.051  0.00  0.00    +0.121 C 
ENDBRANCH  29  31
ENDBRANCH  28  29
ENDBRANCH  23  28
TORSDOF 4
