REMARK  Name = 134715155
REMARK  5 active torsions:
REMARK  status: ('A' for Active; 'I' for Inactive)
REMARK    1  A    between atoms: C_7  and  C_27
REMARK    2  A    between atoms: C_27  and  C_29
REMARK    3  A    between atoms: C_29  and  C_30
REMARK    4  A    between atoms: C_30  and  C_32
REMARK    5  A    between atoms: C_32  and  O_33
REMARK                            x       y       z     vdW  Elec       q    Type
REMARK                         _______ _______ _______ _____ _____    ______ ____
ROOT
ATOM      1  O   UNL     1       1.295  -2.725   0.920  0.00  0.00    -0.296 OA
ATOM      2  O   UNL     1      -1.275   3.065  -0.377  0.00  0.00    -0.292 OA
ATOM      3  O   UNL     1      -1.245  -2.783   0.494  0.00  0.00    -0.292 OA
ATOM      4  O   UNL     1      -6.464  -0.121  -1.706  0.00  0.00    -0.296 OA
ATOM      5  C   UNL     1       1.365   0.700   0.350  0.00  0.00    +0.017 C 
ATOM      6  C   UNL     1       0.585  -0.585  -0.091  0.00  0.00    +0.073 C 
ATOM      7  C   UNL     1       2.833   0.362  -0.019  0.00  0.00    +0.008 C 
ATOM      8  C   UNL     1      -3.022   0.949   0.607  0.00  0.00    +0.023 C 
ATOM      9  C   UNL     1      -0.862  -0.436   0.322  0.00  0.00    +0.017 C 
ATOM     10  C   UNL     1      -3.796  -0.412   0.803  0.00  0.00    +0.018 C 
ATOM     11  C   UNL     1      -1.525   0.748   0.255  0.00  0.00    +0.011 C 
ATOM     12  C   UNL     1       0.780   1.893  -0.391  0.00  0.00    +0.070 C 
ATOM     13  C   UNL     1       2.998  -1.080   0.492  0.00  0.00    +0.065 C 
ATOM     14  C   UNL     1       1.569  -1.606   0.509  0.00  0.00    +0.154 C 
ATOM     15  C   UNL     1      -4.536  -0.952  -0.479  0.00  0.00    +0.052 C 
ATOM     16  C   UNL     1       1.265   0.986   1.889  0.00  0.00    +0.001 C 
ATOM     17  C   UNL     1      -2.902  -1.430   1.511  0.00  0.00    +0.070 C 
ATOM     18  C   UNL     1      -0.726   1.980  -0.181  0.00  0.00    +0.169 C 
ATOM     19  C   UNL     1      -3.770   1.817  -0.450  0.00  0.00    +0.012 C 
ATOM     20  C   UNL     1       0.575  -0.891  -1.613  0.00  0.00    +0.012 C 
ATOM     21  C   UNL     1      -1.629  -1.644   0.747  0.00  0.00    +0.169 C 
ATOM     22  C   UNL     1      -3.055   1.712   1.963  0.00  0.00    +0.004 C 
ATOM     23  C   UNL     1      -5.265   1.548  -0.509  0.00  0.00    +0.065 C 
ATOM     24  C   UNL     1      -5.509   0.133  -0.971  0.00  0.00    +0.150 C 
ATOM     25  C   UNL     1      -5.390  -2.192  -0.129  0.00  0.00    +0.007 C 
ATOM     26  C   UNL     1      -3.628  -1.321  -1.663  0.00  0.00    +0.007 C 
ENDROOT
BRANCH   7  27
ATOM     27  C   UNL     1       3.908   1.295   0.528  0.00  0.00    +0.001 C 
ATOM     28  C   UNL     1       3.970   2.572  -0.317  0.00  0.00    +0.000 C 
BRANCH  27  29
ATOM     29  C   UNL     1       5.299   0.634   0.572  0.00  0.00    +0.012 C 
BRANCH  29  30
ATOM     30  C   UNL     1       5.772   0.124  -0.790  0.00  0.00    +0.109 C 
BRANCH  30  32
ATOM     31  O   UNL     1       7.749  -0.750   0.332  0.00  0.00    -0.250 OA
ATOM     32  C   UNL     1       7.107  -0.580  -0.695  0.00  0.00    +0.314 C 
BRANCH  32  33
ATOM     33  O   UNL     1       7.529  -1.010  -1.913  0.00  0.00    -0.480 OA
ATOM     34  H   UNL     1       7.002  -0.856  -2.673  0.00  0.00    +0.295 HD
ENDBRANCH  32  33
ENDBRANCH  30  32
ENDBRANCH  29  30
ENDBRANCH  27  29
ENDBRANCH   7  27
TORSDOF 5
