REMARK  Name = 134822412
REMARK  9 active torsions:
REMARK  status: ('A' for Active; 'I' for Inactive)
REMARK    1  A    between atoms: C_3  and  C_18
REMARK    2  A    between atoms: C_3  and  C_21
REMARK    3  A    between atoms: C_4  and  C_7
REMARK    4  A    between atoms: C_5  and  O_15
REMARK    5  A    between atoms: C_12  and  O_13
REMARK    6  A    between atoms: C_18  and  O_19
REMARK    7  A    between atoms: C_21  and  C_22
REMARK    8  A    between atoms: C_25  and  C_31
REMARK    9  A    between atoms: C_27  and  O_28
REMARK                            x       y       z     vdW  Elec       q    Type
REMARK                         _______ _______ _______ _____ _____    ______ ____
ROOT
ATOM      1  O   UNL     1       0.259  -2.243   0.212  0.00  0.00    -0.435 OA
ATOM      2  O   UNL     1      -0.713  -4.318   0.427  0.00  0.00    -0.241 OA
ATOM      3  C   UNL     1      -0.229  -0.893   0.087  0.00  0.00    +0.250 C 
ATOM      4  C   UNL     1      -1.710  -1.051   0.002  0.00  0.00    +0.065 C 
ATOM      5  C   UNL     1      -2.029  -2.342   0.146  0.00  0.00    +0.210 C 
ATOM      6  C   UNL     1      -0.791  -3.111   0.284  0.00  0.00    +0.376 C 
ENDROOT
BRANCH   4   7
ATOM      7  C   UNL     1      -2.659   0.052  -0.230  0.00  0.00    +0.003 C 
ATOM      8  C   UNL     1      -3.216   0.733   0.853  0.00  0.00    +0.003 C 
ATOM      9  C   UNL     1      -3.003   0.413  -1.533  0.00  0.00    +0.003 C 
ATOM     10  C   UNL     1      -4.115   1.776   0.633  0.00  0.00    +0.037 C 
ATOM     11  C   UNL     1      -3.903   1.456  -1.753  0.00  0.00    +0.037 C 
ATOM     12  C   UNL     1      -4.459   2.137  -0.670  0.00  0.00    +0.134 C 
BRANCH  12  13
ATOM     13  O   UNL     1      -5.338   3.154  -0.884  0.00  0.00    -0.506 OA
ATOM     14  H   UNL     1      -5.712   3.612  -0.156  0.00  0.00    +0.292 HD
ENDBRANCH  12  13
ENDBRANCH   4   7
BRANCH   5  15
ATOM     15  O   UNL     1      -3.262  -2.917   0.160  0.00  0.00    -0.501 OA
ATOM     16  H   UNL     1      -4.028  -2.386   0.068  0.00  0.00    +0.292 HD
ENDBRANCH   5  15
BRANCH   3  18
ATOM     17  O   UNL     1       0.965  -0.781   2.178  0.00  0.00    -0.246 OA
ATOM     18  C   UNL     1       0.216  -0.250   1.369  0.00  0.00    +0.358 C 
BRANCH  18  19
ATOM     19  O   UNL     1      -0.340   0.991   1.475  0.00  0.00    -0.442 OA
ATOM     20  C   UNL     1       0.002   1.720   2.657  0.00  0.00    +0.256 C 
ENDBRANCH  18  19
ENDBRANCH   3  18
BRANCH   3  21
ATOM     21  C   UNL     1       0.424  -0.252  -1.129  0.00  0.00    +0.082 C 
BRANCH  21  22
ATOM     22  C   UNL     1       1.916  -0.129  -0.964  0.00  0.00    -0.017 C 
ATOM     23  C   UNL     1       2.462   1.019  -0.391  0.00  0.00    +0.002 C 
ATOM     24  C   UNL     1       2.752  -1.163  -1.386  0.00  0.00    -0.001 C 
ATOM     25  C   UNL     1       3.844   1.134  -0.238  0.00  0.00    +0.076 C 
ATOM     26  C   UNL     1       4.134  -1.049  -1.233  0.00  0.00    +0.036 C 
ATOM     27  C   UNL     1       4.679   0.100  -0.659  0.00  0.00    +0.137 C 
BRANCH  27  28
ATOM     28  O   UNL     1       6.032   0.194  -0.522  0.00  0.00    -0.505 OA
ATOM     29  H   UNL     1       6.412   0.960  -0.138  0.00  0.00    +0.292 HD
ENDBRANCH  27  28
BRANCH  25  31
ATOM     30  O   UNL     1       3.691   3.280   0.746  0.00  0.00    -0.283 OA
ATOM     31  C   UNL     1       4.393   2.342   0.362  0.00  0.00    +0.237 C 
ENDBRANCH  25  31
ENDBRANCH  21  22
ENDBRANCH   3  21
TORSDOF 9
