REMARK  Name = 134820297
REMARK  13 active torsions:
REMARK  status: ('A' for Active; 'I' for Inactive)
REMARK    1  A    between atoms: CA_1  and  N_3
REMARK    2  A    between atoms: CA_1  and  C_18
REMARK    3  A    between atoms: CA_1  and  CB_24
REMARK    4  A    between atoms: C_4  and  C_6
REMARK    5  A    between atoms: C_6  and  C_7
REMARK    6  A    between atoms: C_7  and  CA_8
REMARK    7  A    between atoms: CA_8  and  N_9
REMARK    8  A    between atoms: CA_8  and  C_15
REMARK    9  A    between atoms: N_17  and  CA_20
REMARK   10  A    between atoms: CA_20  and  C_23
REMARK   11  A    between atoms: CB_24  and  SG_25
REMARK   12  A    between atoms: SG_25  and  C_26
REMARK   13  A    between atoms: C_26  and  C_31
REMARK                            x       y       z     vdW  Elec       q    Type
REMARK                         _______ _______ _______ _____ _____    ______ ____
ROOT
ATOM      1  CA  UNL     1       1.668   1.571  -0.832  0.00  0.00    +0.159 C 
ENDROOT
BRANCH   1   3
ATOM      2  O   UNL     1       4.123   0.620  -2.041  0.00  0.00    -0.275 OA
ATOM      3  N   UNL     1       2.656   0.706  -0.240  0.00  0.00    -0.298 N 
ATOM      4  C   UNL     1       3.810   0.299  -0.898  0.00  0.00    +0.223 C 
ATOM      5  H   UNL     1       2.505   0.386   0.679  0.00  0.00    +0.150 HD
BRANCH   4   6
ATOM      6  C   UNL     1       4.665  -0.604  -0.024  0.00  0.00    +0.083 C 
BRANCH   6   7
ATOM      7  C   UNL     1       5.942  -1.062  -0.735  0.00  0.00    -0.001 C 
BRANCH   7   8
ATOM      8  CA  UNL     1       6.814  -2.024   0.082  0.00  0.00    +0.041 C 
BRANCH   8   9
ATOM      9  N   UNL     1       6.050  -3.301   0.239  0.00  0.00    +0.389 N 
ATOM     10  H1  UNL     1       5.712  -3.609  -0.673  0.00  0.00    -0.088 HD
ATOM     11  H2  UNL     1       5.256  -3.149   0.862  0.00  0.00    -0.088 HD
ATOM     12  H3  UNL     1       6.660  -4.016   0.635  0.00  0.00    -0.088 HD
ENDBRANCH   8   9
BRANCH   8  15
ATOM     13  O   UNL     1       7.541  -2.309   2.320  0.00  0.00    -0.248 OA
ATOM     14  OXT UNL     1       7.583  -0.213   1.420  0.00  0.00    -0.248 OA
ATOM     15  C   UNL     1       7.376  -1.459   1.398  0.00  0.00    +0.345 C 
ENDBRANCH   8  15
ENDBRANCH   7   8
ENDBRANCH   6   7
ENDBRANCH   4   6
ENDBRANCH   1   3
BRANCH   1  18
ATOM     16  O   UNL     1       1.360   2.349   1.446  0.00  0.00    -0.273 OA
ATOM     17  N   UNL     1       0.202   3.411  -0.261  0.00  0.00    -0.294 N 
ATOM     18  C   ACE A   1       1.084   2.472   0.254  0.00  0.00    +0.242 C 
ATOM     19  H   UNL     1       0.046   3.430  -1.233  0.00  0.00    +0.150 HD
BRANCH  17  20
ATOM     20  CA  UNL     1      -0.498   4.361   0.572  0.00  0.00    +0.205 C 
BRANCH  20  23
ATOM     21  O   UNL     1      -0.815   5.975  -1.113  0.00  0.00    -0.244 OA
ATOM     22  OXT UNL     1      -2.627   5.229   0.066  0.00  0.00    -0.244 OA
ATOM     23  C   UNL     1      -1.403   5.277  -0.240  0.00  0.00    +0.385 C 
ENDBRANCH  20  23
ENDBRANCH  17  20
ENDBRANCH   1  18
BRANCH   1  24
ATOM     24  CB  UNL     1       0.605   0.793  -1.612  0.00  0.00    +0.087 C 
BRANCH  24  25
ATOM     25  SG  UNL     1      -0.382  -0.322  -0.586  0.00  0.00    -0.132 S 
BRANCH  25  26
ATOM     26  C   UNL     1      -1.764  -0.582  -1.720  0.00  0.00    +0.103 C 
BRANCH  26  31
ATOM     27  O   UNL     1      -4.559  -4.377  -0.475  0.00  0.00    -0.265 OA
ATOM     28  O   UNL     1      -6.152  -2.320   1.868  0.00  0.00    -0.265 OA
ATOM     29  N   UNL     1      -3.624  -1.087  -0.111  0.00  0.00    -0.248 N 
ATOM     30  N   UNL     1      -4.422  -2.129   0.261  0.00  0.00    -0.175 N 
ATOM     31  C   UNL     1      -2.764  -1.497  -1.103  0.00  0.00    +0.070 A 
ATOM     32  C   UNL     1      -3.946   0.027   0.630  0.00  0.00    +0.060 A 
ATOM     33  C   UNL     1      -2.970  -2.798  -1.407  0.00  0.00    +0.050 A 
ATOM     34  C   UNL     1      -4.947  -0.248   1.496  0.00  0.00    +0.050 A 
ATOM     35  C   UNL     1      -4.082  -3.256  -0.505  0.00  0.00    +0.279 A 
ATOM     36  C   UNL     1      -5.293  -1.694   1.274  0.00  0.00    +0.279 A 
ATOM     37  C   UNL     1      -3.247   1.330   0.455  0.00  0.00    +0.052 C 
ATOM     38  C   UNL     1      -2.328  -3.714  -2.377  0.00  0.00    +0.037 C 
ATOM     39  C   UNL     1      -5.658   0.576   2.499  0.00  0.00    +0.037 C 
ENDBRANCH  26  31
ENDBRANCH  25  26
ENDBRANCH  24  25
ENDBRANCH   1  24
TORSDOF 13
