REMARK  Name = 134845
REMARK  10 active torsions:
REMARK  status: ('A' for Active; 'I' for Inactive)
REMARK    1  A    between atoms: O_1  and  C_4
REMARK    2  A    between atoms: O_1  and  C_19
REMARK    3  A    between atoms: C_5  and  C_15
REMARK    4  A    between atoms: C_9  and  O_13
REMARK    5  A    between atoms: C_15  and  O_16
REMARK    6  A    between atoms: C_20  and  O_24
REMARK    7  A    between atoms: C_21  and  O_26
REMARK    8  A    between atoms: C_22  and  C_30
REMARK    9  A    between atoms: C_23  and  O_28
REMARK   10  A    between atoms: C_30  and  O_31
REMARK                            x       y       z     vdW  Elec       q    Type
REMARK                         _______ _______ _______ _____ _____    ______ ____
ROOT
ATOM      1  O   UNL     1      -0.256  -1.041   0.359  0.00  0.00    -0.331 OA
ENDROOT
BRANCH   1   4
ATOM      2  O   UNL     1       2.449  -1.314  -1.119  0.00  0.00    -0.332 OA
ATOM      3  O   UNL     1       3.674   2.502  -1.040  0.00  0.00    -0.296 OA
ATOM      4  C   UNL     1       0.781  -0.099   0.040  0.00  0.00    +0.126 C 
ATOM      5  C   UNL     1       2.040  -0.155   0.924  0.00  0.00    +0.110 C 
ATOM      6  C   UNL     1       2.153   1.389   0.604  0.00  0.00    +0.069 C 
ATOM      7  C   UNL     1       1.417  -0.339  -1.341  0.00  0.00    +0.125 C 
ATOM      8  C   UNL     1       0.593   1.350   0.570  0.00  0.00    +0.038 C 
ATOM      9  C   UNL     1       2.927  -1.170   0.226  0.00  0.00    +0.240 C 
ATOM     10  C   UNL     1       2.071   0.937  -1.921  0.00  0.00    +0.094 C 
ATOM     11  C   UNL     1       2.768   1.703  -0.805  0.00  0.00    +0.153 C 
ATOM     12  C   UNL     1       0.429  -0.910  -2.352  0.00  0.00    +0.033 C 
BRANCH   9  13
ATOM     13  O   UNL     1       4.304  -0.823   0.295  0.00  0.00    -0.328 OA
ATOM     14  C   UNL     1       5.118  -1.784  -0.364  0.00  0.00    +0.177 C 
ENDBRANCH   9  13
BRANCH   5  15
ATOM     15  C   UNL     1       1.874  -0.461   2.399  0.00  0.00    +0.145 C 
BRANCH  15  16
ATOM     16  O   UNL     1       3.003   0.033   3.102  0.00  0.00    -0.382 OA
ATOM     17  H   UNL     1       2.905  -0.158   4.048  0.00  0.00    +0.210 HD
ENDBRANCH  15  16
ENDBRANCH   5  15
ENDBRANCH   1   4
BRANCH   1  19
ATOM     18  O   UNL     1      -1.857   0.655   0.373  0.00  0.00    -0.326 OA
ATOM     19  C   UNL     1      -1.512  -0.617  -0.169  0.00  0.00    +0.266 C 
ATOM     20  C   UNL     1      -2.560  -1.663   0.209  0.00  0.00    +0.196 C 
ATOM     21  C   UNL     1      -3.965  -1.212  -0.190  0.00  0.00    +0.172 C 
ATOM     22  C   UNL     1      -3.096   1.151  -0.137  0.00  0.00    +0.176 C 
ATOM     23  C   UNL     1      -4.239   0.219   0.273  0.00  0.00    +0.169 C 
BRANCH  20  24
ATOM     24  O   UNL     1      -2.243  -2.879  -0.468  0.00  0.00    -0.378 OA
ATOM     25  H   UNL     1      -1.351  -3.166  -0.216  0.00  0.00    +0.211 HD
ENDBRANCH  20  24
BRANCH  21  26
ATOM     26  O   UNL     1      -4.931  -2.068   0.423  0.00  0.00    -0.379 OA
ATOM     27  H   UNL     1      -4.776  -2.983   0.143  0.00  0.00    +0.211 HD
ENDBRANCH  21  26
BRANCH  23  28
ATOM     28  O   UNL     1      -5.455   0.678  -0.312  0.00  0.00    -0.379 OA
ATOM     29  H   UNL     1      -6.181   0.089  -0.053  0.00  0.00    +0.211 HD
ENDBRANCH  23  28
BRANCH  22  30
ATOM     30  C   UNL     1      -3.291   2.559   0.415  0.00  0.00    +0.169 C 
BRANCH  30  31
ATOM     31  O   UNL     1      -2.196   3.359   0.006  0.00  0.00    -0.379 OA
ATOM     32  H   UNL     1      -2.306   4.259   0.351  0.00  0.00    +0.211 HD
ENDBRANCH  30  31
ENDBRANCH  22  30
ENDBRANCH   1  19
TORSDOF 10
