REMARK  Name = 134817264
REMARK  11 active torsions:
REMARK  status: ('A' for Active; 'I' for Inactive)
REMARK    1  A    between atoms: C_4  and  C_22
REMARK    2  A    between atoms: C_5  and  C_7
REMARK    3  A    between atoms: C_8  and  C_15
REMARK    4  A    between atoms: N_14  and  CA_17
REMARK    5  A    between atoms: CA_17  and  C_19
REMARK    6  A    between atoms: C_19  and  O_20
REMARK    7  A    between atoms: C_22  and  C_23
REMARK    8  A    between atoms: C_22  and  O_25
REMARK    9  A    between atoms: O_25  and  C_31
REMARK   10  A    between atoms: C_26  and  C_33
REMARK   11  A    between atoms: C_33  and  C_34
REMARK                            x       y       z     vdW  Elec       q    Type
REMARK                         _______ _______ _______ _____ _____    ______ ____
ROOT
ATOM      1  O   UNL     1       0.993  -0.444   1.837  0.00  0.00    -0.312 OA
ATOM      2  N   UNL     1      -0.247   0.889   0.532  0.00  0.00    -0.309 NA
ATOM      3  N   UNL     1      -0.267  -1.050   1.746  0.00  0.00    -0.007 NA
ATOM      4  C   UNL     1       0.919   0.692   1.095  0.00  0.00    +0.333 C 
ATOM      5  C   UNL     1      -0.941  -0.205   0.961  0.00  0.00    +0.127 C 
ENDROOT
BRANCH   5   7
ATOM      6  F   UNL     1      -4.957  -2.854   1.131  0.00  0.00    -0.204 F 
ATOM      7  C   UNL     1      -2.310  -0.423   0.586  0.00  0.00    +0.079 C 
ATOM      8  C   UNL     1      -4.970  -0.848  -0.140  0.00  0.00    +0.081 C 
ATOM      9  C   UNL     1      -2.986  -1.554   1.045  0.00  0.00    +0.041 C 
ATOM     10  C   UNL     1      -2.963   0.495  -0.235  0.00  0.00    +0.011 C 
ATOM     11  C   UNL     1      -4.316  -1.766   0.682  0.00  0.00    +0.145 C 
ATOM     12  C   UNL     1      -4.294   0.283  -0.599  0.00  0.00    +0.007 C 
BRANCH   8  15
ATOM     13  O   UNL     1      -6.814  -2.219  -0.606  0.00  0.00    -0.270 OA
ATOM     14  N   UNL     1      -7.137   0.072  -0.754  0.00  0.00    -0.300 N 
ATOM     15  C   ACE A   0      -6.387  -1.070  -0.528  0.00  0.00    +0.248 C 
ATOM     16  H   UNL     1      -6.702   0.951  -0.666  0.00  0.00    +0.150 HD
BRANCH  14  17
ATOM     17  CA  UNL     1      -8.536   0.021  -1.115  0.00  0.00    +0.101 C 
ATOM     18  CB  UNL     1      -9.395  -0.001   0.143  0.00  0.00    +0.024 C 
BRANCH  17  19
ATOM     19  C   UNL     1      -8.905   1.201  -2.011  0.00  0.00    +0.157 C 
BRANCH  19  20
ATOM     20  O   UNL     1      -8.673   2.418  -1.311  0.00  0.00    -0.380 OA
ATOM     21  H   UNL     1      -8.907   3.168  -1.879  0.00  0.00    +0.211 HD
ENDBRANCH  19  20
ENDBRANCH  17  19
ENDBRANCH  14  17
ENDBRANCH   8  15
ENDBRANCH   5   7
BRANCH   4  22
ATOM     22  C   UNL     1       2.135   1.514   1.032  0.00  0.00    +0.257 C 
BRANCH  22  23
ATOM     23  C   UNL     1       1.968   2.987   1.492  0.00  0.00    +0.055 C 
ATOM     24  C   UNL     1       1.637   3.106   2.973  0.00  0.00    +0.004 C 
ENDBRANCH  22  23
BRANCH  22  25
ATOM     25  O   UNL     1       2.625   1.554  -0.323  0.00  0.00    -0.468 OA
BRANCH  25  31
ATOM     26  C   UNL     1       6.466   0.094  -0.914  0.00  0.00    +0.035 C 
ATOM     27  C   UNL     1       6.166   1.418  -1.235  0.00  0.00    +0.006 C 
ATOM     28  C   UNL     1       5.475  -0.739  -0.395  0.00  0.00    +0.006 C 
ATOM     29  C   UNL     1       4.875   1.909  -1.037  0.00  0.00    +0.037 C 
ATOM     30  C   UNL     1       4.185  -0.248  -0.196  0.00  0.00    +0.037 C 
ATOM     31  C   UNL     1       3.885   1.075  -0.517  0.00  0.00    +0.139 C 
BRANCH  26  33
ATOM     32  O   UNL     1       8.717   0.283  -1.599  0.00  0.00    -0.291 OA
ATOM     33  C   UNL     1       7.811  -0.418  -1.122  0.00  0.00    +0.173 C 
BRANCH  33  34
ATOM     34  C   UNL     1       8.150  -1.846  -0.781  0.00  0.00    +0.062 C 
ATOM     35  C   UNL     1       8.528  -2.156   0.622  0.00  0.00    +0.008 C 
ATOM     36  C   UNL     1       9.565  -2.171  -0.462  0.00  0.00    +0.008 C 
ENDBRANCH  33  34
ENDBRANCH  26  33
ENDBRANCH  25  31
ENDBRANCH  22  25
ENDBRANCH   4  22
TORSDOF 11
