134820325
  -OEChem-03292013293D

 47 47  0     1  0  0  0  0  0999 V2000
   -1.7346   -2.1440    0.2534 O   0  5  0  0  0  0  0  0  0  0  0  0
   -1.8441   -1.1718   -1.8071 O   0  0  0  0  0  0  0  0  0  0  0  0
   -3.9593    2.8602   -0.5317 O   0  5  0  0  0  0  0  0  0  0  0  0
   -4.2430    1.1286   -1.9892 O   0  0  0  0  0  0  0  0  0  0  0  0
    3.6356   -2.1200    0.5190 O   0  5  0  0  0  0  0  0  0  0  0  0
    3.7222   -1.3487   -1.6316 O   0  0  0  0  0  0  0  0  0  0  0  0
   -7.5749   -0.8806   -0.6696 O   0  5  0  0  0  0  0  0  0  0  0  0
   -6.0266   -1.7695    0.7537 O   0  0  0  0  0  0  0  0  0  0  0  0
   -2.6633    0.6142    0.9933 N   0  3  0  0  0  0  0  0  0  0  0  0
    2.2365    0.4504    0.8451 N   0  3  0  0  0  0  0  0  0  0  0  0
    6.3757    1.2433   -0.5604 N   0  0  0  0  0  0  0  0  0  0  0  0
    8.1695    0.0407   -0.0428 N   0  0  0  0  0  0  0  0  0  0  0  0
   -1.5297    0.2127    0.1016 C   0  0  1  0  0  0  0  0  0  0  0  0
   -0.2124    0.4089    0.8632 C   0  0  0  0  0  0  0  0  0  0  0  0
    1.0353    0.1834    0.0144 C   0  0  0  0  0  0  0  0  0  0  0  0
   -3.9818    0.6376    0.3153 C   0  0  1  0  0  0  0  0  0  0  0  0
    3.5293    0.2107    0.1485 C   0  0  1  0  0  0  0  0  0  0  0  0
   -5.0576    0.7746    1.4012 C   0  0  0  0  0  0  0  0  0  0  0  0
    4.6454    0.5481    1.1440 C   0  0  0  0  0  0  0  0  0  0  0  0
   -1.7117   -1.1688   -0.5509 C   0  0  0  0  0  0  0  0  0  0  0  0
   -6.4867    0.5317    0.9123 C   0  0  0  0  0  0  0  0  0  0  0  0
   -4.0794    1.6427   -0.8457 C   0  0  0  0  0  0  0  0  0  0  0  0
    3.6435   -1.2282   -0.3766 C   0  0  0  0  0  0  0  0  0  0  0  0
    6.0196    0.4860    0.5199 C   0  0  0  0  0  0  0  0  0  0  0  0
   -6.7248   -0.8361    0.2614 C   0  0  0  0  0  0  0  0  0  0  0  0
    7.1427   -0.2477    0.8210 C   0  0  0  0  0  0  0  0  0  0  0  0
    7.6746    0.9420   -0.8620 C   0  0  0  0  0  0  0  0  0  0  0  0
   -1.5257    0.9569   -0.7059 H   0  0  0  0  0  0  0  0  0  0  0  0
   -0.1824    1.4272    1.2740 H   0  0  0  0  0  0  0  0  0  0  0  0
   -0.1877   -0.2725    1.7242 H   0  0  0  0  0  0  0  0  0  0  0  0
   -2.4767    1.5437    1.3954 H   0  0  0  0  0  0  0  0  0  0  0  0
   -2.6902   -0.0354    1.7919 H   0  0  0  0  0  0  0  0  0  0  0  0
    1.0659    0.8663   -0.8406 H   0  0  0  0  0  0  0  0  0  0  0  0
    1.0801   -0.8524   -0.3332 H   0  0  0  0  0  0  0  0  0  0  0  0
   -4.0917   -0.3617   -0.1184 H   0  0  0  0  0  0  0  0  0  0  0  0
    2.2043    1.4247    1.1771 H   0  0  0  0  0  0  0  0  0  0  0  0
    2.1970   -0.1347    1.6917 H   0  0  0  0  0  0  0  0  0  0  0  0
    3.5502    0.9138   -0.6937 H   0  0  0  0  0  0  0  0  0  0  0  0
   -5.0113    1.7807    1.8376 H   0  0  0  0  0  0  0  0  0  0  0  0
   -4.8499    0.0761    2.2227 H   0  0  0  0  0  0  0  0  0  0  0  0
    4.6184   -0.1325    2.0050 H   0  0  0  0  0  0  0  0  0  0  0  0
    4.5031    1.5616    1.5419 H   0  0  0  0  0  0  0  0  0  0  0  0
   -7.1771    0.6170    1.7599 H   0  0  0  0  0  0  0  0  0  0  0  0
   -6.7644    1.3151    0.1968 H   0  0  0  0  0  0  0  0  0  0  0  0
    5.7898    1.9081   -1.0479 H   0  0  0  0  0  0  0  0  0  0  0  0
    7.2659   -0.9698    1.6152 H   0  0  0  0  0  0  0  0  0  0  0  0
    8.1970    1.4109   -1.6836 H   0  0  0  0  0  0  0  0  0  0  0  0
  1 20  1  0  0  0  0
  2 20  2  0  0  0  0
  3 22  1  0  0  0  0
  4 22  2  0  0  0  0
  5 23  1  0  0  0  0
  6 23  2  0  0  0  0
  7 25  1  0  0  0  0
  8 25  2  0  0  0  0
  9 13  1  0  0  0  0
  9 16  1  0  0  0  0
  9 31  1  0  0  0  0
  9 32  1  0  0  0  0
 10 15  1  0  0  0  0
 10 17  1  0  0  0  0
 10 36  1  0  0  0  0
 10 37  1  0  0  0  0
 11 24  1  0  0  0  0
 11 27  1  0  0  0  0
 11 45  1  0  0  0  0
 12 26  1  0  0  0  0
 12 27  2  0  0  0  0
 13 14  1  0  0  0  0
 13 20  1  0  0  0  0
 13 28  1  0  0  0  0
 14 15  1  0  0  0  0
 14 29  1  0  0  0  0
 14 30  1  0  0  0  0
 15 33  1  0  0  0  0
 15 34  1  0  0  0  0
 16 18  1  0  0  0  0
 16 22  1  0  0  0  0
 16 35  1  0  0  0  0
 17 19  1  0  0  0  0
 17 23  1  0  0  0  0
 17 38  1  0  0  0  0
 18 21  1  0  0  0  0
 18 39  1  0  0  0  0
 18 40  1  0  0  0  0
 19 24  1  0  0  0  0
 19 41  1  0  0  0  0
 19 42  1  0  0  0  0
 21 25  1  0  0  0  0
 21 43  1  0  0  0  0
 21 44  1  0  0  0  0
 24 26  2  0  0  0  0
 26 46  1  0  0  0  0
 27 47  1  0  0  0  0
M  CHG  6   1  -1   3  -1   5  -1   7  -1   9   1  10   1
M  END
> <PUBCHEM_COMPOUND_CID>
134820325

> <PUBCHEM_CONFORMER_RMSD>
1.2

> <PUBCHEM_CONFORMER_DIVERSEORDER>
1
193
23
96
113
192
212
121
125
132
223
36
65
180
244
264
118
78
9
177
63
108
40
194
39
235
34
245
124
11
254
265
257
183
95
205
256
13
49
107
110
139
141
111
249
82
21
186
33
35
129
27
167
209
199
90
51
12
106
137
185
211
126
54
56
187
208
123
80
161
83
166
152
198
104
140
197
136
94
241
237
144
148
42
176
250
16
163
133
217
7
259
143
238
128
91
24
87
195
93
142
226
172
38
10
153
188
109
234
173
98
88
64
55
52
222
154
100
232
243
79
150
32
86
231
134
81
174
72
97
155
149
25
45
5
201
196
207
14
122
8
102
181
263
19
20
59
114
266
210
262
170
135
67
239
146
116
131
17
89
46
66
206
162
247
214
261
219
117
61
225
3
204
62
157
216
112
171
200
169
119
84
43
44
26
99
60
164
47
6
30
178
168
190
50
159
253
120
184
215
203
165
4
31
267
101
58
48
229
57
255
202
145
182
258
18
189
37
138
158
15
105
252
240
246
53
228
221
127
233
70
242
103
41
191
224
220
22
71
156
29
28
74
68
213
175
160
76
77
73
75
147
130
230
218
151
2
85
260
115
92
227
179
251
236
248
69

> <PUBCHEM_MMFF94_PARTIAL_CHARGES>
32
1 -0.9
10 -0.91
11 0.03
12 -0.57
13 0.4
15 0.5
16 0.4
17 0.4
19 0.18
2 -0.9
20 0.91
21 -0.11
22 0.91
23 0.91
24 -0.33
25 0.91
26 0.08
27 0.04
3 -0.9
31 0.45
32 0.45
36 0.45
37 0.45
4 -0.9
45 0.27
46 0.15
47 0.15
5 -0.9
6 -0.9
7 -0.9
8 -0.9
9 -0.91

> <PUBCHEM_EFFECTIVE_ROTOR_COUNT>
14

> <PUBCHEM_PHARMACOPHORE_FEATURES>
19
1 1 acceptor
1 10 cation
1 10 donor
1 11 donor
1 2 acceptor
1 3 acceptor
1 4 acceptor
1 5 acceptor
1 6 acceptor
1 7 acceptor
1 8 acceptor
1 9 cation
1 9 donor
3 1 2 20 anion
3 11 12 27 cation
3 3 4 22 anion
3 5 6 23 anion
3 7 8 25 anion
5 11 12 24 26 27 rings

> <PUBCHEM_HEAVY_ATOM_COUNT>
27

> <PUBCHEM_ATOM_DEF_STEREO_COUNT>
2

> <PUBCHEM_ATOM_UDEF_STEREO_COUNT>
1

> <PUBCHEM_BOND_DEF_STEREO_COUNT>
0

> <PUBCHEM_BOND_UDEF_STEREO_COUNT>
0

> <PUBCHEM_ISOTOPIC_ATOM_COUNT>
0

> <PUBCHEM_COMPONENT_COUNT>
1

> <PUBCHEM_CACTVS_TAUTO_COUNT>
6

> <PUBCHEM_CONFORMER_ID>
080931E500000001

> <PUBCHEM_MMFF94_ENERGY>
41.987

> <PUBCHEM_FEATURE_SELFOVERLAP>
96.649

> <PUBCHEM_SHAPE_FINGERPRINT>
10 15 18113340821135315072
11315181 36 15574436522853055785
13073987 5 18335700481705246963
13533116 47 16701743744085772094
14251764 18 18272932725893189819
14251764 46 17775288274267258784
14617045 38 17917996074949225106
15183329 4 16988837255089048516
15461852 350 17676206883436668319
18335252 98 18410016546095186763
18608769 82 18411419552817742787
20281389 69 18334292081037082216
21150785 3 18335419075690716389
21315763 28 18187082845760442920
220451 1 14979953644755428253
22224240 67 18186519930324730034
23035841 295 12319738059468898281
23559900 14 16988268859570523776
3545911 37 18131633391802330056
4325135 7 18113337530805445682
59755656 520 17561080319775273591

> <PUBCHEM_SHAPE_MULTIPOLES>
488.77
23.76
1.81
1.31
15.35
0.12
0.36
-1.9
-0.64
-1.62
0.36
-0.65
-0.09
0.28

> <PUBCHEM_SHAPE_SELFOVERLAP>
986.358

> <PUBCHEM_SHAPE_VOLUME>
283.3

> <PUBCHEM_COORDINATE_TYPE>
2
5
10

$$$$
