134820350
  -OEChem-03292013293D

 34 33  0     1  0  0  0  0  0999 V2000
   -0.5391   -0.9746    0.7396 S   0  0  0  0  0  0  0  0  0  0  0  0
   -3.8882    1.9716   -0.0503 O   0  0  0  0  0  0  0  0  0  0  0  0
    1.8476    2.6750    0.6520 O   0  5  0  0  0  0  0  0  0  0  0  0
   -0.0984    2.5269   -0.5274 O   0  0  0  0  0  0  0  0  0  0  0  0
    3.5141   -1.1878   -1.1621 O   0  0  0  0  0  0  0  0  0  0  0  0
    2.3025    0.0251    0.4124 N   0  0  0  0  0  0  0  0  0  0  0  0
   -2.1668   -1.4495    0.0278 C   0  0  0  0  0  0  0  0  0  0  0  0
   -2.9310   -0.2014   -0.4697 C   0  0  0  0  0  0  0  0  0  0  0  0
   -1.9160   -2.4566   -1.1011 C   0  0  0  0  0  0  0  0  0  0  0  0
   -2.9772   -2.1277    1.1433 C   0  0  0  0  0  0  0  0  0  0  0  0
    0.1886   -0.2908   -0.7631 C   0  0  0  0  0  0  0  0  0  0  0  0
   -3.1491    0.9141    0.5527 C   0  0  0  0  0  0  0  0  0  0  0  0
    1.3674    0.6509   -0.4986 C   0  0  1  0  0  0  0  0  0  0  0  0
    1.0072    2.0951   -0.0941 C   0  0  0  0  0  0  0  0  0  0  0  0
    3.2963   -0.8420   -0.0039 C   0  0  0  0  0  0  0  0  0  0  0  0
    4.1421   -1.3281    1.1425 C   0  0  0  0  0  0  0  0  0  0  0  0
   -3.9259   -0.5259   -0.8108 H   0  0  0  0  0  0  0  0  0  0  0  0
   -2.4985    0.2229   -1.3814 H   0  0  0  0  0  0  0  0  0  0  0  0
   -1.4517   -2.0028   -1.9823 H   0  0  0  0  0  0  0  0  0  0  0  0
   -1.2952   -3.2994   -0.7751 H   0  0  0  0  0  0  0  0  0  0  0  0
   -2.8683   -2.8783   -1.4462 H   0  0  0  0  0  0  0  0  0  0  0  0
   -3.0879   -1.4968    2.0318 H   0  0  0  0  0  0  0  0  0  0  0  0
   -3.9845   -2.3831    0.7935 H   0  0  0  0  0  0  0  0  0  0  0  0
   -2.5053   -3.0640    1.4664 H   0  0  0  0  0  0  0  0  0  0  0  0
   -0.5287    0.2286   -1.3953 H   0  0  0  0  0  0  0  0  0  0  0  0
    0.5639   -1.1412   -1.3445 H   0  0  0  0  0  0  0  0  0  0  0  0
    1.8902    0.7763   -1.4579 H   0  0  0  0  0  0  0  0  0  0  0  0
   -3.7253    0.5605    1.4120 H   0  0  0  0  0  0  0  0  0  0  0  0
   -2.2066    1.3362    0.9084 H   0  0  0  0  0  0  0  0  0  0  0  0
    2.2010    0.2216    1.4041 H   0  0  0  0  0  0  0  0  0  0  0  0
   -4.0104    2.6573    0.6283 H   0  0  0  0  0  0  0  0  0  0  0  0
    3.5059   -1.7322    1.9352 H   0  0  0  0  0  0  0  0  0  0  0  0
    4.8146   -2.1176    0.7958 H   0  0  0  0  0  0  0  0  0  0  0  0
    4.7352   -0.4988    1.5374 H   0  0  0  0  0  0  0  0  0  0  0  0
  1  7  1  0  0  0  0
  1 11  1  0  0  0  0
  2 12  1  0  0  0  0
  2 31  1  0  0  0  0
  3 14  1  0  0  0  0
  4 14  2  0  0  0  0
  5 15  2  0  0  0  0
  6 13  1  0  0  0  0
  6 15  1  0  0  0  0
  6 30  1  0  0  0  0
  7  8  1  0  0  0  0
  7  9  1  0  0  0  0
  7 10  1  0  0  0  0
  8 12  1  0  0  0  0
  8 17  1  0  0  0  0
  8 18  1  0  0  0  0
  9 19  1  0  0  0  0
  9 20  1  0  0  0  0
  9 21  1  0  0  0  0
 10 22  1  0  0  0  0
 10 23  1  0  0  0  0
 10 24  1  0  0  0  0
 11 13  1  0  0  0  0
 11 25  1  0  0  0  0
 11 26  1  0  0  0  0
 12 28  1  0  0  0  0
 12 29  1  0  0  0  0
 13 14  1  0  0  0  0
 13 27  1  0  0  0  0
 15 16  1  0  0  0  0
 16 32  1  0  0  0  0
 16 33  1  0  0  0  0
 16 34  1  0  0  0  0
M  CHG  1   3  -1
M  END
> <PUBCHEM_COMPOUND_CID>
134820350

> <PUBCHEM_CONFORMER_RMSD>
0.8

> <PUBCHEM_CONFORMER_DIVERSEORDER>
2
89
66
175
179
92
185
174
39
53
55
191
107
197
57
96
194
206
132
156
143
46
45
25
81
209
173
212
213
85
142
192
87
59
144
176
181
75
54
203
28
205
58
193
74
195
24
199
165
32
63
68
198
12
186
210
149
188
102
111
157
150
37
35
52
168
123
153
95
196
129
140
201
141
14
202
80
214
134
164
29
99
211
135
114
158
38
90
152
122
147
162
4
131
60
151
106
84
130
104
30
6
21
8
137
44
15
72
119
16
10
139
42
20
138
100
56
182
171
33
101
3
177
69
167
112
124
40
215
190
118
189
67
125
169
116
36
19
127
22
62
115
208
94
145
161
200
187
178
121
1
207
170
34
172
43
136
113
73
146
154
76
41
163
93
110
148
61
103
64
26
88
91
70
126
13
50
9
159
204
17
86
5
120
27
47
7
117
31
166
48
51
155
105
183
109
98
184
77
180
82
65
108
83
49
128
18
71
78
79
11
133
23
160
97

> <PUBCHEM_MMFF94_PARTIAL_CHARGES>
15
1 -0.46
11 0.23
12 0.28
13 0.19
14 0.91
15 0.57
16 0.06
2 -0.68
3 -0.9
30 0.37
31 0.4
4 -0.9
5 -0.57
6 -0.73
7 0.23

> <PUBCHEM_EFFECTIVE_ROTOR_COUNT>
8

> <PUBCHEM_PHARMACOPHORE_FEATURES>
9
1 2 acceptor
1 2 donor
1 3 acceptor
1 4 acceptor
1 5 acceptor
1 6 donor
3 3 4 14 anion
3 7 9 10 hydrophobe
4 1 7 8 11 hydrophobe

> <PUBCHEM_HEAVY_ATOM_COUNT>
16

> <PUBCHEM_ATOM_DEF_STEREO_COUNT>
1

> <PUBCHEM_ATOM_UDEF_STEREO_COUNT>
0

> <PUBCHEM_BOND_DEF_STEREO_COUNT>
0

> <PUBCHEM_BOND_UDEF_STEREO_COUNT>
0

> <PUBCHEM_ISOTOPIC_ATOM_COUNT>
0

> <PUBCHEM_COMPONENT_COUNT>
1

> <PUBCHEM_CACTVS_TAUTO_COUNT>
2

> <PUBCHEM_CONFORMER_ID>
080931FE00000002

> <PUBCHEM_MMFF94_ENERGY>
35.8223

> <PUBCHEM_FEATURE_SELFOVERLAP>
46.447

> <PUBCHEM_SHAPE_FINGERPRINT>
10130415 120 18333731295388091914
10922523 26 18343306997804617959
11132069 177 18341328873364835312
124424 183 18334853896580826751
12932764 1 18055085503618764335
13140716 1 18409165527968028433
14965852 173 18409450327492051507
15375462 189 17894628111105501370
15442244 35 18410853286938143496
17041 49 18409164411492607762
17841504 4 18263927807223768067
18511873 20 18261394412248023909
19078846 21 18335137575070874098
19973954 147 18193279808963104813
20559304 39 18122349244002184509
21501502 16 18337954613718043301
21524375 3 18336266731058656327
23402539 116 18201144478498216383
23598291 2 18127980899657836607
2748010 2 18336540637569956893
3084891 72 18265612070359594739
3286 77 18114461283271357979
4175511 71 18410018744796500436
45790113 50 18116161158739769799
45790113 53 18269849768704478011
5902787 121 18334852831766501970
6992083 37 18342463638115805915
7364860 26 18054513770720817236
74978 22 18411419552701340855
7832392 63 18409726253281280211
81228 2 18194975036997451064

> <PUBCHEM_SHAPE_MULTIPOLES>
304.66
6.88
2.97
1.09
1.96
1.42
0
-2
1.09
-0.76
0.05
0.11
-0.5
-0.05

> <PUBCHEM_SHAPE_SELFOVERLAP>
568.949

> <PUBCHEM_SHAPE_VOLUME>
191.6

> <PUBCHEM_COORDINATE_TYPE>
2
5
10

$$$$
