REMARK  Name = 134859
REMARK  6 active torsions:
REMARK  status: ('A' for Active; 'I' for Inactive)
REMARK    1  A    between atoms: C_3  and  C_11
REMARK    2  A    between atoms: C_7  and  C_21
REMARK    3  A    between atoms: C_12  and  C_15
REMARK    4  A    between atoms: C_21  and  N_25
REMARK    5  A    between atoms: C_26  and  O_28
REMARK    6  A    between atoms: O_28  and  C_29
REMARK                            x       y       z     vdW  Elec       q    Type
REMARK                         _______ _______ _______ _____ _____    ______ ____
ROOT
ATOM      1  O   UNL     1       0.973   0.157   1.594  0.00  0.00    -0.273 OA
ATOM      2  N   UNL     1       0.156   1.985   0.433  0.00  0.00    -0.272 N 
ATOM      3  C   UNL     1      -1.244   1.853   0.812  0.00  0.00    +0.152 C 
ATOM      4  C   UNL     1      -1.796   3.273   0.755  0.00  0.00    +0.031 C 
ATOM      5  C   UNL     1      -0.934   3.947  -0.310  0.00  0.00    +0.024 C 
ATOM      6  C   UNL     1       0.435   3.316  -0.102  0.00  0.00    +0.094 C 
ATOM      7  C   UNL     1       1.098   1.006   0.710  0.00  0.00    +0.242 C 
ENDROOT
BRANCH   3  11
ATOM      8  O   UNL     1      -1.505   0.909  -1.367  0.00  0.00    -0.273 OA
ATOM      9  O   UNL     1      -3.642  -0.929  -1.564  0.00  0.00    -0.277 OA
ATOM     10  N   UNL     1      -2.963   0.250   0.336  0.00  0.00    -0.256 N 
ATOM     11  C   UNL     1      -1.895   0.962  -0.203  0.00  0.00    +0.246 C 
ATOM     12  C   UNL     1      -3.761  -0.643  -0.376  0.00  0.00    +0.209 C 
ATOM     13  H   UNL     1      -3.170   0.387   1.289  0.00  0.00    +0.157 HD
BRANCH  12  15
ATOM     14  N   UNL     1      -6.113  -0.949  -0.149  0.00  0.00    +0.392 N 
ATOM     15  C   UNL     1      -4.824  -1.250   0.483  0.00  0.00    +0.021 C 
ATOM     16  C   UNL     1      -4.721  -2.775   0.503  0.00  0.00    -0.014 C 
ATOM     17  C   UNL     1      -6.003  -3.261  -0.157  0.00  0.00    -0.024 C 
ATOM     18  C   UNL     1      -6.968  -2.115   0.074  0.00  0.00    -0.077 C 
ATOM     19  C   UNL     1      -6.718   0.281   0.344  0.00  0.00    -0.100 C 
ATOM     20  H   UNL     1      -5.981  -0.778  -1.146  0.00  0.00    -0.079 HD
ENDBRANCH  12  15
ENDBRANCH   3  11
BRANCH   7  21
ATOM     21  C   UNL     1       2.327   1.021  -0.164  0.00  0.00    +0.129 C 
ATOM     22  C   UNL     1       1.936   0.755  -1.612  0.00  0.00    +0.029 C 
ATOM     23  C   UNL     1       3.048   2.355  -0.019  0.00  0.00    +0.029 C 
BRANCH  21  25
ATOM     24  O   UNL     1       4.933   0.119  -1.077  0.00  0.00    -0.226 OA
ATOM     25  N   UNL     1       3.123  -0.058   0.364  0.00  0.00    -0.266 N 
ATOM     26  C   UNL     1       4.358  -0.419  -0.136  0.00  0.00    +0.402 C 
ATOM     27  H   UNL     1       2.765  -0.568   1.126  0.00  0.00    +0.153 HD
BRANCH  26  28
ATOM     28  O   UNL     1       4.856  -1.474   0.575  0.00  0.00    -0.442 OA
BRANCH  28  29
ATOM     29  C   UNL     1       6.140  -1.955   0.163  0.00  0.00    +0.138 C 
ATOM     30  C   UNL     1       6.513  -3.116   1.081  0.00  0.00    +0.044 C 
ATOM     31  C   UNL     1       7.152  -0.818   0.296  0.00  0.00    +0.044 C 
ATOM     32  C   UNL     1       6.040  -2.427  -1.287  0.00  0.00    +0.044 C 
ENDBRANCH  28  29
ENDBRANCH  26  28
ENDBRANCH  21  25
ENDBRANCH   7  21
TORSDOF 6
