134816082
  -OEChem-03292013293D

 68 72  0     1  0  0  0  0  0999 V2000
    0.2284   -3.5746   -1.1750 O   0  0  0  0  0  0  0  0  0  0  0  0
   -0.2325   -3.5747    1.1741 O   0  0  0  0  0  0  0  0  0  0  0  0
   -2.0314   -3.2643   -1.7846 O   0  0  0  0  0  0  0  0  0  0  0  0
    2.0274   -3.2675    1.7842 O   0  0  0  0  0  0  0  0  0  0  0  0
    1.4246    0.8153    1.6569 O   0  0  0  0  0  0  0  0  0  0  0  0
   -1.4232    0.8176   -1.6563 O   0  0  0  0  0  0  0  0  0  0  0  0
   -2.8973    0.5998    2.2302 O   0  0  0  0  0  0  0  0  0  0  0  0
    2.8979    0.5968   -2.2300 O   0  0  0  0  0  0  0  0  0  0  0  0
    1.2694   -2.7848   -0.5413 C   0  0  2  0  0  0  0  0  0  0  0  0
   -1.2725   -2.7834    0.5408 C   0  0  2  0  0  0  0  0  0  0  0  0
   -0.9603   -2.7616   -0.9994 C   0  0  1  0  0  0  0  0  0  0  0  0
    0.9571   -2.7631    0.9990 C   0  0  1  0  0  0  0  0  0  0  0  0
   -0.4588   -1.4024   -1.5774 C   0  0  2  0  0  0  0  0  0  0  0  0
    0.4574   -1.4036    1.5774 C   0  0  2  0  0  0  0  0  0  0  0  0
    1.0692   -1.4232   -1.2337 C   0  0  1  0  0  0  0  0  0  0  0  0
   -1.0706   -1.4223    1.2338 C   0  0  1  0  0  0  0  0  0  0  0  0
    1.6246   -0.2905   -0.4284 C   0  0  0  0  0  0  0  0  0  0  0  0
   -1.6246   -0.2887    0.4287 C   0  0  0  0  0  0  0  0  0  0  0  0
   -1.2105   -0.1998   -0.9979 C   0  0  0  0  0  0  0  0  0  0  0  0
    1.2106   -0.2017    0.9982 C   0  0  0  0  0  0  0  0  0  0  0  0
    2.6148   -3.4117   -0.9083 C   0  0  0  0  0  0  0  0  0  0  0  0
   -2.6185   -3.4092    0.9082 C   0  0  0  0  0  0  0  0  0  0  0  0
   -0.6146   -1.3610   -3.1177 C   0  0  0  0  0  0  0  0  0  0  0  0
    0.6132   -1.3628    3.1176 C   0  0  0  0  0  0  0  0  0  0  0  0
   -2.4742    0.6260    0.9152 C   0  0  0  0  0  0  0  0  0  0  0  0
    2.4750    0.6235   -0.9150 C   0  0  0  0  0  0  0  0  0  0  0  0
    3.0094    1.6999   -0.1017 C   0  0  0  0  0  0  0  0  0  0  0  0
   -3.0075    1.7031    0.1019 C   0  0  0  0  0  0  0  0  0  0  0  0
   -3.8602    2.6507    0.5248 C   0  0  0  0  0  0  0  0  0  0  0  0
    3.8630    2.6467   -0.5246 C   0  0  0  0  0  0  0  0  0  0  0  0
   -4.3568    3.7019   -0.3365 C   0  0  0  0  0  0  0  0  0  0  0  0
    4.3608    3.6974    0.3366 C   0  0  0  0  0  0  0  0  0  0  0  0
    5.2131    4.6454   -0.0800 C   0  0  0  0  0  0  0  0  0  0  0  0
   -5.2083    4.6507    0.0801 C   0  0  0  0  0  0  0  0  0  0  0  0
   -5.7279    5.7409   -0.7987 C   0  0  0  0  0  0  0  0  0  0  0  0
    5.7340    5.7351    0.7987 C   0  0  0  0  0  0  0  0  0  0  0  0
   -1.6064   -1.5090    2.1851 H   0  0  0  0  0  0  0  0  0  0  0  0
    1.6049   -1.5103   -2.1852 H   0  0  0  0  0  0  0  0  0  0  0  0
    2.6861   -4.4314   -0.5132 H   0  0  0  0  0  0  0  0  0  0  0  0
    3.4534   -2.8248   -0.5212 H   0  0  0  0  0  0  0  0  0  0  0  0
   -2.6911   -4.4286    0.5128 H   0  0  0  0  0  0  0  0  0  0  0  0
   -3.4567   -2.8212    0.5216 H   0  0  0  0  0  0  0  0  0  0  0  0
   -2.7296   -3.5013    1.9947 H   0  0  0  0  0  0  0  0  0  0  0  0
    2.7262   -3.5036   -1.9948 H   0  0  0  0  0  0  0  0  0  0  0  0
   -1.6655   -1.2815   -3.4183 H   0  0  0  0  0  0  0  0  0  0  0  0
   -0.0989   -0.4902   -3.5400 H   0  0  0  0  0  0  0  0  0  0  0  0
   -0.1935   -2.2552   -3.5909 H   0  0  0  0  0  0  0  0  0  0  0  0
    0.0985   -0.4914    3.5402 H   0  0  0  0  0  0  0  0  0  0  0  0
    0.1909   -2.2566    3.5906 H   0  0  0  0  0  0  0  0  0  0  0  0
    1.6641   -1.2847    3.4183 H   0  0  0  0  0  0  0  0  0  0  0  0
   -2.6851   -2.5525   -1.8900 H   0  0  0  0  0  0  0  0  0  0  0  0
    2.6822   -2.5567    1.8898 H   0  0  0  0  0  0  0  0  0  0  0  0
    2.9054    1.7681    0.9642 H   0  0  0  0  0  0  0  0  0  0  0  0
   -2.9035    1.7712   -0.9640 H   0  0  0  0  0  0  0  0  0  0  0  0
    2.2635    0.1119   -2.7783 H   0  0  0  0  0  0  0  0  0  0  0  0
   -2.2636    0.1138    2.7785 H   0  0  0  0  0  0  0  0  0  0  0  0
    4.1693    2.6864   -1.5671 H   0  0  0  0  0  0  0  0  0  0  0  0
   -4.1666    2.6906    1.5672 H   0  0  0  0  0  0  0  0  0  0  0  0
   -4.0168    3.7111   -1.3691 H   0  0  0  0  0  0  0  0  0  0  0  0
    4.0210    3.7068    1.3693 H   0  0  0  0  0  0  0  0  0  0  0  0
   -5.5586    4.6548    1.1095 H   0  0  0  0  0  0  0  0  0  0  0  0
    5.5632    4.6492   -1.1095 H   0  0  0  0  0  0  0  0  0  0  0  0
    5.4557    6.7101    0.3872 H   0  0  0  0  0  0  0  0  0  0  0  0
    6.8258    5.6821    0.8499 H   0  0  0  0  0  0  0  0  0  0  0  0
    5.3411    5.6705    1.8183 H   0  0  0  0  0  0  0  0  0  0  0  0
   -5.4489    6.7156   -0.3870 H   0  0  0  0  0  0  0  0  0  0  0  0
   -6.8198    5.6889   -0.8501 H   0  0  0  0  0  0  0  0  0  0  0  0
   -5.3349    5.6760   -1.8182 H   0  0  0  0  0  0  0  0  0  0  0  0
  1  9  1  0  0  0  0
  1 11  1  0  0  0  0
  2 10  1  0  0  0  0
  2 12  1  0  0  0  0
  3 11  1  0  0  0  0
  3 51  1  0  0  0  0
  4 12  1  0  0  0  0
  4 52  1  0  0  0  0
  5 20  2  0  0  0  0
  6 19  2  0  0  0  0
  7 25  1  0  0  0  0
  7 56  1  0  0  0  0
  8 26  1  0  0  0  0
  8 55  1  0  0  0  0
  9 12  1  0  0  0  0
  9 15  1  0  0  0  0
  9 21  1  0  0  0  0
 10 11  1  0  0  0  0
 10 16  1  0  0  0  0
 10 22  1  0  0  0  0
 11 13  1  0  0  0  0
 12 14  1  0  0  0  0
 13 15  1  0  0  0  0
 13 19  1  0  0  0  0
 13 23  1  0  0  0  0
 14 16  1  0  0  0  0
 14 20  1  0  0  0  0
 14 24  1  0  0  0  0
 15 17  1  0  0  0  0
 15 38  1  0  0  0  0
 16 18  1  0  0  0  0
 16 37  1  0  0  0  0
 17 20  1  0  0  0  0
 17 26  2  0  0  0  0
 18 19  1  0  0  0  0
 18 25  2  0  0  0  0
 21 39  1  0  0  0  0
 21 40  1  0  0  0  0
 21 44  1  0  0  0  0
 22 41  1  0  0  0  0
 22 42  1  0  0  0  0
 22 43  1  0  0  0  0
 23 45  1  0  0  0  0
 23 46  1  0  0  0  0
 23 47  1  0  0  0  0
 24 48  1  0  0  0  0
 24 49  1  0  0  0  0
 24 50  1  0  0  0  0
 25 28  1  0  0  0  0
 26 27  1  0  0  0  0
 27 30  2  0  0  0  0
 27 53  1  0  0  0  0
 28 29  2  0  0  0  0
 28 54  1  0  0  0  0
 29 31  1  0  0  0  0
 29 58  1  0  0  0  0
 30 32  1  0  0  0  0
 30 57  1  0  0  0  0
 31 34  2  0  0  0  0
 31 59  1  0  0  0  0
 32 33  2  0  0  0  0
 32 60  1  0  0  0  0
 33 36  1  0  0  0  0
 33 62  1  0  0  0  0
 34 35  1  0  0  0  0
 34 61  1  0  0  0  0
 35 66  1  0  0  0  0
 35 67  1  0  0  0  0
 35 68  1  0  0  0  0
 36 63  1  0  0  0  0
 36 64  1  0  0  0  0
 36 65  1  0  0  0  0
M  END
> <PUBCHEM_COMPOUND_CID>
134816082

> <PUBCHEM_CONFORMER_RMSD>
0.8

> <PUBCHEM_CONFORMER_DIVERSEORDER>
1
2

> <PUBCHEM_MMFF94_PARTIAL_CHARGES>
44
1 -0.56
10 0.28
11 0.56
12 0.56
13 0.06
14 0.06
15 0.14
16 0.14
17 -0.12
18 -0.12
19 0.49
2 -0.56
20 0.49
25 0.08
26 0.08
27 -0.15
28 -0.15
29 -0.15
3 -0.68
30 -0.15
31 -0.15
32 -0.15
33 -0.29
34 -0.29
35 0.14
36 0.14
4 -0.68
5 -0.57
51 0.4
52 0.4
53 0.15
54 0.15
55 0.45
56 0.45
57 0.15
58 0.15
59 0.15
6 -0.57
60 0.15
61 0.15
62 0.15
7 -0.53
8 -0.53
9 0.28

> <PUBCHEM_EFFECTIVE_ROTOR_COUNT>
4.4

> <PUBCHEM_PHARMACOPHORE_FEATURES>
15
1 1 acceptor
1 2 acceptor
1 3 acceptor
1 3 donor
1 35 hydrophobe
1 36 hydrophobe
1 4 acceptor
1 4 donor
1 5 acceptor
1 6 acceptor
1 7 donor
1 8 donor
10 1 2 9 10 11 12 13 14 15 16 rings
6 10 11 13 16 18 19 rings
6 9 12 14 15 17 20 rings

> <PUBCHEM_HEAVY_ATOM_COUNT>
36

> <PUBCHEM_ATOM_DEF_STEREO_COUNT>
6

> <PUBCHEM_ATOM_UDEF_STEREO_COUNT>
2

> <PUBCHEM_BOND_DEF_STEREO_COUNT>
6

> <PUBCHEM_BOND_UDEF_STEREO_COUNT>
0

> <PUBCHEM_ISOTOPIC_ATOM_COUNT>
0

> <PUBCHEM_COMPONENT_COUNT>
1

> <PUBCHEM_CACTVS_TAUTO_COUNT>
105

> <PUBCHEM_CONFORMER_ID>
0809215200000001

> <PUBCHEM_MMFF94_ENERGY>
185.7378

> <PUBCHEM_FEATURE_SELFOVERLAP>
78.804

> <PUBCHEM_SHAPE_FINGERPRINT>
10675989 125 18197783197774465040
10863032 1 18268453336949630679
10937287 8 18411697694625940813
10948715 1 18410866455244972227
11477941 20 17333371702282305276
12293681 160 17613972498085439647
12788726 201 17977650232437149609
14142880 1 17972593557007199029
14955137 171 17902512580139692802
15439362 3 18268427945693521584
16067690 210 17328558023159110272
16945 1 17825403881070745591
16988056 13 17761208813015355460
21304303 282 18198037361322093616
21421861 104 11315751955154928581
21857420 4 16966883040061312157
21860390 5 17833550090069860957
21927370 108 17401497442538008106
23419403 2 16966679853848634306
23466295 7 8862404018734555980
23559900 14 17833554497133671817
238 59 18127422146319681081
376196 1 18410582755485862241
6086070 43 17830467081230343313

> <PUBCHEM_SHAPE_MULTIPOLES>
693.91
8.59
8.24
2.24
0.02
10.81
0
23.31
0
-0.01
0
0
-1.75
1.07

> <PUBCHEM_SHAPE_SELFOVERLAP>
1534.661

> <PUBCHEM_SHAPE_VOLUME>
368

> <PUBCHEM_COORDINATE_TYPE>
2
5
10

$$$$
