134813
  -OEChem-03292013323D

 61 60  0     1  0  0  0  0  0999 V2000
    0.7449   -0.8086   -0.6422 O   0  0  0  0  0  0  0  0  0  0  0  0
   -1.7632    1.8094    1.0491 O   0  0  0  0  0  0  0  0  0  0  0  0
   -5.3557   -1.2228    1.4309 O   0  0  0  0  0  0  0  0  0  0  0  0
    4.0419   -1.4347    1.4483 O   0  0  0  0  0  0  0  0  0  0  0  0
   -6.5990    0.3327    0.3601 O   0  0  0  0  0  0  0  0  0  0  0  0
    3.4220   -0.2767   -0.4647 N   0  0  0  0  0  0  0  0  0  0  0  0
    0.4730    0.2484    1.4074 N   0  0  0  0  0  0  0  0  0  0  0  0
   -3.0283   -0.1183    0.7917 N   0  0  0  0  0  0  0  0  0  0  0  0
    6.2033   -2.4794    0.0908 N   0  0  0  0  0  0  0  0  0  0  0  0
    2.3984    1.9670   -0.5935 C   0  0  0  0  0  0  0  0  0  0  0  0
    2.5114    0.6409    0.1694 C   0  0  1  0  0  0  0  0  0  0  0  0
    3.7273    2.7311   -0.7630 C   0  0  0  0  0  0  0  0  0  0  0  0
   -4.0735    0.6486   -1.3173 C   0  0  0  0  0  0  0  0  0  0  0  0
   -3.6404   -0.5991   -2.1202 C   0  0  0  0  0  0  0  0  0  0  0  0
   -4.1907    0.5104    0.2082 C   0  0  1  0  0  0  0  0  0  0  0  0
    1.1518   -0.0480    0.2336 C   0  0  0  0  0  0  0  0  0  0  0  0
   -0.8158   -0.3141    1.7414 C   0  0  2  0  0  0  0  0  0  0  0  0
    4.3094    3.0658    0.6132 C   0  0  0  0  0  0  0  0  0  0  0  0
    3.5618    4.0144   -1.5782 C   0  0  0  0  0  0  0  0  0  0  0  0
   -1.8970    0.5932    1.1682 C   0  0  0  0  0  0  0  0  0  0  0  0
   -4.6561   -1.7246   -1.8908 C   0  0  0  0  0  0  0  0  0  0  0  0
   -3.4917   -0.3476   -3.6190 C   0  0  0  0  0  0  0  0  0  0  0  0
   -0.9665   -0.4254    3.2534 C   0  0  0  0  0  0  0  0  0  0  0  0
    4.1229   -1.2532    0.2353 C   0  0  0  0  0  0  0  0  0  0  0  0
   -5.4992   -0.1278    0.6467 C   0  0  0  0  0  0  0  0  0  0  0  0
    5.0259   -2.0767   -0.6743 C   0  0  2  0  0  0  0  0  0  0  0  0
    4.2832   -3.3052   -1.1844 C   0  0  0  0  0  0  0  0  0  0  0  0
    1.6666    2.6119   -0.0884 H   0  0  0  0  0  0  0  0  0  0  0  0
    1.9830    1.7718   -1.5919 H   0  0  0  0  0  0  0  0  0  0  0  0
    2.8587    0.8155    1.1936 H   0  0  0  0  0  0  0  0  0  0  0  0
    4.4449    2.0951   -1.2957 H   0  0  0  0  0  0  0  0  0  0  0  0
   -5.0210    1.0257   -1.7245 H   0  0  0  0  0  0  0  0  0  0  0  0
   -3.3303    1.4318   -1.5221 H   0  0  0  0  0  0  0  0  0  0  0  0
   -2.6640   -0.9382   -1.7524 H   0  0  0  0  0  0  0  0  0  0  0  0
   -4.2370    1.5251    0.6274 H   0  0  0  0  0  0  0  0  0  0  0  0
   -0.8865   -1.3090    1.2868 H   0  0  0  0  0  0  0  0  0  0  0  0
    3.4938   -0.2517   -1.4780 H   0  0  0  0  0  0  0  0  0  0  0  0
    3.5871    3.6087    1.2322 H   0  0  0  0  0  0  0  0  0  0  0  0
    5.2017    3.6937    0.5119 H   0  0  0  0  0  0  0  0  0  0  0  0
    4.6186    2.1652    1.1519 H   0  0  0  0  0  0  0  0  0  0  0  0
    2.8719    4.7092   -1.0875 H   0  0  0  0  0  0  0  0  0  0  0  0
    4.5228    4.5231   -1.7076 H   0  0  0  0  0  0  0  0  0  0  0  0
    3.1648    3.7898   -2.5736 H   0  0  0  0  0  0  0  0  0  0  0  0
    0.8592    0.9488    2.0342 H   0  0  0  0  0  0  0  0  0  0  0  0
   -3.0491   -1.1256    0.9221 H   0  0  0  0  0  0  0  0  0  0  0  0
   -4.5855   -2.1301   -0.8792 H   0  0  0  0  0  0  0  0  0  0  0  0
   -4.4592   -2.5635   -2.5684 H   0  0  0  0  0  0  0  0  0  0  0  0
   -5.6823   -1.3883   -2.0722 H   0  0  0  0  0  0  0  0  0  0  0  0
   -3.1506   -1.2494   -4.1381 H   0  0  0  0  0  0  0  0  0  0  0  0
   -2.7577    0.4434   -3.8045 H   0  0  0  0  0  0  0  0  0  0  0  0
   -4.4429   -0.0366   -4.0640 H   0  0  0  0  0  0  0  0  0  0  0  0
   -0.1766   -1.0533    3.6791 H   0  0  0  0  0  0  0  0  0  0  0  0
   -1.9344   -0.8643    3.5180 H   0  0  0  0  0  0  0  0  0  0  0  0
   -0.9071    0.5579    3.7342 H   0  0  0  0  0  0  0  0  0  0  0  0
    5.3530   -1.4669   -1.5242 H   0  0  0  0  0  0  0  0  0  0  0  0
    3.9384   -3.9381   -0.3584 H   0  0  0  0  0  0  0  0  0  0  0  0
    4.9212   -3.9112   -1.8367 H   0  0  0  0  0  0  0  0  0  0  0  0
    3.3978   -3.0108   -1.7587 H   0  0  0  0  0  0  0  0  0  0  0  0
    6.8179   -3.0419   -0.4965 H   0  0  0  0  0  0  0  0  0  0  0  0
    6.7396   -1.6530    0.3530 H   0  0  0  0  0  0  0  0  0  0  0  0
   -6.2214   -1.5899    1.7102 H   0  0  0  0  0  0  0  0  0  0  0  0
  1 16  2  0  0  0  0
  2 20  2  0  0  0  0
  3 25  1  0  0  0  0
  3 61  1  0  0  0  0
  4 24  2  0  0  0  0
  5 25  2  0  0  0  0
  6 11  1  0  0  0  0
  6 24  1  0  0  0  0
  6 37  1  0  0  0  0
  7 16  1  0  0  0  0
  7 17  1  0  0  0  0
  7 44  1  0  0  0  0
  8 15  1  0  0  0  0
  8 20  1  0  0  0  0
  8 45  1  0  0  0  0
  9 26  1  0  0  0  0
  9 59  1  0  0  0  0
  9 60  1  0  0  0  0
 10 11  1  0  0  0  0
 10 12  1  0  0  0  0
 10 28  1  0  0  0  0
 10 29  1  0  0  0  0
 11 16  1  0  0  0  0
 11 30  1  0  0  0  0
 12 18  1  0  0  0  0
 12 19  1  0  0  0  0
 12 31  1  0  0  0  0
 13 14  1  0  0  0  0
 13 15  1  0  0  0  0
 13 32  1  0  0  0  0
 13 33  1  0  0  0  0
 14 21  1  0  0  0  0
 14 22  1  0  0  0  0
 14 34  1  0  0  0  0
 15 25  1  0  0  0  0
 15 35  1  0  0  0  0
 17 20  1  0  0  0  0
 17 23  1  0  0  0  0
 17 36  1  0  0  0  0
 18 38  1  0  0  0  0
 18 39  1  0  0  0  0
 18 40  1  0  0  0  0
 19 41  1  0  0  0  0
 19 42  1  0  0  0  0
 19 43  1  0  0  0  0
 21 46  1  0  0  0  0
 21 47  1  0  0  0  0
 21 48  1  0  0  0  0
 22 49  1  0  0  0  0
 22 50  1  0  0  0  0
 22 51  1  0  0  0  0
 23 52  1  0  0  0  0
 23 53  1  0  0  0  0
 23 54  1  0  0  0  0
 24 26  1  0  0  0  0
 26 27  1  0  0  0  0
 26 55  1  0  0  0  0
 27 56  1  0  0  0  0
 27 57  1  0  0  0  0
 27 58  1  0  0  0  0
M  END
> <PUBCHEM_COMPOUND_CID>
134813

> <PUBCHEM_CONFORMER_RMSD>
1.2

> <PUBCHEM_CONFORMER_DIVERSEORDER>
1
16
12
8
42
34
29
33
46
19
53
25
3
26
2
52
47
20
40
9
23
31
28
41
43
44
48
35
6
45
51
38
50
5
27
30
11
13
36
37
15
55
14
4
22
21
10
32
54
24
18
39
17
7
49

> <PUBCHEM_MMFF94_PARTIAL_CHARGES>
23
1 -0.57
11 0.36
15 0.36
16 0.57
17 0.36
2 -0.57
20 0.57
24 0.57
25 0.66
26 0.33
3 -0.65
37 0.37
4 -0.57
44 0.37
45 0.37
5 -0.57
59 0.36
6 -0.73
60 0.36
61 0.5
7 -0.73
8 -0.73
9 -0.99

> <PUBCHEM_EFFECTIVE_ROTOR_COUNT>
14

> <PUBCHEM_PHARMACOPHORE_FEATURES>
13
1 1 acceptor
1 2 acceptor
1 3 acceptor
1 4 acceptor
1 5 acceptor
1 6 donor
1 7 donor
1 8 donor
1 9 cation
1 9 donor
3 12 18 19 hydrophobe
3 14 21 22 hydrophobe
3 3 5 25 anion

> <PUBCHEM_HEAVY_ATOM_COUNT>
27

> <PUBCHEM_ATOM_DEF_STEREO_COUNT>
4

> <PUBCHEM_ATOM_UDEF_STEREO_COUNT>
0

> <PUBCHEM_BOND_DEF_STEREO_COUNT>
0

> <PUBCHEM_BOND_UDEF_STEREO_COUNT>
0

> <PUBCHEM_ISOTOPIC_ATOM_COUNT>
0

> <PUBCHEM_COMPONENT_COUNT>
1

> <PUBCHEM_CACTVS_TAUTO_COUNT>
8

> <PUBCHEM_CONFORMER_ID>
00020E9D00000001

> <PUBCHEM_MMFF94_ENERGY>
44.6822

> <PUBCHEM_FEATURE_SELFOVERLAP>
66.034

> <PUBCHEM_SHAPE_FINGERPRINT>
10670039 82 14996283578529696182
11135609 149 18190442893181052646
12166972 35 18131073689028697192
12403259 415 17022899051923865141
12616971 3 18201717358015086237
13533116 47 18411707590504280504
13540713 4 17532959279028782064
13726171 33 16341744034841945857
13899415 180 18264205816826587420
14251757 5 15912787071457840513
15320294 125 17274534309200677663
15537594 2 17703237333597830765
17349148 13 18060423482443187074
20645477 70 18335148600473410690
21033648 29 16660358195093523365
23557571 272 14261364513571802112
23559900 14 18113907082577327656
3004659 81 17560808722927827788
338550 245 17846218817384474182
495365 180 18113619023536961120
5081480 168 18113339691421987756
5104073 3 15984810584740611011
633830 44 18186514402317055265
7471813 234 18272371932657196040

> <PUBCHEM_SHAPE_MULTIPOLES>
506.38
14.69
3.39
2.63
6.03
1.49
0.53
-4.63
3.03
-8.86
1.68
3.43
-0.41
-1.16

> <PUBCHEM_SHAPE_SELFOVERLAP>
981.673

> <PUBCHEM_SHAPE_VOLUME>
306.3

> <PUBCHEM_COORDINATE_TYPE>
2
5
10

$$$$
