REMARK  Name = 134822
REMARK  9 active torsions:
REMARK  status: ('A' for Active; 'I' for Inactive)
REMARK    1  A    between atoms: C_2  and  O_7
REMARK    2  A    between atoms: C_3  and  O_9
REMARK    3  A    between atoms: C_4  and  O_11
REMARK    4  A    between atoms: C_5  and  O_17
REMARK    5  A    between atoms: C_6  and  C_14
REMARK    6  A    between atoms: C_14  and  O_15
REMARK    7  A    between atoms: O_17  and  C_18
REMARK    8  A    between atoms: C_18  and  C_19
REMARK    9  A    between atoms: C_19  and  C_21
REMARK                            x       y       z     vdW  Elec       q    Type
REMARK                         _______ _______ _______ _____ _____    ______ ____
ROOT
ATOM      1  O   UNL     1       1.674  -0.793   0.088  0.00  0.00    -0.317 OA
ATOM      2  C   UNL     1       2.575   1.933  -0.011  0.00  0.00    +0.172 C 
ATOM      3  C   UNL     1       1.155   1.555   0.411  0.00  0.00    +0.196 C 
ATOM      4  C   UNL     1       3.541   0.761   0.166  0.00  0.00    +0.178 C 
ATOM      5  C   UNL     1       0.726   0.228  -0.216  0.00  0.00    +0.266 C 
ATOM      6  C   UNL     1       2.963  -0.511  -0.443  0.00  0.00    +0.245 C 
ENDROOT
BRANCH   2   7
ATOM      7  O   UNL     1       3.041   3.015   0.797  0.00  0.00    -0.379 OA
ATOM      8  H   UNL     1       2.442   3.772   0.700  0.00  0.00    +0.211 HD
ENDBRANCH   2   7
BRANCH   3   9
ATOM      9  O   UNL     1       0.247   2.568  -0.022  0.00  0.00    -0.378 OA
ATOM     10  H   UNL     1       0.504   3.419   0.367  0.00  0.00    +0.211 HD
ENDBRANCH   3   9
BRANCH   4  11
ATOM     11  O   UNL     1       4.770   1.066  -0.491  0.00  0.00    -0.379 OA
ATOM     12  H   UNL     1       5.147   1.875  -0.111  0.00  0.00    +0.211 HD
ENDBRANCH   4  11
BRANCH   6  14
ATOM     13  O   UNL     1       3.354  -2.639   0.627  0.00  0.00    -0.247 OA
ATOM     14  C   UNL     1       3.768  -1.707  -0.046  0.00  0.00    +0.344 C 
BRANCH  14  15
ATOM     15  O   UNL     1       5.029  -1.619  -0.535  0.00  0.00    -0.478 OA
ATOM     16  H   UNL     1       5.283  -0.875  -1.046  0.00  0.00    +0.295 HD
ENDBRANCH  14  15
ENDBRANCH   6  14
BRANCH   5  17
ATOM     17  O   UNL     1      -0.548  -0.122   0.322  0.00  0.00    -0.328 OA
BRANCH  17  18
ATOM     18  C   UNL     1      -1.016  -1.349  -0.214  0.00  0.00    +0.149 C 
BRANCH  18  19
ATOM     19  C   UNL     1      -2.387  -1.685   0.389  0.00  0.00    +0.052 C 
ATOM     20  C   UNL     1      -2.878  -3.041  -0.125  0.00  0.00    +0.007 C 
BRANCH  19  21
ATOM     21  C   UNL     1      -3.411  -0.594   0.124  0.00  0.00    -0.020 C 
ATOM     22  C   UNL     1      -3.350   0.106  -1.065  0.00  0.00    -0.004 C 
ATOM     23  C   UNL     1      -4.375  -0.334   1.078  0.00  0.00    -0.004 C 
ATOM     24  C   UNL     1      -4.290   1.107  -1.309  0.00  0.00    -0.000 C 
ATOM     25  C   UNL     1      -5.315   0.667   0.834  0.00  0.00    -0.000 C 
ATOM     26  C   UNL     1      -5.272   1.387  -0.359  0.00  0.00    -0.000 C 
ENDBRANCH  19  21
ENDBRANCH  18  19
ENDBRANCH  17  18
ENDBRANCH   5  17
TORSDOF 9
