134821688
  -OEChem-03292013293D

 40 39  0     1  0  0  0  0  0999 V2000
   -0.7033    0.1985    0.1950 O   0  0  0  0  0  0  0  0  0  0  0  0
   -1.2943    3.0503    0.6095 O   0  0  0  0  0  0  0  0  0  0  0  0
    0.5674   -0.1297   -1.7026 O   0  0  0  0  0  0  0  0  0  0  0  0
   -3.5446    2.7296    0.5827 O   0  0  0  0  0  0  0  0  0  0  0  0
    6.4493   -0.2507    1.0205 O   0  5  0  0  0  0  0  0  0  0  0  0
    5.5771   -0.3223   -1.0884 O   0  0  0  0  0  0  0  0  0  0  0  0
   -3.0459   -1.8432    0.2440 N   0  3  0  0  0  0  0  0  0  0  0  0
   -3.0516   -0.3576    0.2518 C   0  0  0  0  0  0  0  0  0  0  0  0
   -1.8957    0.1655   -0.5958 C   0  0  1  0  0  0  0  0  0  0  0  0
   -1.7174   -2.3843    0.7886 C   0  0  0  0  0  0  0  0  0  0  0  0
   -3.2328   -2.3800   -1.1813 C   0  0  0  0  0  0  0  0  0  0  0  0
   -4.1811   -2.3959    1.1159 C   0  0  0  0  0  0  0  0  0  0  0  0
   -2.1812    1.5936   -1.0589 C   0  0  0  0  0  0  0  0  0  0  0  0
    0.4648    0.0366   -0.4949 C   0  0  0  0  0  0  0  0  0  0  0  0
   -2.4351    2.5075    0.1157 C   0  0  0  0  0  0  0  0  0  0  0  0
    1.6197    0.0953    0.4787 C   0  0  0  0  0  0  0  0  0  0  0  0
    2.9684   -0.0546   -0.2231 C   0  0  0  0  0  0  0  0  0  0  0  0
    4.1210   -0.0369    0.7752 C   0  0  0  0  0  0  0  0  0  0  0  0
    5.5154   -0.2217    0.1674 C   0  0  0  0  0  0  0  0  0  0  0  0
   -2.9710   -0.0331    1.2965 H   0  0  0  0  0  0  0  0  0  0  0  0
   -4.0225   -0.0410   -0.1478 H   0  0  0  0  0  0  0  0  0  0  0  0
   -1.7447   -0.4149   -1.5068 H   0  0  0  0  0  0  0  0  0  0  0  0
   -4.0336   -2.0318    2.1368 H   0  0  0  0  0  0  0  0  0  0  0  0
   -5.1292   -2.0313    0.7100 H   0  0  0  0  0  0  0  0  0  0  0  0
   -4.0558   -1.8363   -1.6541 H   0  0  0  0  0  0  0  0  0  0  0  0
   -2.3076   -2.2884   -1.7538 H   0  0  0  0  0  0  0  0  0  0  0  0
   -3.4832   -3.4438   -1.1105 H   0  0  0  0  0  0  0  0  0  0  0  0
   -1.4924   -1.8777    1.7314 H   0  0  0  0  0  0  0  0  0  0  0  0
   -1.8399   -3.4580    0.9660 H   0  0  0  0  0  0  0  0  0  0  0  0
   -0.9274   -2.2503    0.0481 H   0  0  0  0  0  0  0  0  0  0  0  0
   -4.1472   -3.4890    1.0903 H   0  0  0  0  0  0  0  0  0  0  0  0
   -3.0577    1.6297   -1.7161 H   0  0  0  0  0  0  0  0  0  0  0  0
   -1.3424    2.0051   -1.6327 H   0  0  0  0  0  0  0  0  0  0  0  0
    1.4890   -0.7123    1.2078 H   0  0  0  0  0  0  0  0  0  0  0  0
    1.5800    1.0582    1.0003 H   0  0  0  0  0  0  0  0  0  0  0  0
    3.0956    0.7531   -0.9550 H   0  0  0  0  0  0  0  0  0  0  0  0
    2.9853   -0.9935   -0.7911 H   0  0  0  0  0  0  0  0  0  0  0  0
    3.9753   -0.8344    1.5146 H   0  0  0  0  0  0  0  0  0  0  0  0
    4.1192    0.9159    1.3188 H   0  0  0  0  0  0  0  0  0  0  0  0
   -1.4697    3.6364    1.3762 H   0  0  0  0  0  0  0  0  0  0  0  0
  1  9  1  0  0  0  0
  1 14  1  0  0  0  0
  2 15  1  0  0  0  0
  2 40  1  0  0  0  0
  3 14  2  0  0  0  0
  4 15  2  0  0  0  0
  5 19  1  0  0  0  0
  6 19  2  0  0  0  0
  7  8  1  0  0  0  0
  7 10  1  0  0  0  0
  7 11  1  0  0  0  0
  7 12  1  0  0  0  0
  8  9  1  0  0  0  0
  8 20  1  0  0  0  0
  8 21  1  0  0  0  0
  9 13  1  0  0  0  0
  9 22  1  0  0  0  0
 10 28  1  0  0  0  0
 10 29  1  0  0  0  0
 10 30  1  0  0  0  0
 11 25  1  0  0  0  0
 11 26  1  0  0  0  0
 11 27  1  0  0  0  0
 12 23  1  0  0  0  0
 12 24  1  0  0  0  0
 12 31  1  0  0  0  0
 13 15  1  0  0  0  0
 13 32  1  0  0  0  0
 13 33  1  0  0  0  0
 14 16  1  0  0  0  0
 16 17  1  0  0  0  0
 16 34  1  0  0  0  0
 16 35  1  0  0  0  0
 17 18  1  0  0  0  0
 17 36  1  0  0  0  0
 17 37  1  0  0  0  0
 18 19  1  0  0  0  0
 18 38  1  0  0  0  0
 18 39  1  0  0  0  0
M  CHG  2   5  -1   7   1
M  END
> <PUBCHEM_COMPOUND_CID>
134821688

> <PUBCHEM_CONFORMER_RMSD>
1

> <PUBCHEM_CONFORMER_DIVERSEORDER>
1
19
5
33
30
37
21
3
24
15
32
36
13
16
8
34
26
2
18
17
11
14
12
10
9
31
27
38
7
28
35
25
6
29
4
22
23
20

> <PUBCHEM_MMFF94_PARTIAL_CHARGES>
19
1 -0.43
10 0.5
11 0.5
12 0.5
13 0.06
14 0.66
15 0.66
16 0.06
18 -0.11
19 0.91
2 -0.65
3 -0.57
4 -0.57
40 0.5
5 -0.9
6 -0.9
7 -1.01
8 0.5
9 0.28

> <PUBCHEM_EFFECTIVE_ROTOR_COUNT>
10

> <PUBCHEM_PHARMACOPHORE_FEATURES>
8
1 2 acceptor
1 3 acceptor
1 4 acceptor
1 5 acceptor
1 6 acceptor
1 7 cation
3 2 4 15 anion
3 5 6 19 anion

> <PUBCHEM_HEAVY_ATOM_COUNT>
19

> <PUBCHEM_ATOM_DEF_STEREO_COUNT>
1

> <PUBCHEM_ATOM_UDEF_STEREO_COUNT>
0

> <PUBCHEM_BOND_DEF_STEREO_COUNT>
0

> <PUBCHEM_BOND_UDEF_STEREO_COUNT>
0

> <PUBCHEM_ISOTOPIC_ATOM_COUNT>
0

> <PUBCHEM_COMPONENT_COUNT>
1

> <PUBCHEM_CACTVS_TAUTO_COUNT>
1

> <PUBCHEM_CONFORMER_ID>
0809373800000001

> <PUBCHEM_MMFF94_ENERGY>
40.2636

> <PUBCHEM_FEATURE_SELFOVERLAP>
40.711

> <PUBCHEM_SHAPE_FINGERPRINT>
10680689 15 18059850671413198150
10912923 1 17821729430054848288
11315181 36 18113052749400125888
11545043 162 18343858910366971418
12616971 3 17095529457513430588
12788726 201 18190764083039860847
13167823 11 18187359922780462810
13583140 156 17917138438831513950
13675066 3 17917988383005585404
14178342 30 18262526896329383486
15099037 37 18413392046501905990
17844677 252 18341614841521039296
18006028 8 18338233877535819023
18915476 22 16916235342549766007
18927931 339 18413390955543595054
20645477 56 18339082570977777389
20645477 70 14057265477723269112
21033648 29 17489288782018801920
21426921 1 18408321077384130445
22224240 67 18198635328935586353
2297311 6 18339371841562515678
2306618 200 17989489627937868187
23402539 116 18408599292670613247
23557571 272 18271816700279704276
23559900 14 18189886685793685256
25147074 1 17822875158929236300
312423 11 18114755935534494988
4214541 1 18335699421455057560
5104073 3 18409719644112491904
573450 72 18188201027568583954
59755656 520 18265326206243143933
81228 2 18338249210611016917
90127 26 17917704696099767840

> <PUBCHEM_SHAPE_MULTIPOLES>
350.81
11.33
2.97
1.18
23.08
1.29
-0.27
-3.82
1.84
-5.95
0.66
-0.1
-0.24
0.03

> <PUBCHEM_SHAPE_SELFOVERLAP>
677.185

> <PUBCHEM_SHAPE_VOLUME>
213.4

> <PUBCHEM_COORDINATE_TYPE>
2
5
10

$$$$
