134816576
  -OEChem-03292013293D

 68 70  0     1  0  0  0  0  0999 V2000
    0.4310    2.4176    1.1082 O   0  0  0  0  0  0  0  0  0  0  0  0
    1.3244    1.2229    2.9038 O   0  0  0  0  0  0  0  0  0  0  0  0
   -1.2810    2.4232    3.1954 O   0  0  0  0  0  0  0  0  0  0  0  0
   -0.6353    3.3182   -1.1828 O   0  0  0  0  0  0  0  0  0  0  0  0
   -3.2044    1.6672    1.4908 O   0  0  0  0  0  0  0  0  0  0  0  0
    1.2432   -0.2527   -3.6334 O   0  0  0  0  0  0  0  0  0  0  0  0
    3.4685   -1.1831   -2.6943 O   0  0  0  0  0  0  0  0  0  0  0  0
   -2.9084   -0.2137   -1.7488 O   0  0  0  0  0  0  0  0  0  0  0  0
    0.6060    0.0385    0.8908 C   0  0  1  0  0  0  0  0  0  0  0  0
    1.6687    0.7335   -0.0106 C   0  0  2  0  0  0  0  0  0  0  0  0
    0.3176    1.1986    1.8867 C   0  0  2  0  0  0  0  0  0  0  0  0
    1.1789    2.1764   -0.0901 C   0  0  1  0  0  0  0  0  0  0  0  0
   -1.0820    1.1732    2.5338 C   0  0  2  0  0  0  0  0  0  0  0  0
   -0.6479   -0.3823    0.1366 C   0  0  0  0  0  0  0  0  0  0  0  0
    1.2075   -1.2238    1.5364 C   0  0  0  0  0  0  0  0  0  0  0  0
    2.0043    0.1309   -1.3588 C   0  0  0  0  0  0  0  0  0  0  0  0
    0.2164    2.4303   -1.2435 C   0  0  0  0  0  0  0  0  0  0  0  0
    2.3138    3.1947   -0.1745 C   0  0  0  0  0  0  0  0  0  0  0  0
   -2.1474    1.0400    1.4519 C   0  0  0  0  0  0  0  0  0  0  0  0
   -1.8904    0.0725    0.3534 C   0  0  0  0  0  0  0  0  0  0  0  0
   -1.2960    0.0692    3.5740 C   0  0  0  0  0  0  0  0  0  0  0  0
    1.1792    0.5404   -2.4956 C   0  0  0  0  0  0  0  0  0  0  0  0
    0.3379    1.5903   -2.4769 C   0  0  0  0  0  0  0  0  0  0  0  0
    3.0733   -0.6780   -1.4739 C   0  0  0  0  0  0  0  0  0  0  0  0
   -2.9505   -0.4087   -0.5374 C   0  0  0  0  0  0  0  0  0  0  0  0
   -0.5454    1.9872   -3.6254 C   0  0  0  0  0  0  0  0  0  0  0  0
    3.8735   -1.0682   -0.3318 C   0  0  0  0  0  0  0  0  0  0  0  0
   -4.0560   -1.1367    0.1408 C   0  0  0  0  0  0  0  0  0  0  0  0
    4.9500   -1.8701   -0.3759 C   0  0  0  0  0  0  0  0  0  0  0  0
   -5.0811   -1.6221   -0.5735 C   0  0  0  0  0  0  0  0  0  0  0  0
    5.7135   -2.2262    0.8004 C   0  0  0  0  0  0  0  0  0  0  0  0
   -6.1838   -2.3374    0.0300 C   0  0  0  0  0  0  0  0  0  0  0  0
    6.7891   -3.0263    0.7626 C   0  0  0  0  0  0  0  0  0  0  0  0
   -7.2144   -2.8273   -0.6746 C   0  0  0  0  0  0  0  0  0  0  0  0
    7.5855   -3.4010    1.9692 C   0  0  0  0  0  0  0  0  0  0  0  0
   -8.3584   -3.5673   -0.0628 C   0  0  0  0  0  0  0  0  0  0  0  0
    2.5838    0.8346    0.5780 H   0  0  0  0  0  0  0  0  0  0  0  0
   -0.4963   -1.1149   -0.6557 H   0  0  0  0  0  0  0  0  0  0  0  0
    2.1072   -1.0217    2.1235 H   0  0  0  0  0  0  0  0  0  0  0  0
    1.4545   -1.9817    0.7846 H   0  0  0  0  0  0  0  0  0  0  0  0
    0.4974   -1.7000    2.2189 H   0  0  0  0  0  0  0  0  0  0  0  0
    2.9614    3.1365    0.7075 H   0  0  0  0  0  0  0  0  0  0  0  0
    1.9198    4.2176   -0.1990 H   0  0  0  0  0  0  0  0  0  0  0  0
    2.9264    3.0495   -1.0703 H   0  0  0  0  0  0  0  0  0  0  0  0
   -0.5338    0.1089    4.3593 H   0  0  0  0  0  0  0  0  0  0  0  0
   -1.3008   -0.9309    3.1344 H   0  0  0  0  0  0  0  0  0  0  0  0
   -2.2620    0.1969    4.0781 H   0  0  0  0  0  0  0  0  0  0  0  0
    2.1982    1.0928    2.5056 H   0  0  0  0  0  0  0  0  0  0  0  0
   -2.1522    2.4049    3.6272 H   0  0  0  0  0  0  0  0  0  0  0  0
   -1.4956    1.4468   -3.5802 H   0  0  0  0  0  0  0  0  0  0  0  0
   -0.0768    1.8052   -4.5975 H   0  0  0  0  0  0  0  0  0  0  0  0
   -0.7652    3.0602   -3.6119 H   0  0  0  0  0  0  0  0  0  0  0  0
    0.5239   -0.0342   -4.2447 H   0  0  0  0  0  0  0  0  0  0  0  0
    3.6446   -0.6955    0.6546 H   0  0  0  0  0  0  0  0  0  0  0  0
    4.4370   -1.2388   -2.7236 H   0  0  0  0  0  0  0  0  0  0  0  0
   -4.0030   -1.2652    1.2175 H   0  0  0  0  0  0  0  0  0  0  0  0
    5.2907   -2.3157   -1.3058 H   0  0  0  0  0  0  0  0  0  0  0  0
   -5.1154   -1.4869   -1.6516 H   0  0  0  0  0  0  0  0  0  0  0  0
    5.3871   -1.8163    1.7531 H   0  0  0  0  0  0  0  0  0  0  0  0
   -6.1587   -2.4749    1.1082 H   0  0  0  0  0  0  0  0  0  0  0  0
    7.1265   -3.4423   -0.1838 H   0  0  0  0  0  0  0  0  0  0  0  0
   -7.2489   -2.6951   -1.7534 H   0  0  0  0  0  0  0  0  0  0  0  0
    7.1911   -2.9486    2.8845 H   0  0  0  0  0  0  0  0  0  0  0  0
    8.6227   -3.0743    1.8469 H   0  0  0  0  0  0  0  0  0  0  0  0
    7.5799   -4.4879    2.0963 H   0  0  0  0  0  0  0  0  0  0  0  0
   -8.4220   -4.5730   -0.4894 H   0  0  0  0  0  0  0  0  0  0  0  0
   -8.2585   -3.6630    1.0230 H   0  0  0  0  0  0  0  0  0  0  0  0
   -9.2960   -3.0441   -0.2742 H   0  0  0  0  0  0  0  0  0  0  0  0
  1 11  1  0  0  0  0
  1 12  1  0  0  0  0
  2 11  1  0  0  0  0
  2 48  1  0  0  0  0
  3 13  1  0  0  0  0
  3 49  1  0  0  0  0
  4 17  2  0  0  0  0
  5 19  2  0  0  0  0
  6 22  1  0  0  0  0
  6 53  1  0  0  0  0
  7 24  1  0  0  0  0
  7 55  1  0  0  0  0
  8 25  2  0  0  0  0
  9 10  1  0  0  0  0
  9 11  1  0  0  0  0
  9 14  1  0  0  0  0
  9 15  1  0  0  0  0
 10 12  1  0  0  0  0
 10 16  1  0  0  0  0
 10 37  1  0  0  0  0
 11 13  1  0  0  0  0
 12 17  1  0  0  0  0
 12 18  1  0  0  0  0
 13 19  1  0  0  0  0
 13 21  1  0  0  0  0
 14 20  2  0  0  0  0
 14 38  1  0  0  0  0
 15 39  1  0  0  0  0
 15 40  1  0  0  0  0
 15 41  1  0  0  0  0
 16 22  1  0  0  0  0
 16 24  2  0  0  0  0
 17 23  1  0  0  0  0
 18 42  1  0  0  0  0
 18 43  1  0  0  0  0
 18 44  1  0  0  0  0
 19 20  1  0  0  0  0
 20 25  1  0  0  0  0
 21 45  1  0  0  0  0
 21 46  1  0  0  0  0
 21 47  1  0  0  0  0
 22 23  2  0  0  0  0
 23 26  1  0  0  0  0
 24 27  1  0  0  0  0
 25 28  1  0  0  0  0
 26 50  1  0  0  0  0
 26 51  1  0  0  0  0
 26 52  1  0  0  0  0
 27 29  2  0  0  0  0
 27 54  1  0  0  0  0
 28 30  2  0  0  0  0
 28 56  1  0  0  0  0
 29 31  1  0  0  0  0
 29 57  1  0  0  0  0
 30 32  1  0  0  0  0
 30 58  1  0  0  0  0
 31 33  2  0  0  0  0
 31 59  1  0  0  0  0
 32 34  2  0  0  0  0
 32 60  1  0  0  0  0
 33 35  1  0  0  0  0
 33 61  1  0  0  0  0
 34 36  1  0  0  0  0
 34 62  1  0  0  0  0
 35 63  1  0  0  0  0
 35 64  1  0  0  0  0
 35 65  1  0  0  0  0
 36 66  1  0  0  0  0
 36 67  1  0  0  0  0
 36 68  1  0  0  0  0
M  END
> <PUBCHEM_COMPOUND_CID>
134816576

> <PUBCHEM_CONFORMER_RMSD>
0.8

> <PUBCHEM_CONFORMER_DIVERSEORDER>
1
17
9
19
14
8
6
22
21
2
12
7
16
5
20
3
11
10
13
4
18
15

> <PUBCHEM_MMFF94_PARTIAL_CHARGES>
46
1 -0.56
10 0.14
11 0.56
12 0.34
13 0.34
14 -0.29
16 -0.14
17 0.49
19 0.49
2 -0.68
20 0.03
22 0.08
23 -0.12
24 0.08
25 0.54
26 0.14
27 -0.15
28 -0.14
29 -0.15
3 -0.68
30 -0.15
31 -0.15
32 -0.15
33 -0.29
34 -0.29
35 0.14
36 0.14
38 0.15
4 -0.57
48 0.4
49 0.4
5 -0.57
53 0.45
54 0.15
55 0.45
56 0.15
57 0.15
58 0.15
59 0.15
6 -0.53
60 0.15
61 0.15
62 0.15
7 -0.53
8 -0.57
9 0.14

> <PUBCHEM_EFFECTIVE_ROTOR_COUNT>
5.4

> <PUBCHEM_PHARMACOPHORE_FEATURES>
16
1 1 acceptor
1 2 acceptor
1 2 donor
1 20 anion
1 3 acceptor
1 3 donor
1 35 hydrophobe
1 36 hydrophobe
1 4 acceptor
1 5 acceptor
1 6 donor
1 7 donor
1 8 acceptor
5 1 9 10 11 12 rings
6 10 12 16 17 22 23 rings
6 9 11 13 14 19 20 rings

> <PUBCHEM_HEAVY_ATOM_COUNT>
36

> <PUBCHEM_ATOM_DEF_STEREO_COUNT>
4

> <PUBCHEM_ATOM_UDEF_STEREO_COUNT>
1

> <PUBCHEM_BOND_DEF_STEREO_COUNT>
5

> <PUBCHEM_BOND_UDEF_STEREO_COUNT>
0

> <PUBCHEM_ISOTOPIC_ATOM_COUNT>
0

> <PUBCHEM_COMPONENT_COUNT>
1

> <PUBCHEM_CACTVS_TAUTO_COUNT>
192

> <PUBCHEM_CONFORMER_ID>
0809234000000001

> <PUBCHEM_MMFF94_ENERGY>
102.3252

> <PUBCHEM_FEATURE_SELFOVERLAP>
81.723

> <PUBCHEM_SHAPE_FINGERPRINT>
10483366 6 14562803310192370150
11115154 58 17822009813962433381
11578080 2 18340198596998016992
11720765 8 17749958872047949996
12422481 6 16814087298384743696
14068700 675 18342459248569942131
15664445 248 17698173082194619921
17492 54 13551186667230318910
19315092 285 18411981364620408050
20775438 99 17173490561151438531
21344244 78 17131840897328883115
23419403 2 17916280810987791656
23536364 44 15502951718211186898
23559900 14 18042965566183460227
238 59 17025454445764018069
3027735 51 16880199893275215698
392239 28 16128073595549213558
437795 139 18409735066839436735
469060 322 18265902354699500750
50009960 94 17416105399923510367
513532 50 17460024291796896301
57527295 17 17096355151357961899
57527452 28 18334851745066650874
70251023 43 18113614590619027724

> <PUBCHEM_SHAPE_MULTIPOLES>
693.91
13.97
4.04
3.5
9.45
0.59
1.26
27.86
-5.53
-2.03
-0.87
0.34
-1.76
-2.32

> <PUBCHEM_SHAPE_SELFOVERLAP>
1485.072

> <PUBCHEM_SHAPE_VOLUME>
380.1

> <PUBCHEM_COORDINATE_TYPE>
2
5
10

$$$$
