REMARK  Name = 134821691
REMARK  7 active torsions:
REMARK  status: ('A' for Active; 'I' for Inactive)
REMARK    1  A    between atoms: C_5  and  C_19
REMARK    2  A    between atoms: C_8  and  N_22
REMARK    3  A    between atoms: C_9  and  C_13
REMARK    4  A    between atoms: N_12  and  C_15
REMARK    5  A    between atoms: N_22  and  C_24
REMARK    6  A    between atoms: C_25  and  O_36
REMARK    7  A    between atoms: C_26  and  C_33
REMARK                            x       y       z     vdW  Elec       q    Type
REMARK                         _______ _______ _______ _____ _____    ______ ____
ROOT
ATOM      1  O   UNL     1       2.236  -2.971  -0.472  0.00  0.00    -0.275 OA
ATOM      2  N   UNL     1       4.095  -1.527  -0.496  0.00  0.00    -0.268 N 
ATOM      3  N   UNL     1       4.344   0.820  -0.307  0.00  0.00    -0.133 NA
ATOM      4  N   UNL     1       3.800   2.057  -0.152  0.00  0.00    -0.141 NA
ATOM      5  C   UNL     1       3.438  -2.756  -0.552  0.00  0.00    +0.227 C 
ATOM      6  C   UNL     1       3.531  -0.257  -0.336  0.00  0.00    +0.157 C 
ATOM      7  C   UNL     1       2.159  -0.166  -0.215  0.00  0.00    +0.053 C 
ATOM      8  C   UNL     1       1.605   1.093  -0.057  0.00  0.00    +0.075 C 
ATOM      9  C   UNL     1       2.461   2.176  -0.031  0.00  0.00    +0.169 C 
ATOM     10  H   UNL     1       5.076  -1.557  -0.580  0.00  0.00    +0.156 HD
ENDROOT
BRANCH   9  13
ATOM     11  O   UNL     1       0.762   3.764   0.270  0.00  0.00    -0.268 OA
ATOM     12  N   UNL     1       2.938   4.556   0.142  0.00  0.00    -0.313 N 
ATOM     13  C   UNL     1       1.977   3.539   0.130  0.00  0.00    +0.266 C 
ATOM     14  H   UNL     1       3.882   4.306   0.025  0.00  0.00    +0.149 HD
ATOM     15  C   UNL     1       2.618   5.955   0.316  0.00  0.00    +0.128 C 
ENDBRANCH   9  13
BRANCH   5  16
ATOM     16  C   UNL     1       4.358  -3.923  -0.733  0.00  0.00    +0.077 C 
ATOM     17  C   UNL     1       4.292  -5.036   0.257  0.00  0.00    +0.010 C 
ATOM     18  C   UNL     1       5.469  -4.107   0.244  0.00  0.00    +0.010 C 
ENDBRANCH   5  16
BRANCH   8  19
ATOM     19  N   UNL     1       0.212   1.241   0.071  0.00  0.00    -0.309 N 
ATOM     20  H   UNL     1      -0.129   2.096  -0.279  0.00  0.00    +0.152 HD
BRANCH  19  21
ATOM     21  C   UNL     1      -0.793   0.404   0.603  0.00  0.00    +0.083 C 
ATOM     22  C   UNL     1      -2.094   0.446   0.102  0.00  0.00    +0.161 C 
ATOM     23  C   UNL     1      -3.076  -0.387   0.639  0.00  0.00    +0.099 C 
ATOM     24  C   UNL     1      -0.474  -0.470   1.641  0.00  0.00    +0.018 C 
ATOM     25  C   UNL     1      -2.756  -1.262   1.677  0.00  0.00    +0.013 C 
ATOM     26  C   UNL     1      -1.455  -1.304   2.178  0.00  0.00    +0.002 C 
BRANCH  23  30
ATOM     27  N   UNL     1      -6.459  -1.097  -0.402  0.00  0.00    -0.198 N 
ATOM     28  N   UNL     1      -5.271  -1.426   0.128  0.00  0.00    -0.126 NA
ATOM     29  N   UNL     1      -5.023   0.684  -0.381  0.00  0.00    -0.195 NA
ATOM     30  C   UNL     1      -4.424  -0.363   0.137  0.00  0.00    +0.052 C 
ATOM     31  C   UNL     1      -6.257   0.190  -0.693  0.00  0.00    +0.248 C 
ATOM     32  C   UNL     1      -7.564  -1.993  -0.552  0.00  0.00    +0.137 C 
ENDBRANCH  23  30
BRANCH  22  33
ATOM     33  O   UNL     1      -2.400   1.305  -0.915  0.00  0.00    -0.470 OA
ATOM     34  C   UNL     1      -2.246   0.813  -2.243  0.00  0.00    +0.253 C 
ENDBRANCH  22  33
ENDBRANCH  19  21
ENDBRANCH   8  19
TORSDOF 6
