REMARK  Name = 134890
REMARK  7 active torsions:
REMARK  status: ('A' for Active; 'I' for Inactive)
REMARK    1  A    between atoms: N_1  and  C1*_12
REMARK    2  A    between atoms: C2*_11  and  O2*_15
REMARK    3  A    between atoms: C3*_13  and  O3*_17
REMARK    4  A    between atoms: C4*_14  and  C5*_19
REMARK    5  A    between atoms: C5*_19  and  O5*_20
REMARK    6  A    between atoms: N_22  and  C_24
REMARK    7  A    between atoms: C_24  and  C_25
REMARK                            x       y       z     vdW  Elec       q    Type
REMARK                         _______ _______ _______ _____ _____    ______ ____
ROOT
ATOM      1  N   UNL     1       2.749  -0.254   0.260  0.00  0.00    -0.247 N 
ATOM      2  N   UNL     1       0.724   0.677   0.161  0.00  0.00    -0.242 NA
ATOM      3  N   UNL     1       2.123  -2.599   0.355  0.00  0.00    -0.228 NA
ATOM      4  N   UNL     1      -0.301  -2.874   0.302  0.00  0.00    -0.228 NA
ATOM      5  C   UNL     1       1.854  -1.287   0.285  0.00  0.00    +0.152 C 
ATOM      6  C   UNL     1       2.020   0.905   0.185  0.00  0.00    +0.223 C 
ATOM      7  C   UNL     1       0.606  -0.689   0.222  0.00  0.00    +0.140 C 
ATOM      8  C   UNL     1      -0.498  -1.535   0.232  0.00  0.00    +0.146 C 
ATOM      9  C   UNL     1       0.978  -3.316   0.358  0.00  0.00    +0.253 C 
ATOM     10  N   UNL     1      -1.802  -1.015   0.170  0.00  0.00    -0.313 N 
ATOM     11  H   UNL     1      -1.916  -0.038   0.120  0.00  0.00    +0.149 HD
ENDROOT
BRANCH   1  14
ATOM     12  O4* UNL     1       4.747   0.776   1.024  0.00  0.00    -0.333 OA
ATOM     13  C2* UNL     1       4.864  -0.374  -1.079  0.00  0.00    +0.187 C 
ATOM     14  C1* UNL     1       4.209  -0.353   0.304  0.00  0.00    +0.225 C 
ATOM     15  C3* UNL     1       5.411   1.034  -1.214  0.00  0.00    +0.171 C 
ATOM     16  C4* UNL     1       5.774   1.378   0.220  0.00  0.00    +0.175 C 
BRANCH  13  17
ATOM     17  O2* UNL     1       5.915  -1.339  -1.086  0.00  0.00    -0.378 OA
ATOM     18  H2* UNL     1       5.538  -2.229  -0.999  0.00  0.00    +0.211 HD
ENDBRANCH  13  17
BRANCH  15  19
ATOM     19  O3* UNL     1       6.522   1.126  -2.080  0.00  0.00    -0.379 OA
ATOM     20  H3* UNL     1       6.247   0.899  -2.982  0.00  0.00    +0.211 HD
ENDBRANCH  15  19
BRANCH  16  21
ATOM     21  C5* UNL     1       5.829   2.871   0.489  0.00  0.00    +0.169 C 
BRANCH  21  22
ATOM     22  O5* UNL     1       6.163   3.075   1.851  0.00  0.00    -0.379 OA
ATOM     23  H5* UNL     1       6.201   4.026   2.036  0.00  0.00    +0.211 HD
ENDBRANCH  21  22
ENDBRANCH  16  21
ENDBRANCH   1  14
BRANCH  10  24
ATOM     24  C   UNL     1      -2.974  -1.840   0.178  0.00  0.00    +0.115 C 
BRANCH  24  25
ATOM     25  C   UNL     1      -4.235  -1.024   0.067  0.00  0.00    -0.003 C 
ATOM     26  C   UNL     1      -4.756  -0.737  -1.187  0.00  0.00    -0.003 C 
ATOM     27  C   UNL     1      -4.858  -0.571   1.221  0.00  0.00    -0.003 C 
ATOM     28  C   UNL     1      -5.925   0.018  -1.289  0.00  0.00    -0.000 C 
ATOM     29  C   UNL     1      -6.027   0.184   1.119  0.00  0.00    -0.000 C 
ATOM     30  C   UNL     1      -6.560   0.478  -0.136  0.00  0.00    -0.000 C 
ENDBRANCH  24  25
ENDBRANCH  10  24
TORSDOF 7
REMARK  Name = 134890
REMARK  7 active torsions:
REMARK  status: ('A' for Active; 'I' for Inactive)
REMARK    1  A    between atoms: N_1  and  C1*_12
REMARK    2  A    between atoms: C2*_11  and  O2*_15
REMARK    3  A    between atoms: C3*_13  and  O3*_17
REMARK    4  A    between atoms: C4*_14  and  C5*_19
REMARK    5  A    between atoms: C5*_19  and  O5*_20
REMARK    6  A    between atoms: N_22  and  C_24
REMARK    7  A    between atoms: C_24  and  C_25
REMARK                            x       y       z     vdW  Elec       q    Type
REMARK                         _______ _______ _______ _____ _____    ______ ____
ROOT
ATOM      1  N   UNL     1      -7.508   2.465  -0.313  0.00  0.00    +0.000 NA
ATOM      2  N   UNL     1      -7.312   3.587  -0.381  0.00  0.00    +0.000 NA
ENDROOT
TORSDOF 0
