REMARK  Name = 134817175
REMARK  10 active torsions:
REMARK  status: ('A' for Active; 'I' for Inactive)
REMARK    1  A    between atoms: C_1  and  N_3
REMARK    2  A    between atoms: C_1  and  C_21
REMARK    3  A    between atoms: C_1  and  C_25
REMARK    4  A    between atoms: C_4  and  C_7
REMARK    5  A    between atoms: C_15  and  O_18
REMARK    6  A    between atoms: C_21  and  O_22
REMARK    7  A    between atoms: O_22  and  C_23
REMARK    8  A    between atoms: C_25  and  N_26
REMARK    9  A    between atoms: C_27  and  C_35
REMARK   10  A    between atoms: C_38  and  O_41
REMARK                            x       y       z     vdW  Elec       q    Type
REMARK                         _______ _______ _______ _____ _____    ______ ____
ROOT
ATOM      1  C   UNL     1       0.377   2.710  -0.317  0.00  0.00    +0.150 C 
ENDROOT
BRANCH   1   3
ATOM      2  O   UNL     1       1.841   1.077  -2.220  0.00  0.00    -0.277 OA
ATOM      3  N   UNL     1       1.104   1.493  -0.050  0.00  0.00    -0.300 N 
ATOM      4  C   UNL     1       1.776   0.779  -1.030  0.00  0.00    +0.203 C 
ATOM      5  H   UNL     1       1.124   1.152   0.873  0.00  0.00    +0.150 HD
BRANCH   4   7
ATOM      6  N   UNL     1       2.484  -1.424  -1.552  0.00  0.00    +0.394 N 
ATOM      7  C   UNL     1       2.466  -0.429  -0.480  0.00  0.00    +0.022 C 
ATOM      8  C   UNL     1       3.894  -0.070  -0.056  0.00  0.00    +0.014 C 
ATOM      9  C   UNL     1       4.754  -1.287   0.169  0.00  0.00    -0.030 C 
ATOM     10  C   UNL     1       3.046  -2.690  -1.065  0.00  0.00    -0.054 C 
ATOM     11  C   UNL     1       4.367  -2.534  -0.353  0.00  0.00    -0.045 C 
ATOM     12  C   UNL     1       5.972  -1.169   0.851  0.00  0.00    -0.002 C 
ATOM     13  C   UNL     1       5.189  -3.651  -0.154  0.00  0.00    +0.030 C 
ATOM     14  C   UNL     1       6.788  -2.285   1.034  0.00  0.00    +0.036 C 
ATOM     15  C   UNL     1       6.396  -3.525   0.535  0.00  0.00    +0.133 C 
ATOM     16  H   UNL     1       3.055  -1.078  -2.323  0.00  0.00    -0.083 HD
ATOM     17  H   UNL     1       1.529  -1.587  -1.869  0.00  0.00    -0.083 HD
BRANCH  15  18
ATOM     18  O   UNL     1       7.190  -4.615   0.720  0.00  0.00    -0.506 OA
ATOM     19  H   UNL     1       6.927  -5.449   0.384  0.00  0.00    +0.292 HD
ENDBRANCH  15  18
ENDBRANCH   4   7
ENDBRANCH   1   3
BRANCH   1  21
ATOM     20  O   UNL     1       0.920   5.055  -0.530  0.00  0.00    -0.248 OA
ATOM     21  C   UNL     1       1.300   3.920  -0.259  0.00  0.00    +0.333 C 
BRANCH  21  22
ATOM     22  O   UNL     1       2.568   3.589   0.116  0.00  0.00    -0.447 OA
BRANCH  22  23
ATOM     23  C   UNL     1       3.500   4.673   0.188  0.00  0.00    +0.209 C 
ATOM     24  C   UNL     1       4.849   4.136   0.616  0.00  0.00    +0.051 C 
ENDBRANCH  22  23
ENDBRANCH  21  22
ENDBRANCH   1  21
BRANCH   1  25
ATOM     25  C   UNL     1      -0.785   2.892   0.662  0.00  0.00    -0.046 C 
BRANCH  25  26
ATOM     26  N   UNL     1      -1.709   1.759   0.605  0.00  0.00    +0.388 N 
ATOM     27  C   UNL     1      -4.400   0.444   0.497  0.00  0.00    +0.015 C 
ATOM     28  C   UNL     1      -3.448   0.584  -0.748  0.00  0.00    -0.017 C 
ATOM     29  C   UNL     1      -3.519   0.530   1.780  0.00  0.00    -0.019 C 
ATOM     30  C   UNL     1      -2.519   1.813  -0.617  0.00  0.00    -0.077 C 
ATOM     31  C   UNL     1      -2.556   1.724   1.801  0.00  0.00    -0.077 C 
ATOM     32  C   UNL     1      -5.412   1.624   0.529  0.00  0.00    +0.004 C 
ATOM     33  C   UNL     1      -2.591  -0.673  -1.007  0.00  0.00    -0.002 C 
ATOM     34  H   UNL     1      -1.163   0.898   0.580  0.00  0.00    -0.080 HD
BRANCH  27  35
ATOM     35  C   UNL     1      -5.255  -0.843   0.423  0.00  0.00    -0.020 C 
ATOM     36  C   UNL     1      -6.095  -1.060  -0.669  0.00  0.00    +0.032 C 
ATOM     37  C   UNL     1      -5.185  -1.787   1.448  0.00  0.00    -0.004 C 
ATOM     38  C   UNL     1      -6.866  -2.220  -0.736  0.00  0.00    +0.133 C 
ATOM     39  C   UNL     1      -5.956  -2.947   1.381  0.00  0.00    +0.003 C 
ATOM     40  C   UNL     1      -6.797  -3.164   0.289  0.00  0.00    +0.037 C 
BRANCH  38  41
ATOM     41  O   UNL     1      -7.687  -2.430  -1.801  0.00  0.00    -0.506 OA
ATOM     42  H   UNL     1      -7.734  -1.796  -2.489  0.00  0.00    +0.292 HD
ENDBRANCH  38  41
ENDBRANCH  27  35
ENDBRANCH  25  26
ENDBRANCH   1  25
TORSDOF 10
