REMARK  Name = 134875
REMARK  5 active torsions:
REMARK  status: ('A' for Active; 'I' for Inactive)
REMARK    1  A    between atoms: C_5  and  O_28
REMARK    2  A    between atoms: C_7  and  C_23
REMARK    3  A    between atoms: C_21  and  O_30
REMARK    4  A    between atoms: C_22  and  O_32
REMARK    5  A    between atoms: C_23  and  O_26
REMARK                            x       y       z     vdW  Elec       q    Type
REMARK                         _______ _______ _______ _____ _____    ______ ____
ROOT
ATOM      1  O   UNL     1      -0.606   0.214  -1.478  0.00  0.00    -0.472 OA
ATOM      2  O   UNL     1      -4.252  -0.004   1.405  0.00  0.00    -0.477 OA
ATOM      3  O   UNL     1       1.790  -0.921  -2.507  0.00  0.00    -0.472 OA
ATOM      4  O   UNL     1       1.082   3.310   0.621  0.00  0.00    -0.288 OA
ATOM      5  C   UNL     1       1.405   1.601  -1.060  0.00  0.00    +0.205 C 
ATOM      6  C   UNL     1       0.393   1.058  -2.070  0.00  0.00    +0.244 C 
ATOM      7  C   UNL     1      -4.207  -1.167   0.538  0.00  0.00    +0.195 C 
ATOM      8  C   UNL     1      -3.216  -0.893  -0.603  0.00  0.00    +0.078 C 
ATOM      9  C   UNL     1      -2.399   0.163   0.039  0.00  0.00    +0.049 C 
ATOM     10  C   UNL     1      -1.197   0.722  -0.362  0.00  0.00    +0.140 C 
ATOM     11  C   UNL     1      -0.659   1.748   0.418  0.00  0.00    +0.071 C 
ATOM     12  C   UNL     1       0.650   2.317   0.045  0.00  0.00    +0.207 C 
ATOM     13  C   UNL     1       2.320   0.495  -0.578  0.00  0.00    +0.049 C 
ATOM     14  C   UNL     1       1.131   0.204  -3.099  0.00  0.00    +0.252 C 
ATOM     15  C   UNL     1      -3.065   0.637   1.159  0.00  0.00    +0.137 C 
ATOM     16  C   UNL     1       2.459  -0.679  -1.335  0.00  0.00    +0.141 C 
ATOM     17  C   UNL     1      -1.342   2.231   1.550  0.00  0.00    +0.009 C 
ATOM     18  C   UNL     1      -2.566   1.674   1.924  0.00  0.00    +0.037 C 
ATOM     19  C   UNL     1       3.073   0.624   0.600  0.00  0.00    +0.042 C 
ATOM     20  C   UNL     1       3.295  -1.712  -0.898  0.00  0.00    +0.077 C 
ATOM     21  C   UNL     1       3.914  -0.404   1.029  0.00  0.00    +0.172 C 
ATOM     22  C   UNL     1       4.022  -1.574   0.282  0.00  0.00    +0.175 C 
ENDROOT
BRANCH   7  23
ATOM     23  C   UNL     1      -5.610  -1.461   0.033  0.00  0.00    +0.125 C 
ATOM     24  C   UNL     1      -6.571  -1.729   1.195  0.00  0.00    +0.033 C 
ATOM     25  C   UNL     1      -5.605  -2.645  -0.935  0.00  0.00    +0.033 C 
BRANCH  23  26
ATOM     26  O   UNL     1      -6.089  -0.323  -0.691  0.00  0.00    -0.383 OA
ATOM     27  H   UNL     1      -6.106   0.449  -0.105  0.00  0.00    +0.210 HD
ENDBRANCH  23  26
ENDBRANCH   7  23
BRANCH   5  28
ATOM     28  O   UNL     1       2.197   2.595  -1.713  0.00  0.00    -0.372 OA
ATOM     29  H   UNL     1       1.622   3.311  -2.027  0.00  0.00    +0.211 HD
ENDBRANCH   5  28
BRANCH  21  30
ATOM     30  O   UNL     1       4.627  -0.249   2.180  0.00  0.00    -0.468 OA
ATOM     31  C   UNL     1       4.007  -0.686   3.388  0.00  0.00    +0.253 C 
ENDBRANCH  21  30
BRANCH  22  32
ATOM     32  O   UNL     1       4.836  -2.586   0.692  0.00  0.00    -0.468 OA
ATOM     33  C   UNL     1       6.185  -2.561   0.230  0.00  0.00    +0.253 C 
ENDBRANCH  22  32
TORSDOF 5
