REMARK  Name = 134824564
REMARK  3 active torsions:
REMARK  status: ('A' for Active; 'I' for Inactive)
REMARK    1  A    between atoms: N_1  and  C_6
REMARK    2  A    between atoms: C_5  and  S_14
REMARK    3  A    between atoms: C_11  and  O_12
REMARK                            x       y       z     vdW  Elec       q    Type
REMARK                         _______ _______ _______ _____ _____    ______ ____
ROOT
ATOM      1  N   UNL     1      -0.642   1.010   0.105  0.00  0.00    -0.177 N 
ATOM      2  N   UNL     1      -2.809   1.073   0.110  0.00  0.00    -0.088 NA
ATOM      3  N   UNL     1      -0.956   2.308   0.217  0.00  0.00    -0.038 NA
ATOM      4  N   UNL     1      -2.283   2.341   0.219  0.00  0.00    -0.021 NA
ATOM      5  C   UNL     1      -1.776   0.266   0.041  0.00  0.00    +0.295 A 
ENDROOT
BRANCH   1   6
ATOM      6  C   UNL     1       0.672   0.580   0.068  0.00  0.00    +0.088 C 
ATOM      7  C   UNL     1       1.147  -0.299   1.042  0.00  0.00    +0.022 C 
ATOM      8  C   UNL     1       1.524   1.026  -0.943  0.00  0.00    +0.022 C 
ATOM      9  C   UNL     1       2.472  -0.732   1.006  0.00  0.00    +0.038 C 
ATOM     10  C   UNL     1       2.850   0.594  -0.979  0.00  0.00    +0.038 C 
ATOM     11  C   UNL     1       3.324  -0.285  -0.005  0.00  0.00    +0.134 C 
BRANCH  11  12
ATOM     12  O   UNL     1       4.617  -0.707  -0.041  0.00  0.00    -0.506 OA
ATOM     13  H   UNL     1       4.936  -1.297   0.614  0.00  0.00    +0.292 HD
ENDBRANCH  11  12
ENDBRANCH   1   6
BRANCH   5  14
ATOM     14  S   UNL     1      -1.886  -1.467  -0.108  0.00  0.00    +0.046 S 
ATOM     15  O   UNL     1      -0.805  -1.940  -0.963  0.00  0.00    -0.166 OA
ATOM     16  O   UNL     1      -2.045  -2.026   1.228  0.00  0.00    -0.166 OA
ATOM     17  C   UNL     1      -3.403  -1.743  -0.997  0.00  0.00    +0.185 C 
ENDBRANCH   5  14
TORSDOF 3
