REMARK  Name = 134816082
REMARK  8 active torsions:
REMARK  status: ('A' for Active; 'I' for Inactive)
REMARK    1  A    between atoms: C_7  and  O_23
REMARK    2  A    between atoms: C_8  and  O_25
REMARK    3  A    between atoms: C_21  and  O_27
REMARK    4  A    between atoms: C_21  and  C_36
REMARK    5  A    between atoms: C_22  and  O_29
REMARK    6  A    between atoms: C_22  and  C_31
REMARK    7  A    between atoms: C_32  and  C_33
REMARK    8  A    between atoms: C_37  and  C_38
REMARK                            x       y       z     vdW  Elec       q    Type
REMARK                         _______ _______ _______ _____ _____    ______ ____
ROOT
ATOM      1  O   UNL     1       0.228  -3.575  -1.175  0.00  0.00    -0.332 OA
ATOM      2  O   UNL     1      -0.233  -3.575   1.174  0.00  0.00    -0.332 OA
ATOM      3  O   UNL     1       1.425   0.815   1.657  0.00  0.00    -0.291 OA
ATOM      4  O   UNL     1      -1.423   0.818  -1.656  0.00  0.00    -0.291 OA
ATOM      5  C   UNL     1       1.269  -2.785  -0.541  0.00  0.00    +0.146 C 
ATOM      6  C   UNL     1      -1.272  -2.783   0.541  0.00  0.00    +0.146 C 
ATOM      7  C   UNL     1      -0.960  -2.762  -0.999  0.00  0.00    +0.214 C 
ATOM      8  C   UNL     1       0.957  -2.763   0.999  0.00  0.00    +0.214 C 
ATOM      9  C   UNL     1      -0.459  -1.402  -1.577  0.00  0.00    +0.111 C 
ATOM     10  C   UNL     1       0.457  -1.404   1.577  0.00  0.00    +0.111 C 
ATOM     11  C   UNL     1       1.069  -1.423  -1.234  0.00  0.00    +0.069 C 
ATOM     12  C   UNL     1      -1.071  -1.422   1.234  0.00  0.00    +0.069 C 
ATOM     13  C   UNL     1       1.625  -0.290  -0.428  0.00  0.00    +0.049 C 
ATOM     14  C   UNL     1      -1.625  -0.289   0.429  0.00  0.00    +0.049 C 
ATOM     15  C   UNL     1      -1.210  -0.200  -0.998  0.00  0.00    +0.176 C 
ATOM     16  C   UNL     1       1.211  -0.202   0.998  0.00  0.00    +0.176 C 
ATOM     17  C   UNL     1       2.615  -3.412  -0.908  0.00  0.00    +0.035 C 
ATOM     18  C   UNL     1      -2.619  -3.409   0.908  0.00  0.00    +0.035 C 
ATOM     19  C   UNL     1      -0.615  -1.361  -3.118  0.00  0.00    +0.013 C 
ATOM     20  C   UNL     1       0.613  -1.363   3.118  0.00  0.00    +0.013 C 
ATOM     21  C   UNL     1      -2.474   0.626   0.915  0.00  0.00    +0.132 C 
ATOM     22  C   UNL     1       2.475   0.624  -0.915  0.00  0.00    +0.132 C 
ENDROOT
BRANCH   7  23
ATOM     23  O   UNL     1      -2.031  -3.264  -1.785  0.00  0.00    -0.362 OA
ATOM     24  H   UNL     1      -2.334  -4.109  -1.416  0.00  0.00    +0.213 HD
ENDBRANCH   7  23
BRANCH   8  25
ATOM     25  O   UNL     1       2.027  -3.268   1.784  0.00  0.00    -0.362 OA
ATOM     26  H   UNL     1       2.329  -4.112   1.415  0.00  0.00    +0.213 HD
ENDBRANCH   8  25
BRANCH  21  27
ATOM     27  O   UNL     1      -2.897   0.600   2.230  0.00  0.00    -0.506 OA
ATOM     28  H   UNL     1      -2.590  -0.071   2.808  0.00  0.00    +0.292 HD
ENDBRANCH  21  27
BRANCH  22  29
ATOM     29  O   UNL     1       2.898   0.597  -2.230  0.00  0.00    -0.506 OA
ATOM     30  H   UNL     1       2.589  -0.073  -2.808  0.00  0.00    +0.292 HD
ENDBRANCH  22  29
BRANCH  22  31
ATOM     31  C   UNL     1       3.009   1.700  -0.102  0.00  0.00    +0.036 C 
ATOM     32  C   UNL     1       3.863   2.647  -0.525  0.00  0.00    +0.003 C 
BRANCH  32  33
ATOM     33  C   UNL     1       4.361   3.697   0.337  0.00  0.00    -0.004 C 
ATOM     34  C   UNL     1       5.213   4.645  -0.080  0.00  0.00    -0.026 C 
ATOM     35  C   UNL     1       5.734   5.735   0.799  0.00  0.00    +0.031 C 
ENDBRANCH  32  33
ENDBRANCH  22  31
BRANCH  21  36
ATOM     36  C   UNL     1      -3.007   1.703   0.102  0.00  0.00    +0.036 C 
ATOM     37  C   UNL     1      -3.860   2.651   0.525  0.00  0.00    +0.003 C 
BRANCH  37  38
ATOM     38  C   UNL     1      -4.357   3.702  -0.337  0.00  0.00    -0.004 C 
ATOM     39  C   UNL     1      -5.208   4.651   0.080  0.00  0.00    -0.026 C 
ATOM     40  C   UNL     1      -5.728   5.741  -0.799  0.00  0.00    +0.031 C 
ENDBRANCH  37  38
ENDBRANCH  21  36
TORSDOF 8
