REMARK  Name = 134820325
REMARK  14 active torsions:
REMARK  status: ('A' for Active; 'I' for Inactive)
REMARK    1  A    between atoms: C_1  and  CA_2
REMARK    2  A    between atoms: C_1  and  C_18
REMARK    3  A    between atoms: CA_2  and  C_5
REMARK    4  A    between atoms: CA_2  and  N_6
REMARK    5  A    between atoms: N_6  and  CA_9
REMARK    6  A    between atoms: CA_9  and  C_12
REMARK    7  A    between atoms: CA_9  and  CB_13
REMARK    8  A    between atoms: CB_13  and  CG_14
REMARK    9  A    between atoms: CG_14  and  CD_17
REMARK   10  A    between atoms: C_18  and  N_19
REMARK   11  A    between atoms: N_19  and  CA_22
REMARK   12  A    between atoms: CA_22  and  C_25
REMARK   13  A    between atoms: CA_22  and  CB_26
REMARK   14  A    between atoms: CB_26  and  CG_29
REMARK                            x       y       z     vdW  Elec       q    Type
REMARK                         _______ _______ _______ _____ _____    ______ ____
ROOT
ATOM      1  C   HIS A   1      -0.212   0.409   0.863  0.00  0.00    -0.034 C 
ENDROOT
BRANCH   1   2
ATOM      2  CA  HIS A   1      -1.530   0.213   0.102  0.00  0.00    +0.043 C 
BRANCH   2   5
ATOM      3  O   HIS A   1      -1.735  -2.144   0.253  0.00  0.00    -0.248 OA
ATOM      4  OXT HIS A   1      -1.844  -1.172  -1.807  0.00  0.00    -0.248 OA
ATOM      5  C   HIS A   1      -1.712  -1.169  -0.551  0.00  0.00    +0.345 C 
ENDBRANCH   2   5
BRANCH   2   6
ATOM      6  N   HIS A   1      -2.663   0.614   0.993  0.00  0.00    +0.400 N 
ATOM      7  H1  HIS A   1      -2.472   1.548   1.355  0.00  0.00    -0.083 HD
ATOM      8  H2  HIS A   1      -2.722  -0.087   1.731  0.00  0.00    -0.083 HD
BRANCH   6   9
ATOM      9  CA  HIS A   1      -3.982   0.638   0.315  0.00  0.00    +0.046 C 
BRANCH   9  12
ATOM     10  O   HIS A   1      -3.959   2.860  -0.532  0.00  0.00    -0.248 OA
ATOM     11  OXT HIS A   1      -4.243   1.129  -1.989  0.00  0.00    -0.248 OA
ATOM     12  C   HIS A   1      -4.079   1.643  -0.846  0.00  0.00    +0.345 C 
ENDBRANCH   9  12
BRANCH   9  13
ATOM     13  CB  HIS A   1      -5.058   0.775   1.401  0.00  0.00    +0.001 C 
BRANCH  13  14
ATOM     14  CG  HIS A   1      -6.487   0.532   0.912  0.00  0.00    +0.112 C 
BRANCH  14  17
ATOM     15  OE1 HIS A   1      -7.575  -0.881  -0.670  0.00  0.00    -0.246 OA
ATOM     16  OE2 HIS A   1      -6.027  -1.770   0.754  0.00  0.00    -0.246 OA
ATOM     17  CD  HIS A   1      -6.725  -0.836   0.261  0.00  0.00    +0.365 C 
ENDBRANCH  14  17
ENDBRANCH  13  14
ENDBRANCH   9  13
ENDBRANCH   6   9
ENDBRANCH   2   6
ENDBRANCH   1   2
BRANCH   1  18
ATOM     18  C   HIS A   1       1.035   0.183   0.014  0.00  0.00    -0.082 C 
BRANCH  18  19
ATOM     19  N   HIS A   1       2.236   0.450   0.845  0.00  0.00    +0.392 N 
ATOM     20  H1  HIS A   1       2.199  -0.155   1.665  0.00  0.00    -0.084 HD
ATOM     21  H2  HIS A   1       2.212   1.442   1.083  0.00  0.00    -0.084 HD
BRANCH  19  22
ATOM     22  CA  HIS A   1       3.529   0.211   0.148  0.00  0.00    +0.050 C 
BRANCH  22  25
ATOM     23  O   HIS A   1       3.636  -2.120   0.519  0.00  0.00    -0.248 OA
ATOM     24  OXT HIS A   1       3.722  -1.349  -1.632  0.00  0.00    -0.248 OA
ATOM     25  C   HIS A   1       3.643  -1.228  -0.377  0.00  0.00    +0.346 C 
ENDBRANCH  22  25
BRANCH  22  26
ATOM     26  CB  HIS A   1       4.645   0.548   1.144  0.00  0.00    +0.032 C 
BRANCH  26  29
ATOM     27  ND1 HIS A   1       6.376   1.243  -0.560  0.00  0.00    -0.319 N 
ATOM     28  NE2 HIS A   1       8.169   0.041  -0.043  0.00  0.00    -0.315 N 
ATOM     29  CG  HIS A   1       6.020   0.486   0.520  0.00  0.00    +0.036 C 
ATOM     30  CD2 HIS A   1       7.143  -0.248   0.821  0.00  0.00    +0.069 C 
ATOM     31  CE1 HIS A   1       7.675   0.942  -0.862  0.00  0.00    +0.182 C 
ATOM     32  HD1 HIS A   1       5.802   1.888  -1.035  0.00  0.00    +0.148 HD
ATOM     33  HE2 HIS A   1       9.076  -0.343  -0.048  0.00  0.00    +0.148 HD
ENDBRANCH  26  29
ENDBRANCH  22  26
ENDBRANCH  19  22
ENDBRANCH  18  19
ENDBRANCH   1  18
TORSDOF 14
