REMARK  Name = 134895
REMARK  5 active torsions:
REMARK  status: ('A' for Active; 'I' for Inactive)
REMARK    1  A    between atoms: N_3  and  C_13
REMARK    2  A    between atoms: C_4  and  O_7
REMARK    3  A    between atoms: C_4  and  C_10
REMARK    4  A    between atoms: C_10  and  O_11
REMARK    5  A    between atoms: C_13  and  C_14
REMARK                            x       y       z     vdW  Elec       q    Type
REMARK                         _______ _______ _______ _____ _____    ______ ____
ROOT
ATOM      1  S   UNL     1      -2.157  -1.710   1.489  0.00  0.00    -0.087 S 
ATOM      2  S   UNL     1      -0.319  -3.175  -0.383  0.00  0.00    -0.028 S 
ATOM      3  N   UNL     1      -0.695  -0.437  -0.229  0.00  0.00    -0.266 N 
ATOM      4  C   UNL     1      -1.529   0.592   0.394  0.00  0.00    +0.252 C 
ATOM      5  C   UNL     1      -1.983   0.072   1.748  0.00  0.00    +0.122 C 
ATOM      6  C   UNL     1      -0.967  -1.742   0.182  0.00  0.00    +0.113 C 
ENDROOT
BRANCH   4   7
ATOM      7  O   UNL     1      -0.825   1.808   0.584  0.00  0.00    -0.362 OA
ATOM      8  H   UNL     1      -0.058   1.652   1.157  0.00  0.00    +0.213 HD
ENDBRANCH   4   7
BRANCH   4  10
ATOM      9  O   UNL     1      -3.561   1.715  -0.204  0.00  0.00    -0.246 OA
ATOM     10  C   UNL     1      -2.704   0.896  -0.499  0.00  0.00    +0.358 C 
BRANCH  10  11
ATOM     11  O   UNL     1      -2.686   0.166  -1.641  0.00  0.00    -0.477 OA
ATOM     12  H   UNL     1      -1.992  -0.444  -1.796  0.00  0.00    +0.295 HD
ENDBRANCH  10  11
ENDBRANCH   4  10
BRANCH   3  13
ATOM     13  C   UNL     1       0.274  -0.062  -1.261  0.00  0.00    +0.121 C 
BRANCH  13  14
ATOM     14  C   UNL     1       1.616   0.133  -0.622  0.00  0.00    -0.002 C 
ATOM     15  C   UNL     1       1.977   1.388  -0.144  0.00  0.00    -0.003 C 
ATOM     16  C   UNL     1       2.490  -0.944  -0.511  0.00  0.00    -0.003 C 
ATOM     17  C   UNL     1       3.226   1.569   0.450  0.00  0.00    -0.000 C 
ATOM     18  C   UNL     1       3.738  -0.763   0.084  0.00  0.00    -0.000 C 
ATOM     19  C   UNL     1       4.106   0.494   0.564  0.00  0.00    -0.000 C 
ENDBRANCH  13  14
ENDBRANCH   3  13
TORSDOF 5
