REMARK  Name = 134825
REMARK  7 active torsions:
REMARK  status: ('A' for Active; 'I' for Inactive)
REMARK    1  A    between atoms: N_1  and  C_14
REMARK    2  A    between atoms: N_2  and  P_8
REMARK    3  A    between atoms: P_8  and  O_10
REMARK    4  A    between atoms: P_8  and  O_12
REMARK    5  A    between atoms: C_14  and  C_15
REMARK    6  A    between atoms: C_15  and  C_17
REMARK    7  A    between atoms: C_17  and  O_18
REMARK                            x       y       z     vdW  Elec       q    Type
REMARK                         _______ _______ _______ _____ _____    ______ ____
ROOT
ATOM      1  N   UNL     1       0.459   0.671   0.281  0.00  0.00    -0.258 N 
ATOM      2  N   UNL     1      -1.711   0.352  -0.073  0.00  0.00    -0.175 N 
ATOM      3  N   UNL     1      -0.432  -1.547   0.605  0.00  0.00    -0.271 NA
ATOM      4  C   UNL     1      -0.043   2.011   0.015  0.00  0.00    +0.084 C 
ATOM      5  C   UNL     1      -1.512   1.769  -0.350  0.00  0.00    +0.094 C 
ATOM      6  C   UNL     1      -0.540  -0.292   0.300  0.00  0.00    +0.196 C 
ATOM      7  H   UNL     1       0.444  -1.918   0.859  0.00  0.00    +0.189 HD
ENDROOT
BRANCH   2   8
ATOM      8  P   UNL     1      -3.219  -0.279  -0.154  0.00  0.00    +0.431 P 
ATOM      9  O   UNL     1      -4.381   0.586  -0.586  0.00  0.00    -0.236 OA
BRANCH   8  10
ATOM     10  O   UNL     1      -3.517  -0.954   1.299  0.00  0.00    -0.309 OA
ATOM     11  H   UNL     1      -4.405  -1.344   1.298  0.00  0.00    +0.221 HD
ENDBRANCH   8  10
BRANCH   8  12
ATOM     12  O   UNL     1      -3.117  -1.619  -1.075  0.00  0.00    -0.309 OA
ATOM     13  H   UNL     1      -3.994  -2.027  -1.149  0.00  0.00    +0.221 HD
ENDBRANCH   8  12
ENDBRANCH   2   8
BRANCH   1  14
ATOM     14  C   UNL     1       1.835   0.478   0.671  0.00  0.00    +0.110 C 
BRANCH  14  15
ATOM     15  C   UNL     1       2.659  -0.024  -0.509  0.00  0.00    +0.131 C 
BRANCH  15  17
ATOM     16  O   UNL     1       4.618  -0.083   0.941  0.00  0.00    -0.250 OA
ATOM     17  C   UNL     1       4.107  -0.283  -0.152  0.00  0.00    +0.316 C 
BRANCH  17  18
ATOM     18  O   UNL     1       4.794  -0.787  -1.211  0.00  0.00    -0.480 OA
ATOM     19  H   UNL     1       4.360  -0.923  -2.030  0.00  0.00    +0.295 HD
ENDBRANCH  17  18
ENDBRANCH  15  17
ENDBRANCH  14  15
ENDBRANCH   1  14
TORSDOF 7
