REMARK  Name = 134816576
REMARK  9 active torsions:
REMARK  status: ('A' for Active; 'I' for Inactive)
REMARK    1  A    between atoms: C_6  and  O_21
REMARK    2  A    between atoms: C_8  and  O_23
REMARK    3  A    between atoms: C_15  and  C_30
REMARK    4  A    between atoms: C_17  and  O_25
REMARK    5  A    between atoms: C_19  and  O_27
REMARK    6  A    between atoms: C_19  and  C_36
REMARK    7  A    between atoms: C_30  and  C_31
REMARK    8  A    between atoms: C_32  and  C_33
REMARK    9  A    between atoms: C_37  and  C_38
REMARK                            x       y       z     vdW  Elec       q    Type
REMARK                         _______ _______ _______ _____ _____    ______ ____
ROOT
ATOM      1  O   UNL     1       0.431   2.418   1.108  0.00  0.00    -0.329 OA
ATOM      2  O   UNL     1      -0.635   3.318  -1.183  0.00  0.00    -0.289 OA
ATOM      3  O   UNL     1      -3.204   1.667   1.491  0.00  0.00    -0.289 OA
ATOM      4  C   UNL     1       0.606   0.038   0.891  0.00  0.00    +0.075 C 
ATOM      5  C   UNL     1       1.669   0.734  -0.011  0.00  0.00    +0.069 C 
ATOM      6  C   UNL     1       0.318   1.199   1.887  0.00  0.00    +0.217 C 
ATOM      7  C   UNL     1       1.179   2.176  -0.090  0.00  0.00    +0.154 C 
ATOM      8  C   UNL     1      -1.082   1.173   2.534  0.00  0.00    +0.190 C 
ATOM      9  C   UNL     1      -0.648  -0.382   0.137  0.00  0.00    -0.015 C 
ATOM     10  C   UNL     1       1.208  -1.224   1.536  0.00  0.00    +0.010 C 
ATOM     11  C   UNL     1       2.004   0.131  -1.359  0.00  0.00    +0.048 C 
ATOM     12  C   UNL     1       0.216   2.430  -1.244  0.00  0.00    +0.197 C 
ATOM     13  C   UNL     1       2.314   3.195  -0.174  0.00  0.00    +0.038 C 
ATOM     14  C   UNL     1      -2.147   1.040   1.452  0.00  0.00    +0.204 C 
ATOM     15  C   UNL     1      -1.890   0.072   0.353  0.00  0.00    +0.072 C 
ATOM     16  C   UNL     1      -1.296   0.069   3.574  0.00  0.00    +0.042 C 
ATOM     17  C   UNL     1       1.179   0.540  -2.496  0.00  0.00    +0.131 C 
ATOM     18  C   UNL     1       0.338   1.590  -2.477  0.00  0.00    +0.049 C 
ATOM     19  C   UNL     1       3.073  -0.678  -1.474  0.00  0.00    +0.133 C 
ATOM     20  C   UNL     1      -0.545   1.987  -3.625  0.00  0.00    +0.037 C 
ENDROOT
BRANCH   6  21
ATOM     21  O   UNL     1       1.324   1.223   2.904  0.00  0.00    -0.361 OA
ATOM     22  H   UNL     1       2.202   1.239   2.490  0.00  0.00    +0.213 HD
ENDBRANCH   6  21
BRANCH   8  23
ATOM     23  O   UNL     1      -1.281   2.423   3.195  0.00  0.00    -0.375 OA
ATOM     24  H   UNL     1      -1.153   3.148   2.563  0.00  0.00    +0.211 HD
ENDBRANCH   8  23
BRANCH  17  25
ATOM     25  O   UNL     1       1.243  -0.253  -3.633  0.00  0.00    -0.506 OA
ATOM     26  H   UNL     1       1.825  -0.987  -3.661  0.00  0.00    +0.292 HD
ENDBRANCH  17  25
BRANCH  19  27
ATOM     27  O   UNL     1       3.469  -1.183  -2.694  0.00  0.00    -0.506 OA
ATOM     28  H   UNL     1       2.989  -0.965  -3.469  0.00  0.00    +0.292 HD
ENDBRANCH  19  27
BRANCH  15  30
ATOM     29  O   UNL     1      -2.908  -0.214  -1.749  0.00  0.00    -0.286 OA
ATOM     30  C   UNL     1      -2.950  -0.409  -0.537  0.00  0.00    +0.198 C 
BRANCH  30  31
ATOM     31  C   UNL     1      -4.056  -1.137   0.141  0.00  0.00    +0.042 C 
ATOM     32  C   UNL     1      -5.081  -1.622  -0.574  0.00  0.00    +0.003 C 
BRANCH  32  33
ATOM     33  C   UNL     1      -6.184  -2.337   0.030  0.00  0.00    -0.004 C 
ATOM     34  C   UNL     1      -7.214  -2.827  -0.675  0.00  0.00    -0.026 C 
ATOM     35  C   UNL     1      -8.358  -3.567  -0.063  0.00  0.00    +0.031 C 
ENDBRANCH  32  33
ENDBRANCH  30  31
ENDBRANCH  15  30
BRANCH  19  36
ATOM     36  C   UNL     1       3.873  -1.068  -0.332  0.00  0.00    +0.036 C 
ATOM     37  C   UNL     1       4.950  -1.870  -0.376  0.00  0.00    +0.003 C 
BRANCH  37  38
ATOM     38  C   UNL     1       5.713  -2.226   0.800  0.00  0.00    -0.004 C 
ATOM     39  C   UNL     1       6.789  -3.026   0.763  0.00  0.00    -0.026 C 
ATOM     40  C   UNL     1       7.585  -3.401   1.969  0.00  0.00    +0.031 C 
ENDBRANCH  37  38
ENDBRANCH  19  36
TORSDOF 9
