134835
  -OEChem-03292013323D

 63 65  0     1  0  0  0  0  0999 V2000
   -4.2395   -0.1127   -0.3070 O   0  0  0  0  0  0  0  0  0  0  0  0
    3.2682   -1.4205    1.3423 O   0  0  0  0  0  0  0  0  0  0  0  0
    5.7722   -3.4786   -0.7366 O   0  0  0  0  0  0  0  0  0  0  0  0
    6.6553   -1.5494    0.0963 O   0  0  0  0  0  0  0  0  0  0  0  0
    0.0387    2.2985   -0.4881 O   0  0  0  0  0  0  0  0  0  0  0  0
    0.5726    3.1207    1.5992 O   0  0  0  0  0  0  0  0  0  0  0  0
    4.2822   -0.3034   -0.4129 N   0  0  0  0  0  0  0  0  0  0  0  0
    1.8998    0.7533    2.0597 N   0  0  0  0  0  0  0  0  0  0  0  0
    4.6126   -1.4875   -1.1953 C   0  0  1  0  0  0  0  0  0  0  0  0
    4.9627   -0.9522   -2.5788 C   0  0  0  0  0  0  0  0  0  0  0  0
    4.6550    0.9178   -1.1224 C   0  0  0  0  0  0  0  0  0  0  0  0
    5.5059    0.4455   -2.2916 C   0  0  0  0  0  0  0  0  0  0  0  0
    3.1574    0.9579    1.3592 C   0  0  2  0  0  0  0  0  0  0  0  0
   -3.8080   -1.3448    0.3290 C   0  0  1  0  0  0  0  0  0  0  0  0
    3.5649   -0.3696    0.7714 C   0  0  0  0  0  0  0  0  0  0  0  0
   -2.7184   -1.0230    1.3387 C   0  0  0  0  0  0  0  0  0  0  0  0
    0.7790    0.7426    1.1182 C   0  0  1  0  0  0  0  0  0  0  0  0
   -1.4866   -0.3602    0.7168 C   0  0  0  0  0  0  0  0  0  0  0  0
   -0.4224    0.0290    1.7506 C   0  0  0  0  0  0  0  0  0  0  0  0
   -5.0273   -2.0227    0.9733 C   0  0  0  0  0  0  0  0  0  0  0  0
    5.7910   -2.1383   -0.5355 C   0  0  0  0  0  0  0  0  0  0  0  0
   -6.0991   -1.3880    0.1744 C   0  0  0  0  0  0  0  0  0  0  0  0
    4.2265    1.4664    2.3124 C   0  0  0  0  0  0  0  0  0  0  0  0
   -5.5837   -0.2961   -0.5067 C   0  0  0  0  0  0  0  0  0  0  0  0
    0.4535    2.1924    0.8094 C   0  0  0  0  0  0  0  0  0  0  0  0
   -7.4432   -1.7035    0.0953 C   0  0  0  0  0  0  0  0  0  0  0  0
   -6.3787    0.5221   -1.2857 C   0  0  0  0  0  0  0  0  0  0  0  0
   -8.2646   -0.8976   -0.6975 C   0  0  0  0  0  0  0  0  0  0  0  0
   -7.7357    0.2090   -1.3827 C   0  0  0  0  0  0  0  0  0  0  0  0
   -0.2752    3.6231   -0.9292 C   0  0  0  0  0  0  0  0  0  0  0  0
   -0.7149    3.5696   -2.3767 C   0  0  0  0  0  0  0  0  0  0  0  0
    3.7596   -2.1745   -1.1998 H   0  0  0  0  0  0  0  0  0  0  0  0
    5.6823   -1.5722   -3.1219 H   0  0  0  0  0  0  0  0  0  0  0  0
    4.0526   -0.8689   -3.1852 H   0  0  0  0  0  0  0  0  0  0  0  0
    3.7371    1.3941   -1.4843 H   0  0  0  0  0  0  0  0  0  0  0  0
    5.1911    1.6120   -0.4717 H   0  0  0  0  0  0  0  0  0  0  0  0
    5.4409    1.1130   -3.1554 H   0  0  0  0  0  0  0  0  0  0  0  0
    6.5584    0.3824   -1.9907 H   0  0  0  0  0  0  0  0  0  0  0  0
    3.0306    1.7209    0.5866 H   0  0  0  0  0  0  0  0  0  0  0  0
   -3.3999   -1.9878   -0.4636 H   0  0  0  0  0  0  0  0  0  0  0  0
   -3.1219   -0.3413    2.0988 H   0  0  0  0  0  0  0  0  0  0  0  0
   -2.4132   -1.9407    1.8559 H   0  0  0  0  0  0  0  0  0  0  0  0
    1.0575    0.2208    0.1942 H   0  0  0  0  0  0  0  0  0  0  0  0
   -1.8027    0.5367    0.1731 H   0  0  0  0  0  0  0  0  0  0  0  0
   -1.0450   -1.0404   -0.0219 H   0  0  0  0  0  0  0  0  0  0  0  0
   -0.8781    0.6632    2.5220 H   0  0  0  0  0  0  0  0  0  0  0  0
   -0.0859   -0.8895    2.2497 H   0  0  0  0  0  0  0  0  0  0  0  0
    1.7517    1.4653    2.7742 H   0  0  0  0  0  0  0  0  0  0  0  0
   -4.9884   -3.1098    0.8622 H   0  0  0  0  0  0  0  0  0  0  0  0
   -5.1410   -1.7605    2.0304 H   0  0  0  0  0  0  0  0  0  0  0  0
    4.3807    0.7718    3.1470 H   0  0  0  0  0  0  0  0  0  0  0  0
    5.1933    1.5794    1.8121 H   0  0  0  0  0  0  0  0  0  0  0  0
    3.9502    2.4404    2.7314 H   0  0  0  0  0  0  0  0  0  0  0  0
   -7.8554   -2.5480    0.6368 H   0  0  0  0  0  0  0  0  0  0  0  0
   -5.9679    1.3779   -1.8094 H   0  0  0  0  0  0  0  0  0  0  0  0
    6.5372   -3.9233   -0.3132 H   0  0  0  0  0  0  0  0  0  0  0  0
   -9.3244   -1.1233   -0.7797 H   0  0  0  0  0  0  0  0  0  0  0  0
   -8.3909    0.8276   -1.9900 H   0  0  0  0  0  0  0  0  0  0  0  0
    0.6120    4.2590   -0.8350 H   0  0  0  0  0  0  0  0  0  0  0  0
   -1.0832    4.0314   -0.3118 H   0  0  0  0  0  0  0  0  0  0  0  0
    0.0763    3.1462   -3.0042 H   0  0  0  0  0  0  0  0  0  0  0  0
   -0.9638    4.5679   -2.7473 H   0  0  0  0  0  0  0  0  0  0  0  0
   -1.5905    2.9217   -2.4894 H   0  0  0  0  0  0  0  0  0  0  0  0
  1 14  1  0  0  0  0
  1 24  1  0  0  0  0
  2 15  2  0  0  0  0
  3 21  1  0  0  0  0
  3 56  1  0  0  0  0
  4 21  2  0  0  0  0
  5 25  1  0  0  0  0
  5 30  1  0  0  0  0
  6 25  2  0  0  0  0
  7  9  1  0  0  0  0
  7 11  1  0  0  0  0
  7 15  1  0  0  0  0
  8 13  1  0  0  0  0
  8 17  1  0  0  0  0
  8 48  1  0  0  0  0
  9 10  1  0  0  0  0
  9 21  1  0  0  0  0
  9 32  1  0  0  0  0
 10 12  1  0  0  0  0
 10 33  1  0  0  0  0
 10 34  1  0  0  0  0
 11 12  1  0  0  0  0
 11 35  1  0  0  0  0
 11 36  1  0  0  0  0
 12 37  1  0  0  0  0
 12 38  1  0  0  0  0
 13 15  1  0  0  0  0
 13 23  1  0  0  0  0
 13 39  1  0  0  0  0
 14 16  1  0  0  0  0
 14 20  1  0  0  0  0
 14 40  1  0  0  0  0
 16 18  1  0  0  0  0
 16 41  1  0  0  0  0
 16 42  1  0  0  0  0
 17 19  1  0  0  0  0
 17 25  1  0  0  0  0
 17 43  1  0  0  0  0
 18 19  1  0  0  0  0
 18 44  1  0  0  0  0
 18 45  1  0  0  0  0
 19 46  1  0  0  0  0
 19 47  1  0  0  0  0
 20 22  1  0  0  0  0
 20 49  1  0  0  0  0
 20 50  1  0  0  0  0
 22 24  1  0  0  0  0
 22 26  2  0  0  0  0
 23 51  1  0  0  0  0
 23 52  1  0  0  0  0
 23 53  1  0  0  0  0
 24 27  2  0  0  0  0
 26 28  1  0  0  0  0
 26 54  1  0  0  0  0
 27 29  1  0  0  0  0
 27 55  1  0  0  0  0
 28 29  2  0  0  0  0
 28 57  1  0  0  0  0
 29 58  1  0  0  0  0
 30 31  1  0  0  0  0
 30 59  1  0  0  0  0
 30 60  1  0  0  0  0
 31 61  1  0  0  0  0
 31 62  1  0  0  0  0
 31 63  1  0  0  0  0
M  END
> <PUBCHEM_COMPOUND_CID>
134835

> <PUBCHEM_CONFORMER_RMSD>
1.2

> <PUBCHEM_CONFORMER_DIVERSEORDER>
1
88
82
186
180
73
64
227
63
130
122
49
105
10
212
134
214
110
96
84
113
200
102
68
172
173
92
222
230
178
60
220
47
37
97
137
4
39
207
95
98
166
71
232
5
204
17
201
193
120
148
56
132
83
2
225
195
202
81
50
182
197
188
27
46
141
57
114
157
218
69
170
165
176
149
108
221
9
53
111
160
103
175
52
15
24
116
196
158
203
45
93
154
90
29
142
91
42
8
85
101
223
13
138
162
126
100
217
118
41
125
171
107
87
211
21
86
136
177
62
213
61
55
163
185
25
131
164
72
192
89
190
206
3
112
77
184
123
219
152
224
34
28
11
30
104
146
23
65
229
94
44
199
145
139
161
226
198
76
231
78
20
79
191
115
33
7
43
135
159
38
67
66
106
26
22
194
109
156
36
153
187
121
129
16
155
14
70
99
140
80
150
181
12
151
59
167
133
6
209
179
169
48
124
144
54
143
205
174
19
117
32
40
127
58
128
31
35
208
119
168
18
210
215
51
147
216
74
228
75
183
189

> <PUBCHEM_MMFF94_PARTIAL_CHARGES>
30
1 -0.36
11 0.3
13 0.33
14 0.28
15 0.57
17 0.33
2 -0.57
20 0.14
21 0.66
22 -0.14
24 0.08
25 0.66
26 -0.15
27 -0.15
28 -0.15
29 -0.15
3 -0.65
30 0.28
4 -0.57
48 0.36
5 -0.43
54 0.15
55 0.15
56 0.5
57 0.15
58 0.15
6 -0.57
7 -0.66
8 -0.9
9 0.36

> <PUBCHEM_EFFECTIVE_ROTOR_COUNT>
13.6

> <PUBCHEM_PHARMACOPHORE_FEATURES>
11
1 1 acceptor
1 2 acceptor
1 3 acceptor
1 4 acceptor
1 6 acceptor
1 8 cation
1 8 donor
3 3 4 21 anion
5 1 14 20 22 24 rings
5 7 9 10 11 12 rings
6 22 24 26 27 28 29 rings

> <PUBCHEM_HEAVY_ATOM_COUNT>
31

> <PUBCHEM_ATOM_DEF_STEREO_COUNT>
2

> <PUBCHEM_ATOM_UDEF_STEREO_COUNT>
2

> <PUBCHEM_BOND_DEF_STEREO_COUNT>
0

> <PUBCHEM_BOND_UDEF_STEREO_COUNT>
0

> <PUBCHEM_ISOTOPIC_ATOM_COUNT>
0

> <PUBCHEM_COMPONENT_COUNT>
1

> <PUBCHEM_CACTVS_TAUTO_COUNT>
1

> <PUBCHEM_CONFORMER_ID>
00020EB300000001

> <PUBCHEM_MMFF94_ENERGY>
62.3812

> <PUBCHEM_FEATURE_SELFOVERLAP>
55.98

> <PUBCHEM_SHAPE_FINGERPRINT>
10638233 991 15430029959900761783
11720765 8 18336552727993423781
12166972 35 17275389837148361401
12422481 6 13614251355912846429
13533116 47 16558750147863919459
13782708 43 17775567524851791221
14251757 52 15357689791464029959
14537116 161 17894903041132067821
14565420 104 8430322320228321213
14904525 67 14346334802854186375
15183329 4 18040714766933072361
15475509 8 18334017173033659969
16994733 274 13623525762684583767
21641784 216 17022897913409671581
22061861 79 18130786785192510803
22224240 67 10015860981867856979
22956985 138 13324646572878267348
23081809 10 15554173661788088915
23559900 14 18262801899613051739
340366 18 18267020738403084495
437795 70 18186799171865971673
437815 12 18413668007078387473
5081480 168 17969491775188027325
5085150 59 12895353309733950365
5372103 7 17679879373398429380
54076057 255 16877938361181928965

> <PUBCHEM_SHAPE_MULTIPOLES>
592.79
21.69
3.34
2.29
27.85
2.44
0.21
-15.16
10.32
-2.36
1
-3.06
0.95
2.56

> <PUBCHEM_SHAPE_SELFOVERLAP>
1235.063

> <PUBCHEM_SHAPE_VOLUME>
338

> <PUBCHEM_COORDINATE_TYPE>
2
5
10

$$$$
