REMARK  Name = 134823883
REMARK  12 active torsions:
REMARK  status: ('A' for Active; 'I' for Inactive)
REMARK    1  A    between atoms: C_1  and  N_4
REMARK    2  A    between atoms: C_1  and  C_18
REMARK    3  A    between atoms: C_5  and  C_7
REMARK    4  A    between atoms: C_7  and  C_8
REMARK    5  A    between atoms: C_8  and  CA_9
REMARK    6  A    between atoms: CA_9  and  N_10
REMARK    7  A    between atoms: CA_9  and  C_15
REMARK    8  A    between atoms: C_15  and  O_16
REMARK    9  A    between atoms: C_18  and  C_21
REMARK   10  A    between atoms: C_18  and  O_31
REMARK   11  A    between atoms: C_20  and  O_27
REMARK   12  A    between atoms: C_23  and  O_29
REMARK                            x       y       z     vdW  Elec       q    Type
REMARK                         _______ _______ _______ _____ _____    ______ ____
ROOT
ATOM      1  C   UNL     1      -0.561   2.653   0.221  0.00  0.00    +0.103 C 
ATOM      2  C   UNL     1      -0.243   4.146   0.170  0.00  0.00    +0.024 C 
ENDROOT
BRANCH   1   4
ATOM      3  O   UNL     1       0.984   0.794   1.798  0.00  0.00    -0.275 OA
ATOM      4  N   UNL     1       0.597   1.900  -0.208  0.00  0.00    -0.303 N 
ATOM      5  C   UNL     1       1.275   1.026   0.628  0.00  0.00    +0.222 C 
ATOM      6  H   UNL     1       0.917   2.012  -1.133  0.00  0.00    +0.149 HD
BRANCH   5   7
ATOM      7  C   UNL     1       2.454   0.381  -0.081  0.00  0.00    +0.083 C 
BRANCH   7   8
ATOM      8  C   UNL     1       3.219  -0.589   0.823  0.00  0.00    -0.001 C 
BRANCH   8   9
ATOM      9  CA  UNL     1       4.366  -1.300   0.097  0.00  0.00    +0.036 C 
BRANCH   9  10
ATOM     10  N   UNL     1       5.046  -2.206   1.026  0.00  0.00    +0.389 N 
ATOM     11  H1  UNL     1       4.380  -2.893   1.380  0.00  0.00    -0.088 HD
ATOM     12  H2  UNL     1       5.428  -1.670   1.805  0.00  0.00    -0.088 HD
ATOM     13  H3  UNL     1       5.803  -2.686   0.540  0.00  0.00    -0.088 HD
ENDBRANCH   9  10
BRANCH   9  15
ATOM     14  OXT UNL     1       6.349   0.105   0.279  0.00  0.00    -0.253 OA
ATOM     15  C   UNL     1       5.410  -0.311  -0.388  0.00  0.00    +0.293 C 
BRANCH  15  16
ATOM     16  O   UNL     1       5.177   0.099  -1.663  0.00  0.00    -0.482 OA
ATOM     17  H   UNL     1       4.447  -0.244  -2.139  0.00  0.00    +0.295 HD
ENDBRANCH  15  16
ENDBRANCH   9  15
ENDBRANCH   8   9
ENDBRANCH   7   8
ENDBRANCH   5   7
ENDBRANCH   1   4
BRANCH   1  18
ATOM     18  C   UNL     1      -1.810   2.303  -0.603  0.00  0.00    +0.153 C 
BRANCH  18  21
ATOM     19  O   UNL     1      -2.406   1.050   1.802  0.00  0.00    -0.289 OA
ATOM     20  C   UNL     1      -2.645  -1.451  -1.493  0.00  0.00    +0.136 C 
ATOM     21  C   UNL     1      -2.133   0.836  -0.553  0.00  0.00    +0.037 C 
ATOM     22  C   UNL     1      -3.357  -1.760  -0.181  0.00  0.00    +0.071 C 
ATOM     23  C   UNL     1      -2.572  -1.201   0.992  0.00  0.00    +0.179 C 
ATOM     24  C   UNL     1      -2.215   0.000  -1.613  0.00  0.00    -0.016 C 
ATOM     25  C   UNL     1      -2.389   0.295   0.829  0.00  0.00    +0.198 C 
ATOM     26  C   UNL     1      -1.917   0.419  -3.033  0.00  0.00    +0.029 C 
BRANCH  20  27
ATOM     27  O   UNL     1      -1.502  -2.299  -1.597  0.00  0.00    -0.349 OA
ATOM     28  C   UNL     1      -1.872  -3.624  -1.947  0.00  0.00    +0.174 C 
ENDBRANCH  20  27
BRANCH  23  29
ATOM     29  O   UNL     1      -3.250  -1.470   2.206  0.00  0.00    -0.346 OA
ATOM     30  C   UNL     1      -3.052  -2.813   2.633  0.00  0.00    +0.175 C 
ENDBRANCH  23  29
ENDBRANCH  18  21
BRANCH  18  31
ATOM     31  O   UNL     1      -2.951   3.018  -0.144  0.00  0.00    -0.378 OA
ATOM     32  H   UNL     1      -3.721   2.777  -0.682  0.00  0.00    +0.211 HD
ENDBRANCH  18  31
ENDBRANCH   1  18
TORSDOF 12
