REMARK  Name = 134872
REMARK  8 active torsions:
REMARK  status: ('A' for Active; 'I' for Inactive)
REMARK    1  A    between atoms: C_2  and  C_20
REMARK    2  A    between atoms: C_3  and  O_18
REMARK    3  A    between atoms: C_4  and  N_6
REMARK    4  A    between atoms: C_20  and  N_21
REMARK    5  A    between atoms: N_21  and  O_22
REMARK    6  A    between atoms: N_21  and  C_24
REMARK    7  A    between atoms: C_24  and  C_25
REMARK    8  A    between atoms: C_25  and  S_26
REMARK                            x       y       z     vdW  Elec       q    Type
REMARK                         _______ _______ _______ _____ _____    ______ ____
ROOT
ATOM      1  O   UNL     1       0.153   1.641   0.857  0.00  0.00    -0.336 OA
ATOM      2  C   UNL     1      -0.781   2.462   0.123  0.00  0.00    +0.162 C 
ATOM      3  C   UNL     1       0.048   3.398  -0.750  0.00  0.00    +0.143 C 
ATOM      4  C   UNL     1       1.484   1.928   0.393  0.00  0.00    +0.197 C 
ATOM      5  C   UNL     1       1.338   2.634  -0.947  0.00  0.00    +0.083 C 
ENDROOT
BRANCH   4   6
ATOM      6  N   UNL     1       2.268   0.700   0.342  0.00  0.00    -0.249 N 
ATOM      7  N   UNL     1       4.043  -0.651   0.463  0.00  0.00    -0.242 NA
ATOM      8  N   UNL     1       0.559  -0.919  -0.258  0.00  0.00    -0.228 NA
ATOM      9  N   UNL     1       1.489  -3.167  -0.449  0.00  0.00    -0.229 NA
ATOM     10  C   UNL     1       1.814  -0.556   0.046  0.00  0.00    +0.152 C 
ATOM     11  C   UNL     1       3.614   0.588   0.585  0.00  0.00    +0.223 C 
ATOM     12  C   UNL     1       2.928  -1.377   0.127  0.00  0.00    +0.140 C 
ATOM     13  C   UNL     1       2.732  -2.729  -0.135  0.00  0.00    +0.143 C 
ATOM     14  C   UNL     1       0.494  -2.248  -0.491  0.00  0.00    +0.253 C 
ATOM     15  N   UNL     1       3.806  -3.634  -0.074  0.00  0.00    -0.342 N 
ATOM     16  H   UNL     1       3.656  -4.589  -0.261  0.00  0.00    +0.144 HD
ATOM     17  H   UNL     1       4.708  -3.313   0.155  0.00  0.00    +0.144 HD
ENDBRANCH   4   6
BRANCH   3  18
ATOM     18  O   UNL     1       0.338   4.593  -0.028  0.00  0.00    -0.382 OA
ATOM     19  H   UNL     1      -0.481   5.095   0.107  0.00  0.00    +0.210 HD
ENDBRANCH   3  18
BRANCH   2  20
ATOM     20  C   UNL     1      -1.679   1.541  -0.692  0.00  0.00    +0.133 C 
BRANCH  20  21
ATOM     21  N   UNL     1      -2.471   0.680   0.176  0.00  0.00    -0.166 NA
BRANCH  21  22
ATOM     22  O   UNL     1      -3.389   1.583   0.850  0.00  0.00    -0.311 OA
ATOM     23  H   UNL     1      -2.886   2.209   1.395  0.00  0.00    +0.237 HD
ENDBRANCH  21  22
BRANCH  21  24
ATOM     24  C   UNL     1      -3.333  -0.203  -0.604  0.00  0.00    +0.112 C 
BRANCH  24  25
ATOM     25  C   UNL     1      -4.174  -1.063   0.332  0.00  0.00    +0.077 C 
BRANCH  25  26
ATOM     26  S   UNL     1      -5.252  -2.168  -0.625  0.00  0.00    -0.138 S 
ATOM     27  C   UNL     1      -6.031  -3.033   0.757  0.00  0.00    +0.069 C 
ENDBRANCH  25  26
ENDBRANCH  24  25
ENDBRANCH  21  24
ENDBRANCH  20  21
ENDBRANCH   2  20
TORSDOF 8
