REMARK  Name = 134817250
REMARK  6 active torsions:
REMARK  status: ('A' for Active; 'I' for Inactive)
REMARK    1  A    between atoms: N_2  and  C_9
REMARK    2  A    between atoms: C_3  and  C_20
REMARK    3  A    between atoms: C_5  and  C_17
REMARK    4  A    between atoms: C_20  and  N_23
REMARK    5  A    between atoms: N_23  and  S_25
REMARK    6  A    between atoms: S_25  and  C_29
REMARK                            x       y       z     vdW  Elec       q    Type
REMARK                         _______ _______ _______ _____ _____    ______ ____
ROOT
ATOM      1  O   UNL     1       0.368  -2.920  -1.302  0.00  0.00    -0.274 OA
ATOM      2  N   UNL     1      -0.403  -1.099  -0.103  0.00  0.00    -0.305 N 
ATOM      3  C   UNL     1       0.411  -2.206  -0.300  0.00  0.00    +0.236 C 
ATOM      4  H   UNL     1      -0.301  -0.584   0.729  0.00  0.00    +0.149 HD
ENDROOT
BRANCH   2   9
ATOM      5  C   UNL     1      -3.476   0.590   0.604  0.00  0.00    +0.069 C 
ATOM      6  C   UNL     1      -2.755  -1.358  -0.837  0.00  0.00    +0.018 C 
ATOM      7  C   UNL     1      -1.581   0.867  -1.045  0.00  0.00    +0.018 C 
ATOM      8  C   UNL     1      -3.953   0.610  -1.872  0.00  0.00    +0.001 C 
ATOM      9  C   UNL     1      -1.392  -0.666  -1.062  0.00  0.00    +0.072 C 
ATOM     10  C   UNL     1      -2.122   1.278   0.338  0.00  0.00    +0.010 C 
ATOM     11  C   UNL     1      -3.293  -0.941   0.545  0.00  0.00    +0.010 C 
ATOM     12  C   UNL     1      -4.479   1.017  -0.485  0.00  0.00    +0.009 C 
ATOM     13  C   UNL     1      -3.766  -0.916  -1.914  0.00  0.00    +0.002 C 
ATOM     14  C   UNL     1      -2.599   1.295  -2.120  0.00  0.00    +0.002 C 
BRANCH   5  17
ATOM     15  O   UNL     1      -5.080   1.574   2.082  0.00  0.00    -0.275 OA
ATOM     16  N   UNL     1      -3.170   0.673   2.993  0.00  0.00    -0.329 N 
ATOM     17  C   UNL     1      -4.005   0.994   1.950  0.00  0.00    +0.218 C 
ATOM     18  H   UNL     1      -3.427   0.896   3.917  0.00  0.00    +0.145 HD
ATOM     19  H   UNL     1      -2.314   0.219   2.817  0.00  0.00    +0.145 HD
ENDBRANCH   5  17
ENDBRANCH   2   9
BRANCH   3  20
ATOM     20  C   UNL     1       1.385  -2.462   0.856  0.00  0.00    +0.130 C 
ATOM     21  C   UNL     1       0.645  -2.572   2.189  0.00  0.00    +0.027 C 
ATOM     22  C   UNL     1       2.259  -3.689   0.596  0.00  0.00    +0.027 C 
BRANCH  20  23
ATOM     23  N   UNL     1       2.273  -1.269   0.921  0.00  0.00    -0.174 NA
ATOM     24  H   UNL     1       1.676  -0.466   1.117  0.00  0.00    +0.149 HD
BRANCH  23  25
ATOM     25  S   UNL     1       3.226  -0.858  -0.418  0.00  0.00    +0.063 S 
ATOM     26  O   UNL     1       2.529  -1.218  -1.639  0.00  0.00    -0.153 OA
ATOM     27  O   UNL     1       4.579  -1.326  -0.185  0.00  0.00    -0.153 OA
BRANCH  25  29
ATOM     28  F   UNL     1       4.638   0.807   1.622  0.00  0.00    -0.203 F 
ATOM     29  C   UNL     1       3.265   0.907  -0.314  0.00  0.00    +0.149 C 
ATOM     30  C   UNL     1       3.977   1.532   0.709  0.00  0.00    +0.159 C 
ATOM     31  C   UNL     1       2.582   1.673  -1.258  0.00  0.00    +0.022 C 
ATOM     32  C   UNL     1       4.006   2.925   0.788  0.00  0.00    +0.031 C 
ATOM     33  C   UNL     1       2.611   3.065  -1.180  0.00  0.00    +0.002 C 
ATOM     34  C   UNL     1       3.323   3.691  -0.157  0.00  0.00    +0.002 C 
ENDBRANCH  25  29
ENDBRANCH  23  25
ENDBRANCH  20  23
ENDBRANCH   3  20
TORSDOF 6
