134822412
  -OEChem-03292013293D

 44 46  0     1  0  0  0  0  0999 V2000
    0.2588   -2.2433    0.2125 O   0  0  0  0  0  0  0  0  0  0  0  0
   -0.3403    0.9905    1.4746 O   0  0  0  0  0  0  0  0  0  0  0  0
   -3.2622   -2.9173    0.1601 O   0  0  0  0  0  0  0  0  0  0  0  0
    0.9651   -0.7807    2.1784 O   0  0  0  0  0  0  0  0  0  0  0  0
   -0.7133   -4.3183    0.4274 O   0  0  0  0  0  0  0  0  0  0  0  0
    6.0323    0.1943   -0.5221 O   0  0  0  0  0  0  0  0  0  0  0  0
   -5.3383    3.1542   -0.8839 O   0  0  0  0  0  0  0  0  0  0  0  0
    3.6909    3.2798    0.7464 O   0  0  0  0  0  0  0  0  0  0  0  0
   -0.2288   -0.8929    0.0867 C   0  0  1  0  0  0  0  0  0  0  0  0
    0.4242   -0.2523   -1.1294 C   0  0  0  0  0  0  0  0  0  0  0  0
   -1.7100   -1.0513    0.0019 C   0  0  0  0  0  0  0  0  0  0  0  0
    1.9161   -0.1292   -0.9641 C   0  0  0  0  0  0  0  0  0  0  0  0
   -2.0294   -2.3421    0.1459 C   0  0  0  0  0  0  0  0  0  0  0  0
    0.2162   -0.2497    1.3694 C   0  0  0  0  0  0  0  0  0  0  0  0
   -2.6595    0.0517   -0.2303 C   0  0  0  0  0  0  0  0  0  0  0  0
   -0.7906   -3.1111    0.2840 C   0  0  0  0  0  0  0  0  0  0  0  0
    2.4617    1.0192   -0.3906 C   0  0  0  0  0  0  0  0  0  0  0  0
    2.7523   -1.1631   -1.3856 C   0  0  0  0  0  0  0  0  0  0  0  0
   -3.2156    0.7330    0.8525 C   0  0  0  0  0  0  0  0  0  0  0  0
   -3.0034    0.4134   -1.5329 C   0  0  0  0  0  0  0  0  0  0  0  0
    3.8435    1.1337   -0.2380 C   0  0  0  0  0  0  0  0  0  0  0  0
    4.1340   -1.0487   -1.2331 C   0  0  0  0  0  0  0  0  0  0  0  0
    4.6795    0.0998   -0.6593 C   0  0  0  0  0  0  0  0  0  0  0  0
   -4.1155    1.7757    0.6329 C   0  0  0  0  0  0  0  0  0  0  0  0
   -3.9034    1.4561   -1.7527 C   0  0  0  0  0  0  0  0  0  0  0  0
   -4.4594    2.1373   -0.6698 C   0  0  0  0  0  0  0  0  0  0  0  0
    0.0023    1.7200    2.6572 C   0  0  0  0  0  0  0  0  0  0  0  0
    4.3928    2.3416    0.3620 C   0  0  0  0  0  0  0  0  0  0  0  0
    0.0113    0.7464   -1.3230 H   0  0  0  0  0  0  0  0  0  0  0  0
    0.2192   -0.8437   -2.0324 H   0  0  0  0  0  0  0  0  0  0  0  0
    1.8045    1.8268   -0.0781 H   0  0  0  0  0  0  0  0  0  0  0  0
    2.3405   -2.0626   -1.8353 H   0  0  0  0  0  0  0  0  0  0  0  0
   -2.9713    0.4555    1.8749 H   0  0  0  0  0  0  0  0  0  0  0  0
   -2.5795   -0.1088   -2.3872 H   0  0  0  0  0  0  0  0  0  0  0  0
    4.7735   -1.8617   -1.5666 H   0  0  0  0  0  0  0  0  0  0  0  0
   -3.1336   -3.8745    0.2773 H   0  0  0  0  0  0  0  0  0  0  0  0
   -4.5477    2.3005    1.4804 H   0  0  0  0  0  0  0  0  0  0  0  0
   -4.1635    1.7279   -2.7722 H   0  0  0  0  0  0  0  0  0  0  0  0
   -0.4950    2.6924    2.6119 H   0  0  0  0  0  0  0  0  0  0  0  0
   -0.3494    1.1862    3.5451 H   0  0  0  0  0  0  0  0  0  0  0  0
    1.0836    1.8802    2.7044 H   0  0  0  0  0  0  0  0  0  0  0  0
    5.4884    2.4004    0.4686 H   0  0  0  0  0  0  0  0  0  0  0  0
    6.4442   -0.6153   -0.8697 H   0  0  0  0  0  0  0  0  0  0  0  0
   -5.4609    3.2681   -1.8420 H   0  0  0  0  0  0  0  0  0  0  0  0
  1  9  1  0  0  0  0
  1 16  1  0  0  0  0
  2 14  1  0  0  0  0
  2 27  1  0  0  0  0
  3 13  1  0  0  0  0
  3 36  1  0  0  0  0
  4 14  2  0  0  0  0
  5 16  2  0  0  0  0
  6 23  1  0  0  0  0
  6 43  1  0  0  0  0
  7 26  1  0  0  0  0
  7 44  1  0  0  0  0
  8 28  2  0  0  0  0
  9 10  1  0  0  0  0
  9 11  1  0  0  0  0
  9 14  1  0  0  0  0
 10 12  1  0  0  0  0
 10 29  1  0  0  0  0
 10 30  1  0  0  0  0
 11 13  2  0  0  0  0
 11 15  1  0  0  0  0
 12 17  2  0  0  0  0
 12 18  1  0  0  0  0
 13 16  1  0  0  0  0
 15 19  2  0  0  0  0
 15 20  1  0  0  0  0
 17 21  1  0  0  0  0
 17 31  1  0  0  0  0
 18 22  2  0  0  0  0
 18 32  1  0  0  0  0
 19 24  1  0  0  0  0
 19 33  1  0  0  0  0
 20 25  2  0  0  0  0
 20 34  1  0  0  0  0
 21 23  2  0  0  0  0
 21 28  1  0  0  0  0
 22 23  1  0  0  0  0
 22 35  1  0  0  0  0
 24 26  2  0  0  0  0
 24 37  1  0  0  0  0
 25 26  1  0  0  0  0
 25 38  1  0  0  0  0
 27 39  1  0  0  0  0
 27 40  1  0  0  0  0
 27 41  1  0  0  0  0
 28 42  1  0  0  0  0
M  END
> <PUBCHEM_COMPOUND_CID>
134822412

> <PUBCHEM_CONFORMER_RMSD>
0.8

> <PUBCHEM_CONFORMER_DIVERSEORDER>
1
54
5
52
49
6
50
42
36
18
46
17
51
29
30
43
47
53
25
32
38
10
34
22
9
41
15
35
33
44
7
8
21
37
48
16
31
40
39
24
45
23
20
28
19
13
14
26
27
12
11
3
4
2

> <PUBCHEM_MMFF94_PARTIAL_CHARGES>
39
1 -0.43
10 0.14
11 -0.17
12 -0.14
13 0.09
14 0.66
15 0.03
16 0.71
17 -0.15
18 -0.15
19 -0.15
2 -0.43
20 -0.15
21 0.09
22 -0.15
23 0.08
24 -0.15
25 -0.15
26 0.08
27 0.28
28 0.42
3 -0.53
31 0.15
32 0.15
33 0.15
34 0.15
35 0.15
36 0.45
37 0.15
38 0.15
4 -0.57
42 0.06
43 0.45
44 0.45
5 -0.57
6 -0.53
7 -0.53
8 -0.57
9 0.48

> <PUBCHEM_EFFECTIVE_ROTOR_COUNT>
6.4

> <PUBCHEM_PHARMACOPHORE_FEATURES>
9
1 3 donor
1 4 acceptor
1 5 acceptor
1 6 donor
1 7 donor
1 8 acceptor
5 1 9 11 13 16 rings
6 12 17 18 21 22 23 rings
6 15 19 20 24 25 26 rings

> <PUBCHEM_HEAVY_ATOM_COUNT>
28

> <PUBCHEM_ATOM_DEF_STEREO_COUNT>
0

> <PUBCHEM_ATOM_UDEF_STEREO_COUNT>
1

> <PUBCHEM_BOND_DEF_STEREO_COUNT>
0

> <PUBCHEM_BOND_UDEF_STEREO_COUNT>
0

> <PUBCHEM_ISOTOPIC_ATOM_COUNT>
0

> <PUBCHEM_COMPONENT_COUNT>
1

> <PUBCHEM_CACTVS_TAUTO_COUNT>
80

> <PUBCHEM_CONFORMER_ID>
08093A0C00000001

> <PUBCHEM_MMFF94_ENERGY>
75.9357

> <PUBCHEM_FEATURE_SELFOVERLAP>
45.672

> <PUBCHEM_SHAPE_FINGERPRINT>
10165383 225 18337681823924931665
11370993 70 18411139129954785702
11578080 2 18263656198420342308
11725454 13 17895200960794853561
11961588 58 18337094731791385373
12293681 160 18059293149844960161
12403259 415 18409457993813522316
12422481 6 17096909297103173346
12788726 201 17702670921737440696
12892183 10 12035456033746022757
131258 38 13849051218005318273
13583140 156 17968110728058034784
13965767 371 17822844265403328405
14251751 93 18260272966581138891
14251757 17 18341895246365253688
14251764 38 18192148415735731236
14713325 29 17906733953070712536
17349148 13 17917436385007739848
192875 21 17917154884313972876
19784866 34 18338799996831869149
200 152 16917074339163182414
20645477 56 18337684099540004967
20715895 44 18341327795439281536
21033648 144 18271811280427089612
21033648 29 18335138691636335604
23559900 14 18201727219824889998
3380486 145 17618233140172121867
3493558 16 18120654892337034789
350125 39 18408608067663572523
3729539 64 17831034433162103766
5283173 99 18412544348991388492
633830 44 18272087141611967221
7226269 152 18201436944101208056
7399639 24 17335334321730926104
7970288 3 10015566320989198429
9709674 26 18200891672418202718
9862522 239 17386272225775835055

> <PUBCHEM_SHAPE_MULTIPOLES>
529.27
9.99
3.7
1.71
4.29
1.99
-0.65
-7.98
3.87
-2.09
-0.74
-0.34
-0.63
1.65

> <PUBCHEM_SHAPE_SELFOVERLAP>
1166.932

> <PUBCHEM_SHAPE_VOLUME>
281.6

> <PUBCHEM_COORDINATE_TYPE>
2
5
10

$$$$
