REMARK  Name = 134821688
REMARK  11 active torsions:
REMARK  status: ('A' for Active; 'I' for Inactive)
REMARK    1  A    between atoms: C_1  and  O_2
REMARK    2  A    between atoms: C_1  and  C_11
REMARK    3  A    between atoms: C_1  and  C_16
REMARK    4  A    between atoms: O_2  and  C_4
REMARK    5  A    between atoms: C_4  and  C_5
REMARK    6  A    between atoms: C_5  and  C_6
REMARK    7  A    between atoms: C_6  and  C_7
REMARK    8  A    between atoms: C_7  and  C_10
REMARK    9  A    between atoms: C_11  and  N_12
REMARK   10  A    between atoms: C_16  and  C_18
REMARK   11  A    between atoms: C_18  and  O_19
REMARK                            x       y       z     vdW  Elec       q    Type
REMARK                         _______ _______ _______ _____ _____    ______ ____
ROOT
ATOM      1  C   UNL     1      -1.896   0.166  -0.596  0.00  0.00    +0.160 C 
ENDROOT
BRANCH   1   2
ATOM      2  O   UNL     1      -0.703   0.199   0.195  0.00  0.00    -0.454 OA
BRANCH   2   4
ATOM      3  O   UNL     1       0.567  -0.130  -1.703  0.00  0.00    -0.250 OA
ATOM      4  C   UNL     1       0.465   0.037  -0.495  0.00  0.00    +0.317 C 
BRANCH   4   5
ATOM      5  C   UNL     1       1.620   0.095   0.479  0.00  0.00    +0.110 C 
BRANCH   5   6
ATOM      6  C   UNL     1       2.968  -0.055  -0.223  0.00  0.00    +0.023 C 
BRANCH   6   7
ATOM      7  C   UNL     1       4.121  -0.037   0.775  0.00  0.00    +0.115 C 
BRANCH   7  10
ATOM      8  O   UNL     1       6.449  -0.251   1.020  0.00  0.00    -0.246 OA
ATOM      9  O   UNL     1       5.577  -0.322  -1.088  0.00  0.00    -0.246 OA
ATOM     10  C   UNL     1       5.515  -0.222   0.167  0.00  0.00    +0.365 C 
ENDBRANCH   7  10
ENDBRANCH   6   7
ENDBRANCH   5   6
ENDBRANCH   4   5
ENDBRANCH   2   4
ENDBRANCH   1   2
BRANCH   1  11
ATOM     11  C   UNL     1      -3.052  -0.358   0.252  0.00  0.00    -0.028 C 
BRANCH  11  12
ATOM     12  N   UNL     1      -3.046  -1.843   0.244  0.00  0.00    +0.388 N 
ATOM     13  C   UNL     1      -1.717  -2.384   0.789  0.00  0.00    -0.096 C 
ATOM     14  C   UNL     1      -3.233  -2.380  -1.181  0.00  0.00    -0.096 C 
ATOM     15  C   UNL     1      -4.181  -2.396   1.116  0.00  0.00    -0.096 C 
ENDBRANCH  11  12
ENDBRANCH   1  11
BRANCH   1  16
ATOM     16  C   UNL     1      -2.181   1.594  -1.059  0.00  0.00    +0.151 C 
BRANCH  16  18
ATOM     17  O   UNL     1      -3.545   2.730   0.583  0.00  0.00    -0.250 OA
ATOM     18  C   UNL     1      -2.435   2.507   0.116  0.00  0.00    +0.317 C 
BRANCH  18  19
ATOM     19  O   UNL     1      -1.294   3.050   0.610  0.00  0.00    -0.480 OA
ATOM     20  H   UNL     1      -0.469   2.847   0.214  0.00  0.00    +0.295 HD
ENDBRANCH  18  19
ENDBRANCH  16  18
ENDBRANCH   1  16
TORSDOF 11
