REMARK  Name = 134820350
REMARK  8 active torsions:
REMARK  status: ('A' for Active; 'I' for Inactive)
REMARK    1  A    between atoms: C_1  and  S_2
REMARK    2  A    between atoms: C_1  and  C_10
REMARK    3  A    between atoms: S_2  and  C_3
REMARK    4  A    between atoms: C_3  and  C_6
REMARK    5  A    between atoms: C_6  and  C_7
REMARK    6  A    between atoms: C_7  and  O_8
REMARK    7  A    between atoms: C_10  and  N_12
REMARK    8  A    between atoms: C_10  and  C_18
REMARK                            x       y       z     vdW  Elec       q    Type
REMARK                         _______ _______ _______ _____ _____    ______ ____
ROOT
ATOM      1  C   UNK A   1       0.189  -0.291  -0.763  0.00  0.00    +0.089 C 
ENDROOT
BRANCH   1   2
ATOM      2  S   UNK A   1      -0.539  -0.975   0.740  0.00  0.00    -0.139 S 
BRANCH   2   3
ATOM      3  C   UNK A   1      -2.167  -1.450   0.028  0.00  0.00    +0.042 C 
ATOM      4  C   UNK A   1      -1.916  -2.457  -1.101  0.00  0.00    +0.011 C 
ATOM      5  C   UNK A   1      -2.977  -2.128   1.143  0.00  0.00    +0.011 C 
BRANCH   3   6
ATOM      6  C   UNK A   1      -2.931  -0.201  -0.470  0.00  0.00    +0.042 C 
BRANCH   6   7
ATOM      7  C   UNK A   1      -3.149   0.914   0.553  0.00  0.00    +0.138 C 
BRANCH   7   8
ATOM      8  O   UNK A   1      -3.888   1.972  -0.050  0.00  0.00    -0.382 OA
ATOM      9  H   UNK A   1      -4.027   2.680   0.598  0.00  0.00    +0.210 HD
ENDBRANCH   7   8
ENDBRANCH   6   7
ENDBRANCH   3   6
ENDBRANCH   2   3
ENDBRANCH   1   2
BRANCH   1  10
ATOM     10  C   UNK A   1       1.367   0.651  -0.499  0.00  0.00    +0.187 C 
BRANCH  10  12
ATOM     11  O   UNK A   0       3.514  -1.188  -1.162  0.00  0.00    -0.275 OA
ATOM     12  N   UNK A   1       2.303   0.025   0.412  0.00  0.00    -0.296 N 
ATOM     13  C   UNK A   0       3.296  -0.842  -0.004  0.00  0.00    +0.223 C 
ATOM     14  C   UNK A   0       4.142  -1.328   1.143  0.00  0.00    +0.095 C 
ATOM     15  H   UNK A   1       2.227   0.226   1.373  0.00  0.00    +0.150 HD
ENDBRANCH  10  12
BRANCH  10  18
ATOM     16  O   UNK A   1       1.848   2.675   0.652  0.00  0.00    -0.244 OA
ATOM     17  O   UNK A   1      -0.098   2.527  -0.527  0.00  0.00    -0.244 OA
ATOM     18  C   UNK A   1       1.007   2.095  -0.094  0.00  0.00    +0.383 C 
ENDBRANCH  10  18
ENDBRANCH   1  10
TORSDOF 8
