134820297
  -OEChem-03292013293D

 60 61  0     1  0  0  0  0  0999 V2000
   -0.3818   -0.3218   -0.5857 S   0  0  0  0  0  0  0  0  0  0  0  0
   -4.5589   -4.3766   -0.4752 O   0  0  0  0  0  0  0  0  0  0  0  0
   -6.1523   -2.3199    1.8680 O   0  0  0  0  0  0  0  0  0  0  0  0
    4.1227    0.6200   -2.0410 O   0  0  0  0  0  0  0  0  0  0  0  0
    1.3601    2.3494    1.4456 O   0  0  0  0  0  0  0  0  0  0  0  0
    7.5412   -2.3089    2.3197 O   0  5  0  0  0  0  0  0  0  0  0  0
    7.5833   -0.2131    1.4201 O   0  0  0  0  0  0  0  0  0  0  0  0
   -0.8146    5.9747   -1.1132 O   0  5  0  0  0  0  0  0  0  0  0  0
   -2.6271    5.2289    0.0658 O   0  0  0  0  0  0  0  0  0  0  0  0
   -3.6240   -1.0871   -0.1109 N   0  0  0  0  0  0  0  0  0  0  0  0
   -4.4219   -2.1290    0.2611 N   0  0  0  0  0  0  0  0  0  0  0  0
    2.6559    0.7059   -0.2397 N   0  0  0  0  0  0  0  0  0  0  0  0
    6.0497   -3.3012    0.2391 N   0  3  0  0  0  0  0  0  0  0  0  0
    0.2015    3.4111   -0.2610 N   0  0  0  0  0  0  0  0  0  0  0  0
   -2.7637   -1.4971   -1.1032 C   0  0  0  0  0  0  0  0  0  0  0  0
   -3.9456    0.0268    0.6301 C   0  0  0  0  0  0  0  0  0  0  0  0
   -2.9695   -2.7981   -1.4067 C   0  0  0  0  0  0  0  0  0  0  0  0
   -4.9465   -0.2479    1.4959 C   0  0  0  0  0  0  0  0  0  0  0  0
   -4.0820   -3.2565   -0.5046 C   0  0  0  0  0  0  0  0  0  0  0  0
   -1.7644   -0.5817   -1.7201 C   0  0  0  0  0  0  0  0  0  0  0  0
   -5.2926   -1.6945    1.2740 C   0  0  0  0  0  0  0  0  0  0  0  0
   -3.2467    1.3298    0.4547 C   0  0  0  0  0  0  0  0  0  0  0  0
    1.6678    1.5713   -0.8324 C   0  0  1  0  0  0  0  0  0  0  0  0
    0.6049    0.7933   -1.6123 C   0  0  0  0  0  0  0  0  0  0  0  0
   -2.3284   -3.7142   -2.3773 C   0  0  0  0  0  0  0  0  0  0  0  0
   -5.6581    0.5764    2.4991 C   0  0  0  0  0  0  0  0  0  0  0  0
    5.9422   -1.0619   -0.7350 C   0  0  0  0  0  0  0  0  0  0  0  0
    4.6654   -0.6042   -0.0238 C   0  0  0  0  0  0  0  0  0  0  0  0
    6.8140   -2.0238    0.0823 C   0  0  1  0  0  0  0  0  0  0  0  0
    3.8102    0.2987   -0.8978 C   0  0  0  0  0  0  0  0  0  0  0  0
    1.0840    2.4723    0.2540 C   0  0  0  0  0  0  0  0  0  0  0  0
    7.3761   -1.4588    1.3983 C   0  0  0  0  0  0  0  0  0  0  0  0
   -0.4981    4.3613    0.5719 C   0  0  0  0  0  0  0  0  0  0  0  0
   -1.4028    5.2767   -0.2398 C   0  0  0  0  0  0  0  0  0  0  0  0
   -2.2271    0.3678   -2.0005 H   0  0  0  0  0  0  0  0  0  0  0  0
   -1.3657   -1.0106   -2.6448 H   0  0  0  0  0  0  0  0  0  0  0  0
    2.1899    2.2298   -1.5393 H   0  0  0  0  0  0  0  0  0  0  0  0
   -2.2274    1.2878    0.8422 H   0  0  0  0  0  0  0  0  0  0  0  0
   -3.7514    2.1316    1.0032 H   0  0  0  0  0  0  0  0  0  0  0  0
   -3.2381    1.6448   -0.5913 H   0  0  0  0  0  0  0  0  0  0  0  0
   -0.0702    1.4897   -2.1196 H   0  0  0  0  0  0  0  0  0  0  0  0
    1.0870    0.1885   -2.3887 H   0  0  0  0  0  0  0  0  0  0  0  0
   -1.9260   -4.5924   -1.8624 H   0  0  0  0  0  0  0  0  0  0  0  0
   -1.5025   -3.2391   -2.9131 H   0  0  0  0  0  0  0  0  0  0  0  0
   -3.0584   -4.0547   -3.1182 H   0  0  0  0  0  0  0  0  0  0  0  0
   -6.7215    0.6453    2.2493 H   0  0  0  0  0  0  0  0  0  0  0  0
   -5.2616    1.5933    2.5586 H   0  0  0  0  0  0  0  0  0  0  0  0
   -5.5673    0.1272    3.4932 H   0  0  0  0  0  0  0  0  0  0  0  0
    6.5347   -0.1768   -1.0019 H   0  0  0  0  0  0  0  0  0  0  0  0
    5.6763   -1.5363   -1.6894 H   0  0  0  0  0  0  0  0  0  0  0  0
    4.0486   -1.4660    0.2538 H   0  0  0  0  0  0  0  0  0  0  0  0
    4.9102   -0.0560    0.8926 H   0  0  0  0  0  0  0  0  0  0  0  0
    7.6839   -2.2971   -0.5277 H   0  0  0  0  0  0  0  0  0  0  0  0
    2.4832    0.3614    0.7007 H   0  0  0  0  0  0  0  0  0  0  0  0
    5.2434   -3.1925    0.8679 H   0  0  0  0  0  0  0  0  0  0  0  0
    6.6466   -4.0369    0.6403 H   0  0  0  0  0  0  0  0  0  0  0  0
    5.7005   -3.6528   -0.6626 H   0  0  0  0  0  0  0  0  0  0  0  0
    0.0664    3.4692   -1.2658 H   0  0  0  0  0  0  0  0  0  0  0  0
    0.2461    4.9616    1.1069 H   0  0  0  0  0  0  0  0  0  0  0  0
   -1.0695    3.8000    1.3195 H   0  0  0  0  0  0  0  0  0  0  0  0
  1 20  1  0  0  0  0
  1 24  1  0  0  0  0
  2 19  2  0  0  0  0
  3 21  2  0  0  0  0
  4 30  2  0  0  0  0
  5 31  2  0  0  0  0
  6 32  1  0  0  0  0
  7 32  2  0  0  0  0
  8 34  1  0  0  0  0
  9 34  2  0  0  0  0
 10 11  1  0  0  0  0
 10 15  1  0  0  0  0
 10 16  1  0  0  0  0
 11 19  1  0  0  0  0
 11 21  1  0  0  0  0
 12 23  1  0  0  0  0
 12 30  1  0  0  0  0
 12 54  1  0  0  0  0
 13 29  1  0  0  0  0
 13 55  1  0  0  0  0
 13 56  1  0  0  0  0
 13 57  1  0  0  0  0
 14 31  1  0  0  0  0
 14 33  1  0  0  0  0
 14 58  1  0  0  0  0
 15 17  2  0  0  0  0
 15 20  1  0  0  0  0
 16 18  2  0  0  0  0
 16 22  1  0  0  0  0
 17 19  1  0  0  0  0
 17 25  1  0  0  0  0
 18 21  1  0  0  0  0
 18 26  1  0  0  0  0
 20 35  1  0  0  0  0
 20 36  1  0  0  0  0
 22 38  1  0  0  0  0
 22 39  1  0  0  0  0
 22 40  1  0  0  0  0
 23 24  1  0  0  0  0
 23 31  1  0  0  0  0
 23 37  1  0  0  0  0
 24 41  1  0  0  0  0
 24 42  1  0  0  0  0
 25 43  1  0  0  0  0
 25 44  1  0  0  0  0
 25 45  1  0  0  0  0
 26 46  1  0  0  0  0
 26 47  1  0  0  0  0
 26 48  1  0  0  0  0
 27 28  1  0  0  0  0
 27 29  1  0  0  0  0
 27 49  1  0  0  0  0
 27 50  1  0  0  0  0
 28 30  1  0  0  0  0
 28 51  1  0  0  0  0
 28 52  1  0  0  0  0
 29 32  1  0  0  0  0
 29 53  1  0  0  0  0
 33 34  1  0  0  0  0
 33 59  1  0  0  0  0
 33 60  1  0  0  0  0
M  CHG  3   6  -1   8  -1  13   1
M  END
> <PUBCHEM_COMPOUND_CID>
134820297

> <PUBCHEM_CONFORMER_RMSD>
1.2

> <PUBCHEM_CONFORMER_DIVERSEORDER>
1
116
158
152
40
139
61
140
62
17
166
2
144
41
138
94
8
143
153
53
58
37
72
68
157
114
90
164
102
154
81
119
162
73
38
161
105
13
149
67
87
23
126
76
145
12
91
42
83
117
29
147
79
124
163
89
101
65
169
146
122
32
120
34
70
118
123
127
16
167
48
64
14
134
52
35
33
168
95
78
109
15
97
7
133
100
26
88
55
39
150
121
98
107
36
57
24
96
82
170
4
84
136
129
111
137
131
50
20
159
5
49
60
19
160
75
165
71
128
66
46
113
85
171
31
80
3
93
18
6
110
43
173
45
51
56
156
132
28
9
25
155
47
130
22
125
106
151
63
172
74
92
10
86
59
27
148
112
21
115
99
108
142
77
135
30
103
141
69
11
104
44
54

> <PUBCHEM_MMFF94_PARTIAL_CHARGES>
38
1 -0.46
10 -0.22
11 -0.1
12 -0.73
13 -0.85
14 -0.73
15 -0.04
16 -0.04
17 -0.12
18 -0.12
19 0.62
2 -0.57
20 0.37
21 0.62
22 0.14
23 0.36
24 0.23
25 0.14
26 0.14
28 0.06
29 0.4
3 -0.57
30 0.57
31 0.57
32 0.91
33 0.19
34 0.91
4 -0.57
5 -0.57
54 0.37
55 0.45
56 0.45
57 0.45
58 0.37
6 -0.9
7 -0.9
8 -0.9
9 -0.9

> <PUBCHEM_EFFECTIVE_ROTOR_COUNT>
14

> <PUBCHEM_PHARMACOPHORE_FEATURES>
16
1 12 donor
1 13 cation
1 13 donor
1 14 donor
1 2 acceptor
1 3 acceptor
1 4 acceptor
1 5 acceptor
1 6 acceptor
1 7 acceptor
1 8 acceptor
1 9 acceptor
3 6 7 32 anion
3 8 9 34 anion
5 10 11 15 17 19 rings
5 10 11 16 18 21 rings

> <PUBCHEM_HEAVY_ATOM_COUNT>
34

> <PUBCHEM_ATOM_DEF_STEREO_COUNT>
2

> <PUBCHEM_ATOM_UDEF_STEREO_COUNT>
0

> <PUBCHEM_BOND_DEF_STEREO_COUNT>
0

> <PUBCHEM_BOND_UDEF_STEREO_COUNT>
0

> <PUBCHEM_ISOTOPIC_ATOM_COUNT>
0

> <PUBCHEM_COMPONENT_COUNT>
1

> <PUBCHEM_CACTVS_TAUTO_COUNT>
4

> <PUBCHEM_CONFORMER_ID>
080931C900000001

> <PUBCHEM_MMFF94_ENERGY>
71.948

> <PUBCHEM_FEATURE_SELFOVERLAP>
81.568

> <PUBCHEM_SHAPE_FINGERPRINT>
11170278 141 18340466917138435304
11377469 6 17822290150740875924
12107183 9 18272101512720212907
12522641 68 9277957858943153168
13782708 43 16588298381116925618
14844126 61 18337952272987604649
15320294 125 18189627050836418917
15320295 40 17917702501566717237
15326921 28 18053100623259618697
16110190 28 18130790087790161854
19246450 95 18269569247589880753
19301679 30 18337401448059201718
21033648 29 16271939211069445462
229767 44 18201168641652005011
2838139 119 9583520932542373598
3504750 166 18265044748488441702
4409770 3 18265612083392943669
504843 32 17829887638176023652
5104073 3 17916312808230071643
513202 73 18409167675694731032
6058803 2 17554053521656862399

> <PUBCHEM_SHAPE_MULTIPOLES>
631.69
17.91
6.98
2
32.88
10.31
0.38
-20.51
12.39
-6.25
-1.91
-0.44
-1
-2.44

> <PUBCHEM_SHAPE_SELFOVERLAP>
1289.969

> <PUBCHEM_SHAPE_VOLUME>
367.3

> <PUBCHEM_COORDINATE_TYPE>
2
5
10

$$$$
