REMARK  Name = 134813
REMARK  13 active torsions:
REMARK  status: ('A' for Active; 'I' for Inactive)
REMARK    1  A    between atoms: N_2  and  CA_5
REMARK    2  A    between atoms: C_3  and  CA_20
REMARK    3  A    between atoms: CA_5  and  C_9
REMARK    4  A    between atoms: N_8  and  CA_11
REMARK    5  A    between atoms: CA_11  and  C_13
REMARK    6  A    between atoms: CA_11  and  CB_16
REMARK    7  A    between atoms: C_13  and  O_14
REMARK    8  A    between atoms: CB_16  and  CG_17
REMARK    9  A    between atoms: CA_20  and  N_22
REMARK   10  A    between atoms: CA_20  and  CB_31
REMARK   11  A    between atoms: C_23  and  CA_25
REMARK   12  A    between atoms: CA_25  and  N_27
REMARK   13  A    between atoms: CB_31  and  CG_32
REMARK                            x       y       z     vdW  Elec       q    Type
REMARK                         _______ _______ _______ _____ _____    ______ ____
ROOT
ATOM      1  O   LEU A   2       0.745  -0.809  -0.642  0.00  0.00    -0.273 OA
ATOM      2  N   ALA A   3       0.473   0.248   1.407  0.00  0.00    -0.297 N 
ATOM      3  C   LEU A   2       1.152  -0.048   0.234  0.00  0.00    +0.241 C 
ATOM      4  H   ALA A   3       0.890   0.873   2.044  0.00  0.00    +0.150 HD
ENDROOT
BRANCH   2   5
ATOM      5  CA  ALA A   3      -0.816  -0.314   1.741  0.00  0.00    +0.149 C 
ATOM      6  CB  ALA A   3      -0.967  -0.425   3.253  0.00  0.00    +0.031 C 
BRANCH   5   9
ATOM      7  O   ALA A   3      -1.763   1.809   1.049  0.00  0.00    -0.273 OA
ATOM      8  N   LEU A   4      -3.028  -0.118   0.792  0.00  0.00    -0.295 N 
ATOM      9  C   ALA A   3      -1.897   0.593   1.168  0.00  0.00    +0.241 C 
ATOM     10  H   LEU A   4      -3.039  -1.093   0.928  0.00  0.00    +0.150 HD
BRANCH   8  11
ATOM     11  CA  LEU A   4      -4.191   0.510   0.208  0.00  0.00    +0.171 C 
BRANCH  11  13
ATOM     12  OXT LEU A   4      -6.599   0.333   0.360  0.00  0.00    -0.248 OA
ATOM     13  C   LEU A   4      -5.499  -0.128   0.647  0.00  0.00    +0.332 C 
BRANCH  13  14
ATOM     14  O   LEU A   4      -5.356  -1.223   1.431  0.00  0.00    -0.479 OA
ATOM     15  H   LEU A   4      -4.500  -1.548   1.630  0.00  0.00    +0.295 HD
ENDBRANCH  13  14
ENDBRANCH  11  13
BRANCH  11  16
ATOM     16  CB  LEU A   4      -4.074   0.649  -1.317  0.00  0.00    +0.031 C 
BRANCH  16  17
ATOM     17  CG  LEU A   4      -3.640  -0.599  -2.120  0.00  0.00    +0.002 C 
ATOM     18  CD1 LEU A   4      -4.656  -1.725  -1.891  0.00  0.00    +0.000 C 
ATOM     19  CD2 LEU A   4      -3.492  -0.348  -3.619  0.00  0.00    +0.000 C 
ENDBRANCH  16  17
ENDBRANCH  11  16
ENDBRANCH   8  11
ENDBRANCH   5   9
ENDBRANCH   2   5
BRANCH   3  20
ATOM     20  CA  LEU A   2       2.511   0.641   0.169  0.00  0.00    +0.148 C 
BRANCH  20  22
ATOM     21  O   ALA A   1       4.042  -1.435   1.448  0.00  0.00    -0.277 OA
ATOM     22  N   LEU A   2       3.422  -0.277  -0.465  0.00  0.00    -0.300 N 
ATOM     23  C   ALA A   1       4.123  -1.253   0.235  0.00  0.00    +0.202 C 
ATOM     24  H   LEU A   2       3.555  -0.210  -1.438  0.00  0.00    +0.150 HD
BRANCH  23  25
ATOM     25  CA  ALA A   1       5.026  -2.077  -0.674  0.00  0.00    +0.013 C 
ATOM     26  CB  ALA A   1       4.283  -3.305  -1.184  0.00  0.00    -0.015 C 
BRANCH  25  27
ATOM     27  N   ALA A   1       6.203  -2.479   0.091  0.00  0.00    +0.387 N 
ATOM     28  H1  ALA A   1       6.691  -1.649   0.426  0.00  0.00    -0.089 HD
ATOM     29  H2  ALA A   1       6.827  -3.022  -0.506  0.00  0.00    -0.089 HD
ATOM     30  H3  ALA A   1       5.914  -3.048   0.886  0.00  0.00    -0.089 HD
ENDBRANCH  25  27
ENDBRANCH  23  25
ENDBRANCH  20  22
BRANCH  20  31
ATOM     31  CB  LEU A   2       2.398   1.967  -0.594  0.00  0.00    +0.029 C 
BRANCH  31  32
ATOM     32  CG  LEU A   2       3.727   2.731  -0.763  0.00  0.00    +0.002 C 
ATOM     33  CD1 LEU A   2       4.309   3.066   0.613  0.00  0.00    +0.000 C 
ATOM     34  CD2 LEU A   2       3.562   4.014  -1.578  0.00  0.00    +0.000 C 
ENDBRANCH  31  32
ENDBRANCH  20  31
ENDBRANCH   3  20
TORSDOF 13
