REMARK  Name = 134835
REMARK  12 active torsions:
REMARK  status: ('A' for Active; 'I' for Inactive)
REMARK    1  A    between atoms: C_1  and  N_2
REMARK    2  A    between atoms: C_1  and  C_19
REMARK    3  A    between atoms: C_1  and  C_23
REMARK    4  A    between atoms: N_2  and  CA_5
REMARK    5  A    between atoms: CA_5  and  C_13
REMARK    6  A    between atoms: CA_9  and  C_15
REMARK    7  A    between atoms: C_15  and  O_16
REMARK    8  A    between atoms: C_19  and  O_20
REMARK    9  A    between atoms: O_20  and  C_21
REMARK   10  A    between atoms: C_23  and  C_24
REMARK   11  A    between atoms: C_24  and  C_25
REMARK   12  A    between atoms: C_25  and  C_27
REMARK                            x       y       z     vdW  Elec       q    Type
REMARK                         _______ _______ _______ _____ _____    ______ ____
ROOT
ATOM      1  C   UNK A   0       0.779   0.743   1.118  0.00  0.00    +0.041 C 
ENDROOT
BRANCH   1   2
ATOM      2  N   ALA A   1       1.900   0.753   2.060  0.00  0.00    +0.399 N 
ATOM      3  H1  ALA A   1       1.765   1.508   2.733  0.00  0.00    -0.083 HD
ATOM      4  H2  ALA A   1       1.934  -0.146   2.539  0.00  0.00    -0.083 HD
BRANCH   2   5
ATOM      5  CA  ALA A   1       3.157   0.958   1.359  0.00  0.00    +0.018 C 
ATOM      6  CB  ALA A   1       4.226   1.466   2.312  0.00  0.00    -0.014 C 
BRANCH   5  13
ATOM      7  O   ALA A   1       3.268  -1.421   1.342  0.00  0.00    -0.277 OA
ATOM      8  N   ALA A   1       4.282  -0.303  -0.413  0.00  0.00    -0.273 N 
ATOM      9  CA  ALA A   1       4.613  -1.488  -1.195  0.00  0.00    +0.174 C 
ATOM     10  CB  ALA A   1       4.963  -0.952  -2.579  0.00  0.00    +0.033 C 
ATOM     11  CD  ALA A   1       4.655   0.918  -1.122  0.00  0.00    +0.094 C 
ATOM     12  CG  ALA A   1       5.506   0.446  -2.292  0.00  0.00    +0.024 C 
ATOM     13  C   ALA A   1       3.565  -0.370   0.771  0.00  0.00    +0.206 C 
BRANCH   9  15
ATOM     14  OXT ALA A   1       6.655  -1.549   0.096  0.00  0.00    -0.248 OA
ATOM     15  C   ALA A   1       5.791  -2.138  -0.535  0.00  0.00    +0.332 C 
BRANCH  15  16
ATOM     16  O   ALA A   1       5.772  -3.479  -0.737  0.00  0.00    -0.479 OA
ATOM     17  H   ALA A   1       5.079  -3.868  -1.232  0.00  0.00    +0.295 HD
ENDBRANCH  15  16
ENDBRANCH   9  15
ENDBRANCH   5  13
ENDBRANCH   2   5
ENDBRANCH   1   2
BRANCH   1  19
ATOM     18  O   UNK A   0       0.573   3.121   1.599  0.00  0.00    -0.252 OA
ATOM     19  C   UNK A   0       0.454   2.192   0.809  0.00  0.00    +0.297 C 
BRANCH  19  20
ATOM     20  O   UNK A   0       0.039   2.299  -0.488  0.00  0.00    -0.450 OA
BRANCH  20  21
ATOM     21  C   UNK A   0      -0.275   3.623  -0.929  0.00  0.00    +0.208 C 
ATOM     22  C   UNK A   0      -0.715   3.570  -2.377  0.00  0.00    +0.051 C 
ENDBRANCH  20  21
ENDBRANCH  19  20
ENDBRANCH   1  19
BRANCH   1  23
ATOM     23  C   UNK A   0      -0.422   0.029   1.751  0.00  0.00    -0.010 C 
BRANCH  23  24
ATOM     24  C   UNK A   0      -1.487  -0.360   0.717  0.00  0.00    +0.002 C 
BRANCH  24  25
ATOM     25  C   UNK A   0      -2.718  -1.023   1.339  0.00  0.00    +0.044 C 
BRANCH  25  27
ATOM     26  O   UNK A   0      -4.239  -0.113  -0.307  0.00  0.00    -0.479 OA
ATOM     27  C   UNK A   0      -3.808  -1.345   0.329  0.00  0.00    +0.170 C 
ATOM     28  C   UNK A   0      -5.027  -2.023   0.973  0.00  0.00    +0.073 C 
ATOM     29  C   UNK A   0      -6.099  -1.388   0.174  0.00  0.00    +0.015 C 
ATOM     30  C   UNK A   0      -5.584  -0.296  -0.507  0.00  0.00    +0.134 C 
ATOM     31  C   UNK A   0      -7.443  -1.704   0.095  0.00  0.00    -0.001 C 
ATOM     32  C   UNK A   0      -6.379   0.522  -1.286  0.00  0.00    +0.037 C 
ATOM     33  C   UNK A   0      -8.265  -0.898  -0.698  0.00  0.00    -0.000 C 
ATOM     34  C   UNK A   0      -7.736   0.209  -1.383  0.00  0.00    +0.003 C 
ENDBRANCH  25  27
ENDBRANCH  24  25
ENDBRANCH  23  24
ENDBRANCH   1  23
TORSDOF 12
