134920
  -OEChem-03292013323D

 44 46  0     1  0  0  0  0  0999 V2000
   -3.3597    0.6528    1.0552 P   0  0  2  0  0  0  0  0  0  0  0  0
    0.9875    1.4495    1.1149 O   0  0  0  0  0  0  0  0  0  0  0  0
    1.5457    4.0842   -0.2029 O   0  0  0  0  0  0  0  0  0  0  0  0
    2.9769    2.3383   -1.7332 O   0  0  0  0  0  0  0  0  0  0  0  0
   -1.7717    0.9458    1.0908 O   0  0  0  0  0  0  0  0  0  0  0  0
   -4.0478    2.0214    0.5497 O   0  0  0  0  0  0  0  0  0  0  0  0
    4.7662    0.2178    0.1075 O   0  0  0  0  0  0  0  0  0  0  0  0
   -3.9584    0.0050    2.2667 O   0  0  0  0  0  0  0  0  0  0  0  0
    2.4883   -0.1221    0.2533 N   0  0  0  0  0  0  0  0  0  0  0  0
   -3.5752   -0.4523   -0.1898 N   0  0  0  0  0  0  0  0  0  0  0  0
    4.0668   -1.9415    0.1071 N   0  0  0  0  0  0  0  0  0  0  0  0
   -3.4460   -2.3595   -1.3901 N   0  0  0  0  0  0  0  0  0  0  0  0
    3.3436   -4.1517    0.1052 N   0  0  0  0  0  0  0  0  0  0  0  0
    0.8535    2.9464   -0.7162 C   0  0  2  0  0  0  0  0  0  0  0  0
    0.0647    2.3221    0.4267 C   0  0  1  0  0  0  0  0  0  0  0  0
    1.8350    1.8466   -1.0621 C   0  0  2  0  0  0  0  0  0  0  0  0
    2.1625    1.2746    0.3064 C   0  0  1  0  0  0  0  0  0  0  0  0
   -1.1175    1.4856   -0.0441 C   0  0  0  0  0  0  0  0  0  0  0  0
    1.4578   -1.0484    0.3003 C   0  0  0  0  0  0  0  0  0  0  0  0
    3.8270   -0.5787    0.1533 C   0  0  0  0  0  0  0  0  0  0  0  0
    1.6676   -2.3627    0.2559 C   0  0  0  0  0  0  0  0  0  0  0  0
    3.0836   -2.8017    0.1527 C   0  0  0  0  0  0  0  0  0  0  0  0
   -3.0960   -1.7550   -0.2765 C   0  0  0  0  0  0  0  0  0  0  0  0
   -4.2833   -0.2534   -1.3682 C   0  0  0  0  0  0  0  0  0  0  0  0
   -4.1859   -1.4288   -2.0755 C   0  0  0  0  0  0  0  0  0  0  0  0
   -2.2851   -2.3340    0.8127 C   0  0  0  0  0  0  0  0  0  0  0  0
    0.2463    3.2795   -1.5618 H   0  0  0  0  0  0  0  0  0  0  0  0
   -0.2720    3.0663    1.1575 H   0  0  0  0  0  0  0  0  0  0  0  0
    1.3474    1.1052   -1.7064 H   0  0  0  0  0  0  0  0  0  0  0  0
    2.9891    1.8170    0.7805 H   0  0  0  0  0  0  0  0  0  0  0  0
   -0.8184    0.6616   -0.6960 H   0  0  0  0  0  0  0  0  0  0  0  0
   -1.8082    2.1207   -0.6084 H   0  0  0  0  0  0  0  0  0  0  0  0
    2.0081    3.8323    0.6137 H   0  0  0  0  0  0  0  0  0  0  0  0
    3.5940    1.5949   -1.8419 H   0  0  0  0  0  0  0  0  0  0  0  0
    0.4445   -0.6905    0.3742 H   0  0  0  0  0  0  0  0  0  0  0  0
    0.8695   -3.0919    0.2909 H   0  0  0  0  0  0  0  0  0  0  0  0
   -4.7758    0.6843   -1.5812 H   0  0  0  0  0  0  0  0  0  0  0  0
   -4.1199    2.7764    1.1717 H   0  0  0  0  0  0  0  0  0  0  0  0
   -4.6115   -1.6520   -3.0429 H   0  0  0  0  0  0  0  0  0  0  0  0
   -1.5237   -1.6434    1.1777 H   0  0  0  0  0  0  0  0  0  0  0  0
   -2.9253   -2.6184    1.6535 H   0  0  0  0  0  0  0  0  0  0  0  0
   -1.7735   -3.2372    0.4649 H   0  0  0  0  0  0  0  0  0  0  0  0
    2.6024   -4.8438    0.1389 H   0  0  0  0  0  0  0  0  0  0  0  0
    4.2950   -4.4965    0.0350 H   0  0  0  0  0  0  0  0  0  0  0  0
  1  5  1  0  0  0  0
  1  6  1  0  0  0  0
  1  8  2  0  0  0  0
  1 10  1  0  0  0  0
  2 15  1  0  0  0  0
  2 17  1  0  0  0  0
  3 14  1  0  0  0  0
  3 33  1  0  0  0  0
  4 16  1  0  0  0  0
  4 34  1  0  0  0  0
  5 18  1  0  0  0  0
  6 38  1  0  0  0  0
  7 20  2  0  0  0  0
  9 17  1  0  0  0  0
  9 19  1  0  0  0  0
  9 20  1  0  0  0  0
 10 23  1  0  0  0  0
 10 24  1  0  0  0  0
 11 20  1  0  0  0  0
 11 22  2  0  0  0  0
 12 23  2  0  0  0  0
 12 25  1  0  0  0  0
 13 22  1  0  0  0  0
 13 43  1  0  0  0  0
 13 44  1  0  0  0  0
 14 15  1  0  0  0  0
 14 16  1  0  0  0  0
 14 27  1  0  0  0  0
 15 18  1  0  0  0  0
 15 28  1  0  0  0  0
 16 17  1  0  0  0  0
 16 29  1  0  0  0  0
 17 30  1  0  0  0  0
 18 31  1  0  0  0  0
 18 32  1  0  0  0  0
 19 21  2  0  0  0  0
 19 35  1  0  0  0  0
 21 22  1  0  0  0  0
 21 36  1  0  0  0  0
 23 26  1  0  0  0  0
 24 25  2  0  0  0  0
 24 37  1  0  0  0  0
 25 39  1  0  0  0  0
 26 40  1  0  0  0  0
 26 41  1  0  0  0  0
 26 42  1  0  0  0  0
M  END
> <PUBCHEM_COMPOUND_CID>
134920

> <PUBCHEM_CONFORMER_RMSD>
0.8

> <PUBCHEM_CONFORMER_DIVERSEORDER>
1
243
286
109
208
112
116
257
74
322
9
320
123
278
81
51
173
231
315
44
303
219
327
77
195
180
237
163
202
88
323
153
280
210
228
139
259
316
292
118
242
10
283
301
230
130
245
140
166
197
211
255
194
33
78
62
188
80
310
205
307
146
226
54
102
201
234
69
284
198
281
171
302
196
241
238
305
326
85
189
260
18
28
97
267
291
162
209
274
155
99
287
216
223
233
3
151
84
200
207
181
42
300
70
110
193
7
212
63
121
115
308
282
106
204
55
218
203
289
93
251
191
235
89
190
186
249
79
131
285
192
125
111
306
265
128
37
275
262
119
73
311
314
297
129
90
57
24
239
67
220
92
68
183
244
27
264
60
217
8
317
22
325
222
4
53
17
273
277
40
221
168
270
26
66
248
160
240
154
59
246
247
126
6
29
117
319
304
136
45
250
266
95
21
71
258
52
147
312
43
94
206
179
134
213
224
39
295
91
75
64
34
101
294
38
133
159
232
268
149
276
167
225
313
169
214
299
161
114
182
256
170
41
100
215
108
104
145
175
12
187
184
141
96
135
164
144
132
16
35
113
103
13
330
87
19
176
321
148
5
50
137
124
20
25
261
36
318
127
65
143
254
236
122
165
150
157
2
177
227
72
178
105
83
172
298
279
185
329
269
31
138
324
76
252
199
11
229
48
272
107
328
263
296
142
158
253
61
32
56
49
288
82
58
86
14
152
174
46
30
120
156
15
309
47
293
23
271
98
290

> <PUBCHEM_MMFF94_PARTIAL_CHARGES>
35
1 1.36
10 0.19
11 -0.66
12 -0.57
13 -0.85
14 0.28
15 0.28
16 0.28
17 0.58
18 0.28
19 -0.04
2 -0.56
20 0.84
21 -0.14
22 0.49
23 0.01
24 -0.3
25 0.08
26 0.18
3 -0.68
33 0.4
34 0.4
35 0.15
36 0.15
37 0.15
38 0.5
39 0.15
4 -0.68
43 0.4
44 0.4
5 -0.55
6 -0.77
7 -0.57
8 -0.7
9 -0.47

> <PUBCHEM_EFFECTIVE_ROTOR_COUNT>
6

> <PUBCHEM_PHARMACOPHORE_FEATURES>
14
1 11 donor
1 13 donor
1 2 acceptor
1 3 acceptor
1 3 donor
1 4 acceptor
1 4 donor
1 6 acceptor
1 7 acceptor
1 8 acceptor
3 10 12 23 cation
5 10 12 23 24 25 rings
5 2 14 15 16 17 rings
6 9 11 19 20 21 22 rings

> <PUBCHEM_HEAVY_ATOM_COUNT>
26

> <PUBCHEM_ATOM_DEF_STEREO_COUNT>
4

> <PUBCHEM_ATOM_UDEF_STEREO_COUNT>
0

> <PUBCHEM_BOND_DEF_STEREO_COUNT>
0

> <PUBCHEM_BOND_UDEF_STEREO_COUNT>
0

> <PUBCHEM_ISOTOPIC_ATOM_COUNT>
0

> <PUBCHEM_COMPONENT_COUNT>
1

> <PUBCHEM_CACTVS_TAUTO_COUNT>
3

> <PUBCHEM_CONFORMER_ID>
00020F0800000001

> <PUBCHEM_MMFF94_ENERGY>
50.7446

> <PUBCHEM_FEATURE_SELFOVERLAP>
71.116

> <PUBCHEM_SHAPE_FINGERPRINT>
10042902 136 17988370278072716038
10369192 42 16447890895808928309
10764073 3 18046093522525189891
11069576 57 18056455456536976263
11578080 2 17987492902001222897
12553582 1 18336835212265368650
12596599 1 17774167790314488047
13004483 165 17975409118670953968
13257819 101 15359117082121744692
13533116 47 18340483482663134959
14787075 74 18130786819710751872
14790565 3 18193001637244071452
15537594 2 18268729258564639562
17357779 13 17968374550624212724
20645477 70 18115300215159546161
20775530 9 18192997011321479714
23557571 272 15051740798189229971
23559900 14 18267849748436933321
238 59 18119246417951629755
26353 1 17822289037806685732
392239 28 18060692893278445624
445580 102 18120662593334741355
46194498 28 17676481787361291293
463206 1 18409170995540368018
59682541 52 18193810800655740959

> <PUBCHEM_SHAPE_MULTIPOLES>
472.93
9.18
4.43
1.43
2.97
0.15
-0.17
4.5
-1.14
-3.69
-0.55
1.85
-0.11
-1.86

> <PUBCHEM_SHAPE_SELFOVERLAP>
990.912

> <PUBCHEM_SHAPE_VOLUME>
269.5

> <PUBCHEM_COORDINATE_TYPE>
2
5
10

$$$$
