REMARK  Name = 134906
REMARK  9 active torsions:
REMARK  status: ('A' for Active; 'I' for Inactive)
REMARK    1  A    between atoms: N_2  and  CA_5
REMARK    2  A    between atoms: C_3  and  CA_21
REMARK    3  A    between atoms: CA_5  and  C_7
REMARK    4  A    between atoms: CA_5  and  CB_10
REMARK    5  A    between atoms: C_7  and  O_8
REMARK    6  A    between atoms: CB_10  and  CG_12
REMARK    7  A    between atoms: CA_21  and  N_22
REMARK    8  A    between atoms: CA_21  and  CB_26
REMARK    9  A    between atoms: CB_26  and  CG_27
REMARK                            x       y       z     vdW  Elec       q    Type
REMARK                         _______ _______ _______ _____ _____    ______ ____
ROOT
ATOM      1  O   PHE A   1       0.483   0.174   2.072  0.00  0.00    -0.277 OA
ATOM      2  N   TRP A   2       0.237  -0.458  -0.146  0.00  0.00    -0.298 N 
ATOM      3  C   PHE A   1       0.493   0.448   0.873  0.00  0.00    +0.203 C 
ATOM      4  H   TRP A   2       0.267  -0.147  -1.079  0.00  0.00    +0.150 HD
ENDROOT
BRANCH   2   5
ATOM      5  CA  TRP A   2      -0.072  -1.843   0.119  0.00  0.00    +0.176 C 
BRANCH   5   7
ATOM      6  OXT TRP A   2       1.007  -3.973  -0.271  0.00  0.00    -0.248 OA
ATOM      7  C   TRP A   2       1.005  -2.759  -0.445  0.00  0.00    +0.332 C 
BRANCH   7   8
ATOM      8  O   TRP A   2       1.974  -2.130  -1.152  0.00  0.00    -0.479 OA
ATOM      9  H   TRP A   2       1.943  -1.200  -1.265  0.00  0.00    +0.295 HD
ENDBRANCH   7   8
ENDBRANCH   5   7
BRANCH   5  10
ATOM     10  CB  TRP A   2      -1.443  -2.231  -0.452  0.00  0.00    +0.059 C 
BRANCH  10  12
ATOM     11  NE1 TRP A   2      -4.216  -0.693   1.360  0.00  0.00    -0.312 N 
ATOM     12  CG  TRP A   2      -2.568  -1.394   0.089  0.00  0.00    -0.004 C 
ATOM     13  CD2 TRP A   2      -3.040  -0.191  -0.469  0.00  0.00    +0.011 C 
ATOM     14  CE2 TRP A   2      -4.085   0.237   0.353  0.00  0.00    +0.048 C 
ATOM     15  CD1 TRP A   2      -3.292  -1.691   1.203  0.00  0.00    +0.058 C 
ATOM     16  CE3 TRP A   2      -2.695   0.591  -1.589  0.00  0.00    +0.001 C 
ATOM     17  CZ2 TRP A   2      -4.805   1.412   0.109  0.00  0.00    +0.015 C 
ATOM     18  CZ3 TRP A   2      -3.406   1.768  -1.846  0.00  0.00    +0.000 C 
ATOM     19  CH2 TRP A   2      -4.444   2.171  -1.008  0.00  0.00    +0.001 C 
ATOM     20  HE1 TRP A   2      -4.878  -0.646   2.087  0.00  0.00    +0.152 HD
ENDBRANCH  10  12
ENDBRANCH   5  10
ENDBRANCH   2   5
BRANCH   3  21
ATOM     21  CA  PHE A   1       0.821   1.843   0.348  0.00  0.00    +0.017 C 
BRANCH  21  22
ATOM     22  N   PHE A   1      -0.209   2.742   0.868  0.00  0.00    +0.388 N 
ATOM     23  H1  PHE A   1      -0.029   3.691   0.541  0.00  0.00    -0.089 HD
ATOM     24  H2  PHE A   1      -0.192   2.726   1.888  0.00  0.00    -0.089 HD
ATOM     25  H3  PHE A   1      -1.125   2.437   0.539  0.00  0.00    -0.089 HD
ENDBRANCH  21  22
BRANCH  21  26
ATOM     26  CB  PHE A   1       2.205   2.296   0.834  0.00  0.00    +0.013 C 
BRANCH  26  27
ATOM     27  CG  PHE A   1       3.322   1.416   0.324  0.00  0.00    -0.024 C 
ATOM     28  CD1 PHE A   1       3.712   0.315   1.068  0.00  0.00    -0.004 C 
ATOM     29  CD2 PHE A   1       3.935   1.728  -0.879  0.00  0.00    -0.004 C 
ATOM     30  CE1 PHE A   1       4.744  -0.497   0.597  0.00  0.00    -0.000 C 
ATOM     31  CE2 PHE A   1       4.966   0.915  -1.350  0.00  0.00    -0.000 C 
ATOM     32  CZ  PHE A   1       5.371  -0.197  -0.612  0.00  0.00    -0.000 C 
ENDBRANCH  26  27
ENDBRANCH  21  26
ENDBRANCH   3  21
TORSDOF 9
