REMARK  Name = 134952
REMARK  10 active torsions:
REMARK  status: ('A' for Active; 'I' for Inactive)
REMARK    1  A    between atoms: C_1  and  C_2
REMARK    2  A    between atoms: C_1  and  C_13
REMARK    3  A    between atoms: C_2  and  C_3
REMARK    4  A    between atoms: C_3  and  C_4
REMARK    5  A    between atoms: C_4  and  S_5
REMARK    6  A    between atoms: S_5  and  S_6
REMARK    7  A    between atoms: S_6  and  C_7
REMARK    8  A    between atoms: C_13  and  C_15
REMARK    9  A    between atoms: C_15  and  O_16
REMARK   10  A    between atoms: O_16  and  N_19
REMARK                            x       y       z     vdW  Elec       q    Type
REMARK                         _______ _______ _______ _____ _____    ______ ____
ROOT
ATOM      1  C   UNL     1       1.795   0.880   0.182  0.00  0.00    +0.012 C 
ENDROOT
BRANCH   1   2
ATOM      2  C   UNL     1       0.536   1.253  -0.605  0.00  0.00    +0.001 C 
BRANCH   2   3
ATOM      3  C   UNL     1      -0.680   1.370   0.320  0.00  0.00    +0.013 C 
BRANCH   3   4
ATOM      4  C   UNL     1      -1.949   1.838  -0.391  0.00  0.00    +0.069 C 
BRANCH   4   5
ATOM      5  S   UNL     1      -2.469   0.719  -1.725  0.00  0.00    -0.078 S 
BRANCH   5   6
ATOM      6  S   UNL     1      -2.770  -1.034  -0.696  0.00  0.00    -0.055 S 
BRANCH   6   7
ATOM      7  C   UNL     1      -4.489  -0.901  -0.237  0.00  0.00    +0.035 C 
ATOM      8  C   UNL     1      -4.842  -0.300   0.970  0.00  0.00    +0.007 C 
ATOM      9  C   UNL     1      -5.477  -1.397  -1.087  0.00  0.00    +0.007 C 
ATOM     10  C   UNL     1      -6.186  -0.195   1.329  0.00  0.00    +0.001 C 
ATOM     11  C   UNL     1      -6.821  -1.292  -0.728  0.00  0.00    +0.001 C 
ATOM     12  C   UNL     1      -7.175  -0.691   0.479  0.00  0.00    +0.000 C 
ENDBRANCH   6   7
ENDBRANCH   5   6
ENDBRANCH   4   5
ENDBRANCH   3   4
ENDBRANCH   2   3
ENDBRANCH   1   2
BRANCH   1  13
ATOM     13  C   UNL     1       3.004   0.736  -0.740  0.00  0.00    +0.112 C 
BRANCH  13  15
ATOM     14  O   UNL     1       4.310   0.150   1.226  0.00  0.00    -0.248 OA
ATOM     15  C   UNL     1       4.249   0.329   0.017  0.00  0.00    +0.340 C 
BRANCH  15  16
ATOM     16  O   UNL     1       5.280   0.199  -0.870  0.00  0.00    -0.336 OA
BRANCH  16  19
ATOM     17  O   UNL     1       6.193  -2.483  -0.397  0.00  0.00    -0.267 OA
ATOM     18  O   UNL     1       7.344   1.954   0.082  0.00  0.00    -0.267 OA
ATOM     19  N   UNL     1       6.475  -0.181  -0.219  0.00  0.00    -0.054 N 
ATOM     20  C   UNL     1       8.108  -1.500   0.709  0.00  0.00    +0.066 C 
ATOM     21  C   UNL     1       8.491  -0.027   0.868  0.00  0.00    +0.066 C 
ATOM     22  C   UNL     1       6.805  -1.487  -0.043  0.00  0.00    +0.287 C 
ATOM     23  C   UNL     1       7.383   0.739   0.197  0.00  0.00    +0.287 C 
ENDBRANCH  16  19
ENDBRANCH  15  16
ENDBRANCH  13  15
ENDBRANCH   1  13
TORSDOF 10
REMARK  Name = 134952
REMARK  10 active torsions:
REMARK  status: ('A' for Active; 'I' for Inactive)
REMARK    1  A    between atoms: C_1  and  C_2
REMARK    2  A    between atoms: C_1  and  C_13
REMARK    3  A    between atoms: C_2  and  C_3
REMARK    4  A    between atoms: C_3  and  C_4
REMARK    5  A    between atoms: C_4  and  S_5
REMARK    6  A    between atoms: S_5  and  S_6
REMARK    7  A    between atoms: S_6  and  C_7
REMARK    8  A    between atoms: C_13  and  C_15
REMARK    9  A    between atoms: C_15  and  O_16
REMARK   10  A    between atoms: O_16  and  N_19
REMARK                            x       y       z     vdW  Elec       q    Type
REMARK                         _______ _______ _______ _____ _____    ______ ____
ROOT
ATOM      1  N   UNL     1      -9.052   0.472   0.440  0.00  0.00    +0.000 NA
ATOM      2  N   UNL     1      -9.541   1.438   0.078  0.00  0.00    +0.000 NA
ENDROOT
TORSDOF 0
