REMARK  Name = 134920
REMARK  8 active torsions:
REMARK  status: ('A' for Active; 'I' for Inactive)
REMARK    1  A    between atoms: C_2  and  O_16
REMARK    2  A    between atoms: C_3  and  C_20
REMARK    3  A    between atoms: C_4  and  O_18
REMARK    4  A    between atoms: C_5  and  N_7
REMARK    5  A    between atoms: C_20  and  O_21
REMARK    6  A    between atoms: O_21  and  P_22
REMARK    7  A    between atoms: P_22  and  N_24
REMARK    8  A    between atoms: P_22  and  O_30
REMARK                            x       y       z     vdW  Elec       q    Type
REMARK                         _______ _______ _______ _____ _____    ______ ____
ROOT
ATOM      1  O   UNL     1       0.988   1.450   1.115  0.00  0.00    -0.332 OA
ATOM      2  C   UNL     1       0.854   2.946  -0.716  0.00  0.00    +0.171 C 
ATOM      3  C   UNL     1       0.065   2.322   0.427  0.00  0.00    +0.176 C 
ATOM      4  C   UNL     1       1.835   1.847  -1.062  0.00  0.00    +0.188 C 
ATOM      5  C   UNL     1       2.163   1.275   0.306  0.00  0.00    +0.236 C 
ENDROOT
BRANCH   5   7
ATOM      6  O   UNL     1       4.766   0.218   0.107  0.00  0.00    -0.193 OA
ATOM      7  N   UNL     1       2.488  -0.122   0.253  0.00  0.00    -0.178 N 
ATOM      8  N   UNL     1       4.067  -1.942   0.107  0.00  0.00    -0.306 NA
ATOM      9  N   UNL     1       3.344  -4.152   0.105  0.00  0.00    -0.332 N 
ATOM     10  C   UNL     1       1.458  -1.048   0.300  0.00  0.00    +0.083 C 
ATOM     11  C   UNL     1       3.827  -0.579   0.153  0.00  0.00    +0.276 C 
ATOM     12  C   UNL     1       1.668  -2.363   0.256  0.00  0.00    +0.065 C 
ATOM     13  C   UNL     1       3.084  -2.802   0.153  0.00  0.00    +0.193 C 
ATOM     14  H   UNL     1       4.272  -4.472   0.037  0.00  0.00    +0.145 HD
ATOM     15  H   UNL     1       2.601  -4.797   0.140  0.00  0.00    +0.145 HD
ENDBRANCH   5   7
BRANCH   2  16
ATOM     16  O   UNL     1       1.546   4.084  -0.203  0.00  0.00    -0.379 OA
ATOM     17  H   UNL     1       0.906   4.781   0.015  0.00  0.00    +0.211 HD
ENDBRANCH   2  16
BRANCH   4  18
ATOM     18  O   UNL     1       2.977   2.338  -1.733  0.00  0.00    -0.378 OA
ATOM     19  H   UNL     1       2.716   2.691  -2.598  0.00  0.00    +0.211 HD
ENDBRANCH   4  18
BRANCH   3  20
ATOM     20  C   UNL     1      -1.117   1.486  -0.044  0.00  0.00    +0.185 C 
BRANCH  20  21
ATOM     21  O   UNL     1      -1.772   0.946   1.091  0.00  0.00    -0.277 OA
BRANCH  21  22
ATOM     22  P   UNL     1      -3.360   0.653   1.055  0.00  0.00    +0.433 P 
ATOM     23  O   UNL     1      -3.958   0.005   2.267  0.00  0.00    -0.236 OA
BRANCH  22  24
ATOM     24  N   UNL     1      -3.575  -0.452  -0.190  0.00  0.00    -0.190 N 
ATOM     25  N   UNL     1      -3.446  -2.360  -1.390  0.00  0.00    -0.231 NA
ATOM     26  C   UNL     1      -3.096  -1.755  -0.277  0.00  0.00    +0.121 C 
ATOM     27  C   UNL     1      -4.283  -0.253  -1.368  0.00  0.00    +0.097 C 
ATOM     28  C   UNL     1      -4.186  -1.429  -2.075  0.00  0.00    +0.117 C 
ATOM     29  C   UNL     1      -2.285  -2.334   0.813  0.00  0.00    +0.070 C 
ENDBRANCH  22  24
BRANCH  22  30
ATOM     30  O   UNL     1      -4.048   2.021   0.550  0.00  0.00    -0.309 OA
ATOM     31  H   UNL     1      -3.954   2.703   1.234  0.00  0.00    +0.221 HD
ENDBRANCH  22  30
ENDBRANCH  21  22
ENDBRANCH  20  21
ENDBRANCH   3  20
TORSDOF 8
