REMARK  Name = 134993
REMARK  12 active torsions:
REMARK  status: ('A' for Active; 'I' for Inactive)
REMARK    1  A    between atoms: CA_5  and  N_11
REMARK    2  A    between atoms: CA_7  and  C_25
REMARK    3  A    between atoms: C_8  and  C_28
REMARK    4  A    between atoms: C_12  and  C_14
REMARK    5  A    between atoms: C_14  and  C_15
REMARK    6  A    between atoms: C_15  and  C_16
REMARK    7  A    between atoms: C_16  and  C_17
REMARK    8  A    between atoms: C_17  and  O_18
REMARK    9  A    between atoms: C_17  and  C_21
REMARK   10  A    between atoms: C_21  and  O_22
REMARK   11  A    between atoms: C_25  and  O_26
REMARK   12  A    between atoms: C_28  and  O_29
REMARK                            x       y       z     vdW  Elec       q    Type
REMARK                         _______ _______ _______ _____ _____    ______ ____
ROOT
ATOM      1  S   UNL     1       2.304  -2.136   1.094  0.00  0.00    -0.114 S 
ATOM      2  O   UNL     1       1.437   2.296  -0.012  0.00  0.00    -0.273 OA
ATOM      3  N   UNL     1       2.760   0.397   0.443  0.00  0.00    -0.242 N 
ATOM      4  C   UNL     1       2.441  -0.408   1.607  0.00  0.00    +0.155 C 
ATOM      5  CA  UNL     1       1.123   0.393   1.682  0.00  0.00    +0.178 C 
ATOM      6  C   UNL     1       1.748   1.283   0.570  0.00  0.00    +0.251 C 
ATOM      7  CA  UNL     1       3.807   0.148  -0.384  0.00  0.00    +0.126 C 
ATOM      8  C   UNL     1       4.462  -1.037  -0.358  0.00  0.00    +0.016 C 
ATOM      9  C   UNL     1       4.031  -2.216   0.512  0.00  0.00    +0.085 C 
ENDROOT
BRANCH   5  11
ATOM     10  O   UNL     1      -1.423   1.655   1.136  0.00  0.00    -0.275 OA
ATOM     11  N   UNL     1      -0.129  -0.268   1.273  0.00  0.00    -0.296 N 
ATOM     12  C   UNL     1      -1.299   0.436   1.035  0.00  0.00    +0.223 C 
ATOM     13  H   UNL     1      -0.134  -1.246   1.163  0.00  0.00    +0.150 HD
BRANCH  12  14
ATOM     14  C   UNL     1      -2.458  -0.454   0.636  0.00  0.00    +0.085 C 
BRANCH  14  15
ATOM     15  C   UNL     1      -3.742   0.334   0.377  0.00  0.00    +0.013 C 
BRANCH  15  16
ATOM     16  C   UNL     1      -4.931  -0.514  -0.098  0.00  0.00    +0.041 C 
BRANCH  16  17
ATOM     17  C   UNL     1      -6.180   0.293  -0.458  0.00  0.00    +0.209 C 
BRANCH  17  18
ATOM     18  O   UNL     1      -6.686   0.912   0.717  0.00  0.00    -0.374 OA
ATOM     19  H   UNL     1      -6.010   1.498   1.090  0.00  0.00    +0.211 HD
ENDBRANCH  17  18
BRANCH  17  21
ATOM     20  O   UNL     1      -8.351  -0.803  -0.480  0.00  0.00    -0.248 OA
ATOM     21  C   UNL     1      -7.264  -0.613  -1.009  0.00  0.00    +0.341 C 
BRANCH  21  22
ATOM     22  O   UNL     1      -6.888  -1.218  -2.165  0.00  0.00    -0.479 OA
ATOM     23  H   UNL     1      -6.045  -1.041  -2.534  0.00  0.00    +0.295 HD
ENDBRANCH  21  22
ENDBRANCH  17  21
ENDBRANCH  16  17
ENDBRANCH  15  16
ENDBRANCH  14  15
ENDBRANCH  12  14
ENDBRANCH   5  11
BRANCH   7  25
ATOM     24  OXT UNL     1       4.103   1.060  -2.559  0.00  0.00    -0.244 OA
ATOM     25  C   UNL     1       4.157   1.197  -1.354  0.00  0.00    +0.351 C 
BRANCH  25  26
ATOM     26  O   UNL     1       4.537   2.308  -0.692  0.00  0.00    -0.476 OA
ATOM     27  H   UNL     1       4.545   2.316   0.245  0.00  0.00    +0.295 HD
ENDBRANCH  25  26
ENDBRANCH   7  25
BRANCH   8  28
ATOM     28  C   UNL     1       5.683  -1.361  -1.185  0.00  0.00    +0.162 C 
BRANCH  28  29
ATOM     29  O   UNL     1       6.757  -1.684  -0.327  0.00  0.00    -0.377 OA
ATOM     30  H   UNL     1       7.543  -1.892  -0.857  0.00  0.00    +0.211 HD
ENDBRANCH  28  29
ENDBRANCH   8  28
TORSDOF 12
