REMARK  Name = 134922
REMARK  8 active torsions:
REMARK  status: ('A' for Active; 'I' for Inactive)
REMARK    1  A    between atoms: C_2  and  O_15
REMARK    2  A    between atoms: C_3  and  O_17
REMARK    3  A    between atoms: C_4  and  C_19
REMARK    4  A    between atoms: C_5  and  N_8
REMARK    5  A    between atoms: C_19  and  O_20
REMARK    6  A    between atoms: O_20  and  P_21
REMARK    7  A    between atoms: P_21  and  C_25
REMARK    8  A    between atoms: P_21  and  O_29
REMARK                            x       y       z     vdW  Elec       q    Type
REMARK                         _______ _______ _______ _____ _____    ______ ____
ROOT
ATOM      1  O   UNL     1       1.054   2.108   0.987  0.00  0.00    -0.333 OA
ATOM      2  C   UNL     1      -0.524   2.219  -0.776  0.00  0.00    +0.171 C 
ATOM      3  C   UNL     1       0.532   1.194  -1.136  0.00  0.00    +0.187 C 
ATOM      4  C   UNL     1      -0.348   2.342   0.731  0.00  0.00    +0.176 C 
ATOM      5  C   UNL     1       1.665   1.565  -0.195  0.00  0.00    +0.229 C 
ENDROOT
BRANCH   5   8
ATOM      6  O   UNL     1       4.045   0.803  -1.510  0.00  0.00    -0.252 OA
ATOM      7  O   UNL     1       4.658  -2.801   1.298  0.00  0.00    -0.270 OA
ATOM      8  N   UNL     1       2.466   0.433   0.172  0.00  0.00    -0.217 N 
ATOM      9  N   UNL     1       4.348  -0.992  -0.112  0.00  0.00    -0.236 N 
ATOM     10  C   UNL     1       3.644   0.136  -0.555  0.00  0.00    +0.315 C 
ATOM     11  C   UNL     1       2.085  -0.370   1.240  0.00  0.00    +0.076 C 
ATOM     12  C   UNL     1       2.767  -1.442   1.651  0.00  0.00    +0.074 C 
ATOM     13  C   UNL     1       4.008  -1.821   0.946  0.00  0.00    +0.254 C 
ATOM     14  H   UNL     1       5.171  -1.218  -0.602  0.00  0.00    +0.159 HD
ENDBRANCH   5   8
BRANCH   2  15
ATOM     15  O   UNL     1      -0.207   3.482  -1.361  0.00  0.00    -0.379 OA
ATOM     16  H   UNL     1      -0.312   3.428  -2.324  0.00  0.00    +0.211 HD
ENDBRANCH   2  15
BRANCH   3  17
ATOM     17  O   UNL     1       0.908   1.266  -2.496  0.00  0.00    -0.378 OA
ATOM     18  H   UNL     1       0.154   1.021  -3.054  0.00  0.00    +0.211 HD
ENDBRANCH   3  17
BRANCH   4  19
ATOM     19  C   UNL     1      -1.151   1.314   1.517  0.00  0.00    +0.184 C 
BRANCH  19  20
ATOM     20  O   UNL     1      -2.527   1.498   1.229  0.00  0.00    -0.287 OA
BRANCH  20  21
ATOM     21  P   UNL     1      -3.532   0.232   1.276  0.00  0.00    +0.391 P 
ATOM     22  O   UNL     1      -4.944   0.534   0.864  0.00  0.00    -0.251 OA
BRANCH  21  25
ATOM     23  N   UNL     1      -2.943  -0.844  -1.254  0.00  0.00    -0.350 NA
ATOM     24  N   UNL     1      -2.269  -2.910  -0.784  0.00  0.00    -0.206 NA
ATOM     25  C   UNL     1      -2.996  -1.029   0.069  0.00  0.00    +0.224 C 
ATOM     26  C   UNL     1      -2.584  -2.295   0.376  0.00  0.00    +0.204 C 
ATOM     27  C   UNL     1      -2.494  -2.010  -1.765  0.00  0.00    +0.061 C 
ATOM     28  C   UNL     1      -2.279  -2.262  -3.187  0.00  0.00    +0.129 C 
ENDBRANCH  21  25
BRANCH  21  29
ATOM     29  O   UNL     1      -3.383  -0.348   2.777  0.00  0.00    -0.319 OA
ATOM     30  H   UNL     1      -3.669   0.326   3.414  0.00  0.00    +0.220 HD
ENDBRANCH  21  29
ENDBRANCH  20  21
ENDBRANCH  19  20
ENDBRANCH   4  19
TORSDOF 8
