REMARK  Name = 13494
REMARK  10 active torsions:
REMARK  status: ('A' for Active; 'I' for Inactive)
REMARK    1  A    between atoms: C_1  and  C_4
REMARK    2  A    between atoms: C_1  and  N_16
REMARK    3  A    between atoms: C_1  and  C_25
REMARK    4  A    between atoms: N_3  and  C_6
REMARK    5  A    between atoms: C_11  and  N_14
REMARK    6  A    between atoms: C_17  and  C_19
REMARK    7  A    between atoms: C_25  and  C_26
REMARK    8  A    between atoms: C_26  and  C_27
REMARK    9  A    between atoms: C_27  and  N_28
REMARK   10  A    between atoms: N_28  and  C_31
REMARK                            x       y       z     vdW  Elec       q    Type
REMARK                         _______ _______ _______ _____ _____    ______ ____
ROOT
ATOM      1  C   UNL     1      -0.906   0.399   1.087  0.00  0.00    +0.149 C 
ENDROOT
BRANCH   1   4
ATOM      2  O   UNL     1       0.273   1.306  -0.814  0.00  0.00    -0.273 OA
ATOM      3  N   UNL     1       1.503   0.481   1.006  0.00  0.00    -0.283 N 
ATOM      4  C   UNL     1       0.345   0.779   0.293  0.00  0.00    +0.244 C 
ATOM      5  H   UNL     1       1.375   0.079   1.895  0.00  0.00    +0.155 HD
BRANCH   3   6
ATOM      6  C   UNL     1       2.844   0.688   0.602  0.00  0.00    +0.050 C 
ATOM      7  C   UNL     1       3.891   0.324   1.448  0.00  0.00    +0.016 C 
ATOM      8  C   UNL     1       3.117   1.255  -0.643  0.00  0.00    +0.016 C 
ATOM      9  C   UNL     1       5.212   0.528   1.050  0.00  0.00    +0.025 C 
ATOM     10  C   UNL     1       4.439   1.460  -1.041  0.00  0.00    +0.025 C 
ATOM     11  C   UNL     1       5.486   1.096  -0.194  0.00  0.00    +0.143 C 
BRANCH  11  14
ATOM     12  O   UNL     1       7.758   0.970   0.177  0.00  0.00    -0.126 OA
ATOM     13  O   UNL     1       7.055   1.816  -1.723  0.00  0.00    -0.126 OA
ATOM     14  N   UNL     1       6.831   1.304  -0.599  0.00  0.00    +0.058 N 
ENDBRANCH  11  14
ENDBRANCH   3   6
ENDBRANCH   1   4
BRANCH   1  16
ATOM     15  O   UNL     1      -3.341   1.364   2.261  0.00  0.00    -0.270 OA
ATOM     16  N   UNL     1      -2.069   0.877   0.384  0.00  0.00    -0.295 N 
ATOM     17  C   UNL     1      -3.207   1.327   1.041  0.00  0.00    +0.246 C 
ATOM     18  H   UNL     1      -2.056   0.886  -0.600  0.00  0.00    +0.150 HD
BRANCH  17  19
ATOM     19  C   UNL     1      -4.330   1.763   0.173  0.00  0.00    +0.053 C 
ATOM     20  C   UNL     1      -5.642   1.691   0.641  0.00  0.00    +0.005 C 
ATOM     21  C   UNL     1      -4.074   2.244  -1.111  0.00  0.00    +0.005 C 
ATOM     22  C   UNL     1      -6.698   2.100  -0.174  0.00  0.00    +0.000 C 
ATOM     23  C   UNL     1      -5.129   2.654  -1.926  0.00  0.00    +0.000 C 
ATOM     24  C   UNL     1      -6.441   2.582  -1.457  0.00  0.00    +0.000 C 
ENDBRANCH  17  19
ENDBRANCH   1  16
BRANCH   1  25
ATOM     25  C   UNL     1      -0.992  -1.104   1.378  0.00  0.00    +0.031 C 
BRANCH  25  26
ATOM     26  C   UNL     1      -0.977  -1.987   0.124  0.00  0.00    +0.029 C 
BRANCH  26  27
ATOM     27  C   UNL     1      -1.004  -3.466   0.491  0.00  0.00    +0.129 C 
BRANCH  27  28
ATOM     28  N   UNL     1      -0.987  -4.260  -0.738  0.00  0.00    -0.240 NA
BRANCH  28  31
ATOM     29  N   UNL     1      -0.999  -6.275   0.570  0.00  0.00    -0.370 N 
ATOM     30  N   UNL     1      -0.972  -6.366  -1.707  0.00  0.00    -0.370 N 
ATOM     31  C   UNL     1      -0.987  -5.550  -0.601  0.00  0.00    +0.189 C 
ATOM     32  H   UNL     1      -1.011  -5.809   1.437  0.00  0.00    +0.159 HD
ATOM     33  H   UNL     1      -0.997  -7.259   0.540  0.00  0.00    +0.159 HD
ATOM     34  H   UNL     1      -0.961  -5.972  -2.609  0.00  0.00    +0.159 HD
ATOM     35  H   UNL     1      -0.971  -7.344  -1.597  0.00  0.00    +0.159 HD
ENDBRANCH  28  31
ENDBRANCH  27  28
ENDBRANCH  26  27
ENDBRANCH  25  26
ENDBRANCH   1  25
TORSDOF 10
