134922
  -OEChem-03292013323D

 42 44  0     1  0  0  0  0  0999 V2000
   -3.5320    0.2318    1.2760 P   0  0  1  0  0  0  0  0  0  0  0  0
    1.0543    2.1078    0.9870 O   0  0  0  0  0  0  0  0  0  0  0  0
   -0.2067    3.4816   -1.3608 O   0  0  0  0  0  0  0  0  0  0  0  0
    0.9082    1.2664   -2.4958 O   0  0  0  0  0  0  0  0  0  0  0  0
   -2.5266    1.4975    1.2292 O   0  0  0  0  0  0  0  0  0  0  0  0
    4.0451    0.8027   -1.5105 O   0  0  0  0  0  0  0  0  0  0  0  0
   -3.3834   -0.3481    2.7773 O   0  0  0  0  0  0  0  0  0  0  0  0
   -4.9437    0.5340    0.8638 O   0  0  0  0  0  0  0  0  0  0  0  0
    4.6580   -2.8007    1.2975 O   0  0  0  0  0  0  0  0  0  0  0  0
    2.4665    0.4328    0.1717 N   0  0  0  0  0  0  0  0  0  0  0  0
    4.3482   -0.9916   -0.1116 N   0  0  0  0  0  0  0  0  0  0  0  0
   -2.9432   -0.8442   -1.2537 N   0  0  0  0  0  0  0  0  0  0  0  0
   -2.2687   -2.9096   -0.7843 N   0  5  0  0  0  0  0  0  0  0  0  0
   -0.5236    2.2185   -0.7764 C   0  0  1  0  0  0  0  0  0  0  0  0
    0.5318    1.1940   -1.1360 C   0  0  2  0  0  0  0  0  0  0  0  0
   -0.3479    2.3418    0.7310 C   0  0  1  0  0  0  0  0  0  0  0  0
    1.6650    1.5654   -0.1952 C   0  0  1  0  0  0  0  0  0  0  0  0
   -1.1514    1.3141    1.5167 C   0  0  0  0  0  0  0  0  0  0  0  0
    3.6437    0.1357   -0.5546 C   0  0  0  0  0  0  0  0  0  0  0  0
    2.0849   -0.3704    1.2401 C   0  0  0  0  0  0  0  0  0  0  0  0
    2.7667   -1.4418    1.6505 C   0  0  0  0  0  0  0  0  0  0  0  0
    4.0076   -1.8212    0.9455 C   0  0  0  0  0  0  0  0  0  0  0  0
   -2.9960   -1.0294    0.0690 C   0  0  0  0  0  0  0  0  0  0  0  0
   -2.5844   -2.2951    0.3762 C   0  0  0  0  0  0  0  0  0  0  0  0
   -2.4937   -2.0099   -1.7651 C   0  0  0  0  0  0  0  0  0  0  0  0
   -2.2788   -2.2622   -3.1874 C   0  0  0  0  0  0  0  0  0  0  0  0
   -1.5278    1.9489   -1.1111 H   0  0  0  0  0  0  0  0  0  0  0  0
    0.1528    0.1849   -0.9351 H   0  0  0  0  0  0  0  0  0  0  0  0
   -0.5961    3.3513    1.0785 H   0  0  0  0  0  0  0  0  0  0  0  0
    2.3097    2.3381   -0.6307 H   0  0  0  0  0  0  0  0  0  0  0  0
   -0.9897    1.4423    2.5922 H   0  0  0  0  0  0  0  0  0  0  0  0
   -0.8540    0.2932    1.2671 H   0  0  0  0  0  0  0  0  0  0  0  0
    0.6406    3.7936   -1.0019 H   0  0  0  0  0  0  0  0  0  0  0  0
    1.6401    0.6404   -2.6297 H   0  0  0  0  0  0  0  0  0  0  0  0
    1.1837   -0.1080    1.7740 H   0  0  0  0  0  0  0  0  0  0  0  0
    5.1975   -1.2239   -0.6191 H   0  0  0  0  0  0  0  0  0  0  0  0
    2.4396   -2.0438    2.4894 H   0  0  0  0  0  0  0  0  0  0  0  0
   -3.7857    0.1496    3.5206 H   0  0  0  0  0  0  0  0  0  0  0  0
   -2.5045   -2.7672    1.3442 H   0  0  0  0  0  0  0  0  0  0  0  0
   -3.1855   -2.0281   -3.7538 H   0  0  0  0  0  0  0  0  0  0  0  0
   -1.4601   -1.6372   -3.5574 H   0  0  0  0  0  0  0  0  0  0  0  0
   -2.0225   -3.3108   -3.3678 H   0  0  0  0  0  0  0  0  0  0  0  0
  1  5  1  0  0  0  0
  1  7  1  0  0  0  0
  1  8  2  0  0  0  0
  1 23  1  0  0  0  0
  2 16  1  0  0  0  0
  2 17  1  0  0  0  0
  3 14  1  0  0  0  0
  3 33  1  0  0  0  0
  4 15  1  0  0  0  0
  4 34  1  0  0  0  0
  5 18  1  0  0  0  0
  6 19  2  0  0  0  0
  7 38  1  0  0  0  0
  9 22  2  0  0  0  0
 10 17  1  0  0  0  0
 10 19  1  0  0  0  0
 10 20  1  0  0  0  0
 11 19  1  0  0  0  0
 11 22  1  0  0  0  0
 11 36  1  0  0  0  0
 12 23  1  0  0  0  0
 12 25  2  0  0  0  0
 13 24  1  0  0  0  0
 13 25  1  0  0  0  0
 14 15  1  0  0  0  0
 14 16  1  0  0  0  0
 14 27  1  0  0  0  0
 15 17  1  0  0  0  0
 15 28  1  0  0  0  0
 16 18  1  0  0  0  0
 16 29  1  0  0  0  0
 17 30  1  0  0  0  0
 18 31  1  0  0  0  0
 18 32  1  0  0  0  0
 20 21  2  0  0  0  0
 20 35  1  0  0  0  0
 21 22  1  0  0  0  0
 21 37  1  0  0  0  0
 23 24  2  0  0  0  0
 24 39  1  0  0  0  0
 25 26  1  0  0  0  0
 26 40  1  0  0  0  0
 26 41  1  0  0  0  0
 26 42  1  0  0  0  0
M  CHG  1  13  -1
M  END
> <PUBCHEM_COMPOUND_CID>
134922

> <PUBCHEM_CONFORMER_RMSD>
0.8

> <PUBCHEM_CONFORMER_DIVERSEORDER>
1
263
320
248
41
71
292
32
281
143
285
178
302
39
338
326
315
261
337
83
88
346
160
120
161
335
242
148
155
48
157
239
247
100
26
15
181
209
236
275
324
305
269
268
86
309
43
147
192
175
65
90
51
125
307
272
115
144
197
340
323
271
316
126
295
252
14
177
266
24
201
202
274
16
102
151
288
267
168
308
282
156
63
215
223
278
243
103
44
333
166
20
314
87
310
289
124
167
293
257
130
203
303
38
210
164
118
190
322
149
61
195
184
280
208
253
220
72
25
291
251
29
212
219
9
276
296
265
191
28
317
172
179
123
136
319
78
298
185
240
339
327
67
96
49
114
80
174
216
325
42
53
47
329
135
171
229
344
109
3
97
233
328
264
30
254
146
334
343
55
27
81
321
196
270
301
297
170
17
273
158
101
56
204
318
218
6
69
112
94
246
277
222
234
54
331
189
66
137
187
188
336
5
194
104
311
36
287
258
95
279
77
62
133
57
84
113
244
79
116
313
294
211
58
150
76
108
213
7
37
299
59
186
142
193
98
237
33
226
227
68
138
131
283
35
262
214
18
341
64
139
245
13
199
10
217
332
284
286
173
182
162
34
93
153
206
345
105
304
99
110
106
235
231
127
200
342
330
255
232
121
23
117
205
152
225
256
180
40
73
31
129
74
140
221
119
52
159
75
163
241
290
198
91
300
19
312
85
92
8
122
183
224
141
60
238
306
70
228
134
128
145
260
176
165
22
132
207
45
11
250
111
46
82
21
259
4
249
12
2
154
230
107
89
169
50

> <PUBCHEM_MMFF94_PARTIAL_CHARGES>
33
1 1.42
10 -0.47
11 -0.49
12 -1.05
13 -1.05
14 0.28
15 0.28
16 0.28
17 0.58
18 0.28
19 0.69
2 -0.56
20 -0.04
21 -0.14
22 0.62
23 0.09
24 0.12
25 0.38
26 0.17
3 -0.68
33 0.4
34 0.4
35 0.15
36 0.37
37 0.15
38 0.5
39 0.15
4 -0.68
5 -0.55
6 -0.57
7 -0.77
8 -0.7
9 -0.57

> <PUBCHEM_EFFECTIVE_ROTOR_COUNT>
6

> <PUBCHEM_PHARMACOPHORE_FEATURES>
14
1 11 donor
1 2 acceptor
1 3 acceptor
1 3 donor
1 4 acceptor
1 4 donor
1 6 acceptor
1 7 acceptor
1 8 acceptor
1 9 acceptor
3 12 13 25 cation
5 12 13 23 24 25 rings
5 2 14 15 16 17 rings
6 10 11 19 20 21 22 rings

> <PUBCHEM_HEAVY_ATOM_COUNT>
26

> <PUBCHEM_ATOM_DEF_STEREO_COUNT>
4

> <PUBCHEM_ATOM_UDEF_STEREO_COUNT>
0

> <PUBCHEM_BOND_DEF_STEREO_COUNT>
0

> <PUBCHEM_BOND_UDEF_STEREO_COUNT>
0

> <PUBCHEM_ISOTOPIC_ATOM_COUNT>
0

> <PUBCHEM_COMPONENT_COUNT>
1

> <PUBCHEM_CACTVS_TAUTO_COUNT>
3

> <PUBCHEM_CONFORMER_ID>
00020F0A00000001

> <PUBCHEM_MMFF94_ENERGY>
38.2296

> <PUBCHEM_FEATURE_SELFOVERLAP>
71.074

> <PUBCHEM_SHAPE_FINGERPRINT>
10291535 26 8213268877014749550
10366900 7 15410631262771006393
11552529 35 17131824413038750398
11578080 2 18266154258173062692
12156800 1 11293856048575925423
12403259 327 16917347009056250387
12422481 6 17835549045343382769
12553582 1 18334289872975167802
12597179 24 17399228656171319909
12633257 1 17632300046865406313
13004483 165 18335136445146796449
13911987 19 16953693698670751148
14251757 17 15430026660933153734
14787075 74 18126572456076902584
15537594 2 18337127729639907714
17349148 13 17418376930694775733
20291156 8 18410293652662577635
20775530 9 18054498373121266823
21095088 737 8213554728252197382
21315759 227 17900252310497629666
21315764 21 17388503134642459847
235170 7 15936414467767659778
23559900 14 17274833483864240832
23728640 28 17917716816355266651
25222932 49 16260933392118540183
3027735 51 17904732545645276071
3459 110 17558234792478324410
35225 105 17416672566769014963
46194498 28 16081948081878011109
484985 159 17770751586407629862
602551 16 17632298947844524778
6287921 2 15577561467831879503

> <PUBCHEM_SHAPE_MULTIPOLES>
472.04
8.26
3.45
2.47
3.49
0.16
0.82
5.23
-2.5
-0.56
0.98
-1.22
0.62
-2.91

> <PUBCHEM_SHAPE_SELFOVERLAP>
989.217

> <PUBCHEM_SHAPE_VOLUME>
268.2

> <PUBCHEM_COORDINATE_TYPE>
2
5
10

$$$$
