REMARK  Name = 13505996
REMARK  4 active torsions:
REMARK  status: ('A' for Active; 'I' for Inactive)
REMARK    1  A    between atoms: N_2  and  C1*_14
REMARK    2  A    between atoms: C3*_13  and  O3*_17
REMARK    3  A    between atoms: C4*_16  and  C5*_19
REMARK    4  A    between atoms: C5*_19  and  O5*_20
REMARK                            x       y       z     vdW  Elec       q    Type
REMARK                         _______ _______ _______ _____ _____    ______ ____
ROOT
ATOM      1  O   UNL     1      -0.045  -1.810  -0.244  0.00  0.00    -0.192 OA
ATOM      2  N   UNL     1      -0.747   0.389  -0.175  0.00  0.00    -0.158 N 
ATOM      3  N   UNL     1      -3.062   0.764   0.117  0.00  0.00    -0.316 NA
ATOM      4  N   UNL     1      -2.264  -1.445   0.039  0.00  0.00    -0.241 NA
ATOM      5  N   UNL     1      -4.534  -1.060   0.327  0.00  0.00    -0.283 N 
ATOM      6  C   UNL     1      -1.859   1.212  -0.042  0.00  0.00    +0.190 C 
ATOM      7  C   UNL     1      -0.969  -1.003  -0.132  0.00  0.00    +0.287 C 
ATOM      8  C   UNL     1      -1.648   2.703  -0.086  0.00  0.00    +0.086 C 
ATOM      9  C   UNL     1      -3.251  -0.599   0.157  0.00  0.00    +0.209 C 
ATOM     10  H   UNL     1      -5.278  -0.423   0.415  0.00  0.00    +0.156 HD
ATOM     11  H   UNL     1      -4.708  -2.029   0.360  0.00  0.00    +0.156 HD
ENDROOT
BRANCH   2  14
ATOM     12  O4* UNL     1       1.333   0.009  -1.177  0.00  0.00    -0.334 OA
ATOM     13  C3* UNL     1       2.760   0.780   0.552  0.00  0.00    +0.144 C 
ATOM     14  C1* UNL     1       0.579   0.906  -0.350  0.00  0.00    +0.211 C 
ATOM     15  C2* UNL     1       1.332   1.054   0.962  0.00  0.00    +0.084 C 
ATOM     16  C4* UNL     1       2.608  -0.250  -0.559  0.00  0.00    +0.173 C 
BRANCH  13  17
ATOM     17  O3* UNL     1       3.348   1.971   0.032  0.00  0.00    -0.382 OA
ATOM     18  H3* UNL     1       3.442   2.623   0.745  0.00  0.00    +0.210 HD
ENDBRANCH  13  17
BRANCH  16  19
ATOM     19  C5* UNL     1       2.596  -1.682  -0.042  0.00  0.00    +0.169 C 
BRANCH  19  20
ATOM     20  O5* UNL     1       3.823  -1.941   0.621  0.00  0.00    -0.379 OA
ATOM     21  H5* UNL     1       3.825  -2.851   0.954  0.00  0.00    +0.211 HD
ENDBRANCH  19  20
ENDBRANCH  16  19
ENDBRANCH   2  14
TORSDOF 4
