135058
  -OEChem-03292013323D

 52 53  0     1  0  0  0  0  0999 V2000
   -0.3173   -1.3896    2.0890 O   0  0  0  0  0  0  0  0  0  0  0  0
    0.4731   -0.8008   -1.3571 O   0  0  0  0  0  0  0  0  0  0  0  0
    3.6924   -1.1138    1.0503 O   0  0  0  0  0  0  0  0  0  0  0  0
   -2.5312    3.7744   -2.5909 O   0  0  0  0  0  0  0  0  0  0  0  0
    2.6506    2.2031    0.1728 O   0  0  0  0  0  0  0  0  0  0  0  0
    4.1501    3.3794    1.4038 O   0  0  0  0  0  0  0  0  0  0  0  0
   -1.3361   -2.0874    0.1316 N   0  0  0  0  0  0  0  0  0  0  0  0
    2.0925   -2.3802   -0.8078 N   0  0  0  0  0  0  0  0  0  0  0  0
   -3.0016   -1.5823    3.0164 N   0  0  0  0  0  0  0  0  0  0  0  0
    4.3537    0.3800   -0.6027 N   0  0  0  0  0  0  0  0  0  0  0  0
   -0.2120   -2.8650   -0.3732 C   0  0  1  0  0  0  0  0  0  0  0  0
   -0.8024   -3.7199   -1.4887 C   0  0  0  0  0  0  0  0  0  0  0  0
   -1.9627   -2.8743   -2.0076 C   0  0  0  0  0  0  0  0  0  0  0  0
   -2.4943   -2.2016   -0.7511 C   0  0  0  0  0  0  0  0  0  0  0  0
   -1.3155   -1.4666    1.3708 C   0  0  0  0  0  0  0  0  0  0  0  0
    0.8006   -1.8906   -0.8951 C   0  0  0  0  0  0  0  0  0  0  0  0
   -2.6208   -0.8547    1.8127 C   0  0  2  0  0  0  0  0  0  0  0  0
   -2.4619    0.6385    2.0987 C   0  0  0  0  0  0  0  0  0  0  0  0
   -2.4805    1.4780    0.8426 C   0  0  0  0  0  0  0  0  0  0  0  0
    3.2493   -1.6444   -1.2646 C   0  0  0  0  0  0  0  0  0  0  0  0
   -1.2895    1.7452    0.1882 C   0  0  0  0  0  0  0  0  0  0  0  0
   -3.6885    1.9645    0.3709 C   0  0  0  0  0  0  0  0  0  0  0  0
    3.7908   -0.7976   -0.1326 C   0  0  0  0  0  0  0  0  0  0  0  0
   -1.3068    2.5209   -0.9710 C   0  0  0  0  0  0  0  0  0  0  0  0
   -3.7059    2.7402   -0.7883 C   0  0  0  0  0  0  0  0  0  0  0  0
   -2.5151    3.0184   -1.4593 C   0  0  0  0  0  0  0  0  0  0  0  0
    4.9036    1.3975    0.2642 C   0  0  0  0  0  0  0  0  0  0  0  0
    3.8855    2.4286    0.6781 C   0  0  0  0  0  0  0  0  0  0  0  0
    0.2130   -3.4689    0.4359 H   0  0  0  0  0  0  0  0  0  0  0  0
   -0.0880   -3.9705   -2.2786 H   0  0  0  0  0  0  0  0  0  0  0  0
   -1.1954   -4.6549   -1.0711 H   0  0  0  0  0  0  0  0  0  0  0  0
   -2.7250   -3.4672   -2.5206 H   0  0  0  0  0  0  0  0  0  0  0  0
   -1.5907   -2.1204   -2.7114 H   0  0  0  0  0  0  0  0  0  0  0  0
   -3.2431   -2.8284   -0.2547 H   0  0  0  0  0  0  0  0  0  0  0  0
   -2.9207   -1.2185   -0.9690 H   0  0  0  0  0  0  0  0  0  0  0  0
   -3.4358   -0.9938    1.1027 H   0  0  0  0  0  0  0  0  0  0  0  0
   -3.2784    0.9834    2.7490 H   0  0  0  0  0  0  0  0  0  0  0  0
   -1.5428    0.8472    2.6631 H   0  0  0  0  0  0  0  0  0  0  0  0
    2.2513   -3.2983   -0.4030 H   0  0  0  0  0  0  0  0  0  0  0  0
   -2.2925   -1.4691    3.7398 H   0  0  0  0  0  0  0  0  0  0  0  0
   -3.0672   -2.5802    2.8200 H   0  0  0  0  0  0  0  0  0  0  0  0
    2.9676   -1.0286   -2.1243 H   0  0  0  0  0  0  0  0  0  0  0  0
    4.0158   -2.3640   -1.5662 H   0  0  0  0  0  0  0  0  0  0  0  0
   -0.3432    1.3650    0.5618 H   0  0  0  0  0  0  0  0  0  0  0  0
   -4.6213    1.7511    0.8847 H   0  0  0  0  0  0  0  0  0  0  0  0
   -0.3718    2.7300   -1.4839 H   0  0  0  0  0  0  0  0  0  0  0  0
   -4.6502    3.1241   -1.1644 H   0  0  0  0  0  0  0  0  0  0  0  0
    4.3739    0.5585   -1.6025 H   0  0  0  0  0  0  0  0  0  0  0  0
    5.3051    0.9235    1.1648 H   0  0  0  0  0  0  0  0  0  0  0  0
    5.7031    1.8975   -0.2895 H   0  0  0  0  0  0  0  0  0  0  0  0
   -1.6212    3.8655   -2.9220 H   0  0  0  0  0  0  0  0  0  0  0  0
    2.0060    2.8857    0.4571 H   0  0  0  0  0  0  0  0  0  0  0  0
  1 15  2  0  0  0  0
  2 16  2  0  0  0  0
  3 23  2  0  0  0  0
  4 26  1  0  0  0  0
  4 51  1  0  0  0  0
  5 28  1  0  0  0  0
  5 52  1  0  0  0  0
  6 28  2  0  0  0  0
  7 11  1  0  0  0  0
  7 14  1  0  0  0  0
  7 15  1  0  0  0  0
  8 16  1  0  0  0  0
  8 20  1  0  0  0  0
  8 39  1  0  0  0  0
  9 17  1  0  0  0  0
  9 40  1  0  0  0  0
  9 41  1  0  0  0  0
 10 23  1  0  0  0  0
 10 27  1  0  0  0  0
 10 48  1  0  0  0  0
 11 12  1  0  0  0  0
 11 16  1  0  0  0  0
 11 29  1  0  0  0  0
 12 13  1  0  0  0  0
 12 30  1  0  0  0  0
 12 31  1  0  0  0  0
 13 14  1  0  0  0  0
 13 32  1  0  0  0  0
 13 33  1  0  0  0  0
 14 34  1  0  0  0  0
 14 35  1  0  0  0  0
 15 17  1  0  0  0  0
 17 18  1  0  0  0  0
 17 36  1  0  0  0  0
 18 19  1  0  0  0  0
 18 37  1  0  0  0  0
 18 38  1  0  0  0  0
 19 21  2  0  0  0  0
 19 22  1  0  0  0  0
 20 23  1  0  0  0  0
 20 42  1  0  0  0  0
 20 43  1  0  0  0  0
 21 24  1  0  0  0  0
 21 44  1  0  0  0  0
 22 25  2  0  0  0  0
 22 45  1  0  0  0  0
 24 26  2  0  0  0  0
 24 46  1  0  0  0  0
 25 26  1  0  0  0  0
 25 47  1  0  0  0  0
 27 28  1  0  0  0  0
 27 49  1  0  0  0  0
 27 50  1  0  0  0  0
M  END
> <PUBCHEM_COMPOUND_CID>
135058

> <PUBCHEM_CONFORMER_RMSD>
1

> <PUBCHEM_CONFORMER_DIVERSEORDER>
1
102
78
54
95
12
67
42
83
86
93
71
88
68
82
106
77
8
114
119
61
72
62
73
23
4
50
104
92
31
27
117
90
55
94
120
85
76
79
7
20
30
111
121
22
115
116
99
87
15
46
64
100
60
43
32
107
11
101
118
65
108
109
74
48
6
47
34
103
70
80
89
56
13
17
113
41
28
44
81
66
18
25
97
98
14
29
21
91
110
69
36
52
5
105
49
84
39
24
59
96
9
112
51
3
37
63
35
10
75
57
19
16
45
53
58
38
26
2
33
40

> <PUBCHEM_MMFF94_PARTIAL_CHARGES>
36
1 -0.57
10 -0.73
11 0.36
14 0.3
15 0.57
16 0.57
17 0.33
18 0.14
19 -0.14
2 -0.57
20 0.36
21 -0.15
22 -0.15
23 0.57
24 -0.15
25 -0.15
26 0.08
27 0.36
28 0.66
3 -0.57
39 0.37
4 -0.53
40 0.36
41 0.36
44 0.15
45 0.15
46 0.15
47 0.15
48 0.37
5 -0.65
51 0.45
52 0.5
6 -0.57
7 -0.66
8 -0.73
9 -0.99

> <PUBCHEM_EFFECTIVE_ROTOR_COUNT>
12

> <PUBCHEM_PHARMACOPHORE_FEATURES>
13
1 1 acceptor
1 10 donor
1 2 acceptor
1 3 acceptor
1 4 donor
1 5 acceptor
1 6 acceptor
1 8 donor
1 9 cation
1 9 donor
3 5 6 28 anion
5 7 11 12 13 14 rings
6 19 21 22 24 25 26 rings

> <PUBCHEM_HEAVY_ATOM_COUNT>
28

> <PUBCHEM_ATOM_DEF_STEREO_COUNT>
2

> <PUBCHEM_ATOM_UDEF_STEREO_COUNT>
0

> <PUBCHEM_BOND_DEF_STEREO_COUNT>
0

> <PUBCHEM_BOND_UDEF_STEREO_COUNT>
0

> <PUBCHEM_ISOTOPIC_ATOM_COUNT>
0

> <PUBCHEM_COMPONENT_COUNT>
1

> <PUBCHEM_CACTVS_TAUTO_COUNT>
8

> <PUBCHEM_CONFORMER_ID>
00020F9200000001

> <PUBCHEM_MMFF94_ENERGY>
58.1563

> <PUBCHEM_FEATURE_SELFOVERLAP>
66.032

> <PUBCHEM_SHAPE_FINGERPRINT>
10670039 82 17837785774491761972
10871710 139 18123757722977091756
11045515 52 17838323443365650975
11582403 64 17898840254447382743
11725454 13 17971475087747394599
12100795 323 18410294744022601340
12156800 1 17550052278130477081
12422481 6 18120687775286511753
13402501 40 18263654956673646372
13422730 73 17843087416895672456
13583140 156 18263095318140322650
1361 2 18341040827415800861
14251764 3 18191589644537114261
14840074 17 18051429648883649433
14957384 54 18336821992709823402
17921350 177 18262798437626772906
17974551 9 17169557289993265226
19930381 70 17910676458307449733
21304303 64 18123179367451350807
22907989 373 17631726187763890747
238 59 17908131084493746413
3027735 51 18057027232552822445
3187 122 17969237787748569113
3298306 158 17972593286430014613
3493558 16 16533615256371443546
469060 322 17905882931170904120
508706 21 18187652388135190124

> <PUBCHEM_SHAPE_MULTIPOLES>
521.09
8.12
5.3
2.28
9.77
0.59
0.68
6.59
1.02
-1.33
-2.56
-2.32
-0.21
2.56

> <PUBCHEM_SHAPE_SELFOVERLAP>
1084.816

> <PUBCHEM_SHAPE_VOLUME>
294.6

> <PUBCHEM_COORDINATE_TYPE>
2
5
10

$$$$
