REMARK  Name = 135083
REMARK  9 active torsions:
REMARK  status: ('A' for Active; 'I' for Inactive)
REMARK    1  A    between atoms: C_2  and  O_7
REMARK    2  A    between atoms: C_3  and  O_9
REMARK    3  A    between atoms: C_4  and  O_11
REMARK    4  A    between atoms: C_5  and  C_26
REMARK    5  A    between atoms: C_6  and  O_13
REMARK    6  A    between atoms: O_13  and  C_14
REMARK    7  A    between atoms: C_17  and  N_22
REMARK    8  A    between atoms: C_19  and  N_25
REMARK    9  A    between atoms: C_26  and  O_27
REMARK                            x       y       z     vdW  Elec       q    Type
REMARK                         _______ _______ _______ _____ _____    ______ ____
ROOT
ATOM      1  O   UNL     1      -1.807   0.659   0.284  0.00  0.00    -0.316 OA
ATOM      2  C   UNL     1      -4.178  -0.695  -0.591  0.00  0.00    +0.173 C 
ATOM      3  C   UNL     1      -4.156   0.808  -0.311  0.00  0.00    +0.169 C 
ATOM      4  C   UNL     1      -3.084  -1.415   0.196  0.00  0.00    +0.210 C 
ATOM      5  C   UNL     1      -2.745   1.358  -0.544  0.00  0.00    +0.177 C 
ATOM      6  C   UNL     1      -1.729  -0.735  -0.012  0.00  0.00    +0.318 C 
ENDROOT
BRANCH   2   7
ATOM      7  O   UNL     1      -5.446  -1.241  -0.237  0.00  0.00    -0.379 OA
ATOM      8  H   UNL     1      -6.144  -0.786  -0.735  0.00  0.00    +0.211 HD
ENDBRANCH   2   7
BRANCH   3   9
ATOM      9  O   UNL     1      -4.532   1.049   1.046  0.00  0.00    -0.379 OA
ATOM     10  H   UNL     1      -5.425   0.704   1.201  0.00  0.00    +0.211 HD
ENDBRANCH   3   9
BRANCH   4  11
ATOM     11  O   UNL     1      -2.988  -2.764  -0.261  0.00  0.00    -0.377 OA
ATOM     12  H   UNL     1      -3.840  -3.210  -0.135  0.00  0.00    +0.211 HD
ENDBRANCH   4  11
BRANCH   6  13
ATOM     13  O   UNL     1      -0.786  -1.360   0.858  0.00  0.00    -0.451 OA
BRANCH  13  14
ATOM     14  C   UNL     1       0.496  -0.888   0.811  0.00  0.00    +0.143 C 
ATOM     15  C   UNL     1       1.216  -0.939  -0.383  0.00  0.00    +0.063 C 
ATOM     16  C   UNL     1       1.084  -0.353   1.957  0.00  0.00    +0.039 C 
ATOM     17  C   UNL     1       2.523  -0.456  -0.431  0.00  0.00    +0.168 C 
ATOM     18  C   UNL     1       2.392   0.131   1.909  0.00  0.00    +0.029 C 
ATOM     19  C   UNL     1       3.111   0.079   0.716  0.00  0.00    +0.165 C 
BRANCH  17  22
ATOM     20  O   UNL     1       3.154   0.446  -2.457  0.00  0.00    -0.126 OA
ATOM     21  O   UNL     1       3.910  -1.543  -1.918  0.00  0.00    -0.126 OA
ATOM     22  N   UNL     1       3.231  -0.521  -1.664  0.00  0.00    +0.059 N 
ENDBRANCH  17  22
BRANCH  19  25
ATOM     23  O   UNL     1       5.387  -0.200   0.962  0.00  0.00    -0.126 OA
ATOM     24  O   UNL     1       4.631   1.789   0.422  0.00  0.00    -0.126 OA
ATOM     25  N   UNL     1       4.444   0.581   0.699  0.00  0.00    +0.059 N 
ENDBRANCH  19  25
ENDBRANCH  13  14
ENDBRANCH   6  13
BRANCH   5  26
ATOM     26  C   UNL     1      -2.636   2.840  -0.204  0.00  0.00    +0.169 C 
BRANCH  26  27
ATOM     27  O   UNL     1      -1.491   3.369  -0.849  0.00  0.00    -0.379 OA
ATOM     28  H   UNL     1      -1.410   4.313  -0.640  0.00  0.00    +0.211 HD
ENDBRANCH  26  27
ENDBRANCH   5  26
TORSDOF 9
