REMARK  Name = 135058
REMARK  11 active torsions:
REMARK  status: ('A' for Active; 'I' for Inactive)
REMARK    1  A    between atoms: CA_3  and  C_10
REMARK    2  A    between atoms: C_7  and  CA_22
REMARK    3  A    between atoms: N_9  and  CA_12
REMARK    4  A    between atoms: CA_12  and  C_15
REMARK    5  A    between atoms: N_14  and  CA_17
REMARK    6  A    between atoms: CA_17  and  C_19
REMARK    7  A    between atoms: C_19  and  O_20
REMARK    8  A    between atoms: CA_22  and  N_23
REMARK    9  A    between atoms: CA_22  and  CB_27
REMARK   10  A    between atoms: CB_27  and  CG_28
REMARK   11  A    between atoms: CZ_33  and  OH_34
REMARK                            x       y       z     vdW  Elec       q    Type
REMARK                         _______ _______ _______ _____ _____    ______ ____
ROOT
ATOM      1  O   TYR A   1      -0.317  -1.390   2.089  0.00  0.00    -0.277 OA
ATOM      2  N   PRO A   2      -1.336  -2.087   0.132  0.00  0.00    -0.275 N 
ATOM      3  CA  PRO A   2      -0.212  -2.865  -0.373  0.00  0.00    +0.152 C 
ATOM      4  CB  PRO A   2      -0.802  -3.720  -1.489  0.00  0.00    +0.031 C 
ATOM      5  CG  PRO A   2      -1.963  -2.874  -2.008  0.00  0.00    +0.024 C 
ATOM      6  CD  PRO A   2      -2.494  -2.202  -0.751  0.00  0.00    +0.094 C 
ATOM      7  C   TYR A   1      -1.315  -1.467   1.371  0.00  0.00    +0.206 C 
ENDROOT
BRANCH   3  10
ATOM      8  O   PRO A   2       0.473  -0.801  -1.357  0.00  0.00    -0.273 OA
ATOM      9  N   GLY A   3       2.092  -2.380  -0.808  0.00  0.00    -0.295 N 
ATOM     10  C   PRO A   2       0.801  -1.891  -0.895  0.00  0.00    +0.241 C 
ATOM     11  H   GLY A   3       2.230  -3.273  -0.416  0.00  0.00    +0.150 HD
BRANCH   9  12
ATOM     12  CA  GLY A   3       3.249  -1.644  -1.265  0.00  0.00    +0.176 C 
BRANCH  12  15
ATOM     13  O   GLY A   3       3.692  -1.114   1.050  0.00  0.00    -0.273 OA
ATOM     14  N   GLY A   4       4.354   0.380  -0.603  0.00  0.00    -0.294 N 
ATOM     15  C   GLY A   3       3.791  -0.798  -0.133  0.00  0.00    +0.243 C 
ATOM     16  H   GLY A   4       4.380   0.530  -1.575  0.00  0.00    +0.150 HD
BRANCH  14  17
ATOM     17  CA  GLY A   4       4.904   1.397   0.264  0.00  0.00    +0.200 C 
BRANCH  17  19
ATOM     18  OXT GLY A   4       4.150   3.379   1.404  0.00  0.00    -0.248 OA
ATOM     19  C   GLY A   4       3.885   2.429   0.678  0.00  0.00    +0.334 C 
BRANCH  19  20
ATOM     20  O   GLY A   4       2.651   2.203   0.173  0.00  0.00    -0.479 OA
ATOM     21  H   GLY A   4       2.498   1.461  -0.378  0.00  0.00    +0.295 HD
ENDBRANCH  19  20
ENDBRANCH  17  19
ENDBRANCH  14  17
ENDBRANCH  12  15
ENDBRANCH   9  12
ENDBRANCH   3  10
BRANCH   7  22
ATOM     22  CA  TYR A   1      -2.621  -0.855   1.813  0.00  0.00    +0.018 C 
BRANCH  22  23
ATOM     23  N   TYR A   1      -3.002  -1.582   3.016  0.00  0.00    +0.388 N 
ATOM     24  H1  TYR A   1      -3.101  -2.574   2.797  0.00  0.00    -0.089 HD
ATOM     25  H2  TYR A   1      -3.889  -1.221   3.366  0.00  0.00    -0.089 HD
ATOM     26  H3  TYR A   1      -2.282  -1.462   3.729  0.00  0.00    -0.089 HD
ENDBRANCH  22  23
BRANCH  22  27
ATOM     27  CB  TYR A   1      -2.462   0.638   2.099  0.00  0.00    +0.013 C 
BRANCH  27  28
ATOM     28  CG  TYR A   1      -2.481   1.478   0.843  0.00  0.00    -0.024 C 
ATOM     29  CD1 TYR A   1      -1.290   1.745   0.188  0.00  0.00    -0.001 C 
ATOM     30  CD2 TYR A   1      -3.688   1.964   0.371  0.00  0.00    -0.001 C 
ATOM     31  CE1 TYR A   1      -1.307   2.521  -0.971  0.00  0.00    +0.036 C 
ATOM     32  CE2 TYR A   1      -3.706   2.740  -0.788  0.00  0.00    +0.036 C 
ATOM     33  CZ  TYR A   1      -2.515   3.018  -1.459  0.00  0.00    +0.134 C 
BRANCH  33  34
ATOM     34  OH  TYR A   1      -2.531   3.774  -2.591  0.00  0.00    -0.506 OA
ATOM     35  HH  TYR A   1      -1.731   3.961  -3.041  0.00  0.00    +0.292 HD
ENDBRANCH  33  34
ENDBRANCH  27  28
ENDBRANCH  22  27
ENDBRANCH   7  22
TORSDOF 11
