REMARK  Name = 135086
REMARK  5 active torsions:
REMARK  status: ('A' for Active; 'I' for Inactive)
REMARK    1  A    between atoms: C_2  and  S_20
REMARK    2  A    between atoms: C_3  and  C_10
REMARK    3  A    between atoms: N_9  and  N_12
REMARK    4  A    between atoms: N_12  and  C_14
REMARK    5  A    between atoms: S_20  and  N_23
REMARK                            x       y       z     vdW  Elec       q    Type
REMARK                         _______ _______ _______ _____ _____    ______ ____
ROOT
ATOM      1 CL   UNL     1       5.474  -0.400   0.298  0.00  0.00    -0.081 Cl
ATOM      2  C   UNL     1       2.845   0.296   0.030  0.00  0.00    +0.132 C 
ATOM      3  C   UNL     1       1.051  -1.310   0.228  0.00  0.00    +0.056 C 
ATOM      4  C   UNL     1       1.482  -0.001   0.013  0.00  0.00    +0.025 C 
ATOM      5  C   UNL     1       3.776  -0.716   0.264  0.00  0.00    +0.076 C 
ATOM      6  C   UNL     1       1.982  -2.322   0.461  0.00  0.00    +0.006 C 
ATOM      7  C   UNL     1       3.345  -2.025   0.479  0.00  0.00    +0.013 C 
ENDROOT
BRANCH   3  10
ATOM      8  O   UNL     1      -0.814  -2.594   0.846  0.00  0.00    -0.269 OA
ATOM      9  N   UNL     1      -1.185  -0.788  -0.559  0.00  0.00    -0.229 N 
ATOM     10  C   UNL     1      -0.370  -1.621   0.210  0.00  0.00    +0.262 C 
ATOM     11  H   UNL     1      -0.795  -0.027  -1.048  0.00  0.00    +0.173 HD
BRANCH   9  12
ATOM     12  N   UNL     1      -2.541  -1.039  -0.630  0.00  0.00    -0.237 N 
ATOM     13  C   UNL     1      -2.950  -2.140  -1.483  0.00  0.00    +0.135 C 
BRANCH  12  14
ATOM     14  C   UNL     1      -3.418  -0.040  -0.185  0.00  0.00    +0.065 C 
ATOM     15  C   UNL     1      -4.767  -0.066  -0.559  0.00  0.00    +0.016 C 
ATOM     16  C   UNL     1      -2.953   0.993   0.635  0.00  0.00    +0.016 C 
ATOM     17  C   UNL     1      -5.639   0.928  -0.117  0.00  0.00    +0.001 C 
ATOM     18  C   UNL     1      -3.826   1.988   1.078  0.00  0.00    +0.001 C 
ATOM     19  C   UNL     1      -5.169   1.955   0.702  0.00  0.00    +0.000 C 
ENDBRANCH  12  14
ENDBRANCH   9  12
ENDBRANCH   3  10
BRANCH   2  20
ATOM     20  S   UNL     1       3.328   1.958  -0.245  0.00  0.00    +0.058 S 
ATOM     21  O   UNL     1       2.214   2.820   0.117  0.00  0.00    -0.153 OA
ATOM     22  O   UNL     1       4.633   2.160   0.362  0.00  0.00    -0.153 OA
BRANCH  20  23
ATOM     23  N   UNL     1       3.503   1.962  -1.944  0.00  0.00    -0.203 NA
ATOM     24  H   UNL     1       3.789   2.890  -2.254  0.00  0.00    +0.144 HD
ATOM     25  H   UNL     1       2.612   1.717  -2.378  0.00  0.00    +0.144 HD
ENDBRANCH  20  23
ENDBRANCH   2  20
TORSDOF 5
