REMARK  Name = 135095
REMARK  17 active torsions:
REMARK  status: ('A' for Active; 'I' for Inactive)
REMARK    1  A    between atoms: C_1  and  C_2
REMARK    2  A    between atoms: C_1  and  C_10
REMARK    3  A    between atoms: C_1  and  C_17
REMARK    4  A    between atoms: C_1  and  C_24
REMARK    5  A    between atoms: C_2  and  O_3
REMARK    6  A    between atoms: O_3  and  P_4
REMARK    7  A    between atoms: P_4  and  O_6
REMARK    8  A    between atoms: P_4  and  O_8
REMARK    9  A    between atoms: C_10  and  O_11
REMARK   10  A    between atoms: O_11  and  C_13
REMARK   11  A    between atoms: C_13  and  C_14
REMARK   12  A    between atoms: C_17  and  O_18
REMARK   13  A    between atoms: O_18  and  C_20
REMARK   14  A    between atoms: C_20  and  C_21
REMARK   15  A    between atoms: C_24  and  O_25
REMARK   16  A    between atoms: O_25  and  C_27
REMARK   17  A    between atoms: C_27  and  C_28
REMARK                            x       y       z     vdW  Elec       q    Type
REMARK                         _______ _______ _______ _____ _____    ______ ____
ROOT
ATOM      1  C   UNL     1      -0.009   0.199  -0.141  0.00  0.00    +0.149 C 
ENDROOT
BRANCH   1   2
ATOM      2  C   UNL     1       0.017   1.522   0.665  0.00  0.00    +0.164 C 
BRANCH   2   3
ATOM      3  O   UNL     1       0.085   2.657  -0.187  0.00  0.00    -0.273 OA
BRANCH   3   4
ATOM      4  P   UNL     1       0.121   4.125   0.490  0.00  0.00    +0.473 P 
ATOM      5  O   UNL     1       0.192   5.270  -0.478  0.00  0.00    -0.227 OA
BRANCH   4   6
ATOM      6  O   UNL     1       1.344   4.034   1.544  0.00  0.00    -0.303 OA
ATOM      7  H   UNL     1       1.213   3.268   2.125  0.00  0.00    +0.222 HD
ENDBRANCH   4   6
BRANCH   4   8
ATOM      8  O   UNL     1      -1.189   4.114   1.439  0.00  0.00    -0.303 OA
ATOM      9  H   UNL     1      -1.153   3.345   2.030  0.00  0.00    +0.222 HD
ENDBRANCH   4   8
ENDBRANCH   3   4
ENDBRANCH   2   3
ENDBRANCH   1   2
BRANCH   1  10
ATOM     10  C   UNL     1      -1.253   0.153  -1.064  0.00  0.00    +0.218 C 
BRANCH  10  11
ATOM     11  O   UNL     1      -2.450   0.277  -0.304  0.00  0.00    -0.445 OA
BRANCH  11  13
ATOM     12  O   UNL     1      -3.706   0.129  -2.227  0.00  0.00    -0.245 OA
ATOM     13  C   UNL     1      -3.615   0.249  -1.014  0.00  0.00    +0.337 C 
BRANCH  13  14
ATOM     14  C   UNL     1      -4.775   0.389  -0.090  0.00  0.00    +0.054 C 
ATOM     15  C   UNL     1      -4.637   1.165   1.185  0.00  0.00    +0.038 C 
ATOM     16  C   UNL     1      -5.924  -0.201  -0.450  0.00  0.00    +0.002 C 
ENDBRANCH  13  14
ENDBRANCH  11  13
ENDBRANCH  10  11
ENDBRANCH   1  10
BRANCH   1  17
ATOM     17  C   UNL     1      -0.045  -0.963   0.883  0.00  0.00    +0.218 C 
BRANCH  17  18
ATOM     18  O   UNL     1      -0.070  -2.224   0.227  0.00  0.00    -0.445 OA
BRANCH  18  20
ATOM     19  O   UNL     1      -0.112  -3.301   2.261  0.00  0.00    -0.245 OA
ATOM     20  C   UNL     1      -0.103  -3.321   1.038  0.00  0.00    +0.337 C 
BRANCH  20  21
ATOM     21  C   UNL     1      -0.124  -4.562   0.214  0.00  0.00    +0.054 C 
ATOM     22  C   UNL     1       0.533  -4.587  -1.132  0.00  0.00    +0.038 C 
ATOM     23  C   UNL     1      -0.748  -5.631   0.728  0.00  0.00    +0.002 C 
ENDBRANCH  20  21
ENDBRANCH  18  20
ENDBRANCH  17  18
ENDBRANCH   1  17
BRANCH   1  24
ATOM     24  C   UNL     1       1.265   0.060  -1.015  0.00  0.00    +0.218 C 
BRANCH  24  25
ATOM     25  O   UNL     1       2.465   0.139  -0.256  0.00  0.00    -0.445 OA
BRANCH  25  27
ATOM     26  O   UNL     1       3.714  -0.138  -2.170  0.00  0.00    -0.245 OA
ATOM     27  C   UNL     1       3.628   0.024  -0.961  0.00  0.00    +0.337 C 
BRANCH  27  28
ATOM     28  C   UNL     1       4.793   0.123  -0.037  0.00  0.00    +0.054 C 
ATOM     29  C   UNL     1       4.674  -0.339   1.382  0.00  0.00    +0.038 C 
ATOM     30  C   UNL     1       5.929   0.637  -0.532  0.00  0.00    +0.002 C 
ENDBRANCH  27  28
ENDBRANCH  25  27
ENDBRANCH  24  25
ENDBRANCH   1  24
TORSDOF 17
