REMARK  Name = 135084
REMARK  9 active torsions:
REMARK  status: ('A' for Active; 'I' for Inactive)
REMARK    1  A    between atoms: C_5  and  C_11
REMARK    2  A    between atoms: C_6  and  C_24
REMARK    3  A    between atoms: C_11  and  C_12
REMARK    4  A    between atoms: C_12  and  C_13
REMARK    5  A    between atoms: C_13  and  C_14
REMARK    6  A    between atoms: C_14  and  N_15
REMARK    7  A    between atoms: C_24  and  C_25
REMARK    8  A    between atoms: C_30  and  O_31
REMARK    9  A    between atoms: O_31  and  C_32
REMARK                            x       y       z     vdW  Elec       q    Type
REMARK                         _______ _______ _______ _____ _____    ______ ____
ROOT
ATOM      1  O   UNK A   1       0.249  -1.421   2.660  0.00  0.00    -0.273 OA
ATOM      2  O   UNK A   2       0.447   3.103  -0.083  0.00  0.00    -0.273 OA
ATOM      3  N   UNK A   1       1.502   1.239   0.759  0.00  0.00    -0.297 N 
ATOM      4  N   UNK A   2      -0.832   0.293   1.568  0.00  0.00    -0.297 N 
ATOM      5  C   UNK A   1       1.462  -0.204   0.946  0.00  0.00    +0.149 C 
ATOM      6  C   UNK A   2      -0.894   1.134   0.382  0.00  0.00    +0.153 C 
ATOM      7  C   UNK A   1       0.271  -0.499   1.848  0.00  0.00    +0.241 C 
ATOM      8  C   UNK A   2       0.386   1.957   0.357  0.00  0.00    +0.241 C 
ATOM      9  H   UNK A   1       2.346   1.719   0.923  0.00  0.00    +0.150 HD
ATOM     10  H   UNK A   2      -1.595   0.286   2.190  0.00  0.00    +0.150 HD
ENDROOT
BRANCH   5  11
ATOM     11  C   UNK A   1       2.764  -0.720   1.537  0.00  0.00    +0.029 C 
BRANCH  11  12
ATOM     12  C   UNK A   1       3.855  -0.838   0.472  0.00  0.00    +0.004 C 
BRANCH  12  13
ATOM     13  C   UNK A   1       5.173  -1.329   1.079  0.00  0.00    +0.024 C 
BRANCH  13  14
ATOM     14  C   UNK A   1       6.265  -1.512   0.032  0.00  0.00    +0.100 C 
BRANCH  14  15
ATOM     15  N   UNK A   1       6.554  -0.231  -0.614  0.00  0.00    -0.347 N 
ATOM     16  N   UNK A   1       7.832   0.939  -2.154  0.00  0.00    -0.372 N 
ATOM     17  N   UNK A   1       8.275  -1.284  -1.918  0.00  0.00    -0.372 N 
ATOM     18  C   UNK A   1       7.500  -0.225  -1.502  0.00  0.00    +0.167 C 
ATOM     19  H   UNK A   1       6.055   0.587  -0.386  0.00  0.00    +0.163 HD
ATOM     20  H   UNK A   1       7.352   1.773  -1.948  0.00  0.00    +0.159 HD
ATOM     21  H   UNK A   1       8.551   0.938  -2.827  0.00  0.00    +0.159 HD
ATOM     22  H   UNK A   1       8.138  -2.178  -1.528  0.00  0.00    +0.159 HD
ATOM     23  H   UNK A   1       8.966  -1.148  -2.606  0.00  0.00    +0.159 HD
ENDBRANCH  14  15
ENDBRANCH  13  14
ENDBRANCH  12  13
ENDBRANCH  11  12
ENDBRANCH   5  11
BRANCH   6  24
ATOM     24  C   UNK A   2      -2.135   2.013   0.394  0.00  0.00    +0.055 C 
BRANCH  24  25
ATOM     25  C   UNK A   2      -3.362   1.257  -0.043  0.00  0.00    -0.020 C 
ATOM     26  C   UNK A   2      -4.143   0.591   0.901  0.00  0.00    -0.001 C 
ATOM     27  C   UNK A   2      -3.718   1.223  -1.392  0.00  0.00    -0.001 C 
ATOM     28  C   UNK A   2      -5.280  -0.110   0.497  0.00  0.00    +0.037 C 
ATOM     29  C   UNK A   2      -4.854   0.522  -1.796  0.00  0.00    +0.037 C 
ATOM     30  C   UNK A   2      -5.635  -0.144  -0.852  0.00  0.00    +0.139 C 
BRANCH  30  31
ATOM     31  O   UNK A   2      -6.744  -0.827  -1.246  0.00  0.00    -0.475 OA
BRANCH  31  32
ATOM     32  C   UNK A   2      -7.116  -1.965  -0.469  0.00  0.00    +0.206 C 
ATOM     33  C   UNK A   2      -7.822  -2.963  -1.363  0.00  0.00    +0.051 C 
ENDBRANCH  31  32
ENDBRANCH  30  31
ENDBRANCH  24  25
ENDBRANCH   6  24
TORSDOF 9
