REMARK  Name = 135028811
REMARK  7 active torsions:
REMARK  status: ('A' for Active; 'I' for Inactive)
REMARK    1  A    between atoms: C_2  and  C_17
REMARK    2  A    between atoms: C_6  and  O_11
REMARK    3  A    between atoms: C_8  and  C_14
REMARK    4  A    between atoms: C_14  and  S_15
REMARK    5  A    between atoms: C_17  and  O_19
REMARK    6  A    between atoms: C_17  and  C_21
REMARK    7  A    between atoms: C_21  and  O_22
REMARK                            x       y       z     vdW  Elec       q    Type
REMARK                         _______ _______ _______ _____ _____    ______ ____
ROOT
ATOM      1  O   UNL     1       1.740   1.351  -0.308  0.00  0.00    -0.477 OA
ATOM      2  C   UNL     1       2.365   0.088  -0.660  0.00  0.00    +0.197 C 
ATOM      3  C   UNL     1       1.456  -1.061  -0.198  0.00  0.00    +0.079 C 
ATOM      4  C   UNL     1       0.172  -0.329  -0.122  0.00  0.00    +0.049 C 
ATOM      5  C   UNL     1       0.413   1.035  -0.166  0.00  0.00    +0.137 C 
ATOM      6  C   UNL     1      -1.112  -0.818   0.035  0.00  0.00    +0.136 C 
ATOM      7  C   UNL     1      -0.604   1.962  -0.052  0.00  0.00    +0.033 C 
ATOM      8  C   UNL     1      -2.160   0.102   0.140  0.00  0.00    +0.075 C 
ATOM      9  C   UNL     1      -1.907   1.483   0.097  0.00  0.00    -0.012 C 
ATOM     10  C   UNL     1      -3.023   2.471   0.215  0.00  0.00    +0.031 C 
ENDROOT
BRANCH   6  11
ATOM     11  O   UNL     1      -1.335  -2.157   0.093  0.00  0.00    -0.506 OA
ATOM     12  H   UNL     1      -0.617  -2.755   0.021  0.00  0.00    +0.292 HD
ENDBRANCH   6  11
BRANCH   8  14
ATOM     13  O   UNL     1      -4.007  -0.588   1.425  0.00  0.00    -0.280 OA
ATOM     14  C   UNL     1      -3.526  -0.384   0.302  0.00  0.00    +0.224 C 
BRANCH  14  15
ATOM     15  S   UNL     1      -4.509  -0.636  -1.155  0.00  0.00    -0.072 S 
ATOM     16  C   UNL     1      -6.062  -1.220  -0.442  0.00  0.00    +0.077 C 
ENDBRANCH  14  15
ENDBRANCH   8  14
BRANCH   2  17
ATOM     17  C   UNL     1       3.746   0.029  -0.027  0.00  0.00    +0.152 C 
ATOM     18  C   UNL     1       4.594   1.228  -0.465  0.00  0.00    +0.036 C 
BRANCH  17  19
ATOM     19  O   UNL     1       3.598   0.120   1.395  0.00  0.00    -0.381 OA
ATOM     20  H   UNL     1       3.065  -0.624   1.714  0.00  0.00    +0.210 HD
ENDBRANCH  17  19
BRANCH  17  21
ATOM     21  C   UNL     1       4.438  -1.304  -0.358  0.00  0.00    +0.167 C 
BRANCH  21  22
ATOM     22  O   UNL     1       5.722  -1.371   0.252  0.00  0.00    -0.379 OA
ATOM     23  H   UNL     1       6.141  -2.218   0.031  0.00  0.00    +0.211 HD
ENDBRANCH  21  22
ENDBRANCH  17  21
ENDBRANCH   2  17
TORSDOF 7
