REMARK  Name = 13506406
REMARK  8 active torsions:
REMARK  status: ('A' for Active; 'I' for Inactive)
REMARK    1  A    between atoms: N_1  and  C1*_12
REMARK    2  A    between atoms: C2*_11  and  O2*_15
REMARK    3  A    between atoms: C3*_13  and  O3*_17
REMARK    4  A    between atoms: C4*_14  and  C5*_19
REMARK    5  A    between atoms: C5*_19  and  O5*_20
REMARK    6  A    between atoms: N_22  and  C_24
REMARK    7  A    between atoms: C_24  and  C_25
REMARK    8  A    between atoms: C_26  and  O_31
REMARK                            x       y       z     vdW  Elec       q    Type
REMARK                         _______ _______ _______ _____ _____    ______ ____
ROOT
ATOM      1  N   UNL     1       2.058  -0.197   0.324  0.00  0.00    -0.247 N 
ATOM      2  N   UNL     1       0.189   0.992   0.060  0.00  0.00    -0.242 NA
ATOM      3  N   UNL     1       1.098  -2.386   0.758  0.00  0.00    -0.228 NA
ATOM      4  N   UNL     1      -1.341  -2.312   0.712  0.00  0.00    -0.228 NA
ATOM      5  C   UNL     1       1.022  -1.074   0.490  0.00  0.00    +0.152 C 
ATOM      6  C   UNL     1       1.505   1.031   0.069  0.00  0.00    +0.223 C 
ATOM      7  C   UNL     1      -0.126  -0.317   0.322  0.00  0.00    +0.140 C 
ATOM      8  C   UNL     1      -1.342  -0.984   0.442  0.00  0.00    +0.146 C 
ATOM      9  C   UNL     1      -0.139  -2.921   0.851  0.00  0.00    +0.253 C 
ATOM     10  N   UNL     1      -2.557  -0.295   0.285  0.00  0.00    -0.313 N 
ATOM     11  H   UNL     1      -2.528   0.669   0.089  0.00  0.00    +0.149 HD
ENDROOT
BRANCH   1  14
ATOM     12  O4* UNL     1       4.189   0.635   0.956  0.00  0.00    -0.333 OA
ATOM     13  C2* UNL     1       4.122  -0.820  -0.951  0.00  0.00    +0.187 C 
ATOM     14  C1* UNL     1       3.488  -0.499   0.403  0.00  0.00    +0.225 C 
ATOM     15  C3* UNL     1       4.867   0.458  -1.286  0.00  0.00    +0.171 C 
ATOM     16  C4* UNL     1       5.287   0.956   0.086  0.00  0.00    +0.175 C 
BRANCH  13  17
ATOM     17  O2* UNL     1       5.021  -1.917  -0.801  0.00  0.00    -0.378 OA
ATOM     18  H2* UNL     1       4.520  -2.720  -0.588  0.00  0.00    +0.211 HD
ENDBRANCH  13  17
BRANCH  15  19
ATOM     19  O3* UNL     1       5.972   0.258  -2.141  0.00  0.00    -0.379 OA
ATOM     20  H3* UNL     1       5.661  -0.058  -3.003  0.00  0.00    +0.211 HD
ENDBRANCH  15  19
BRANCH  16  21
ATOM     21  C5* UNL     1       5.560   2.448   0.131  0.00  0.00    +0.169 C 
BRANCH  21  22
ATOM     22  O5* UNL     1       5.932   2.802   1.452  0.00  0.00    -0.379 OA
ATOM     23  H5* UNL     1       6.109   3.754   1.494  0.00  0.00    +0.211 HD
ENDBRANCH  21  22
ENDBRANCH  16  21
ENDBRANCH   1  14
BRANCH  10  24
ATOM     24  C   UNL     1      -3.836  -0.931   0.398  0.00  0.00    +0.118 C 
BRANCH  24  25
ATOM     25  C   UNL     1      -4.965   0.033   0.150  0.00  0.00    +0.031 C 
ATOM     26  C   UNL     1      -5.462   0.215  -1.134  0.00  0.00    +0.131 C 
ATOM     27  C   UNL     1      -5.497   0.732   1.225  0.00  0.00    +0.000 C 
ATOM     28  C   UNL     1      -6.508   1.112  -1.347  0.00  0.00    +0.036 C 
ATOM     29  C   UNL     1      -6.544   1.629   1.013  0.00  0.00    -0.000 C 
ATOM     30  C   UNL     1      -7.050   1.819  -0.273  0.00  0.00    +0.003 C 
BRANCH  26  31
ATOM     31  O   UNL     1      -4.944  -0.468  -2.194  0.00  0.00    -0.506 OA
ATOM     32  H   UNL     1      -4.241  -1.073  -2.063  0.00  0.00    +0.292 HD
ENDBRANCH  26  31
ENDBRANCH  24  25
ENDBRANCH  10  24
TORSDOF 8
