REMARK  Name = 135068
REMARK  12 active torsions:
REMARK  status: ('A' for Active; 'I' for Inactive)
REMARK    1  A    between atoms: N_1  and  C_4
REMARK    2  A    between atoms: N_1  and  C_21
REMARK    3  A    between atoms: C_4  and  C_10
REMARK    4  A    between atoms: C_9  and  C_12
REMARK    5  A    between atoms: C_12  and  N_13
REMARK    6  A    between atoms: C_12  and  C_17
REMARK    7  A    between atoms: C_17  and  C_18
REMARK    8  A    between atoms: C_21  and  C_22
REMARK    9  A    between atoms: C_22  and  N_23
REMARK   10  A    between atoms: N_23  and  S_25
REMARK   11  A    between atoms: S_25  and  C_28
REMARK   12  A    between atoms: C_31  and  N_38
REMARK                            x       y       z     vdW  Elec       q    Type
REMARK                         _______ _______ _______ _____ _____    ______ ____
ROOT
ATOM      1  N   UNL     1      -0.895   2.100   1.988  0.00  0.00    +0.392 N 
ATOM      2  H   UNL     1      -0.092   2.303   2.582  0.00  0.00    -0.084 HD
ATOM      3  H   UNL     1      -1.516   2.908   1.943  0.00  0.00    -0.084 HD
ENDROOT
BRANCH   1   4
ATOM      4  C   UNL     1      -1.634   0.972   2.549  0.00  0.00    +0.017 C 
ATOM      5  C   UNL     1      -1.654   1.077   4.069  0.00  0.00    -0.014 C 
BRANCH   4  10
ATOM      6  O   UNL     1      -5.492   0.397   0.531  0.00  0.00    -0.277 OA
ATOM      7  O   UNL     1      -3.806   1.955   2.130  0.00  0.00    -0.277 OA
ATOM      8  N   UNL     1      -3.326  -0.133   1.211  0.00  0.00    -0.259 N 
ATOM      9  C   UNL     1      -4.530  -0.369   0.545  0.00  0.00    +0.207 C 
ATOM     10  C   UNL     1      -3.039   1.010   1.960  0.00  0.00    +0.208 C 
ATOM     11  H   UNL     1      -2.628  -0.824   1.149  0.00  0.00    +0.157 HD
BRANCH   9  12
ATOM     12  C   UNL     1      -4.521  -1.688  -0.220  0.00  0.00    +0.013 C 
BRANCH  12  13
ATOM     13  N   UNL     1      -5.586  -2.499   0.377  0.00  0.00    +0.387 N 
ATOM     14  H   UNL     1      -5.631  -3.402  -0.095  0.00  0.00    -0.089 HD
ATOM     15  H   UNL     1      -6.479  -2.017   0.275  0.00  0.00    -0.089 HD
ATOM     16  H   UNL     1      -5.388  -2.643   1.368  0.00  0.00    -0.089 HD
ENDBRANCH  12  13
BRANCH  12  17
ATOM     17  C   UNL     1      -4.788  -1.495  -1.722  0.00  0.00    -0.013 C 
BRANCH  17  18
ATOM     18  C   UNL     1      -3.788  -0.559  -2.434  0.00  0.00    -0.002 C 
ATOM     19  C   UNL     1      -2.371  -1.125  -2.305  0.00  0.00    -0.000 C 
ATOM     20  C   UNL     1      -4.128  -0.353  -3.911  0.00  0.00    -0.000 C 
ENDBRANCH  17  18
ENDBRANCH  12  17
ENDBRANCH   9  12
ENDBRANCH   4  10
ENDBRANCH   1   4
BRANCH   1  21
ATOM     21  C   UNL     1      -0.429   1.795   0.644  0.00  0.00    -0.062 C 
BRANCH  21  22
ATOM     22  C   UNL     1       0.335   2.979   0.068  0.00  0.00    +0.068 C 
BRANCH  22  23
ATOM     23  N   UNL     1       0.795   2.647  -1.298  0.00  0.00    -0.182 NA
ATOM     24  H   UNL     1       0.431   1.720  -1.515  0.00  0.00    +0.149 HD
BRANCH  23  25
ATOM     25  S   UNL     1       2.458   2.617  -1.649  0.00  0.00    +0.060 S 
ATOM     26  O   UNL     1       3.055   3.880  -1.262  0.00  0.00    -0.153 OA
ATOM     27  O   UNL     1       2.644   2.103  -2.993  0.00  0.00    -0.153 OA
BRANCH  25  28
ATOM     28  C   UNL     1       3.041   1.374  -0.536  0.00  0.00    +0.122 C 
ATOM     29  C   UNL     1       2.739   0.011  -0.691  0.00  0.00    +0.020 C 
ATOM     30  C   UNL     1       3.246  -0.921   0.246  0.00  0.00    +0.015 C 
ATOM     31  C   UNL     1       2.944  -2.284   0.092  0.00  0.00    +0.048 C 
ATOM     32  C   UNL     1       3.832   1.812   0.527  0.00  0.00    +0.020 C 
ATOM     33  C   UNL     1       1.945  -0.448  -1.754  0.00  0.00    +0.001 C 
ATOM     34  C   UNL     1       4.040  -0.463   1.310  0.00  0.00    +0.001 C 
ATOM     35  C   UNL     1       4.330   0.895   1.448  0.00  0.00    +0.001 C 
ATOM     36  C   UNL     1       2.153  -2.721  -0.971  0.00  0.00    +0.015 C 
ATOM     37  C   UNL     1       1.655  -1.805  -1.892  0.00  0.00    +0.001 C 
BRANCH  31  38
ATOM     38  N   UNL     1       3.425  -3.258   1.000  0.00  0.00    -0.304 N 
ATOM     39  C   UNL     1       4.696  -3.907   0.766  0.00  0.00    +0.112 C 
ATOM     40  C   UNL     1       2.655  -3.600   2.176  0.00  0.00    +0.112 C 
ENDBRANCH  31  38
ENDBRANCH  25  28
ENDBRANCH  23  25
ENDBRANCH  22  23
ENDBRANCH  21  22
ENDBRANCH   1  21
TORSDOF 12
