135103
  -OEChem-03292013323D

 31 30  0     1  0  0  0  0  0999 V2000
   -2.4488   -2.2878   -0.0662 O   0  0  0  0  0  0  0  0  0  0  0  0
    0.0028    1.2407   -1.2777 O   0  0  0  0  0  0  0  0  0  0  0  0
   -4.8271    0.7290   -0.4805 O   0  0  0  0  0  0  0  0  0  0  0  0
    2.4196   -1.2046    0.7962 O   0  0  0  0  0  0  0  0  0  0  0  0
   -3.9235   -0.0531    1.4491 O   0  0  0  0  0  0  0  0  0  0  0  0
   -1.4203    0.3319    0.3192 N   0  0  0  0  0  0  0  0  0  0  0  0
    2.0891    1.0752    0.5210 N   0  0  0  0  0  0  0  0  0  0  0  0
    5.1365   -0.8175    0.5225 N   0  0  0  0  0  0  0  0  0  0  0  0
   -2.5414    0.0608   -0.5520 C   0  0  1  0  0  0  0  0  0  0  0  0
    0.7346    1.1186    1.0215 C   0  0  0  0  0  0  0  0  0  0  0  0
    4.2279    0.1407   -0.1019 C   0  0  2  0  0  0  0  0  0  0  0  0
   -2.4758   -1.3448   -1.1307 C   0  0  0  0  0  0  0  0  0  0  0  0
   -0.2350    0.9029   -0.1208 C   0  0  0  0  0  0  0  0  0  0  0  0
    2.8278   -0.0982    0.4492 C   0  0  0  0  0  0  0  0  0  0  0  0
   -3.8028    0.2403    0.2667 C   0  0  0  0  0  0  0  0  0  0  0  0
    4.2364   -0.0338   -1.6155 C   0  0  0  0  0  0  0  0  0  0  0  0
   -2.5336    0.8015   -1.3597 H   0  0  0  0  0  0  0  0  0  0  0  0
    0.6090    0.3556    1.7960 H   0  0  0  0  0  0  0  0  0  0  0  0
    0.5598    2.1082    1.4534 H   0  0  0  0  0  0  0  0  0  0  0  0
   -1.5100    0.0793    1.2996 H   0  0  0  0  0  0  0  0  0  0  0  0
    4.5602    1.1516    0.1582 H   0  0  0  0  0  0  0  0  0  0  0  0
   -1.5649   -1.4826   -1.7219 H   0  0  0  0  0  0  0  0  0  0  0  0
   -3.3392   -1.5633   -1.7676 H   0  0  0  0  0  0  0  0  0  0  0  0
    2.4969    1.9438    0.1878 H   0  0  0  0  0  0  0  0  0  0  0  0
    3.5634    0.6883   -2.0908 H   0  0  0  0  0  0  0  0  0  0  0  0
    3.8971   -1.0342   -1.9085 H   0  0  0  0  0  0  0  0  0  0  0  0
    5.2398    0.1213   -2.0263 H   0  0  0  0  0  0  0  0  0  0  0  0
    6.0816   -0.6698    0.1694 H   0  0  0  0  0  0  0  0  0  0  0  0
    4.8832   -1.7659    0.2457 H   0  0  0  0  0  0  0  0  0  0  0  0
   -3.3202   -2.2775    0.3645 H   0  0  0  0  0  0  0  0  0  0  0  0
   -5.6499    0.8241    0.0453 H   0  0  0  0  0  0  0  0  0  0  0  0
  1 12  1  0  0  0  0
  1 30  1  0  0  0  0
  2 13  2  0  0  0  0
  3 15  1  0  0  0  0
  3 31  1  0  0  0  0
  4 14  2  0  0  0  0
  5 15  2  0  0  0  0
  6  9  1  0  0  0  0
  6 13  1  0  0  0  0
  6 20  1  0  0  0  0
  7 10  1  0  0  0  0
  7 14  1  0  0  0  0
  7 24  1  0  0  0  0
  8 11  1  0  0  0  0
  8 28  1  0  0  0  0
  8 29  1  0  0  0  0
  9 12  1  0  0  0  0
  9 15  1  0  0  0  0
  9 17  1  0  0  0  0
 10 13  1  0  0  0  0
 10 18  1  0  0  0  0
 10 19  1  0  0  0  0
 11 14  1  0  0  0  0
 11 16  1  0  0  0  0
 11 21  1  0  0  0  0
 12 22  1  0  0  0  0
 12 23  1  0  0  0  0
 16 25  1  0  0  0  0
 16 26  1  0  0  0  0
 16 27  1  0  0  0  0
M  END
> <PUBCHEM_COMPOUND_CID>
135103

> <PUBCHEM_CONFORMER_RMSD>
0.8

> <PUBCHEM_CONFORMER_DIVERSEORDER>
1
14
45
59
70
30
7
53
33
20
44
66
5
80
63
50
73
31
84
54
69
28
18
40
8
86
11
57
36
76
27
43
78
64
39
32
21
65
3
85
12
41
24
35
19
75
2
61
62
47
72
71
46
38
37
34
29
23
56
49
16
60
81
13
48
55
25
68
74
77
42
58
83
52
9
26
79
67
4
82
15
22
51
10
17
6

> <PUBCHEM_MMFF94_PARTIAL_CHARGES>
21
1 -0.68
10 0.36
11 0.33
12 0.28
13 0.57
14 0.57
15 0.66
2 -0.57
20 0.37
24 0.37
28 0.36
29 0.36
3 -0.65
30 0.4
31 0.5
4 -0.57
5 -0.57
6 -0.73
7 -0.73
8 -0.99
9 0.36

> <PUBCHEM_EFFECTIVE_ROTOR_COUNT>
8

> <PUBCHEM_PHARMACOPHORE_FEATURES>
11
1 1 acceptor
1 1 donor
1 2 acceptor
1 3 acceptor
1 4 acceptor
1 5 acceptor
1 6 donor
1 7 donor
1 8 cation
1 8 donor
3 3 5 15 anion

> <PUBCHEM_HEAVY_ATOM_COUNT>
16

> <PUBCHEM_ATOM_DEF_STEREO_COUNT>
2

> <PUBCHEM_ATOM_UDEF_STEREO_COUNT>
0

> <PUBCHEM_BOND_DEF_STEREO_COUNT>
0

> <PUBCHEM_BOND_UDEF_STEREO_COUNT>
0

> <PUBCHEM_ISOTOPIC_ATOM_COUNT>
0

> <PUBCHEM_COMPONENT_COUNT>
1

> <PUBCHEM_CACTVS_TAUTO_COUNT>
4

> <PUBCHEM_CONFORMER_ID>
00020FBF00000001

> <PUBCHEM_MMFF94_ENERGY>
21.251

> <PUBCHEM_FEATURE_SELFOVERLAP>
55.885

> <PUBCHEM_SHAPE_FINGERPRINT>
12346177 29 17703780462182255535
124424 183 17489585684286060617
12507557 5 11383824978576592426
128620 24 13551189987340089769
13081056 2 13045944603521087350
14251739 40 12319468653540356292
14252887 29 17203892951191061356
15242433 33 18408884027432432334
15375358 24 17418375787711034334
15375462 189 18409162199668989546
17802600 8 8358255938639832910
17804303 29 18343582975412820981
17834072 33 17417241156099060672
17834072 8 18412537696372039781
17862501 102 11815895643443504693
19107657 47 13254797932091076418
192875 21 9799688194800288042
200 152 17530682083384782348
20279233 1 16415482674631326564
20281475 54 18409161130190406010
20300324 65 11674877792803147635
20645477 70 17703782660931412100
20871999 31 17023192689757367602
22485316 2 18341608231138940376
23402539 116 16805316674612941760
23557571 272 17168420450809890108
23559900 14 17845643863060679496
23598291 2 18263649635456892189
265663 24 11239996741566128229
3268164 11 11963386371119271323
328317 168 12901556762315574460
351380 180 13614238170310052139
42 15 15626226792943344108
4325135 7 15502954024302793186

> <PUBCHEM_SHAPE_MULTIPOLES>
284.98
10.12
1.43
1.22
2.95
0.57
0.21
1.6
-0.06
-0.71
-0.1
0.37
0.05
-0.04

> <PUBCHEM_SHAPE_SELFOVERLAP>
552.362

> <PUBCHEM_SHAPE_VOLUME>
171.3

> <PUBCHEM_COORDINATE_TYPE>
2
5
10

$$$$
