135164
  -OEChem-03292013323D

 62 63  0     1  0  0  0  0  0999 V2000
   -3.7355   -0.7567   -1.5215 O   0  0  0  0  0  0  0  0  0  0  0  0
   -1.3269    0.5489    0.7944 O   0  0  0  0  0  0  0  0  0  0  0  0
    0.7489   -1.3099    1.1515 O   0  0  0  0  0  0  0  0  0  0  0  0
   -5.2705   -0.5059    3.8143 O   0  0  0  0  0  0  0  0  0  0  0  0
   -6.9440   -1.2776    2.4833 O   0  0  0  0  0  0  0  0  0  0  0  0
    7.7290    1.8781    1.5242 O   0  5  0  0  0  0  0  0  0  0  0  0
    6.5059    3.2059    0.2751 O   0  0  0  0  0  0  0  0  0  0  0  0
   -3.0345    1.4046   -1.0805 N   0  0  0  0  0  0  0  0  0  0  0  0
    0.0587   -0.3544   -0.8574 N   0  0  0  0  0  0  0  0  0  0  0  0
   -6.1289    0.6338   -2.1673 N   0  0  0  0  0  0  0  0  0  0  0  0
    3.0956   -2.0751   -0.0711 N   0  0  0  0  0  0  0  0  0  0  0  0
    6.7228    2.0892    0.8047 N   0  3  0  0  0  0  0  0  0  0  0  0
   -1.6457    1.2135   -1.4779 C   0  0  1  0  0  0  0  0  0  0  0  0
   -1.0846    2.6241   -1.6152 C   0  0  0  0  0  0  0  0  0  0  0  0
   -1.9127    3.4338   -0.6204 C   0  0  0  0  0  0  0  0  0  0  0  0
   -3.2900    2.7941   -0.7098 C   0  0  0  0  0  0  0  0  0  0  0  0
   -3.9889    0.4072   -1.2061 C   0  0  0  0  0  0  0  0  0  0  0  0
   -0.9719    0.4511   -0.3771 C   0  0  0  0  0  0  0  0  0  0  0  0
   -5.4082    0.8259   -0.9161 C   0  0  2  0  0  0  0  0  0  0  0  0
   -6.0091   -0.0128    0.2085 C   0  0  0  0  0  0  0  0  0  0  0  0
    1.9014   -1.9383   -0.8831 C   0  0  1  0  0  0  0  0  0  0  0  0
    1.4354   -3.3293   -1.3656 C   0  0  0  0  0  0  0  0  0  0  0  0
    0.8550   -1.1841   -0.0672 C   0  0  0  0  0  0  0  0  0  0  0  0
   -5.2613    0.1677    1.5283 C   0  0  0  0  0  0  0  0  0  0  0  0
    2.4884   -4.0140   -2.2412 C   0  0  0  0  0  0  0  0  0  0  0  0
    1.0193   -4.2664   -0.2267 C   0  0  0  0  0  0  0  0  0  0  0  0
    3.9918   -1.0458    0.1464 C   0  0  0  0  0  0  0  0  0  0  0  0
   -5.9282   -0.6113    2.6328 C   0  0  0  0  0  0  0  0  0  0  0  0
    5.1175   -1.2572    0.9426 C   0  0  0  0  0  0  0  0  0  0  0  0
    3.7712    0.2043   -0.4317 C   0  0  0  0  0  0  0  0  0  0  0  0
    6.0225   -0.2184    1.1608 C   0  0  0  0  0  0  0  0  0  0  0  0
    4.6761    1.2431   -0.2136 C   0  0  0  0  0  0  0  0  0  0  0  0
    5.8017    1.0317    0.5826 C   0  0  0  0  0  0  0  0  0  0  0  0
   -1.6061    0.6553   -2.4196 H   0  0  0  0  0  0  0  0  0  0  0  0
   -0.0114    2.6938   -1.4135 H   0  0  0  0  0  0  0  0  0  0  0  0
   -1.2691    2.9998   -2.6291 H   0  0  0  0  0  0  0  0  0  0  0  0
   -1.9306    4.5024   -0.8524 H   0  0  0  0  0  0  0  0  0  0  0  0
   -1.5049    3.3142    0.3902 H   0  0  0  0  0  0  0  0  0  0  0  0
   -3.8892    3.2557   -1.5022 H   0  0  0  0  0  0  0  0  0  0  0  0
   -3.8256    2.8543    0.2417 H   0  0  0  0  0  0  0  0  0  0  0  0
   -5.5108    1.8764   -0.6443 H   0  0  0  0  0  0  0  0  0  0  0  0
    0.2452   -0.3366   -1.8569 H   0  0  0  0  0  0  0  0  0  0  0  0
    2.1303   -1.3742   -1.7962 H   0  0  0  0  0  0  0  0  0  0  0  0
   -6.0071   -1.0774   -0.0632 H   0  0  0  0  0  0  0  0  0  0  0  0
   -7.0629    0.2662    0.3441 H   0  0  0  0  0  0  0  0  0  0  0  0
    0.5430   -3.1753   -1.9879 H   0  0  0  0  0  0  0  0  0  0  0  0
   -7.1147    0.8566   -2.0351 H   0  0  0  0  0  0  0  0  0  0  0  0
   -5.7824    1.2873   -2.8692 H   0  0  0  0  0  0  0  0  0  0  0  0
   -4.2307   -0.1913    1.4399 H   0  0  0  0  0  0  0  0  0  0  0  0
   -5.2526    1.2248    1.8147 H   0  0  0  0  0  0  0  0  0  0  0  0
    3.2578   -2.9420    0.4277 H   0  0  0  0  0  0  0  0  0  0  0  0
    2.7820   -3.3673   -3.0747 H   0  0  0  0  0  0  0  0  0  0  0  0
    2.0911   -4.9420   -2.6664 H   0  0  0  0  0  0  0  0  0  0  0  0
    3.3892   -4.2683   -1.6730 H   0  0  0  0  0  0  0  0  0  0  0  0
    0.6369   -5.2095   -0.6338 H   0  0  0  0  0  0  0  0  0  0  0  0
    0.2174   -3.8314    0.3774 H   0  0  0  0  0  0  0  0  0  0  0  0
    1.8534   -4.5145    0.4362 H   0  0  0  0  0  0  0  0  0  0  0  0
    5.3015   -2.2267    1.3987 H   0  0  0  0  0  0  0  0  0  0  0  0
    2.9149    0.4306   -1.0571 H   0  0  0  0  0  0  0  0  0  0  0  0
    6.8882   -0.4194    1.7865 H   0  0  0  0  0  0  0  0  0  0  0  0
    4.4722    2.2042   -0.6790 H   0  0  0  0  0  0  0  0  0  0  0  0
   -5.7088   -1.0214    4.5246 H   0  0  0  0  0  0  0  0  0  0  0  0
  1 17  2  0  0  0  0
  2 18  2  0  0  0  0
  3 23  2  0  0  0  0
  4 28  1  0  0  0  0
  4 62  1  0  0  0  0
  5 28  2  0  0  0  0
  6 12  1  0  0  0  0
  7 12  2  0  0  0  0
  8 13  1  0  0  0  0
  8 16  1  0  0  0  0
  8 17  1  0  0  0  0
  9 18  1  0  0  0  0
  9 23  1  0  0  0  0
  9 42  1  0  0  0  0
 10 19  1  0  0  0  0
 10 47  1  0  0  0  0
 10 48  1  0  0  0  0
 11 21  1  0  0  0  0
 11 27  1  0  0  0  0
 11 51  1  0  0  0  0
 12 33  1  0  0  0  0
 13 14  1  0  0  0  0
 13 18  1  0  0  0  0
 13 34  1  0  0  0  0
 14 15  1  0  0  0  0
 14 35  1  0  0  0  0
 14 36  1  0  0  0  0
 15 16  1  0  0  0  0
 15 37  1  0  0  0  0
 15 38  1  0  0  0  0
 16 39  1  0  0  0  0
 16 40  1  0  0  0  0
 17 19  1  0  0  0  0
 19 20  1  0  0  0  0
 19 41  1  0  0  0  0
 20 24  1  0  0  0  0
 20 44  1  0  0  0  0
 20 45  1  0  0  0  0
 21 22  1  0  0  0  0
 21 23  1  0  0  0  0
 21 43  1  0  0  0  0
 22 25  1  0  0  0  0
 22 26  1  0  0  0  0
 22 46  1  0  0  0  0
 24 28  1  0  0  0  0
 24 49  1  0  0  0  0
 24 50  1  0  0  0  0
 25 52  1  0  0  0  0
 25 53  1  0  0  0  0
 25 54  1  0  0  0  0
 26 55  1  0  0  0  0
 26 56  1  0  0  0  0
 26 57  1  0  0  0  0
 27 29  2  0  0  0  0
 27 30  1  0  0  0  0
 29 31  1  0  0  0  0
 29 58  1  0  0  0  0
 30 32  2  0  0  0  0
 30 59  1  0  0  0  0
 31 33  2  0  0  0  0
 31 60  1  0  0  0  0
 32 33  1  0  0  0  0
 32 61  1  0  0  0  0
M  CHG  2   6  -1  12   1
M  END
> <PUBCHEM_COMPOUND_CID>
135164

> <PUBCHEM_CONFORMER_RMSD>
1.2

> <PUBCHEM_CONFORMER_DIVERSEORDER>
1
34
32
21
42
35
59
33
30
15
28
50
40
43
12
19
6
23
63
57
29
36
41
62
37
31
22
10
56
39
26
18
53
60
16
61
51
46
49
13
58
11
20
4
14
55
27
9
47
44
48
45
5
2
24
7
8
38
17
3
52
25
54

> <PUBCHEM_MMFF94_PARTIAL_CHARGES>
36
1 -0.57
10 -0.99
11 -0.87
12 0.91
13 0.36
16 0.3
17 0.57
18 0.57
19 0.33
2 -0.57
21 0.43
23 0.57
24 0.06
27 0.1
28 0.66
29 -0.15
3 -0.57
30 -0.15
31 -0.15
32 -0.15
33 0.13
4 -0.65
42 0.37
47 0.36
48 0.36
5 -0.57
51 0.4
58 0.15
59 0.15
6 -0.52
60 0.15
61 0.15
62 0.5
7 -0.52
8 -0.66
9 -0.49

> <PUBCHEM_EFFECTIVE_ROTOR_COUNT>
14

> <PUBCHEM_PHARMACOPHORE_FEATURES>
17
1 1 acceptor
1 10 cation
1 10 donor
1 11 cation
1 11 donor
1 2 acceptor
1 3 acceptor
1 4 acceptor
1 5 acceptor
1 6 acceptor
1 6 anion
1 7 acceptor
1 9 donor
3 22 25 26 hydrophobe
3 4 5 28 anion
5 8 13 14 15 16 rings
6 27 29 30 31 32 33 rings

> <PUBCHEM_HEAVY_ATOM_COUNT>
33

> <PUBCHEM_ATOM_DEF_STEREO_COUNT>
3

> <PUBCHEM_ATOM_UDEF_STEREO_COUNT>
0

> <PUBCHEM_BOND_DEF_STEREO_COUNT>
0

> <PUBCHEM_BOND_UDEF_STEREO_COUNT>
0

> <PUBCHEM_ISOTOPIC_ATOM_COUNT>
0

> <PUBCHEM_COMPONENT_COUNT>
1

> <PUBCHEM_CACTVS_TAUTO_COUNT>
3

> <PUBCHEM_CONFORMER_ID>
00020FFC00000001

> <PUBCHEM_MMFF94_ENERGY>
86.6375

> <PUBCHEM_FEATURE_SELFOVERLAP>
86.417

> <PUBCHEM_SHAPE_FINGERPRINT>
10010297 198 16843900655008560247
11135609 201 18131066061130064272
12712778 12 16732993058800970859
14068700 686 18337104549527831948
14294032 229 18198901608080249510
14415360 78 17773589615276951400
14856354 85 16773790433544419397
15188451 53 15791731935838769178
16126227 98 18198615713635042600
16994733 274 16200433580890807162
17349148 13 15141256368621695031
18393751 57 18335982064562645986
19611394 137 17968101953450671192
21458453 9 18338229487525147147
21623969 137 18408610249148048435
2260408 40 18198647478948841809
23522609 53 16917079844968527195
23559900 14 17765422150236183454
25019877 29 18272645788372019214
2747138 104 18260276243192981137
397830 11 17821730567445715530
4107672 100 13973966531957506257
437795 139 15647349579907789003
4918855 1 17203891872680193161
5104073 3 18189614934501620353
7399639 24 18336552607622906711

> <PUBCHEM_SHAPE_MULTIPOLES>
613.13
18.76
4.15
2.36
3.53
1.97
-1.69
-8.11
-11.27
4.85
1.99
-4.78
0.88
4.24

> <PUBCHEM_SHAPE_SELFOVERLAP>
1271.549

> <PUBCHEM_SHAPE_VOLUME>
348.5

> <PUBCHEM_COORDINATE_TYPE>
2
5
10

$$$$
