REMARK  Name = 135103
REMARK  9 active torsions:
REMARK  status: ('A' for Active; 'I' for Inactive)
REMARK    1  A    between atoms: N_2  and  CA_5
REMARK    2  A    between atoms: C_3  and  CA_13
REMARK    3  A    between atoms: CA_5  and  C_7
REMARK    4  A    between atoms: CA_5  and  CB_10
REMARK    5  A    between atoms: C_7  and  O_8
REMARK    6  A    between atoms: CB_10  and  OG_11
REMARK    7  A    between atoms: CA_13  and  N_15
REMARK    8  A    between atoms: C_16  and  CA_18
REMARK    9  A    between atoms: CA_18  and  N_20
REMARK                            x       y       z     vdW  Elec       q    Type
REMARK                         _______ _______ _______ _____ _____    ______ ____
ROOT
ATOM      1  O   GLY A   2       0.003   1.241  -1.278  0.00  0.00    -0.273 OA
ATOM      2  N   SER A   3      -1.420   0.332   0.319  0.00  0.00    -0.293 N 
ATOM      3  C   GLY A   2      -0.235   0.903  -0.121  0.00  0.00    +0.243 C 
ATOM      4  H   SER A   3      -1.502   0.100   1.272  0.00  0.00    +0.150 HD
ENDROOT
BRANCH   2   5
ATOM      5  CA  SER A   3      -2.541   0.061  -0.552  0.00  0.00    +0.201 C 
BRANCH   5   7
ATOM      6  OXT SER A   3      -3.924  -0.053   1.449  0.00  0.00    -0.248 OA
ATOM      7  C   SER A   3      -3.803   0.240   0.267  0.00  0.00    +0.334 C 
BRANCH   7   8
ATOM      8  O   SER A   3      -4.827   0.729  -0.480  0.00  0.00    -0.479 OA
ATOM      9  H   SER A   3      -4.689   0.940  -1.383  0.00  0.00    +0.295 HD
ENDBRANCH   7   8
ENDBRANCH   5   7
BRANCH   5  10
ATOM     10  CB  SER A   3      -2.476  -1.345  -1.131  0.00  0.00    +0.168 C 
BRANCH  10  11
ATOM     11  OG  SER A   3      -2.449  -2.288  -0.066  0.00  0.00    -0.380 OA
ATOM     12  H   SER A   3      -2.407  -3.186  -0.431  0.00  0.00    +0.211 HD
ENDBRANCH  10  11
ENDBRANCH   5  10
ENDBRANCH   2   5
BRANCH   3  13
ATOM     13  CA  GLY A   2       0.735   1.119   1.022  0.00  0.00    +0.176 C 
BRANCH  13  15
ATOM     14  O   ALA A   1       2.420  -1.205   0.796  0.00  0.00    -0.277 OA
ATOM     15  N   GLY A   2       2.089   1.075   0.521  0.00  0.00    -0.298 N 
ATOM     16  C   ALA A   1       2.828  -0.098   0.449  0.00  0.00    +0.202 C 
ATOM     17  H   GLY A   2       2.506   1.914   0.218  0.00  0.00    +0.150 HD
BRANCH  16  18
ATOM     18  CA  ALA A   1       4.228   0.141  -0.102  0.00  0.00    +0.013 C 
ATOM     19  CB  ALA A   1       4.236  -0.034  -1.615  0.00  0.00    -0.015 C 
BRANCH  18  20
ATOM     20  N   ALA A   1       5.136  -0.818   0.522  0.00  0.00    +0.387 N 
ATOM     21  H1  ALA A   1       5.122  -0.690   1.534  0.00  0.00    -0.089 HD
ATOM     22  H2  ALA A   1       6.083  -0.665   0.175  0.00  0.00    -0.089 HD
ATOM     23  H3  ALA A   1       4.839  -1.766   0.295  0.00  0.00    -0.089 HD
ENDBRANCH  18  20
ENDBRANCH  16  18
ENDBRANCH  13  15
ENDBRANCH   3  13
TORSDOF 9
