REMARK  Name = 135176
REMARK  8 active torsions:
REMARK  status: ('A' for Active; 'I' for Inactive)
REMARK    1  A    between atoms: C_6  and  C_25
REMARK    2  A    between atoms: C_6  and  O_29
REMARK    3  A    between atoms: C_8  and  O_22
REMARK    4  A    between atoms: C_25  and  C_26
REMARK    5  A    between atoms: C_26  and  O_27
REMARK    6  A    between atoms: O_29  and  C_31
REMARK    7  A    between atoms: C_31  and  C_32
REMARK    8  A    between atoms: C_32  and  O_33
REMARK                            x       y       z     vdW  Elec       q    Type
REMARK                         _______ _______ _______ _____ _____    ______ ____
ROOT
ATOM      1  O   UNL     1      -6.335  -2.276  -1.197  0.00  0.00    -0.287 OA
ATOM      2  C   UNL     1       1.054   1.129   0.116  0.00  0.00    +0.043 C 
ATOM      3  C   UNL     1       0.243   0.235   1.080  0.00  0.00    +0.004 C 
ATOM      4  C   UNL     1      -1.259   0.544   1.061  0.00  0.00    +0.003 C 
ATOM      5  C   UNL     1      -1.829   0.318  -0.384  0.00  0.00    +0.034 C 
ATOM      6  C   UNL     1       2.487   0.648   0.460  0.00  0.00    +0.189 C 
ATOM      7  C   UNL     1       0.555   0.826  -1.300  0.00  0.00    +0.033 C 
ATOM      8  C   UNL     1      -0.963   1.056  -1.458  0.00  0.00    +0.111 C 
ATOM      9  C   UNL     1       0.996   0.367   2.403  0.00  0.00    +0.004 C 
ATOM     10  C   UNL     1      -3.389   0.611  -0.431  0.00  0.00    +0.036 C 
ATOM     11  C   UNL     1       2.477   0.494   1.995  0.00  0.00    +0.047 C 
ATOM     12  C   UNL     1      -2.011  -0.308   2.095  0.00  0.00    +0.004 C 
ATOM     13  C   UNL     1      -3.520  -0.027   2.083  0.00  0.00    +0.019 C 
ATOM     14  C   UNL     1       0.909   2.647   0.407  0.00  0.00    +0.004 C 
ATOM     15  C   UNL     1      -4.055  -0.247   0.670  0.00  0.00    -0.038 C 
ATOM     16  C   UNL     1      -3.710   2.105  -0.188  0.00  0.00    +0.009 C 
ATOM     17  C   UNL     1      -3.980   0.303  -1.800  0.00  0.00    -0.020 C 
ATOM     18  C   UNL     1      -4.190  -0.835   3.204  0.00  0.00    +0.004 C 
ATOM     19  C   UNL     1      -5.001  -1.163   0.398  0.00  0.00    +0.034 C 
ATOM     20  C   UNL     1      -4.920  -0.609  -2.061  0.00  0.00    +0.038 C 
ATOM     21  C   UNL     1      -5.485  -1.420  -0.974  0.00  0.00    +0.195 C 
ENDROOT
BRANCH   8  22
ATOM     22  O   UNL     1      -1.296   0.585  -2.765  0.00  0.00    -0.384 OA
ATOM     23  H   UNL     1      -2.246   0.706  -2.920  0.00  0.00    +0.210 HD
ENDBRANCH   8  22
BRANCH   6  25
ATOM     24  O   UNL     1       4.371   2.077   0.747  0.00  0.00    -0.290 OA
ATOM     25  C   UNL     1       3.584   1.542  -0.033  0.00  0.00    +0.216 C 
BRANCH  25  26
ATOM     26  C   UNL     1       3.663   1.745  -1.531  0.00  0.00    +0.206 C 
BRANCH  26  27
ATOM     27  O   UNL     1       4.997   1.964  -1.935  0.00  0.00    -0.375 OA
ATOM     28  H   UNL     1       5.027   2.091  -2.897  0.00  0.00    +0.211 HD
ENDBRANCH  26  27
ENDBRANCH  25  26
ENDBRANCH   6  25
BRANCH   6  29
ATOM     29  O   UNL     1       2.763  -0.615  -0.140  0.00  0.00    -0.447 OA
BRANCH  29  31
ATOM     30  O   UNL     1       4.814  -0.681   0.916  0.00  0.00    -0.247 OA
ATOM     31  C   UNL     1       3.973  -1.171   0.176  0.00  0.00    +0.348 C 
BRANCH  31  32
ATOM     32  C   UNL     1       4.111  -2.492  -0.533  0.00  0.00    +0.252 C 
BRANCH  32  33
ATOM     33  O   UNL     1       5.373  -3.048  -0.221  0.00  0.00    -0.340 OA
ATOM     34  C   UNL     1       5.572  -4.304  -0.861  0.00  0.00    +0.175 C 
ENDBRANCH  32  33
ENDBRANCH  31  32
ENDBRANCH  29  31
ENDBRANCH   6  29
TORSDOF 8
