REMARK  Name = 135109
REMARK  3 active torsions:
REMARK  status: ('A' for Active; 'I' for Inactive)
REMARK    1  A    between atoms: C_9  and  C_16
REMARK    2  A    between atoms: C_21  and  C_23
REMARK    3  A    between atoms: C_23  and  O_24
REMARK                            x       y       z     vdW  Elec       q    Type
REMARK                         _______ _______ _______ _____ _____    ______ ____
ROOT
ATOM      1  O   UNL     1       3.078  -2.723   0.303  0.00  0.00    -0.265 OA
ATOM      2  O   UNL     1       5.391   1.337  -0.155  0.00  0.00    -0.246 OA
ATOM      3  N   UNL     1       3.064   1.390  -0.156  0.00  0.00    -0.266 N 
ATOM      4  N   UNL     1       0.595  -1.078   0.125  0.00  0.00    -0.310 N 
ATOM      5  N   UNL     1       4.262  -0.702   0.075  0.00  0.00    -0.246 N 
ATOM      6  N   UNL     1       0.616   1.137  -0.122  0.00  0.00    -0.301 N 
ATOM      7  C   UNL     1       1.909  -0.712   0.080  0.00  0.00    +0.133 A 
ATOM      8  C   UNL     1       1.894   0.648  -0.071  0.00  0.00    +0.132 A 
ATOM      9  C   UNL     1      -0.145   0.070  -0.002  0.00  0.00    +0.169 C 
ATOM     10  C   UNL     1       3.093  -1.503   0.167  0.00  0.00    +0.280 A 
ATOM     11  C   UNL     1       4.316   0.730  -0.085  0.00  0.00    +0.335 A 
ATOM     12  C   UNL     1       3.006   2.838  -0.316  0.00  0.00    +0.136 C 
ATOM     13  C   UNL     1       5.541  -1.401   0.151  0.00  0.00    +0.138 C 
ATOM     14  H   UNL     1       0.244  -1.992   0.227  0.00  0.00    +0.149 HD
ATOM     15  H   UNL     1       0.332   2.074  -0.226  0.00  0.00    +0.150 HD
ENDROOT
BRANCH   9  16
ATOM     16  C   UNL     1      -1.588   0.052   0.004  0.00  0.00    +0.014 C 
ATOM     17  C   UNL     1      -2.296   1.150   0.492  0.00  0.00    -0.001 C 
ATOM     18  C   UNL     1      -2.273  -1.063  -0.478  0.00  0.00    -0.001 C 
ATOM     19  C   UNL     1      -3.691   1.133   0.496  0.00  0.00    +0.006 C 
ATOM     20  C   UNL     1      -3.668  -1.080  -0.474  0.00  0.00    +0.006 C 
ATOM     21  C   UNL     1      -4.377   0.018   0.013  0.00  0.00    +0.075 C 
BRANCH  21  23
ATOM     22  O   UNL     1      -6.557   0.915   0.423  0.00  0.00    -0.245 OA
ATOM     23  C   UNL     1      -5.831   0.001   0.017  0.00  0.00    +0.338 C 
BRANCH  23  24
ATOM     24  O   UNL     1      -6.339  -1.157  -0.487  0.00  0.00    -0.477 OA
ATOM     25  H   UNL     1      -5.762  -1.831  -0.787  0.00  0.00    +0.295 HD
ENDBRANCH  23  24
ENDBRANCH  21  23
ENDBRANCH   9  16
TORSDOF 3
