REMARK  Name = 135126
REMARK  4 active torsions:
REMARK  status: ('A' for Active; 'I' for Inactive)
REMARK    1  A    between atoms: C_4  and  O_23
REMARK    2  A    between atoms: C_8  and  O_19
REMARK    3  A    between atoms: C_18  and  O_21
REMARK    4  A    between atoms: O_23  and  S_24
REMARK                            x       y       z     vdW  Elec       q    Type
REMARK                         _______ _______ _______ _____ _____    ______ ____
ROOT
ATOM      1  C   UNL     1      -1.360   0.453  -0.203  0.00  0.00    +0.030 C 
ATOM      2  C   UNL     1      -0.630  -0.827   0.253  0.00  0.00    +0.005 C 
ATOM      3  C   UNL     1       0.849  -0.819  -0.135  0.00  0.00    +0.005 C 
ATOM      4  C   UNL     1      -2.783   0.103   0.275  0.00  0.00    +0.174 C 
ATOM      5  C   UNL     1       1.543   0.389   0.566  0.00  0.00    +0.022 C 
ATOM      6  C   UNL     1      -0.718   1.648   0.514  0.00  0.00    +0.003 C 
ATOM      7  C   UNL     1      -1.529  -1.956  -0.253  0.00  0.00    +0.032 C 
ATOM      8  C   UNL     1      -2.954  -1.379  -0.122  0.00  0.00    +0.140 C 
ATOM      9  C   UNL     1       0.801   1.718   0.263  0.00  0.00    +0.004 C 
ATOM     10  C   UNL     1       1.570  -2.107   0.267  0.00  0.00    +0.005 C 
ATOM     11  C   UNL     1      -1.345   0.702  -1.732  0.00  0.00    +0.003 C 
ATOM     12  C   UNL     1       3.043   0.406   0.281  0.00  0.00    -0.026 C 
ATOM     13  C   UNL     1       2.997  -2.093  -0.273  0.00  0.00    +0.026 C 
ATOM     14  C   UNL     1       3.718  -0.783  -0.071  0.00  0.00    -0.023 C 
ATOM     15  C   UNL     1       3.802   1.577   0.448  0.00  0.00    -0.001 C 
ATOM     16  C   UNL     1       5.106  -0.760  -0.296  0.00  0.00    +0.032 C 
ATOM     17  C   UNL     1       5.182   1.585   0.229  0.00  0.00    +0.036 C 
ATOM     18  C   UNL     1       5.833   0.418  -0.147  0.00  0.00    +0.133 C 
ENDROOT
BRANCH   8  19
ATOM     19  O   UNL     1      -3.677  -2.053   0.900  0.00  0.00    -0.382 OA
ATOM     20  H   UNL     1      -4.568  -1.677   0.967  0.00  0.00    +0.210 HD
ENDBRANCH   8  19
BRANCH  18  21
ATOM     21  O   UNL     1       7.176   0.423  -0.363  0.00  0.00    -0.506 OA
ATOM     22  H   UNL     1       7.613  -0.366  -0.617  0.00  0.00    +0.292 HD
ENDBRANCH  18  21
BRANCH   4  23
ATOM     23  O   UNL     1      -3.791   0.897  -0.326  0.00  0.00    -0.200 OA
BRANCH  23  24
ATOM     24  S   UNL     1      -5.367   0.598  -0.001  0.00  0.00    +0.239 S 
ATOM     25  O   UNL     1      -6.162   1.604  -1.010  0.00  0.00    -0.116 OA
ATOM     26  O   UNL     1      -5.654  -0.760  -0.422  0.00  0.00    -0.116 OA
ATOM     27  O   UNL     1      -5.652   1.015   1.359  0.00  0.00    -0.022 OA
ENDBRANCH  23  24
ENDBRANCH   4  23
TORSDOF 4
