135180
  -OEChem-03292013323D

 54 57  0     0  0  0  0  0  0999 V2000
    4.2794    3.0541   -0.9006 O   0  0  0  0  0  0  0  0  0  0  0  0
   -5.6066   -3.1649   -0.0742 O   0  0  0  0  0  0  0  0  0  0  0  0
   -7.4203   -1.0630   -0.1893 O   0  0  0  0  0  0  0  0  0  0  0  0
   -0.1849    1.4573    0.2705 N   0  0  0  0  0  0  0  0  0  0  0  0
    2.5929    1.9334    0.2646 N   0  0  0  0  0  0  0  0  0  0  0  0
   -1.9900   -0.0755    0.1564 N   0  0  0  0  0  0  0  0  0  0  0  0
   -2.3928    2.3002    0.1307 N   0  0  0  0  0  0  0  0  0  0  0  0
   -4.5844    3.1450   -0.0085 N   0  0  0  0  0  0  0  0  0  0  0  0
    7.2990   -2.4200   -0.1775 N   0  0  0  0  0  0  0  0  0  0  0  0
    6.7935   -3.4022    0.4085 N   0  3  0  0  0  0  0  0  0  0  0  0
    6.3380   -4.3022    0.9424 N   0  5  0  0  0  0  0  0  0  0  0  0
    0.7417    0.3175    0.3296 C   0  0  0  0  0  0  0  0  0  0  0  0
    0.3386    2.6878   -0.3463 C   0  0  0  0  0  0  0  0  0  0  0  0
    2.0714    0.7468    0.9469 C   0  0  0  0  0  0  0  0  0  0  0  0
    1.6789    3.0709    0.2785 C   0  0  0  0  0  0  0  0  0  0  0  0
   -1.5622    1.2227    0.1832 C   0  0  0  0  0  0  0  0  0  0  0  0
    3.8494    2.0532   -0.3294 C   0  0  0  0  0  0  0  0  0  0  0  0
    4.7461    0.8911   -0.2900 C   0  0  0  0  0  0  0  0  0  0  0  0
   -3.3116   -0.3084    0.0721 C   0  0  0  0  0  0  0  0  0  0  0  0
   -4.2392    0.7446    0.0131 C   0  0  0  0  0  0  0  0  0  0  0  0
   -3.7094    2.0315    0.0470 C   0  0  0  0  0  0  0  0  0  0  0  0
   -3.8040   -1.6109    0.0407 C   0  0  0  0  0  0  0  0  0  0  0  0
    4.7101   -0.0452   -1.3193 C   0  0  0  0  0  0  0  0  0  0  0  0
    5.6265    0.7326    0.7765 C   0  0  0  0  0  0  0  0  0  0  0  0
   -5.6188    0.4890   -0.0747 C   0  0  0  0  0  0  0  0  0  0  0  0
   -5.1745   -1.8732   -0.0466 C   0  0  0  0  0  0  0  0  0  0  0  0
   -6.0831   -0.8223   -0.1043 C   0  0  0  0  0  0  0  0  0  0  0  0
    5.5617   -1.1493   -1.2817 C   0  0  0  0  0  0  0  0  0  0  0  0
    6.4781   -0.3714    0.8140 C   0  0  0  0  0  0  0  0  0  0  0  0
    6.4458   -1.3125   -0.2152 C   0  0  0  0  0  0  0  0  0  0  0  0
   -5.7311   -3.7792   -1.3553 C   0  0  0  0  0  0  0  0  0  0  0  0
   -8.1384   -1.1776    1.0381 C   0  0  0  0  0  0  0  0  0  0  0  0
    0.9019   -0.0707   -0.6839 H   0  0  0  0  0  0  0  0  0  0  0  0
    0.3369   -0.4952    0.9442 H   0  0  0  0  0  0  0  0  0  0  0  0
   -0.3407    3.5376   -0.2147 H   0  0  0  0  0  0  0  0  0  0  0  0
    0.4591    2.5215   -1.4241 H   0  0  0  0  0  0  0  0  0  0  0  0
    1.9331    1.0174    2.0009 H   0  0  0  0  0  0  0  0  0  0  0  0
    2.7753   -0.0874    0.9157 H   0  0  0  0  0  0  0  0  0  0  0  0
    2.1085    3.9258   -0.2533 H   0  0  0  0  0  0  0  0  0  0  0  0
    1.5432    3.3668    1.3258 H   0  0  0  0  0  0  0  0  0  0  0  0
   -3.1070   -2.4464    0.0860 H   0  0  0  0  0  0  0  0  0  0  0  0
   -6.3506    1.2903   -0.1308 H   0  0  0  0  0  0  0  0  0  0  0  0
    4.0242    0.0729   -2.1539 H   0  0  0  0  0  0  0  0  0  0  0  0
    5.6587    1.4602    1.5832 H   0  0  0  0  0  0  0  0  0  0  0  0
    5.5289   -1.8766   -2.0888 H   0  0  0  0  0  0  0  0  0  0  0  0
    7.1636   -0.4890    1.6492 H   0  0  0  0  0  0  0  0  0  0  0  0
   -4.1375    4.0547   -0.0080 H   0  0  0  0  0  0  0  0  0  0  0  0
   -5.4760    3.0820    0.4664 H   0  0  0  0  0  0  0  0  0  0  0  0
   -4.7597   -3.8169   -1.8585 H   0  0  0  0  0  0  0  0  0  0  0  0
   -6.4542   -3.2380   -1.9737 H   0  0  0  0  0  0  0  0  0  0  0  0
   -6.0905   -4.8017   -1.2114 H   0  0  0  0  0  0  0  0  0  0  0  0
   -8.0758   -0.2446    1.6072 H   0  0  0  0  0  0  0  0  0  0  0  0
   -7.7507   -2.0091    1.6351 H   0  0  0  0  0  0  0  0  0  0  0  0
   -9.1880   -1.3749    0.8037 H   0  0  0  0  0  0  0  0  0  0  0  0
  1 17  2  0  0  0  0
  2 26  1  0  0  0  0
  2 31  1  0  0  0  0
  3 27  1  0  0  0  0
  3 32  1  0  0  0  0
  4 12  1  0  0  0  0
  4 13  1  0  0  0  0
  4 16  1  0  0  0  0
  5 14  1  0  0  0  0
  5 15  1  0  0  0  0
  5 17  1  0  0  0  0
  6 16  2  0  0  0  0
  6 19  1  0  0  0  0
  7 16  1  0  0  0  0
  7 21  2  0  0  0  0
  8 21  1  0  0  0  0
  8 47  1  0  0  0  0
  8 48  1  0  0  0  0
  9 10  2  0  0  0  0
  9 30  1  0  0  0  0
 10 11  2  0  0  0  0
 12 14  1  0  0  0  0
 12 33  1  0  0  0  0
 12 34  1  0  0  0  0
 13 15  1  0  0  0  0
 13 35  1  0  0  0  0
 13 36  1  0  0  0  0
 14 37  1  0  0  0  0
 14 38  1  0  0  0  0
 15 39  1  0  0  0  0
 15 40  1  0  0  0  0
 17 18  1  0  0  0  0
 18 23  2  0  0  0  0
 18 24  1  0  0  0  0
 19 20  1  0  0  0  0
 19 22  2  0  0  0  0
 20 21  1  0  0  0  0
 20 25  2  0  0  0  0
 22 26  1  0  0  0  0
 22 41  1  0  0  0  0
 23 28  1  0  0  0  0
 23 43  1  0  0  0  0
 24 29  2  0  0  0  0
 24 44  1  0  0  0  0
 25 27  1  0  0  0  0
 25 42  1  0  0  0  0
 26 27  2  0  0  0  0
 28 30  2  0  0  0  0
 28 45  1  0  0  0  0
 29 30  1  0  0  0  0
 29 46  1  0  0  0  0
 31 49  1  0  0  0  0
 31 50  1  0  0  0  0
 31 51  1  0  0  0  0
 32 52  1  0  0  0  0
 32 53  1  0  0  0  0
 32 54  1  0  0  0  0
M  CHG  2  10   1  11  -1
M  END
> <PUBCHEM_COMPOUND_CID>
135180

> <PUBCHEM_CONFORMER_RMSD>
1

> <PUBCHEM_CONFORMER_DIVERSEORDER>
1
13
8
21
6
16
11
12
20
17
7
22
14
23
9
18
10
4
2
15
19
3
5

> <PUBCHEM_MMFF94_PARTIAL_CHARGES>
39
1 -0.57
10 0.69
11 -0.37
12 0.37
13 0.37
14 0.3
15 0.3
16 0.72
17 0.54
18 0.09
19 0.31
2 -0.36
21 0.41
22 -0.15
23 -0.15
24 -0.15
25 -0.15
26 0.08
27 0.08
28 -0.15
29 -0.15
3 -0.36
30 0.18
31 0.28
32 0.28
4 -0.84
41 0.15
42 0.15
43 0.15
44 0.15
45 0.15
46 0.15
47 0.4
48 0.4
5 -0.66
6 -0.62
7 -0.62
8 -0.9
9 -0.5

> <PUBCHEM_EFFECTIVE_ROTOR_COUNT>
7.2

> <PUBCHEM_PHARMACOPHORE_FEATURES>
9
1 1 acceptor
1 2 acceptor
1 3 acceptor
1 8 donor
4 4 6 7 16 cation
6 18 23 24 28 29 30 rings
6 19 20 22 25 26 27 rings
6 4 5 12 13 14 15 rings
6 6 7 16 19 20 21 rings

> <PUBCHEM_HEAVY_ATOM_COUNT>
32

> <PUBCHEM_ATOM_DEF_STEREO_COUNT>
0

> <PUBCHEM_ATOM_UDEF_STEREO_COUNT>
0

> <PUBCHEM_BOND_DEF_STEREO_COUNT>
0

> <PUBCHEM_BOND_UDEF_STEREO_COUNT>
0

> <PUBCHEM_ISOTOPIC_ATOM_COUNT>
0

> <PUBCHEM_COMPONENT_COUNT>
1

> <PUBCHEM_CACTVS_TAUTO_COUNT>
3

> <PUBCHEM_CONFORMER_ID>
0002100C00000001

> <PUBCHEM_MMFF94_ENERGY>
130.7551

> <PUBCHEM_FEATURE_SELFOVERLAP>
45.707

> <PUBCHEM_SHAPE_FINGERPRINT>
10 15 11240001161424891229
10209105 3 18196932404789818159
10693767 8 18408036334280270578
11524674 6 16630251398372791375
117089 54 18410019840467374210
11963148 33 18337105645441252750
11991303 11 15213307473016781011
1361 4 18339643468100075870
13782708 43 18130506426537810965
13911987 19 13912324581763179105
14211702 104 18412268367188185186
14216079 64 18412546531024542565
14347332 77 18341050813066758973
15183329 4 18411708706995239164
15230672 131 18263921047599222579
15352257 5 18343303682042366823
15419008 42 17914054196450945853
15510800 12 17917440765953705326
15684393 108 18113911484813337174
16993089 31 17386021597813628139
18603816 31 17203035388409847583
1979834 28 16917078745958254556
19958102 18 18114174289456643167
20028762 73 18413108364466471206
20105231 36 18041005072880009347
2026 5 18340768147999583182
21130935 74 18271806868925302217
21267235 1 18335706070191396297
21585483 132 18338781407935019662
21623969 137 17346602963132456404
23522609 53 18052009010446348385
23559900 14 18267016349115676873
23569943 247 18262521364454081755
2748736 6 9223231815153126562
3004659 81 18333734633005423148
3383291 50 18408885161415082187
3504750 166 18270964544635636985
3986486 107 11531034111950306522
4046055 25 18259987037945746524
42767 46 18041272210691630370
439807 62 18410296908274246046
4756088 132 17622152890467338951
50009960 94 18263906810026002586
5104073 3 17917715699263162024
531348 171 18411420601290344649
5718773 13 18412542136740430767
6081469 158 18334007320742381669
6201460 15 17466497916163268538
9831232 110 18408322164480153798

> <PUBCHEM_SHAPE_MULTIPOLES>
601.09
23.75
4.44
0.95
0.1
2.56
-0.11
21.7
0.79
-2.11
-0.21
-0.61
0.35
-1.59

> <PUBCHEM_SHAPE_SELFOVERLAP>
1305.821

> <PUBCHEM_SHAPE_VOLUME>
326.1

> <PUBCHEM_COORDINATE_TYPE>
2
5
10

$$$$
