REMARK  Name = 135164
REMARK  12 active torsions:
REMARK  status: ('A' for Active; 'I' for Inactive)
REMARK    1  A    between atoms: C_4  and  C_9
REMARK    2  A    between atoms: C_5  and  C_25
REMARK    3  A    between atoms: C_13  and  C_14
REMARK    4  A    between atoms: C_14  and  N_15
REMARK    5  A    between atoms: C_14  and  C_19
REMARK    6  A    between atoms: C_19  and  C_20
REMARK    7  A    between atoms: C_20  and  C_22
REMARK    8  A    between atoms: C_22  and  O_23
REMARK    9  A    between atoms: C_25  and  C_26
REMARK   10  A    between atoms: C_25  and  N_29
REMARK   11  A    between atoms: N_29  and  C_31
REMARK   12  A    between atoms: C_36  and  N_39
REMARK                            x       y       z     vdW  Elec       q    Type
REMARK                         _______ _______ _______ _____ _____    ______ ____
ROOT
ATOM      1  O   UNL     1      -1.327   0.549   0.794  0.00  0.00    -0.273 OA
ATOM      2  O   UNL     1       0.749  -1.310   1.151  0.00  0.00    -0.273 OA
ATOM      3  N   UNL     1       0.059  -0.354  -0.857  0.00  0.00    -0.253 N 
ATOM      4  C   UNL     1      -0.972   0.451  -0.377  0.00  0.00    +0.246 C 
ATOM      5  C   UNL     1       0.855  -1.184  -0.067  0.00  0.00    +0.246 C 
ATOM      6  H   UNL     1       0.238  -0.337  -1.825  0.00  0.00    +0.158 HD
ENDROOT
BRANCH   4   9
ATOM      7  O   UNL     1      -3.736  -0.757  -1.522  0.00  0.00    -0.277 OA
ATOM      8  N   UNL     1      -3.034   1.405  -1.081  0.00  0.00    -0.275 N 
ATOM      9  C   UNL     1      -1.646   1.214  -1.478  0.00  0.00    +0.152 C 
ATOM     10  C   UNL     1      -1.085   2.624  -1.615  0.00  0.00    +0.031 C 
ATOM     11  C   UNL     1      -1.913   3.434  -0.620  0.00  0.00    +0.024 C 
ATOM     12  C   UNL     1      -3.290   2.794  -0.710  0.00  0.00    +0.094 C 
ATOM     13  C   UNL     1      -3.989   0.407  -1.206  0.00  0.00    +0.205 C 
BRANCH  13  14
ATOM     14  C   UNL     1      -5.408   0.826  -0.916  0.00  0.00    +0.014 C 
BRANCH  14  15
ATOM     15  N   UNL     1      -6.129   0.634  -2.167  0.00  0.00    +0.387 N 
ATOM     16  H   UNL     1      -5.703   1.207  -2.896  0.00  0.00    -0.089 HD
ATOM     17  H   UNL     1      -7.103   0.909  -2.044  0.00  0.00    -0.089 HD
ATOM     18  H   UNL     1      -6.085  -0.349  -2.438  0.00  0.00    -0.089 HD
ENDBRANCH  14  15
BRANCH  14  19
ATOM     19  C   UNL     1      -6.009  -0.013   0.208  0.00  0.00    -0.001 C 
BRANCH  19  20
ATOM     20  C   UNL     1      -5.261   0.168   1.528  0.00  0.00    +0.108 C 
BRANCH  20  22
ATOM     21  O   UNL     1      -6.944  -1.278   2.483  0.00  0.00    -0.250 OA
ATOM     22  C   UNL     1      -5.928  -0.611   2.633  0.00  0.00    +0.314 C 
BRANCH  22  23
ATOM     23  O   UNL     1      -5.271  -0.506   3.814  0.00  0.00    -0.480 OA
ATOM     24  H   UNL     1      -4.496   0.018   3.874  0.00  0.00    +0.295 HD
ENDBRANCH  22  23
ENDBRANCH  20  22
ENDBRANCH  19  20
ENDBRANCH  14  19
ENDBRANCH  13  14
ENDBRANCH   4   9
BRANCH   5  25
ATOM     25  C   UNL     1       1.901  -1.938  -0.883  0.00  0.00    +0.147 C 
BRANCH  25  26
ATOM     26  C   UNL     1       1.435  -3.329  -1.366  0.00  0.00    +0.027 C 
ATOM     27  C   UNL     1       2.488  -4.014  -2.241  0.00  0.00    +0.002 C 
ATOM     28  C   UNL     1       1.019  -4.266  -0.227  0.00  0.00    +0.002 C 
ENDBRANCH  25  26
BRANCH  25  29
ATOM     29  N   UNL     1       3.096  -2.075  -0.071  0.00  0.00    -0.327 N 
ATOM     30  H   UNL     1       3.277  -2.948   0.347  0.00  0.00    +0.147 HD
BRANCH  29  31
ATOM     31  C   UNL     1       3.992  -1.046   0.146  0.00  0.00    +0.045 C 
ATOM     32  C   UNL     1       5.117  -1.257   0.943  0.00  0.00    +0.016 C 
ATOM     33  C   UNL     1       3.771   0.204  -0.432  0.00  0.00    +0.016 C 
ATOM     34  C   UNL     1       6.022  -0.218   1.161  0.00  0.00    +0.025 C 
ATOM     35  C   UNL     1       4.676   1.243  -0.214  0.00  0.00    +0.025 C 
ATOM     36  C   UNL     1       5.802   1.032   0.583  0.00  0.00    +0.143 C 
BRANCH  36  39
ATOM     37  O   UNL     1       7.729   1.878   1.524  0.00  0.00    -0.126 OA
ATOM     38  O   UNL     1       6.506   3.206   0.275  0.00  0.00    -0.126 OA
ATOM     39  N   UNL     1       6.723   2.089   0.805  0.00  0.00    +0.058 N 
ENDBRANCH  36  39
ENDBRANCH  29  31
ENDBRANCH  25  29
ENDBRANCH   5  25
TORSDOF 12
