REMARK  Name = 135180
REMARK  3 active torsions:
REMARK  status: ('A' for Active; 'I' for Inactive)
REMARK    1  A    between atoms: C_12  and  C_22
REMARK    2  A    between atoms: C_18  and  O_28
REMARK    3  A    between atoms: C_19  and  O_30
REMARK                            x       y       z     vdW  Elec       q    Type
REMARK                         _______ _______ _______ _____ _____    ______ ____
ROOT
ATOM      1  O   UNL     1       4.279   3.054  -0.901  0.00  0.00    -0.270 OA
ATOM      2  N   UNL     1      -0.185   1.457   0.271  0.00  0.00    -0.231 N 
ATOM      3  N   UNL     1       2.593   1.933   0.265  0.00  0.00    -0.273 N 
ATOM      4  N   UNL     1      -1.990  -0.075   0.156  0.00  0.00    -0.332 NA
ATOM      5  N   UNL     1      -2.393   2.300   0.131  0.00  0.00    -0.313 NA
ATOM      6  N   UNL     1      -4.584   3.145  -0.009  0.00  0.00    -0.332 N 
ATOM      7  C   UNL     1       0.742   0.318   0.330  0.00  0.00    +0.125 C 
ATOM      8  C   UNL     1       0.339   2.688  -0.346  0.00  0.00    +0.125 C 
ATOM      9  C   UNL     1       2.071   0.747   0.947  0.00  0.00    +0.116 C 
ATOM     10  C   UNL     1       1.679   3.071   0.279  0.00  0.00    +0.116 C 
ATOM     11  C   UNL     1      -1.562   1.223   0.183  0.00  0.00    +0.204 C 
ATOM     12  C   UNL     1       3.849   2.053  -0.329  0.00  0.00    +0.249 C 
ATOM     13  C   UNL     1      -3.312  -0.308   0.072  0.00  0.00    +0.134 C 
ATOM     14  C   UNL     1      -4.239   0.745   0.013  0.00  0.00    +0.074 C 
ATOM     15  C   UNL     1      -3.709   2.031   0.047  0.00  0.00    +0.193 C 
ATOM     16  C   UNL     1      -3.804  -1.611   0.041  0.00  0.00    +0.127 C 
ATOM     17  C   UNL     1      -5.619   0.489  -0.075  0.00  0.00    +0.046 C 
ATOM     18  C   UNL     1      -5.175  -1.873  -0.047  0.00  0.00    +0.157 C 
ATOM     19  C   UNL     1      -6.083  -0.822  -0.104  0.00  0.00    +0.169 C 
ATOM     20  H   UNL     1      -4.220   4.059   0.015  0.00  0.00    +0.145 HD
ATOM     21  H   UNL     1      -5.557   3.004  -0.070  0.00  0.00    +0.145 HD
ENDROOT
BRANCH  12  22
ATOM     22  C   UNL     1       4.746   0.891  -0.290  0.00  0.00    +0.054 C 
ATOM     23  C   UNL     1       4.710  -0.045  -1.319  0.00  0.00    +0.005 C 
ATOM     24  C   UNL     1       5.627   0.733   0.776  0.00  0.00    +0.005 C 
ATOM     25  C   UNL     1       5.562  -1.149  -1.282  0.00  0.00    +0.000 C 
ATOM     26  C   UNL     1       6.478  -0.371   0.814  0.00  0.00    +0.000 C 
ATOM     27  C   UNL     1       6.446  -1.313  -0.215  0.00  0.00    +0.000 C 
ENDBRANCH  12  22
BRANCH  18  28
ATOM     28  O   UNL     1      -5.607  -3.165  -0.074  0.00  0.00    -0.472 OA
ATOM     29  C   UNL     1      -5.731  -3.779  -1.355  0.00  0.00    +0.252 C 
ENDBRANCH  18  28
BRANCH  19  30
ATOM     30  O   UNL     1      -7.420  -1.063  -0.189  0.00  0.00    -0.469 OA
ATOM     31  C   UNL     1      -8.138  -1.178   1.038  0.00  0.00    +0.253 C 
ENDBRANCH  19  30
TORSDOF 3
REMARK  Name = 135180
REMARK  3 active torsions:
REMARK  status: ('A' for Active; 'I' for Inactive)
REMARK    1  A    between atoms: C_12  and  C_22
REMARK    2  A    between atoms: C_18  and  O_28
REMARK    3  A    between atoms: C_19  and  O_30
REMARK                            x       y       z     vdW  Elec       q    Type
REMARK                         _______ _______ _______ _____ _____    ______ ____
ROOT
ATOM      1  N   UNL     1       6.793  -3.402   0.408  0.00  0.00    +0.000 NA
ATOM      2  N   UNL     1       6.338  -4.302   0.942  0.00  0.00    +0.000 NA
ENDROOT
TORSDOF 0
