REMARK  Name = 135173
REMARK  4 active torsions:
REMARK  status: ('A' for Active; 'I' for Inactive)
REMARK    1  A    between atoms: C_3  and  N_15
REMARK    2  A    between atoms: C_6  and  O_13
REMARK    3  A    between atoms: N_15  and  N_16
REMARK    4  A    between atoms: N_16  and  C_17
REMARK                            x       y       z     vdW  Elec       q    Type
REMARK                         _______ _______ _______ _____ _____    ______ ____
ROOT
ATOM      1  N   UNL     1       2.998   1.334  -0.073  0.00  0.00    -0.373 NA
ATOM      2  N   UNL     1       0.927   2.455   0.208  0.00  0.00    -0.335 N 
ATOM      3  C   UNL     1       0.994   0.054   0.328  0.00  0.00    +0.186 C 
ATOM      4  C   UNL     1       1.668   1.247   0.151  0.00  0.00    +0.178 C 
ATOM      5  C   UNL     1       1.719  -1.127   0.273  0.00  0.00    +0.042 C 
ATOM      6  C   UNL     1       3.090  -1.079   0.044  0.00  0.00    +0.175 C 
ATOM      7  C   UNL     1       3.676   0.165  -0.121  0.00  0.00    +0.212 C 
ATOM      8  H   UNL     1       1.384   3.318   0.085  0.00  0.00    +0.144 HD
ATOM      9  H   UNL     1      -0.043   2.430   0.369  0.00  0.00    +0.144 HD
ATOM     10  N   UNL     1       5.073   0.215  -0.356  0.00  0.00    -0.330 N 
ATOM     11  H   UNL     1       5.522   1.083  -0.478  0.00  0.00    +0.145 HD
ATOM     12  H   UNL     1       5.595  -0.619  -0.398  0.00  0.00    +0.145 HD
ENDROOT
BRANCH   6  13
ATOM     13  O   UNL     1       3.807  -2.231  -0.011  0.00  0.00    -0.502 OA
ATOM     14  H   UNL     1       3.378  -3.056   0.105  0.00  0.00    +0.292 HD
ENDBRANCH   6  13
BRANCH   3  15
ATOM     15  N   UNL     1      -0.392   0.008   0.557  0.00  0.00    -0.099 NA
BRANCH  15  16
ATOM     16  N   UNL     1      -1.005  -0.069  -0.533  0.00  0.00    -0.147 NA
BRANCH  16  17
ATOM     17  C   UNL     1      -2.384  -0.116  -0.306  0.00  0.00    +0.085 C 
ATOM     18  C   UNL     1      -3.121   1.067  -0.249  0.00  0.00    +0.018 C 
ATOM     19  C   UNL     1      -3.022  -1.344  -0.134  0.00  0.00    +0.018 C 
ATOM     20  C   UNL     1      -4.497   1.021  -0.021  0.00  0.00    +0.001 C 
ATOM     21  C   UNL     1      -4.397  -1.390   0.094  0.00  0.00    +0.001 C 
ATOM     22  C   UNL     1      -5.135  -0.207   0.150  0.00  0.00    +0.000 C 
ENDBRANCH  16  17
ENDBRANCH  15  16
ENDBRANCH   3  15
TORSDOF 4
