135126
  -OEChem-03292013323D

 49 52  0     1  0  0  0  0  0999 V2000
   -5.3671    0.5983   -0.0009 S   0  0  0  0  0  0  0  0  0  0  0  0
   -3.7909    0.8975   -0.3255 O   0  0  0  0  0  0  0  0  0  0  0  0
   -3.6766   -2.0529    0.8999 O   0  0  0  0  0  0  0  0  0  0  0  0
   -6.1619    1.6036   -1.0103 O   0  0  0  0  0  0  0  0  0  0  0  0
   -5.6535   -0.7604   -0.4223 O   0  0  0  0  0  0  0  0  0  0  0  0
   -5.6524    1.0149    1.3595 O   0  0  0  0  0  0  0  0  0  0  0  0
    7.1763    0.4235   -0.3631 O   0  0  0  0  0  0  0  0  0  0  0  0
   -1.3598    0.4534   -0.2033 C   0  0  1  0  0  0  0  0  0  0  0  0
   -0.6296   -0.8273    0.2530 C   0  0  2  0  0  0  0  0  0  0  0  0
    0.8492   -0.8185   -0.1351 C   0  0  1  0  0  0  0  0  0  0  0  0
   -2.7829    0.1032    0.2747 C   0  0  2  0  0  0  0  0  0  0  0  0
    1.5429    0.3890    0.5657 C   0  0  2  0  0  0  0  0  0  0  0  0
   -0.7178    1.6476    0.5136 C   0  0  0  0  0  0  0  0  0  0  0  0
   -1.5293   -1.9558   -0.2530 C   0  0  0  0  0  0  0  0  0  0  0  0
   -2.9537   -1.3794   -0.1223 C   0  0  1  0  0  0  0  0  0  0  0  0
    0.8008    1.7184    0.2627 C   0  0  0  0  0  0  0  0  0  0  0  0
    1.5698   -2.1068    0.2673 C   0  0  0  0  0  0  0  0  0  0  0  0
   -1.3446    0.7022   -1.7323 C   0  0  0  0  0  0  0  0  0  0  0  0
    3.0426    0.4058    0.2813 C   0  0  0  0  0  0  0  0  0  0  0  0
    2.9966   -2.0931   -0.2729 C   0  0  0  0  0  0  0  0  0  0  0  0
    3.7184   -0.7832   -0.0711 C   0  0  0  0  0  0  0  0  0  0  0  0
    3.8022    1.5775    0.4475 C   0  0  0  0  0  0  0  0  0  0  0  0
    5.1063   -0.7598   -0.2959 C   0  0  0  0  0  0  0  0  0  0  0  0
    5.1816    1.5848    0.2294 C   0  0  0  0  0  0  0  0  0  0  0  0
    5.8334    0.4176   -0.1466 C   0  0  0  0  0  0  0  0  0  0  0  0
   -0.6694   -0.8800    1.3541 H   0  0  0  0  0  0  0  0  0  0  0  0
    0.9412   -0.7149   -1.2240 H   0  0  0  0  0  0  0  0  0  0  0  0
   -2.8618    0.2268    1.3632 H   0  0  0  0  0  0  0  0  0  0  0  0
    1.4623    0.2328    1.6528 H   0  0  0  0  0  0  0  0  0  0  0  0
   -0.8849    1.5686    1.5958 H   0  0  0  0  0  0  0  0  0  0  0  0
   -1.1878    2.5869    0.1983 H   0  0  0  0  0  0  0  0  0  0  0  0
   -1.3058   -2.1793   -1.3024 H   0  0  0  0  0  0  0  0  0  0  0  0
   -1.3927   -2.8754    0.3253 H   0  0  0  0  0  0  0  0  0  0  0  0
   -3.4795   -1.5210   -1.0713 H   0  0  0  0  0  0  0  0  0  0  0  0
    0.9949    2.0236   -0.7726 H   0  0  0  0  0  0  0  0  0  0  0  0
    1.1921    2.5231    0.8958 H   0  0  0  0  0  0  0  0  0  0  0  0
    1.0531   -2.9904   -0.1235 H   0  0  0  0  0  0  0  0  0  0  0  0
    1.5851   -2.2037    1.3607 H   0  0  0  0  0  0  0  0  0  0  0  0
   -0.3337    0.8157   -2.1322 H   0  0  0  0  0  0  0  0  0  0  0  0
   -1.8201   -0.1082   -2.2935 H   0  0  0  0  0  0  0  0  0  0  0  0
   -1.8871    1.6229   -1.9772 H   0  0  0  0  0  0  0  0  0  0  0  0
    2.9718   -2.2999   -1.3506 H   0  0  0  0  0  0  0  0  0  0  0  0
    3.5592   -2.9047    0.2043 H   0  0  0  0  0  0  0  0  0  0  0  0
   -3.1581   -2.0006    1.7209 H   0  0  0  0  0  0  0  0  0  0  0  0
    3.3385    2.5089    0.7579 H   0  0  0  0  0  0  0  0  0  0  0  0
    5.6220   -1.6721   -0.5887 H   0  0  0  0  0  0  0  0  0  0  0  0
    5.7339    2.5114    0.3618 H   0  0  0  0  0  0  0  0  0  0  0  0
   -5.8340    2.5333   -1.0236 H   0  0  0  0  0  0  0  0  0  0  0  0
    7.5160    1.3226   -0.2133 H   0  0  0  0  0  0  0  0  0  0  0  0
  1  2  1  0  0  0  0
  1  4  1  0  0  0  0
  1  5  2  0  0  0  0
  1  6  2  0  0  0  0
  2 11  1  0  0  0  0
  3 15  1  0  0  0  0
  3 44  1  0  0  0  0
  4 48  1  0  0  0  0
  7 25  1  0  0  0  0
  7 49  1  0  0  0  0
  8  9  1  0  0  0  0
  8 11  1  0  0  0  0
  8 13  1  0  0  0  0
  8 18  1  0  0  0  0
  9 10  1  0  0  0  0
  9 14  1  0  0  0  0
  9 26  1  0  0  0  0
 10 12  1  0  0  0  0
 10 17  1  0  0  0  0
 10 27  1  0  0  0  0
 11 15  1  0  0  0  0
 11 28  1  0  0  0  0
 12 16  1  0  0  0  0
 12 19  1  0  0  0  0
 12 29  1  0  0  0  0
 13 16  1  0  0  0  0
 13 30  1  0  0  0  0
 13 31  1  0  0  0  0
 14 15  1  0  0  0  0
 14 32  1  0  0  0  0
 14 33  1  0  0  0  0
 15 34  1  0  0  0  0
 16 35  1  0  0  0  0
 16 36  1  0  0  0  0
 17 20  1  0  0  0  0
 17 37  1  0  0  0  0
 17 38  1  0  0  0  0
 18 39  1  0  0  0  0
 18 40  1  0  0  0  0
 18 41  1  0  0  0  0
 19 21  2  0  0  0  0
 19 22  1  0  0  0  0
 20 21  1  0  0  0  0
 20 42  1  0  0  0  0
 20 43  1  0  0  0  0
 21 23  1  0  0  0  0
 22 24  2  0  0  0  0
 22 45  1  0  0  0  0
 23 25  2  0  0  0  0
 23 46  1  0  0  0  0
 24 25  1  0  0  0  0
 24 47  1  0  0  0  0
M  END
> <PUBCHEM_COMPOUND_CID>
135126

> <PUBCHEM_CONFORMER_RMSD>
0.6

> <PUBCHEM_CONFORMER_DIVERSEORDER>
1
2

> <PUBCHEM_MMFF94_PARTIAL_CHARGES>
23
1 1.67
11 0.28
12 0.14
15 0.28
19 -0.14
2 -0.46
20 0.14
21 -0.14
22 -0.15
23 -0.15
24 -0.15
25 0.08
3 -0.68
4 -0.68
44 0.4
45 0.15
46 0.15
47 0.15
48 0.5
49 0.45
5 -0.65
6 -0.65
7 -0.53

> <PUBCHEM_EFFECTIVE_ROTOR_COUNT>
3.4

> <PUBCHEM_PHARMACOPHORE_FEATURES>
11
1 3 acceptor
1 3 donor
1 4 acceptor
1 5 acceptor
1 6 acceptor
1 7 donor
4 1 4 5 6 anion
5 8 9 11 14 15 rings
6 10 12 17 19 20 21 rings
6 19 21 22 23 24 25 rings
6 8 9 10 12 13 16 rings

> <PUBCHEM_HEAVY_ATOM_COUNT>
25

> <PUBCHEM_ATOM_DEF_STEREO_COUNT>
6

> <PUBCHEM_ATOM_UDEF_STEREO_COUNT>
0

> <PUBCHEM_BOND_DEF_STEREO_COUNT>
0

> <PUBCHEM_BOND_UDEF_STEREO_COUNT>
0

> <PUBCHEM_ISOTOPIC_ATOM_COUNT>
0

> <PUBCHEM_COMPONENT_COUNT>
1

> <PUBCHEM_CACTVS_TAUTO_COUNT>
9

> <PUBCHEM_CONFORMER_ID>
00020FD600000001

> <PUBCHEM_MMFF94_ENERGY>
78.918

> <PUBCHEM_FEATURE_SELFOVERLAP>
55.983

> <PUBCHEM_SHAPE_FINGERPRINT>
10 15 17967254212621072569
10906281 52 18271261459586681755
11089746 13 17203325619653879168
11578080 2 17242436236090925767
12011746 2 18343300361921591317
12107183 9 17552086090994595915
12166972 35 11887951068739434130
12236239 1 17561365067052761921
12403259 415 18270115846624106032
12516196 113 18060416928148948816
12730499 353 18335988592844721546
12788726 201 17703510969842749033
12838862 33 18341313549533738784
13402501 40 18410012160959684778
13533116 47 17917147187289843582
14251764 18 18343586248689545131
14528608 73 18343861134379438622
14617045 38 18410578374766393662
14790565 3 18411704313227877625
15048467 5 18333731303740727845
15183329 4 18343581819919081377
15196674 1 18411699924103552034
1601671 61 18410291423579897041
17349148 13 11455893585110828515
1813 80 17095245821661631805
18608769 82 18335987588286799579
19784866 170 18333449850265266275
200 152 17989203754603474666
20645477 56 18259698991341063381
20645477 70 18130507448888045678
21033648 29 18268701874660217336
21150785 3 17775277279741779469
21236236 1 18340485660185543807
21267235 1 18340775934827459994
21279426 13 18411702045622250087
21421861 104 18041831801869655058
221357 26 18130509652691480396
23402539 116 18342734157000190294
23557571 272 17531243924804190196
23559900 14 18342451577731945312
2871803 45 18412263918029269410
29717793 49 17203616978152099996
3004659 81 18408322186150220728
335352 9 18413108368992923606
34934 24 18411132532790190083
350125 39 18410293610345952632
3545911 37 18410293613986616808
3680242 22 18335696101387550042
4073 2 18113903814165503946
4340502 62 16950286178385430506
4463277 17 18411982459615353408
5104073 3 18409727387142318442
58260988 393 15430312478259198317
59755656 215 18411141325310853798
59755656 520 17385720318273587026
6328613 192 18413673500241683113
7495541 125 13551484682289460749

> <PUBCHEM_SHAPE_MULTIPOLES>
483.12
14.49
2.14
0.91
0.01
0.58
-0.14
-4.01
-0.75
-0.01
0.16
0.72
-0.16
0.51

> <PUBCHEM_SHAPE_SELFOVERLAP>
1034.723

> <PUBCHEM_SHAPE_VOLUME>
269.9

> <PUBCHEM_COORDINATE_TYPE>
2
5
10

$$$$
