REMARK  Name = 135220
REMARK  6 active torsions:
REMARK  status: ('A' for Active; 'I' for Inactive)
REMARK    1  A    between atoms: C_4  and  O_29
REMARK    2  A    between atoms: C_5  and  O_23
REMARK    3  A    between atoms: C_7  and  O_25
REMARK    4  A    between atoms: C_20  and  O_27
REMARK    5  A    between atoms: O_29  and  C_31
REMARK    6  A    between atoms: C_35  and  O_37
REMARK                            x       y       z     vdW  Elec       q    Type
REMARK                         _______ _______ _______ _____ _____    ______ ____
ROOT
ATOM      1  O   UNL     1      -1.414  -2.640  -1.363  0.00  0.00    -0.293 OA
ATOM      2  O   UNL     1       0.465  -0.550  -2.322  0.00  0.00    -0.287 OA
ATOM      3  O   UNL     1       2.501  -1.289   2.556  0.00  0.00    -0.286 OA
ATOM      4  C   UNL     1      -1.475  -0.491  -0.202  0.00  0.00    +0.193 C 
ATOM      5  C   UNL     1      -2.342  -0.302   1.099  0.00  0.00    +0.142 C 
ATOM      6  C   UNL     1      -3.599  -1.218   1.123  0.00  0.00    +0.062 C 
ATOM      7  C   UNL     1      -4.405  -1.220  -0.191  0.00  0.00    +0.098 C 
ATOM      8  C   UNL     1      -3.527  -1.536  -1.409  0.00  0.00    +0.094 C 
ATOM      9  C   UNL     1      -2.065  -1.651  -1.023  0.00  0.00    +0.184 C 
ATOM     10  C   UNL     1       0.023  -0.721   0.019  0.00  0.00    +0.053 C 
ATOM     11  C   UNL     1      -1.583  -0.552   2.377  0.00  0.00    +0.003 C 
ATOM     12  C   UNL     1       0.555  -0.894   1.244  0.00  0.00    +0.041 C 
ATOM     13  C   UNL     1      -5.557  -2.225  -0.087  0.00  0.00    +0.030 C 
ATOM     14  C   UNL     1      -0.279  -0.839   2.425  0.00  0.00    +0.001 C 
ATOM     15  C   UNL     1       0.909  -0.734  -1.193  0.00  0.00    +0.195 C 
ATOM     16  C   UNL     1       2.017  -1.131   1.441  0.00  0.00    +0.198 C 
ATOM     17  C   UNL     1       2.349  -0.980  -1.015  0.00  0.00    +0.045 C 
ATOM     18  C   UNL     1       2.883  -1.173   0.254  0.00  0.00    +0.076 C 
ATOM     19  C   UNL     1       3.188  -1.020  -2.137  0.00  0.00    +0.003 C 
ATOM     20  C   UNL     1       4.256  -1.408   0.407  0.00  0.00    +0.137 C 
ATOM     21  C   UNL     1       4.555  -1.254  -1.983  0.00  0.00    +0.003 C 
ATOM     22  C   UNL     1       5.088  -1.448  -0.712  0.00  0.00    +0.037 C 
ENDROOT
BRANCH   5  23
ATOM     23  O   UNL     1      -2.790   1.062   1.157  0.00  0.00    -0.380 OA
ATOM     24  H   UNL     1      -3.287   1.273   0.352  0.00  0.00    +0.211 HD
ENDBRANCH   5  23
BRANCH   7  25
ATOM     25  O   UNL     1      -5.021   0.058  -0.376  0.00  0.00    -0.386 OA
ATOM     26  H   UNL     1      -4.335   0.739  -0.449  0.00  0.00    +0.210 HD
ENDBRANCH   7  25
BRANCH  20  27
ATOM     27  O   UNL     1       4.840  -1.612   1.623  0.00  0.00    -0.505 OA
ATOM     28  H   UNL     1       4.319  -1.594   2.401  0.00  0.00    +0.292 HD
ENDBRANCH  20  27
BRANCH   4  29
ATOM     29  O   UNL     1      -1.589   0.669  -1.034  0.00  0.00    -0.321 OA
BRANCH  29  31
ATOM     30  O   UNL     1       0.377   1.565  -0.139  0.00  0.00    -0.331 OA
ATOM     31  C   UNL     1      -1.003   1.808  -0.409  0.00  0.00    +0.236 C 
ATOM     32  C   UNL     1      -1.168   2.992  -1.359  0.00  0.00    +0.064 C 
ATOM     33  C   UNL     1      -0.472   4.231  -0.817  0.00  0.00    +0.037 C 
ATOM     34  C   UNL     1       1.076   2.671   0.445  0.00  0.00    +0.144 C 
ATOM     35  C   UNL     1       0.976   3.907  -0.457  0.00  0.00    +0.138 C 
ATOM     36  C   UNL     1       0.641   2.902   1.892  0.00  0.00    +0.035 C 
BRANCH  35  37
ATOM     37  O   UNL     1       1.591   5.027   0.165  0.00  0.00    -0.382 OA
ATOM     38  H   UNL     1       1.519   5.800  -0.417  0.00  0.00    +0.210 HD
ENDBRANCH  35  37
ENDBRANCH  29  31
ENDBRANCH   4  29
TORSDOF 6
