REMARK  Name = 13525
REMARK  8 active torsions:
REMARK  status: ('A' for Active; 'I' for Inactive)
REMARK    1  A    between atoms: C_1  and  C_4
REMARK    2  A    between atoms: C_1  and  S_10
REMARK    3  A    between atoms: N_3  and  C_6
REMARK    4  A    between atoms: C_6  and  C_7
REMARK    5  A    between atoms: C_7  and  O_8
REMARK    6  A    between atoms: S_10  and  P_12
REMARK    7  A    between atoms: P_12  and  O_13
REMARK    8  A    between atoms: P_12  and  O_15
REMARK                            x       y       z     vdW  Elec       q    Type
REMARK                         _______ _______ _______ _____ _____    ______ ____
ROOT
ATOM      1  C   UNL     1      -0.243   1.061  -0.626  0.00  0.00    +0.151 C 
ENDROOT
BRANCH   1   4
ATOM      2  O   UNL     1       1.488   2.419   0.327  0.00  0.00    -0.274 OA
ATOM      3  N   UNL     1       2.100   0.577  -0.952  0.00  0.00    -0.301 N 
ATOM      4  C   UNL     1       1.194   1.442  -0.361  0.00  0.00    +0.234 C 
ATOM      5  H   UNL     1       1.752  -0.175  -1.483  0.00  0.00    +0.150 HD
BRANCH   3   6
ATOM      6  C   UNL     1       3.533   0.726  -0.827  0.00  0.00    +0.122 C 
BRANCH   6   7
ATOM      7  C   UNL     1       4.068  -0.026   0.378  0.00  0.00    +0.163 C 
BRANCH   7   8
ATOM      8  O   UNL     1       3.739  -1.404   0.260  0.00  0.00    -0.349 OA
ATOM      9  C   UNL     1       4.215  -2.151   1.371  0.00  0.00    +0.174 C 
ENDBRANCH   7   8
ENDBRANCH   6   7
ENDBRANCH   3   6
ENDBRANCH   1   4
BRANCH   1  10
ATOM     10  S   UNL     1      -0.813  -0.030   0.693  0.00  0.00    -0.054 S 
BRANCH  10  12
ATOM     11  S   UNL     1      -3.762  -1.858   1.271  0.00  0.00    +0.003 S 
ATOM     12  P   UNL     1      -2.832  -0.494   0.211  0.00  0.00    +0.232 P 
BRANCH  12  13
ATOM     13  O   UNL     1      -3.648   0.923   0.171  0.00  0.00    -0.307 OA
ATOM     14  C   UNL     1      -3.888   1.647   1.367  0.00  0.00    +0.182 C 
ENDBRANCH  12  13
BRANCH  12  15
ATOM     15  O   UNL     1      -2.877  -0.825  -1.389  0.00  0.00    -0.307 OA
ATOM     16  C   UNL     1      -2.275  -2.006  -1.894  0.00  0.00    +0.182 C 
ENDBRANCH  12  15
ENDBRANCH  10  12
ENDBRANCH   1  10
TORSDOF 8
