135222
  -OEChem-03292013323D

 45 48  0     1  0  0  0  0  0999 V2000
   -3.5016   -1.2956   -1.2319 O   0  0  0  0  0  0  0  0  0  0  0  0
   -1.4426   -0.0738   -2.4666 O   0  0  0  0  0  0  0  0  0  0  0  0
   -4.4687    0.2927    0.8326 O   0  0  0  0  0  0  0  0  0  0  0  0
   -2.8261    2.5766    1.2723 O   0  0  0  0  0  0  0  0  0  0  0  0
   -2.3102    2.1320   -1.2981 O   0  0  0  0  0  0  0  0  0  0  0  0
    0.5490    2.0125   -1.3773 O   0  0  0  0  0  0  0  0  0  0  0  0
    2.5444   -2.5561    0.4721 O   0  0  0  0  0  0  0  0  0  0  0  0
    4.7503   -1.4363    1.1149 O   0  0  0  0  0  0  0  0  0  0  0  0
   -2.2600   -1.2875   -0.5137 C   0  0  1  0  0  0  0  0  0  0  0  0
   -1.4000   -0.1032   -1.0380 C   0  0  1  0  0  0  0  0  0  0  0  0
   -2.5724   -1.1883    1.0054 C   0  0  0  0  0  0  0  0  0  0  0  0
   -3.1760    0.1645    1.4310 C   0  0  1  0  0  0  0  0  0  0  0  0
   -1.5449   -2.6093   -0.8330 C   0  0  0  0  0  0  0  0  0  0  0  0
   -2.2703    1.3105    0.9631 C   0  0  1  0  0  0  0  0  0  0  0  0
    0.0734   -0.2144   -0.6663 C   0  0  0  0  0  0  0  0  0  0  0  0
   -2.0291    1.2070   -0.5351 C   0  0  0  0  0  0  0  0  0  0  0  0
   -0.1532   -2.6790   -0.2072 C   0  0  0  0  0  0  0  0  0  0  0  0
    0.6167   -1.3796   -0.2629 C   0  0  0  0  0  0  0  0  0  0  0  0
   -3.3692    0.1957    2.9518 C   0  0  0  0  0  0  0  0  0  0  0  0
    0.9431    0.9939   -0.8204 C   0  0  0  0  0  0  0  0  0  0  0  0
    2.0479   -1.4839    0.1443 C   0  0  0  0  0  0  0  0  0  0  0  0
    2.3198    0.9414   -0.3009 C   0  0  0  0  0  0  0  0  0  0  0  0
    2.8548   -0.2556    0.1632 C   0  0  0  0  0  0  0  0  0  0  0  0
    3.1005    2.1047   -0.2884 C   0  0  0  0  0  0  0  0  0  0  0  0
    4.1703   -0.2963    0.6421 C   0  0  0  0  0  0  0  0  0  0  0  0
    4.4100    2.0633    0.1912 C   0  0  0  0  0  0  0  0  0  0  0  0
    4.9443    0.8640    0.6559 C   0  0  0  0  0  0  0  0  0  0  0  0
   -3.2796   -1.9879    1.2651 H   0  0  0  0  0  0  0  0  0  0  0  0
   -1.6643   -1.3581    1.5950 H   0  0  0  0  0  0  0  0  0  0  0  0
   -1.4629   -2.7272   -1.9225 H   0  0  0  0  0  0  0  0  0  0  0  0
   -2.1460   -3.4654   -0.5008 H   0  0  0  0  0  0  0  0  0  0  0  0
   -1.2970    1.2540    1.4649 H   0  0  0  0  0  0  0  0  0  0  0  0
    0.4084   -3.4676   -0.7235 H   0  0  0  0  0  0  0  0  0  0  0  0
   -0.2390   -2.9925    0.8406 H   0  0  0  0  0  0  0  0  0  0  0  0
   -3.8770    1.1147    3.2650 H   0  0  0  0  0  0  0  0  0  0  0  0
   -4.0051   -0.6338    3.2819 H   0  0  0  0  0  0  0  0  0  0  0  0
   -2.4132    0.1287    3.4812 H   0  0  0  0  0  0  0  0  0  0  0  0
   -4.0265   -2.0506   -0.9157 H   0  0  0  0  0  0  0  0  0  0  0  0
   -2.3748   -0.1333   -2.7376 H   0  0  0  0  0  0  0  0  0  0  0  0
   -5.0155   -0.4538    1.1317 H   0  0  0  0  0  0  0  0  0  0  0  0
   -2.1644    3.2512    1.0425 H   0  0  0  0  0  0  0  0  0  0  0  0
    2.7073    3.0529   -0.6454 H   0  0  0  0  0  0  0  0  0  0  0  0
    5.0127    2.9668    0.2015 H   0  0  0  0  0  0  0  0  0  0  0  0
    5.9661    0.8508    1.0261 H   0  0  0  0  0  0  0  0  0  0  0  0
    5.6612   -1.2460    1.3971 H   0  0  0  0  0  0  0  0  0  0  0  0
  1  9  1  0  0  0  0
  1 38  1  0  0  0  0
  2 10  1  0  0  0  0
  2 39  1  0  0  0  0
  3 12  1  0  0  0  0
  3 40  1  0  0  0  0
  4 14  1  0  0  0  0
  4 41  1  0  0  0  0
  5 16  2  0  0  0  0
  6 20  2  0  0  0  0
  7 21  2  0  0  0  0
  8 25  1  0  0  0  0
  8 45  1  0  0  0  0
  9 10  1  0  0  0  0
  9 11  1  0  0  0  0
  9 13  1  0  0  0  0
 10 15  1  0  0  0  0
 10 16  1  0  0  0  0
 11 12  1  0  0  0  0
 11 28  1  0  0  0  0
 11 29  1  0  0  0  0
 12 14  1  0  0  0  0
 12 19  1  0  0  0  0
 13 17  1  0  0  0  0
 13 30  1  0  0  0  0
 13 31  1  0  0  0  0
 14 16  1  0  0  0  0
 14 32  1  0  0  0  0
 15 18  2  0  0  0  0
 15 20  1  0  0  0  0
 17 18  1  0  0  0  0
 17 33  1  0  0  0  0
 17 34  1  0  0  0  0
 18 21  1  0  0  0  0
 19 35  1  0  0  0  0
 19 36  1  0  0  0  0
 19 37  1  0  0  0  0
 20 22  1  0  0  0  0
 21 23  1  0  0  0  0
 22 23  2  0  0  0  0
 22 24  1  0  0  0  0
 23 25  1  0  0  0  0
 24 26  2  0  0  0  0
 24 42  1  0  0  0  0
 25 27  2  0  0  0  0
 26 27  1  0  0  0  0
 26 43  1  0  0  0  0
 27 44  1  0  0  0  0
M  END
> <PUBCHEM_COMPOUND_CID>
135222

> <PUBCHEM_CONFORMER_RMSD>
0.6

> <PUBCHEM_CONFORMER_DIVERSEORDER>
1
3
2

> <PUBCHEM_MMFF94_PARTIAL_CHARGES>
32
1 -0.68
10 0.48
12 0.28
14 0.34
15 -0.12
16 0.45
17 0.14
18 -0.12
2 -0.68
20 0.47
21 0.47
22 0.09
23 0.09
24 -0.15
25 0.08
26 -0.15
27 -0.15
3 -0.68
38 0.4
39 0.4
4 -0.68
40 0.4
41 0.4
42 0.15
43 0.15
44 0.15
45 0.45
5 -0.57
6 -0.57
7 -0.57
8 -0.53
9 0.28

> <PUBCHEM_EFFECTIVE_ROTOR_COUNT>
1

> <PUBCHEM_PHARMACOPHORE_FEATURES>
16
1 1 acceptor
1 1 donor
1 2 acceptor
1 2 donor
1 3 acceptor
1 3 donor
1 4 acceptor
1 4 donor
1 5 acceptor
1 6 acceptor
1 7 acceptor
1 8 donor
6 15 18 20 21 22 23 rings
6 22 23 24 25 26 27 rings
6 9 10 11 12 14 16 rings
6 9 10 13 15 17 18 rings

> <PUBCHEM_HEAVY_ATOM_COUNT>
27

> <PUBCHEM_ATOM_DEF_STEREO_COUNT>
4

> <PUBCHEM_ATOM_UDEF_STEREO_COUNT>
0

> <PUBCHEM_BOND_DEF_STEREO_COUNT>
0

> <PUBCHEM_BOND_UDEF_STEREO_COUNT>
0

> <PUBCHEM_ISOTOPIC_ATOM_COUNT>
0

> <PUBCHEM_COMPONENT_COUNT>
1

> <PUBCHEM_CACTVS_TAUTO_COUNT>
159

> <PUBCHEM_CONFORMER_ID>
0002103600000001

> <PUBCHEM_MMFF94_ENERGY>
71.5132

> <PUBCHEM_FEATURE_SELFOVERLAP>
81.365

> <PUBCHEM_SHAPE_FINGERPRINT>
1100329 8 17692255553099047031
11370993 70 18340491075516526457
11640471 11 17416965015450340617
12173636 292 16917073235151118751
12236239 1 18130500911995222415
12363563 72 15574721343023623681
12403814 3 18335420192524820137
12633257 1 18273500082757357272
12670546 56 18130220570947731040
12788726 201 17559946809165888047
13140716 1 17904769130044197626
13224815 77 18040433330484525476
13583140 156 16806146835898713488
13965767 371 17912114701216184665
14223421 5 18335141985728051886
14341114 328 18060148651543299065
14739800 52 17487884817550525528
14790565 3 17972327480401621316
15163728 17 15840453409516643483
15209294 21 18201726171129774016
15309172 13 18408040727630835694
15534591 1 17632582651518975839
16945 1 18187656859048420079
200 152 18268695268457268607
20261772 1 18408327700482007976
20739085 24 18113625607801109196
20775530 9 13626105319478520721
21731228 192 18271819998793475347
21756936 100 17988364866556405616
23184049 59 18335143089829955058
335352 9 18191851350486035662
350125 39 18410289216056169908
392239 28 17623290884926662146
460360 51 18261108518235418702
469060 322 17972313190132284473
5081480 168 17200254555392608030
5104073 3 18266166413894790536
7064713 232 18272370858345270136
7097593 13 18410857663905411504

> <PUBCHEM_SHAPE_MULTIPOLES>
508.69
8.35
2.77
1.72
6.28
0.48
-0.42
-2.02
-3.76
0.18
0.19
-1.95
-0.35
-1.13

> <PUBCHEM_SHAPE_SELFOVERLAP>
1142.488

> <PUBCHEM_SHAPE_VOLUME>
262.8

> <PUBCHEM_COORDINATE_TYPE>
2
5
10

$$$$
