REMARK  Name = 135222
REMARK  5 active torsions:
REMARK  status: ('A' for Active; 'I' for Inactive)
REMARK    1  A    between atoms: C_4  and  O_23
REMARK    2  A    between atoms: C_5  and  O_25
REMARK    3  A    between atoms: C_7  and  O_27
REMARK    4  A    between atoms: C_9  and  O_29
REMARK    5  A    between atoms: C_20  and  O_31
REMARK                            x       y       z     vdW  Elec       q    Type
REMARK                         _______ _______ _______ _____ _____    ______ ____
ROOT
ATOM      1  O   UNL     1      -2.310   2.132  -1.298  0.00  0.00    -0.291 OA
ATOM      2  O   UNL     1       0.549   2.013  -1.377  0.00  0.00    -0.287 OA
ATOM      3  O   UNL     1       2.544  -2.556   0.472  0.00  0.00    -0.287 OA
ATOM      4  C   UNL     1      -2.260  -1.288  -0.514  0.00  0.00    +0.123 C 
ATOM      5  C   UNL     1      -1.400  -0.103  -1.038  0.00  0.00    +0.185 C 
ATOM      6  C   UNL     1      -2.572  -1.188   1.005  0.00  0.00    +0.060 C 
ATOM      7  C   UNL     1      -3.176   0.165   1.431  0.00  0.00    +0.122 C 
ATOM      8  C   UNL     1      -1.545  -2.609  -0.833  0.00  0.00    +0.035 C 
ATOM      9  C   UNL     1      -2.270   1.310   0.963  0.00  0.00    +0.195 C 
ATOM     10  C   UNL     1       0.073  -0.214  -0.666  0.00  0.00    +0.049 C 
ATOM     11  C   UNL     1      -2.029   1.207  -0.535  0.00  0.00    +0.210 C 
ATOM     12  C   UNL     1      -0.153  -2.679  -0.207  0.00  0.00    +0.032 C 
ATOM     13  C   UNL     1       0.617  -1.380  -0.263  0.00  0.00    +0.019 C 
ATOM     14  C   UNL     1      -3.369   0.196   2.952  0.00  0.00    +0.032 C 
ATOM     15  C   UNL     1       0.943   0.994  -0.820  0.00  0.00    +0.194 C 
ATOM     16  C   UNL     1       2.048  -1.484   0.144  0.00  0.00    +0.195 C 
ATOM     17  C   UNL     1       2.320   0.941  -0.301  0.00  0.00    +0.045 C 
ATOM     18  C   UNL     1       2.855  -0.256   0.163  0.00  0.00    +0.075 C 
ATOM     19  C   UNL     1       3.100   2.105  -0.288  0.00  0.00    +0.003 C 
ATOM     20  C   UNL     1       4.170  -0.296   0.642  0.00  0.00    +0.137 C 
ATOM     21  C   UNL     1       4.410   2.063   0.191  0.00  0.00    +0.003 C 
ATOM     22  C   UNL     1       4.944   0.864   0.656  0.00  0.00    +0.037 C 
ENDROOT
BRANCH   4  23
ATOM     23  O   UNL     1      -3.502  -1.296  -1.232  0.00  0.00    -0.384 OA
ATOM     24  H   UNL     1      -3.983  -0.473  -1.054  0.00  0.00    +0.210 HD
ENDBRANCH   4  23
BRANCH   5  25
ATOM     25  O   UNL     1      -1.443  -0.074  -2.467  0.00  0.00    -0.374 OA
ATOM     26  H   UNL     1      -1.052  -0.889  -2.819  0.00  0.00    +0.211 HD
ENDBRANCH   5  25
BRANCH   7  27
ATOM     27  O   UNL     1      -4.469   0.293   0.833  0.00  0.00    -0.384 OA
ATOM     28  H   UNL     1      -4.381   0.276  -0.133  0.00  0.00    +0.210 HD
ENDBRANCH   7  27
BRANCH   9  29
ATOM     29  O   UNL     1      -2.826   2.577   1.272  0.00  0.00    -0.375 OA
ATOM     30  H   UNL     1      -2.978   2.638   2.228  0.00  0.00    +0.211 HD
ENDBRANCH   9  29
BRANCH  20  31
ATOM     31  O   UNL     1       4.750  -1.436   1.115  0.00  0.00    -0.505 OA
ATOM     32  H   UNL     1       4.267  -2.239   1.124  0.00  0.00    +0.292 HD
ENDBRANCH  20  31
TORSDOF 5
