REMARK  Name = 135214
REMARK  5 active torsions:
REMARK  status: ('A' for Active; 'I' for Inactive)
REMARK    1  A    between atoms: C_3  and  O_16
REMARK    2  A    between atoms: C_9  and  S_10
REMARK    3  A    between atoms: S_10  and  N_13
REMARK    4  A    between atoms: O_16  and  C_18
REMARK    5  A    between atoms: C_18  and  C_19
REMARK                            x       y       z     vdW  Elec       q    Type
REMARK                         _______ _______ _______ _____ _____    ______ ____
ROOT
ATOM      1  S   UNL     1       2.276  -1.390   0.373  0.00  0.00    -0.051 S 
ATOM      2  N   UNL     1       2.733   1.079  -0.215  0.00  0.00    -0.380 NA
ATOM      3  C   UNL     1      -1.313   0.462   0.493  0.00  0.00    +0.146 C 
ATOM      4  C   UNL     1       0.926  -0.319   0.339  0.00  0.00    +0.133 C 
ATOM      5  C   UNL     1       1.368   0.965   0.004  0.00  0.00    +0.126 C 
ATOM      6  C   UNL     1      -0.428  -0.594   0.590  0.00  0.00    +0.029 C 
ATOM      7  C   UNL     1      -0.929   1.740   0.168  0.00  0.00    +0.040 C 
ATOM      8  C   UNL     1       0.420   2.007  -0.081  0.00  0.00    +0.032 C 
ATOM      9  C   UNL     1       3.305  -0.090  -0.048  0.00  0.00    +0.278 C 
ENDROOT
BRANCH   9  10
ATOM     10  S   UNL     1       5.005  -0.414  -0.222  0.00  0.00    +0.091 S 
ATOM     11  O   UNL     1       5.128  -1.833  -0.562  0.00  0.00    -0.150 OA
ATOM     12  O   UNL     1       5.511   0.603  -1.143  0.00  0.00    -0.150 OA
BRANCH  10  13
ATOM     13  N   UNL     1       5.785  -0.185   1.298  0.00  0.00    -0.201 NA
ATOM     14  H   UNL     1       6.783  -0.374   1.200  0.00  0.00    +0.144 HD
ATOM     15  H   UNL     1       5.384  -0.823   1.986  0.00  0.00    +0.144 HD
ENDBRANCH  10  13
ENDBRANCH   9  10
BRANCH   3  16
ATOM     16  O   UNL     1      -2.666   0.215   0.740  0.00  0.00    -0.424 OA
BRANCH  16  18
ATOM     17  O   UNL     1      -2.908  -0.248  -1.534  0.00  0.00    -0.250 OA
ATOM     18  C   UNL     1      -3.376  -0.144  -0.406  0.00  0.00    +0.320 C 
BRANCH  18  19
ATOM     19  C   UNL     1      -4.845  -0.395  -0.044  0.00  0.00    +0.090 C 
ATOM     20  C   UNL     1      -5.451   0.883   0.550  0.00  0.00    +0.011 C 
ATOM     21  C   UNL     1      -5.616  -0.821  -1.300  0.00  0.00    +0.011 C 
ATOM     22  C   UNL     1      -4.929  -1.520   0.999  0.00  0.00    +0.011 C 
ENDBRANCH  18  19
ENDBRANCH  16  18
ENDBRANCH   3  16
TORSDOF 5
