135220
  -OEChem-03292013323D

 60 64  0     1  0  0  0  0  0999 V2000
   -1.5892    0.6686   -1.0341 O   0  0  0  0  0  0  0  0  0  0  0  0
   -2.7899    1.0617    1.1573 O   0  0  0  0  0  0  0  0  0  0  0  0
   -5.0206    0.0575   -0.3756 O   0  0  0  0  0  0  0  0  0  0  0  0
    0.3774    1.5650   -0.1388 O   0  0  0  0  0  0  0  0  0  0  0  0
   -1.4143   -2.6404   -1.3625 O   0  0  0  0  0  0  0  0  0  0  0  0
    0.4651   -0.5496   -2.3218 O   0  0  0  0  0  0  0  0  0  0  0  0
    1.5910    5.0269    0.1648 O   0  0  0  0  0  0  0  0  0  0  0  0
    2.5010   -1.2891    2.5564 O   0  0  0  0  0  0  0  0  0  0  0  0
    4.8398   -1.6123    1.6227 O   0  0  0  0  0  0  0  0  0  0  0  0
   -1.4753   -0.4914   -0.2017 C   0  0  1  0  0  0  0  0  0  0  0  0
   -2.3422   -0.3024    1.0990 C   0  0  2  0  0  0  0  0  0  0  0  0
   -3.5988   -1.2180    1.1232 C   0  0  0  0  0  0  0  0  0  0  0  0
   -4.4049   -1.2203   -0.1908 C   0  0  2  0  0  0  0  0  0  0  0  0
   -3.5275   -1.5364   -1.4094 C   0  0  0  0  0  0  0  0  0  0  0  0
   -2.0652   -1.6514   -1.0230 C   0  0  0  0  0  0  0  0  0  0  0  0
    0.0226   -0.7211    0.0193 C   0  0  0  0  0  0  0  0  0  0  0  0
   -1.5830   -0.5521    2.3775 C   0  0  0  0  0  0  0  0  0  0  0  0
    0.5550   -0.8937    1.2435 C   0  0  0  0  0  0  0  0  0  0  0  0
   -1.0032    1.8083   -0.4093 C   0  0  1  0  0  0  0  0  0  0  0  0
   -5.5571   -2.2254   -0.0867 C   0  0  0  0  0  0  0  0  0  0  0  0
   -0.2790   -0.8385    2.4252 C   0  0  0  0  0  0  0  0  0  0  0  0
   -1.1678    2.9919   -1.3586 C   0  0  0  0  0  0  0  0  0  0  0  0
    0.9088   -0.7344   -1.1931 C   0  0  0  0  0  0  0  0  0  0  0  0
   -0.4716    4.2308   -0.8170 C   0  0  0  0  0  0  0  0  0  0  0  0
    1.0763    2.6706    0.4445 C   0  0  1  0  0  0  0  0  0  0  0  0
    0.9761    3.9074   -0.4571 C   0  0  2  0  0  0  0  0  0  0  0  0
    2.0165   -1.1306    1.4406 C   0  0  0  0  0  0  0  0  0  0  0  0
    2.3491   -0.9803   -1.0152 C   0  0  0  0  0  0  0  0  0  0  0  0
    2.8832   -1.1732    0.2537 C   0  0  0  0  0  0  0  0  0  0  0  0
    0.6407    2.9020    1.8924 C   0  0  0  0  0  0  0  0  0  0  0  0
    3.1878   -1.0205   -2.1374 C   0  0  0  0  0  0  0  0  0  0  0  0
    4.2563   -1.4076    0.4069 C   0  0  0  0  0  0  0  0  0  0  0  0
    4.5546   -1.2542   -1.9831 C   0  0  0  0  0  0  0  0  0  0  0  0
    5.0883   -1.4478   -0.7119 C   0  0  0  0  0  0  0  0  0  0  0  0
   -3.2939   -2.2492    1.3536 H   0  0  0  0  0  0  0  0  0  0  0  0
   -4.2613   -0.8922    1.9380 H   0  0  0  0  0  0  0  0  0  0  0  0
   -3.6148   -0.7686   -2.1863 H   0  0  0  0  0  0  0  0  0  0  0  0
   -3.8150   -2.4915   -1.8658 H   0  0  0  0  0  0  0  0  0  0  0  0
   -2.1331   -0.4954    3.3144 H   0  0  0  0  0  0  0  0  0  0  0  0
   -1.4343    2.1708    0.5089 H   0  0  0  0  0  0  0  0  0  0  0  0
   -6.2172   -1.9828    0.7543 H   0  0  0  0  0  0  0  0  0  0  0  0
   -6.1812   -2.1969   -0.9876 H   0  0  0  0  0  0  0  0  0  0  0  0
   -5.1899   -3.2481    0.0490 H   0  0  0  0  0  0  0  0  0  0  0  0
    0.1786   -1.0067    3.3952 H   0  0  0  0  0  0  0  0  0  0  0  0
   -3.3512    1.1696    1.9443 H   0  0  0  0  0  0  0  0  0  0  0  0
   -2.2303    3.1940   -1.5362 H   0  0  0  0  0  0  0  0  0  0  0  0
   -0.7350    2.7361   -2.3347 H   0  0  0  0  0  0  0  0  0  0  0  0
   -5.5499    0.2569    0.4155 H   0  0  0  0  0  0  0  0  0  0  0  0
   -0.5005    5.0392   -1.5573 H   0  0  0  0  0  0  0  0  0  0  0  0
   -1.0046    4.6163    0.0609 H   0  0  0  0  0  0  0  0  0  0  0  0
    2.1312    2.3721    0.4879 H   0  0  0  0  0  0  0  0  0  0  0  0
    1.5154    3.7059   -1.3916 H   0  0  0  0  0  0  0  0  0  0  0  0
    0.6652    1.9654    2.4562 H   0  0  0  0  0  0  0  0  0  0  0  0
    1.3086    3.6121    2.3907 H   0  0  0  0  0  0  0  0  0  0  0  0
   -0.3757    3.2973    1.9711 H   0  0  0  0  0  0  0  0  0  0  0  0
    2.7968   -0.8731   -3.1407 H   0  0  0  0  0  0  0  0  0  0  0  0
    2.5133    4.7859    0.3568 H   0  0  0  0  0  0  0  0  0  0  0  0
    5.2015   -1.2854   -2.8550 H   0  0  0  0  0  0  0  0  0  0  0  0
    6.1549   -1.6301   -0.6102 H   0  0  0  0  0  0  0  0  0  0  0  0
    5.7944   -1.7564    1.5063 H   0  0  0  0  0  0  0  0  0  0  0  0
  1 10  1  0  0  0  0
  1 19  1  0  0  0  0
  2 11  1  0  0  0  0
  2 45  1  0  0  0  0
  3 13  1  0  0  0  0
  3 48  1  0  0  0  0
  4 19  1  0  0  0  0
  4 25  1  0  0  0  0
  5 15  2  0  0  0  0
  6 23  2  0  0  0  0
  7 26  1  0  0  0  0
  7 57  1  0  0  0  0
  8 27  2  0  0  0  0
  9 32  1  0  0  0  0
  9 60  1  0  0  0  0
 10 11  1  0  0  0  0
 10 15  1  0  0  0  0
 10 16  1  0  0  0  0
 11 12  1  0  0  0  0
 11 17  1  0  0  0  0
 12 13  1  0  0  0  0
 12 35  1  0  0  0  0
 12 36  1  0  0  0  0
 13 14  1  0  0  0  0
 13 20  1  0  0  0  0
 14 15  1  0  0  0  0
 14 37  1  0  0  0  0
 14 38  1  0  0  0  0
 16 18  2  0  0  0  0
 16 23  1  0  0  0  0
 17 21  2  0  0  0  0
 17 39  1  0  0  0  0
 18 21  1  0  0  0  0
 18 27  1  0  0  0  0
 19 22  1  0  0  0  0
 19 40  1  0  0  0  0
 20 41  1  0  0  0  0
 20 42  1  0  0  0  0
 20 43  1  0  0  0  0
 21 44  1  0  0  0  0
 22 24  1  0  0  0  0
 22 46  1  0  0  0  0
 22 47  1  0  0  0  0
 23 28  1  0  0  0  0
 24 26  1  0  0  0  0
 24 49  1  0  0  0  0
 24 50  1  0  0  0  0
 25 26  1  0  0  0  0
 25 30  1  0  0  0  0
 25 51  1  0  0  0  0
 26 52  1  0  0  0  0
 27 29  1  0  0  0  0
 28 29  2  0  0  0  0
 28 31  1  0  0  0  0
 29 32  1  0  0  0  0
 30 53  1  0  0  0  0
 30 54  1  0  0  0  0
 30 55  1  0  0  0  0
 31 33  2  0  0  0  0
 31 56  1  0  0  0  0
 32 34  2  0  0  0  0
 33 34  1  0  0  0  0
 33 58  1  0  0  0  0
 34 59  1  0  0  0  0
M  END
> <PUBCHEM_COMPOUND_CID>
135220

> <PUBCHEM_CONFORMER_RMSD>
0.8

> <PUBCHEM_CONFORMER_DIVERSEORDER>
1

> <PUBCHEM_MMFF94_PARTIAL_CHARGES>
38
1 -0.56
10 0.48
11 0.42
13 0.28
14 0.06
15 0.45
16 -0.12
17 -0.29
18 0.01
19 0.56
2 -0.68
21 -0.15
23 0.47
25 0.28
26 0.28
27 0.47
28 0.09
29 0.09
3 -0.68
31 -0.15
32 0.08
33 -0.15
34 -0.15
39 0.15
4 -0.56
44 0.15
45 0.4
48 0.4
5 -0.57
56 0.15
57 0.4
58 0.15
59 0.15
6 -0.57
60 0.45
7 -0.68
8 -0.57
9 -0.53

> <PUBCHEM_EFFECTIVE_ROTOR_COUNT>
3.8

> <PUBCHEM_PHARMACOPHORE_FEATURES>
17
1 1 acceptor
1 2 acceptor
1 2 donor
1 3 acceptor
1 3 donor
1 4 acceptor
1 5 acceptor
1 6 acceptor
1 7 acceptor
1 7 donor
1 8 acceptor
1 9 donor
6 10 11 12 13 14 15 rings
6 10 11 16 17 18 21 rings
6 16 18 23 27 28 29 rings
6 28 29 31 32 33 34 rings
6 4 19 22 24 25 26 rings

> <PUBCHEM_HEAVY_ATOM_COUNT>
34

> <PUBCHEM_ATOM_DEF_STEREO_COUNT>
6

> <PUBCHEM_ATOM_UDEF_STEREO_COUNT>
0

> <PUBCHEM_BOND_DEF_STEREO_COUNT>
0

> <PUBCHEM_BOND_UDEF_STEREO_COUNT>
0

> <PUBCHEM_ISOTOPIC_ATOM_COUNT>
0

> <PUBCHEM_COMPONENT_COUNT>
1

> <PUBCHEM_CACTVS_TAUTO_COUNT>
10

> <PUBCHEM_CONFORMER_ID>
0002103400000001

> <PUBCHEM_MMFF94_ENERGY>
137.0716

> <PUBCHEM_FEATURE_SELFOVERLAP>
86.413

> <PUBCHEM_SHAPE_FINGERPRINT>
10165383 225 16979870553239294768
10369192 42 16915924345117687144
11421498 54 18040998380260587235
11445158 3 16988553598938877396
11477941 20 18196401172741545364
11578080 2 17605528081169633141
12107698 1 18408892807231601350
12156800 1 17606929872844016744
12236239 1 17822291253925602191
12422481 6 17911198962670045872
12741549 16 17631999876096549137
12788726 201 18043253444169893105
13009979 54 17917158311592789299
13149001 5 18044105763282083690
133893 2 18051154741065227081
13681431 1 18341058530816943768
13782708 43 17631742539279959166
14787075 74 18040443187175961298
14910302 57 17844252822249125574
14955137 171 18053139222340834067
15439362 3 18123188171664880181
15664445 248 18412546522060600918
17349148 13 17531533070993762042
17980427 23 17417824932659948409
1813 80 18343865528089057158
19319366 153 17316196927113257865
20600515 1 18201721768730507391
20691752 17 17749111110250377937
20775438 99 17758668237171121763
21033648 29 17417802899483274475
21033650 10 17974310737347804454
21133665 82 17689717889486006772
22121540 332 16981259227972872529
23419403 2 17389343225891879236
23559900 14 17846501486646870775
244849 19 17607257733994519275
3380486 145 18123777273942744129
3411729 13 18123466339453274441
35225 105 17831304904363464536
4017518 198 17551801743619512412
469060 322 18270131127400489266
5081480 168 18336535110400773541
5171179 24 18411135857285242485
57527293 21 17914865786983801306
57527306 92 16320149475974879436
6086070 43 18261381262091983007
70251023 43 18409735079286306967

> <PUBCHEM_SHAPE_MULTIPOLES>
646.88
8.21
4.3
2.26
0.64
8.16
-0.69
-8.2
1.36
-0.88
0.64
-0.98
-0.74
0.01

> <PUBCHEM_SHAPE_SELFOVERLAP>
1445.537

> <PUBCHEM_SHAPE_VOLUME>
335.8

> <PUBCHEM_COORDINATE_TYPE>
2
5
10

$$$$
