135214
  -OEChem-03292013323D

 34 35  0     0  0  0  0  0  0999 V2000
    2.2764   -1.3900    0.3734 S   0  0  0  0  0  0  0  0  0  0  0  0
    5.0053   -0.4144   -0.2220 S   0  0  0  0  0  0  0  0  0  0  0  0
   -2.6655    0.2151    0.7396 O   0  0  0  0  0  0  0  0  0  0  0  0
   -2.9083   -0.2484   -1.5336 O   0  0  0  0  0  0  0  0  0  0  0  0
    5.1285   -1.8326   -0.5620 O   0  0  0  0  0  0  0  0  0  0  0  0
    5.5112    0.6026   -1.1429 O   0  0  0  0  0  0  0  0  0  0  0  0
    2.7334    1.0792   -0.2151 N   0  0  0  0  0  0  0  0  0  0  0  0
    5.7854   -0.1852    1.2979 N   0  0  0  0  0  0  0  0  0  0  0  0
   -4.8445   -0.3946   -0.0445 C   0  0  0  0  0  0  0  0  0  0  0  0
   -5.4511    0.8830    0.5505 C   0  0  0  0  0  0  0  0  0  0  0  0
   -5.6158   -0.8210   -1.3004 C   0  0  0  0  0  0  0  0  0  0  0  0
   -4.9286   -1.5204    0.9989 C   0  0  0  0  0  0  0  0  0  0  0  0
   -3.3756   -0.1438   -0.4055 C   0  0  0  0  0  0  0  0  0  0  0  0
   -1.3129    0.4615    0.4932 C   0  0  0  0  0  0  0  0  0  0  0  0
    0.9257   -0.3189    0.3389 C   0  0  0  0  0  0  0  0  0  0  0  0
    1.3683    0.9645    0.0041 C   0  0  0  0  0  0  0  0  0  0  0  0
   -0.4281   -0.5943    0.5902 C   0  0  0  0  0  0  0  0  0  0  0  0
   -0.9292    1.7403    0.1683 C   0  0  0  0  0  0  0  0  0  0  0  0
    0.4202    2.0074   -0.0809 C   0  0  0  0  0  0  0  0  0  0  0  0
    3.3053   -0.0904   -0.0482 C   0  0  0  0  0  0  0  0  0  0  0  0
   -4.9553    1.1758    1.4828 H   0  0  0  0  0  0  0  0  0  0  0  0
   -5.3523    1.7231   -0.1467 H   0  0  0  0  0  0  0  0  0  0  0  0
   -6.5165    0.7506    0.7692 H   0  0  0  0  0  0  0  0  0  0  0  0
   -5.5787   -0.0420   -2.0708 H   0  0  0  0  0  0  0  0  0  0  0  0
   -6.6701   -1.0144   -1.0730 H   0  0  0  0  0  0  0  0  0  0  0  0
   -5.1941   -1.7338   -1.7369 H   0  0  0  0  0  0  0  0  0  0  0  0
   -4.4353   -1.2439    1.9376 H   0  0  0  0  0  0  0  0  0  0  0  0
   -5.9703   -1.7668    1.2334 H   0  0  0  0  0  0  0  0  0  0  0  0
   -4.4400   -2.4309    0.6331 H   0  0  0  0  0  0  0  0  0  0  0  0
   -0.7602   -1.5942    0.8501 H   0  0  0  0  0  0  0  0  0  0  0  0
   -1.6562    2.5444    0.1032 H   0  0  0  0  0  0  0  0  0  0  0  0
    0.7347    3.0148   -0.3386 H   0  0  0  0  0  0  0  0  0  0  0  0
    5.8271    0.7801    1.6494 H   0  0  0  0  0  0  0  0  0  0  0  0
    5.5560   -0.8629    2.0363 H   0  0  0  0  0  0  0  0  0  0  0  0
  1 15  1  0  0  0  0
  1 20  1  0  0  0  0
  2  5  2  0  0  0  0
  2  6  2  0  0  0  0
  2  8  1  0  0  0  0
  2 20  1  0  0  0  0
  3 13  1  0  0  0  0
  3 14  1  0  0  0  0
  4 13  2  0  0  0  0
  7 16  1  0  0  0  0
  7 20  2  0  0  0  0
  8 33  1  0  0  0  0
  8 34  1  0  0  0  0
  9 10  1  0  0  0  0
  9 11  1  0  0  0  0
  9 12  1  0  0  0  0
  9 13  1  0  0  0  0
 10 21  1  0  0  0  0
 10 22  1  0  0  0  0
 10 23  1  0  0  0  0
 11 24  1  0  0  0  0
 11 25  1  0  0  0  0
 11 26  1  0  0  0  0
 12 27  1  0  0  0  0
 12 28  1  0  0  0  0
 12 29  1  0  0  0  0
 14 17  2  0  0  0  0
 14 18  1  0  0  0  0
 15 16  2  0  0  0  0
 15 17  1  0  0  0  0
 16 19  1  0  0  0  0
 17 30  1  0  0  0  0
 18 19  2  0  0  0  0
 18 31  1  0  0  0  0
 19 32  1  0  0  0  0
M  END
> <PUBCHEM_COMPOUND_CID>
135214

> <PUBCHEM_CONFORMER_RMSD>
0.6

> <PUBCHEM_CONFORMER_DIVERSEORDER>
1
26
30
20
22
37
13
28
15
31
38
25
14
12
18
27
16
33
17
23
29
7
32
9
19
4
6
36
5
11
34
10
21
8
24
35
2
3

> <PUBCHEM_MMFF94_PARTIAL_CHARGES>
22
1 -0.08
13 0.66
14 0.08
15 0.04
16 0.23
17 -0.15
18 -0.15
19 -0.15
2 1.5
20 0.32
3 -0.23
30 0.15
31 0.15
32 0.15
33 0.42
34 0.42
4 -0.57
5 -0.65
6 -0.65
7 -0.57
8 -0.98
9 0.06

> <PUBCHEM_EFFECTIVE_ROTOR_COUNT>
4

> <PUBCHEM_PHARMACOPHORE_FEATURES>
8
1 4 acceptor
1 5 acceptor
1 6 acceptor
1 7 acceptor
1 8 donor
4 9 10 11 12 hydrophobe
5 1 7 15 16 20 rings
6 14 15 16 17 18 19 rings

> <PUBCHEM_HEAVY_ATOM_COUNT>
20

> <PUBCHEM_ATOM_DEF_STEREO_COUNT>
0

> <PUBCHEM_ATOM_UDEF_STEREO_COUNT>
0

> <PUBCHEM_BOND_DEF_STEREO_COUNT>
0

> <PUBCHEM_BOND_UDEF_STEREO_COUNT>
0

> <PUBCHEM_ISOTOPIC_ATOM_COUNT>
0

> <PUBCHEM_COMPONENT_COUNT>
1

> <PUBCHEM_CACTVS_TAUTO_COUNT>
1

> <PUBCHEM_CONFORMER_ID>
0002102E00000001

> <PUBCHEM_MMFF94_ENERGY>
44.8389

> <PUBCHEM_FEATURE_SELFOVERLAP>
40.687

> <PUBCHEM_SHAPE_FINGERPRINT>
10 15 11599710767287546686
10906281 52 18264227875166553368
11287383 113 16950287333805225628
12166972 35 17313108540605407244
12236239 1 17988925569777337139
12516196 113 18202281411537998656
12596602 18 15697999651955968467
12670543 26 18113615655802565741
12916748 109 13118002175693853501
13288520 33 18060142020103133581
13533116 47 17313377891200651890
13583140 156 14836118806875933281
13740256 8 18336270140867277915
13862211 1 18410006641663075826
1420 363 18413393141655503226
14251752 14 17895188853535533045
14350574 20 18187088390336108851
14576447 43 18412258445571274703
14911166 2 18187085069878054568
15183329 4 17313098631582994420
15188451 53 15554153875142333503
15788980 27 17989489632375207889
17834072 8 18411413991409828189
1813 80 18130798857839450860
18186145 218 17821722862860000857
18222031 100 18272080608665899457
19784866 140 18334292033132773002
200 152 18413390929821042889
20374829 77 18259983777642626657
20612939 158 18261113023524607077
20645477 70 18333454248754765586
21150785 3 17168154438285280486
21267235 1 18411709780752803003
21637258 2 17346590863845554015
21641784 216 17750249036092186420
22079108 93 16271915035410387154
221490 88 18045509857121579691
22950370 63 18342177756386605055
23402539 116 18342174453709748125
23557571 272 18200600185355630148
23559900 14 18187645863784572561
26918003 58 18407759244417378139
2767999 5 7925913660009330478
2838139 119 13623527978244480918
2871803 45 18260548896776039482
2916195 48 11386374767526713142
293599 30 9079114466529158440
3004659 81 17967818237086340494
314194 84 18343585148350131922
34797466 226 15430618181141267118
351380 3 18201717353472497991
3545911 37 10737287935325057257
4463277 17 18412266124983414441
465052 167 18272940431412750310
5104073 3 18128251195530592778
542803 24 18260831496569951437
559249 180 17989485213318266303
59682541 35 18201708605446912890
7495541 125 17676774269996224392

> <PUBCHEM_SHAPE_MULTIPOLES>
385.85
14.22
1.6
1.06
1.13
0.23
-0.15
-4.4
-1.43
0.21
0.07
-0.43
-0.17
-0.22

> <PUBCHEM_SHAPE_SELFOVERLAP>
794.6

> <PUBCHEM_SHAPE_VOLUME>
225.6

> <PUBCHEM_COORDINATE_TYPE>
2
5
10

$$$$
