REMARK  Name = 135398596
REMARK  5 active torsions:
REMARK  status: ('A' for Active; 'I' for Inactive)
REMARK    1  A    between atoms: N_2  and  C_16
REMARK    2  A    between atoms: C_17  and  O_20
REMARK    3  A    between atoms: C_19  and  C_22
REMARK    4  A    between atoms: C_22  and  O_23
REMARK    5  A    between atoms: O_23  and  P_24
REMARK                            x       y       z     vdW  Elec       q    Type
REMARK                         _______ _______ _______ _____ _____    ______ ____
ROOT
ATOM      1  O   UNL     1       4.330  -2.867  -0.348  0.00  0.00    -0.268 OA
ATOM      2  N   UNL     1       0.902   0.045   0.083  0.00  0.00    -0.239 N 
ATOM      3  N   UNL     1       1.463  -2.092  -0.262  0.00  0.00    -0.240 NA
ATOM      4  N   UNL     1       3.094   1.053   0.281  0.00  0.00    -0.357 NA
ATOM      5  N   UNL     1       4.799  -0.611   0.031  0.00  0.00    -0.243 N 
ATOM      6  N   UNL     1       5.364   1.643   0.410  0.00  0.00    -0.321 N 
ATOM      7  C   UNL     1       2.265   0.002   0.095  0.00  0.00    +0.211 C 
ATOM      8  C   UNL     1       0.466  -1.239  -0.135  0.00  0.00    +0.224 C 
ATOM      9  C   UNL     1       2.577  -1.319  -0.118  0.00  0.00    +0.176 C 
ATOM     10  C   UNL     1       3.957  -1.715  -0.163  0.00  0.00    +0.273 C 
ATOM     11  C   UNL     1       4.366   0.719   0.244  0.00  0.00    +0.239 C 
ATOM     12  H   UNL     1       5.770  -0.774   0.018  0.00  0.00    +0.159 HD
ATOM     13  H   UNL     1       5.139   2.589   0.563  0.00  0.00    +0.146 HD
ATOM     14  H   UNL     1       6.307   1.360   0.377  0.00  0.00    +0.146 HD
ENDROOT
BRANCH   2  16
ATOM     15  O   UNL     1      -1.219   0.932   0.915  0.00  0.00    -0.335 OA
ATOM     16  C   UNL     1       0.027   1.259   0.270  0.00  0.00    +0.198 C 
ATOM     17  C   UNL     1      -1.630   2.639  -0.689  0.00  0.00    +0.144 C 
ATOM     18  C   UNL     1      -0.337   1.942  -1.044  0.00  0.00    +0.083 C 
ATOM     19  C   UNL     1      -2.286   1.667   0.283  0.00  0.00    +0.174 C 
BRANCH  17  20
ATOM     20  O   UNL     1      -1.317   3.855  -0.014  0.00  0.00    -0.382 OA
ATOM     21  H   UNL     1      -0.899   4.472  -0.635  0.00  0.00    +0.210 HD
ENDBRANCH  17  20
BRANCH  19  22
ATOM     22  C   UNL     1      -3.199   0.666  -0.412  0.00  0.00    +0.186 C 
BRANCH  22  23
ATOM     23  O   UNL     1      -3.753  -0.197   0.566  0.00  0.00    -0.268 OA
BRANCH  23  24
ATOM     24  P   UNL     1      -4.789  -1.390   0.080  0.00  0.00    +0.533 P 
ATOM     25  O   UNL     1      -5.165  -2.092   1.382  0.00  0.00    -0.115 OA
ATOM     26  O   UNL     1      -3.968  -2.251  -0.874  0.00  0.00    -0.222 OA
ATOM     27  O   UNL     1      -5.948  -0.649  -0.580  0.00  0.00    -0.115 OA
ENDBRANCH  23  24
ENDBRANCH  22  23
ENDBRANCH  19  22
ENDBRANCH   2  16
TORSDOF 5
