REMARK  Name = 135398674
REMARK  9 active torsions:
REMARK  status: ('A' for Active; 'I' for Inactive)
REMARK    1  A    between atoms: N_1  and  C_13
REMARK    2  A    between atoms: N_5  and  C_9
REMARK    3  A    between atoms: N_5  and  C_24
REMARK    4  A    between atoms: C_13  and  C_14
REMARK    5  A    between atoms: C_14  and  CA_15
REMARK    6  A    between atoms: CA_15  and  N_16
REMARK    7  A    between atoms: CA_15  and  C_21
REMARK    8  A    between atoms: C_21  and  O_22
REMARK    9  A    between atoms: C_24  and  C_25
REMARK                            x       y       z     vdW  Elec       q    Type
REMARK                         _______ _______ _______ _____ _____    ______ ____
ROOT
ATOM      1  N   UNL     1      -1.125   0.283   0.400  0.00  0.00    -0.275 N 
ATOM      2  N   UNL     1       0.751  -2.606   0.052  0.00  0.00    -0.312 N 
ATOM      3  N   UNL     1      -1.403  -2.150   0.439  0.00  0.00    -0.304 N 
ATOM      4  N   UNL     1       1.139   1.078  -0.039  0.00  0.00    -0.231 NA
ATOM      5  C   UNL     1      -0.682  -0.997   0.315  0.00  0.00    +0.116 C 
ATOM      6  C   UNL     1       0.649  -1.245   0.072  0.00  0.00    +0.107 C 
ATOM      7  C   UNL     1      -0.136   1.238   0.195  0.00  0.00    +0.222 C 
ATOM      8  C   UNL     1       1.626  -0.216  -0.108  0.00  0.00    +0.161 C 
ATOM      9  C   UNL     1      -0.508  -3.104   0.276  0.00  0.00    +0.183 C 
ATOM     10  H   UNL     1       1.571  -3.130  -0.095  0.00  0.00    +0.149 HD
ATOM     11  H   UNL     1      -2.367  -2.246   0.611  0.00  0.00    +0.150 HD
ENDROOT
BRANCH   8  12
ATOM     12  N   UNL     1       2.874  -0.456  -0.323  0.00  0.00    -0.215 NA
BRANCH  12  13
ATOM     13  C   UNL     1       3.700   0.733  -0.478  0.00  0.00    +0.139 C 
BRANCH  13  14
ATOM     14  C   UNL     1       5.117   0.329  -0.743  0.00  0.00    -0.011 C 
ATOM     15  C   UNL     1       6.209   0.633  -0.017  0.00  0.00    -0.046 C 
ATOM     16  C   UNL     1       6.204   1.422   1.262  0.00  0.00    +0.026 C 
ATOM     17  C   UNL     1       7.572   0.170  -0.457  0.00  0.00    +0.026 C 
ENDBRANCH  13  14
ENDBRANCH  12  13
ENDBRANCH   8  12
BRANCH   1  18
ATOM     18  C   UNL     1      -2.524   0.592   0.604  0.00  0.00    +0.092 C 
BRANCH  18  19
ATOM     19  C   UNL     1      -3.141   1.066  -0.711  0.00  0.00    +0.011 C 
BRANCH  19  20
ATOM     20  CA  UNL     1      -4.631   1.414  -0.595  0.00  0.00    +0.037 C 
BRANCH  20  21
ATOM     21  N   UNL     1      -4.873   2.417   0.443  0.00  0.00    +0.389 N 
ATOM     22  H1  UNL     1      -4.354   3.266   0.222  0.00  0.00    -0.088 HD
ATOM     23  H2  UNL     1      -4.564   2.054   1.345  0.00  0.00    -0.088 HD
ATOM     24  H3  UNL     1      -5.870   2.629   0.484  0.00  0.00    -0.088 HD
ENDBRANCH  20  21
BRANCH  20  26
ATOM     25  OXT UNL     1      -6.086   0.031   0.798  0.00  0.00    -0.253 OA
ATOM     26  C   UNL     1      -5.423   0.172  -0.222  0.00  0.00    +0.293 C 
BRANCH  26  27
ATOM     27  O   UNL     1      -5.308  -0.803  -1.163  0.00  0.00    -0.482 OA
ATOM     28  H   UNL     1      -4.791  -0.655  -1.930  0.00  0.00    +0.295 HD
ENDBRANCH  26  27
ENDBRANCH  20  26
ENDBRANCH  19  20
ENDBRANCH  18  19
ENDBRANCH   1  18
TORSDOF 9
