REMARK  Name = 135398653
REMARK  4 active torsions:
REMARK  status: ('A' for Active; 'I' for Inactive)
REMARK    1  A    between atoms: C_7  and  C_16
REMARK    2  A    between atoms: C_16  and  O_17
REMARK    3  A    between atoms: C_16  and  C_19
REMARK    4  A    between atoms: C_19  and  O_21
REMARK                            x       y       z     vdW  Elec       q    Type
REMARK                         _______ _______ _______ _____ _____    ______ ____
ROOT
ATOM      1  O   UNL     1       1.567   2.568   0.950  0.00  0.00    -0.267 OA
ATOM      2  N   UNL     1      -0.449   0.709   0.954  0.00  0.00    -0.253 NA
ATOM      3  N   UNL     1       0.389  -2.009   0.564  0.00  0.00    -0.207 NA
ATOM      4  N   UNL     1       2.246  -1.240  -0.537  0.00  0.00    -0.319 NA
ATOM      5  N   UNL     1       2.885   1.033  -0.221  0.00  0.00    -0.242 N 
ATOM      6  N   UNL     1       4.253  -0.430  -1.423  0.00  0.00    -0.320 N 
ATOM      7  C   UNL     1      -1.428  -0.381   0.986  0.00  0.00    +0.158 C 
ATOM      8  C   UNL     1      -0.765  -1.688   1.404  0.00  0.00    +0.164 C 
ATOM      9  C   UNL     1       0.739   0.389   0.578  0.00  0.00    +0.204 C 
ATOM     10  C   UNL     1       1.112  -1.008   0.199  0.00  0.00    +0.108 C 
ATOM     11  C   UNL     1       1.769   1.467   0.469  0.00  0.00    +0.280 C 
ATOM     12  C   UNL     1       3.088  -0.257  -0.720  0.00  0.00    +0.248 C 
ATOM     13  H   UNL     1       3.601   1.691  -0.375  0.00  0.00    +0.159 HD
ATOM     14  H   UNL     1       4.469  -1.311  -1.808  0.00  0.00    +0.146 HD
ATOM     15  H   UNL     1       4.872   0.325  -1.544  0.00  0.00    +0.146 HD
ENDROOT
BRANCH   7  16
ATOM     16  C   UNL     1      -2.138  -0.470  -0.363  0.00  0.00    +0.161 C 
BRANCH  16  17
ATOM     17  O   UNL     1      -3.106  -1.516  -0.301  0.00  0.00    -0.380 OA
ATOM     18  H   UNL     1      -2.668  -2.347  -0.058  0.00  0.00    +0.211 HD
ENDBRANCH  16  17
BRANCH  16  19
ATOM     19  C   UNL     1      -2.829   0.845  -0.748  0.00  0.00    +0.139 C 
ATOM     20  C   UNL     1      -3.908   1.257   0.247  0.00  0.00    +0.034 C 
BRANCH  19  21
ATOM     21  O   UNL     1      -3.426   0.731  -2.038  0.00  0.00    -0.382 OA
ATOM     22  H   UNL     1      -2.751   0.470  -2.684  0.00  0.00    +0.210 HD
ENDBRANCH  19  21
ENDBRANCH  16  19
ENDBRANCH   7  16
TORSDOF 4
