REMARK  Name = 135398748
REMARK  7 active torsions:
REMARK  status: ('A' for Active; 'I' for Inactive)
REMARK    1  A    between atoms: N_2  and  C_15
REMARK    2  A    between atoms: C_15  and  C_16
REMARK    3  A    between atoms: C_16  and  C_17
REMARK    4  A    between atoms: C_17  and  C_18
REMARK    5  A    between atoms: C_17  and  C_21
REMARK    6  A    between atoms: C_18  and  O_19
REMARK    7  A    between atoms: C_21  and  O_22
REMARK                            x       y       z     vdW  Elec       q    Type
REMARK                         _______ _______ _______ _____ _____    ______ ____
ROOT
ATOM      1  O   UNL     1      -3.900  -1.540  -1.016  0.00  0.00    -0.268 OA
ATOM      2  N   UNL     1       0.048  -0.628   0.984  0.00  0.00    -0.261 N 
ATOM      3  N   UNL     1      -1.288  -2.246   0.212  0.00  0.00    -0.240 NA
ATOM      4  N   UNL     1      -1.283   1.329   0.474  0.00  0.00    -0.357 NA
ATOM      5  N   UNL     1      -3.337   0.684  -0.579  0.00  0.00    -0.243 N 
ATOM      6  N   UNL     1      -2.852   2.953  -0.176  0.00  0.00    -0.321 N 
ATOM      7  C   UNL     1      -1.058  -0.004   0.487  0.00  0.00    +0.210 C 
ATOM      8  C   UNL     1      -1.856  -1.021   0.022  0.00  0.00    +0.176 C 
ATOM      9  C   UNL     1      -0.137  -1.976   0.795  0.00  0.00    +0.222 C 
ATOM     10  C   UNL     1      -3.123  -0.702  -0.575  0.00  0.00    +0.273 C 
ATOM     11  C   UNL     1      -2.438   1.650  -0.068  0.00  0.00    +0.239 C 
ATOM     12  H   UNL     1      -4.180   1.011  -0.968  0.00  0.00    +0.159 HD
ATOM     13  H   UNL     1      -2.279   3.680   0.157  0.00  0.00    +0.146 HD
ATOM     14  H   UNL     1      -3.722   3.160  -0.587  0.00  0.00    +0.146 HD
ENDROOT
BRANCH   2  15
ATOM     15  C   UNL     1       1.252   0.021   1.621  0.00  0.00    +0.095 C 
BRANCH  15  16
ATOM     16  C   UNL     1       2.587  -0.358   0.964  0.00  0.00    +0.027 C 
BRANCH  16  17
ATOM     17  C   UNL     1       2.765   0.118  -0.499  0.00  0.00    +0.060 C 
BRANCH  17  18
ATOM     18  C   UNL     1       4.105  -0.391  -1.056  0.00  0.00    +0.140 C 
BRANCH  18  19
ATOM     19  O   UNL     1       4.125  -1.813  -1.048  0.00  0.00    -0.382 OA
ATOM     20  H   UNL     1       4.973  -2.127  -1.400  0.00  0.00    +0.210 HD
ENDBRANCH  18  19
ENDBRANCH  17  18
BRANCH  17  21
ATOM     21  C   UNL     1       2.683   1.644  -0.648  0.00  0.00    +0.140 C 
BRANCH  21  22
ATOM     22  O   UNL     1       3.706   2.279   0.106  0.00  0.00    -0.382 OA
ATOM     23  H   UNL     1       3.637   3.241  -0.002  0.00  0.00    +0.210 HD
ENDBRANCH  21  22
ENDBRANCH  17  21
ENDBRANCH  16  17
ENDBRANCH  15  16
ENDBRANCH   2  15
TORSDOF 7
