REMARK  Name = 135398635
REMARK  5 active torsions:
REMARK  status: ('A' for Active; 'I' for Inactive)
REMARK    1  A    between atoms: N9_2  and  C1*_17
REMARK    2  A    between atoms: C2*_16  and  O2*_20
REMARK    3  A    between atoms: C3*_18  and  O3*_22
REMARK    4  A    between atoms: C4*_19  and  C5*_24
REMARK    5  A    between atoms: C5*_24  and  O5*_25
REMARK                            x       y       z     vdW  Elec       q    Type
REMARK                         _______ _______ _______ _____ _____    ______ ____
ROOT
ATOM      1  O6  G   A   1      -4.251   1.935  -0.436  0.00  0.00    -0.268 OA
ATOM      2  N9  G   A   1      -0.031   0.428   0.141  0.00  0.00    -0.237 N 
ATOM      3  N7  G   A   1      -1.297   2.215  -0.315  0.00  0.00    -0.240 NA
ATOM      4  N3  G   A   1      -1.736  -1.270   0.397  0.00  0.00    -0.357 NA
ATOM      5  N1  G   A   1      -3.910  -0.321   0.064  0.00  0.00    -0.243 N 
ATOM      6  N2  G   A   1      -3.660  -2.608   0.564  0.00  0.00    -0.321 N 
ATOM      7  C4  G   A   1      -1.323  -0.007   0.154  0.00  0.00    +0.211 C 
ATOM      8  C8  G   A   1      -0.066   1.771  -0.146  0.00  0.00    +0.224 C 
ATOM      9  C5  G   A   1      -2.073   1.109  -0.128  0.00  0.00    +0.176 C 
ATOM     10  C6  G   A   1      -3.504   0.996  -0.191  0.00  0.00    +0.273 C 
ATOM     11  C2  G   A   1      -3.044  -1.403   0.346  0.00  0.00    +0.239 C 
ATOM     12  H1  G   A   1      -4.877  -0.508   0.045  0.00  0.00    +0.159 HD
ATOM     13  H21 G   A   1      -3.122  -3.407   0.766  0.00  0.00    +0.146 HD
ATOM     14  H22 G   A   1      -4.642  -2.674   0.518  0.00  0.00    +0.146 HD
ENDROOT
BRANCH   2  17
ATOM     15  O4* G   A   1       2.252   0.395   1.006  0.00  0.00    -0.333 OA
ATOM     16  C2* G   A   1       1.821  -0.955  -0.890  0.00  0.00    +0.187 C 
ATOM     17  C1* G   A   1       1.212  -0.393   0.390  0.00  0.00    +0.226 C 
ATOM     18  C3* G   A   1       3.272  -1.143  -0.492  0.00  0.00    +0.171 C 
ATOM     19  C4* G   A   1       3.521   0.071   0.395  0.00  0.00    +0.175 C 
BRANCH  16  20
ATOM     20  O2* G   A   1       1.206  -2.154  -1.316  0.00  0.00    -0.378 OA
ATOM     21  H2* G   A   1       0.283  -1.976  -1.557  0.00  0.00    +0.211 HD
ENDBRANCH  16  20
BRANCH  18  22
ATOM     22  O3* G   A   1       3.419  -2.313   0.311  0.00  0.00    -0.379 OA
ATOM     23  H3* G   A   1       3.265  -3.100  -0.234  0.00  0.00    +0.211 HD
ENDBRANCH  18  22
BRANCH  19  24
ATOM     24  C5* G   A   1       4.002   1.289  -0.381  0.00  0.00    +0.169 C 
BRANCH  24  25
ATOM     25  O5* G   A   1       4.192   2.359   0.528  0.00  0.00    -0.379 OA
ATOM     26  H5* G   A   1       4.499   3.143   0.045  0.00  0.00    +0.211 HD
ENDBRANCH  24  25
ENDBRANCH  19  24
ENDBRANCH   2  17
TORSDOF 5
