135398748
  -OEChem-03292013293D

 33 34  0     0  0  0  0  0  0999 V2000
    3.7061    2.2794    0.1062 O   0  0  0  0  0  0  0  0  0  0  0  0
    4.1251   -1.8131   -1.0481 O   0  0  0  0  0  0  0  0  0  0  0  0
   -3.8995   -1.5398   -1.0158 O   0  0  0  0  0  0  0  0  0  0  0  0
    0.0482   -0.6276    0.9839 N   0  0  0  0  0  0  0  0  0  0  0  0
   -1.2882   -2.2461    0.2116 N   0  0  0  0  0  0  0  0  0  0  0  0
   -1.2831    1.3286    0.4738 N   0  0  0  0  0  0  0  0  0  0  0  0
   -3.3366    0.6841   -0.5789 N   0  0  0  0  0  0  0  0  0  0  0  0
   -2.8517    2.9525   -0.1762 N   0  0  0  0  0  0  0  0  0  0  0  0
    2.7646    0.1182   -0.4988 C   0  0  0  0  0  0  0  0  0  0  0  0
    2.5870   -0.3581    0.9640 C   0  0  0  0  0  0  0  0  0  0  0  0
    1.2518    0.0209    1.6210 C   0  0  0  0  0  0  0  0  0  0  0  0
    4.1053   -0.3912   -1.0558 C   0  0  0  0  0  0  0  0  0  0  0  0
    2.6835    1.6439   -0.6479 C   0  0  0  0  0  0  0  0  0  0  0  0
   -1.0582   -0.0039    0.4871 C   0  0  0  0  0  0  0  0  0  0  0  0
   -1.8563   -1.0210    0.0222 C   0  0  0  0  0  0  0  0  0  0  0  0
   -0.1370   -1.9755    0.7952 C   0  0  0  0  0  0  0  0  0  0  0  0
   -3.1234   -0.7016   -0.5751 C   0  0  0  0  0  0  0  0  0  0  0  0
   -2.4376    1.6502   -0.0683 C   0  0  0  0  0  0  0  0  0  0  0  0
    1.9614   -0.3301   -1.0976 H   0  0  0  0  0  0  0  0  0  0  0  0
    3.3956    0.0573    1.5788 H   0  0  0  0  0  0  0  0  0  0  0  0
    2.7029   -1.4476    1.0094 H   0  0  0  0  0  0  0  0  0  0  0  0
    1.0763    1.0998    1.6216 H   0  0  0  0  0  0  0  0  0  0  0  0
    1.2268   -0.3282    2.6600 H   0  0  0  0  0  0  0  0  0  0  0  0
    4.2435   -0.0567   -2.0894 H   0  0  0  0  0  0  0  0  0  0  0  0
    4.9488   -0.0329   -0.4562 H   0  0  0  0  0  0  0  0  0  0  0  0
    1.7140    2.0273   -0.3179 H   0  0  0  0  0  0  0  0  0  0  0  0
    2.8102    1.9266   -1.6988 H   0  0  0  0  0  0  0  0  0  0  0  0
    0.5945   -2.7086    1.1062 H   0  0  0  0  0  0  0  0  0  0  0  0
    4.9847   -2.0883   -1.4098 H   0  0  0  0  0  0  0  0  0  0  0  0
    3.6097    3.2370   -0.0320 H   0  0  0  0  0  0  0  0  0  0  0  0
   -4.2068    1.0210   -0.9806 H   0  0  0  0  0  0  0  0  0  0  0  0
   -2.2759    3.7161    0.1612 H   0  0  0  0  0  0  0  0  0  0  0  0
   -3.7437    3.1909   -0.5957 H   0  0  0  0  0  0  0  0  0  0  0  0
  1 13  1  0  0  0  0
  1 30  1  0  0  0  0
  2 12  1  0  0  0  0
  2 29  1  0  0  0  0
  3 17  2  0  0  0  0
  4 11  1  0  0  0  0
  4 14  1  0  0  0  0
  4 16  1  0  0  0  0
  5 15  1  0  0  0  0
  5 16  2  0  0  0  0
  6 14  1  0  0  0  0
  6 18  2  0  0  0  0
  7 17  1  0  0  0  0
  7 18  1  0  0  0  0
  7 31  1  0  0  0  0
  8 18  1  0  0  0  0
  8 32  1  0  0  0  0
  8 33  1  0  0  0  0
  9 10  1  0  0  0  0
  9 12  1  0  0  0  0
  9 13  1  0  0  0  0
  9 19  1  0  0  0  0
 10 11  1  0  0  0  0
 10 20  1  0  0  0  0
 10 21  1  0  0  0  0
 11 22  1  0  0  0  0
 11 23  1  0  0  0  0
 12 24  1  0  0  0  0
 12 25  1  0  0  0  0
 13 26  1  0  0  0  0
 13 27  1  0  0  0  0
 14 15  2  0  0  0  0
 15 17  1  0  0  0  0
 16 28  1  0  0  0  0
M  END
> <PUBCHEM_COMPOUND_CID>
135398748

> <PUBCHEM_CONFORMER_RMSD>
0.6

> <PUBCHEM_CONFORMER_DIVERSEORDER>
1
58
112
113
26
89
92
22
99
18
104
31
52
72
80
108
9
101
114
76
67
103
107
10
86
94
91
110
75
70
98
68
34
57
82
93
46
15
88
96
27
81
16
105
25
64
53
85
71
43
102
11
79
106
37
33
87
40
48
111
51
30
69
95
39
77
49
8
14
41
65
6
3
50
61
59
44
38
29
54
45
17
32
60
100
97
13
56
55
84
20
24
5
63
19
66
35
23
7
62
74
2
4
36
73
12
21
42
83
47
90
28
78
109

> <PUBCHEM_MMFF94_PARTIAL_CHARGES>
22
1 -0.68
11 0.26
12 0.28
13 0.28
14 -0.03
15 0.14
16 0.04
17 0.72
18 0.56
2 -0.68
28 0.15
29 0.4
3 -0.57
30 0.4
31 0.37
32 0.4
33 0.4
4 0.05
5 -0.57
6 -0.58
7 -0.49
8 -0.85

> <PUBCHEM_EFFECTIVE_ROTOR_COUNT>
5

> <PUBCHEM_PHARMACOPHORE_FEATURES>
10
1 1 acceptor
1 1 donor
1 2 acceptor
1 2 donor
1 3 acceptor
1 7 donor
1 8 donor
3 4 5 16 cation
5 4 5 14 15 16 rings
6 6 7 14 15 17 18 rings

> <PUBCHEM_HEAVY_ATOM_COUNT>
18

> <PUBCHEM_ATOM_DEF_STEREO_COUNT>
0

> <PUBCHEM_ATOM_UDEF_STEREO_COUNT>
0

> <PUBCHEM_BOND_DEF_STEREO_COUNT>
0

> <PUBCHEM_BOND_UDEF_STEREO_COUNT>
0

> <PUBCHEM_ISOTOPIC_ATOM_COUNT>
0

> <PUBCHEM_COMPONENT_COUNT>
1

> <PUBCHEM_CACTVS_TAUTO_COUNT>
-1

> <PUBCHEM_CONFORMER_ID>
0812055C00000001

> <PUBCHEM_MMFF94_ENERGY>
33.2986

> <PUBCHEM_FEATURE_SELFOVERLAP>
50.925

> <PUBCHEM_SHAPE_FINGERPRINT>
10498660 4 18334001796744765861
12173636 292 18335416889504851215
12202030 40 15409740718824740063
12491281 212 18113623352215083593
14250199 8 18261965153578348380
15775835 57 17749393624498008028
16945 1 18337656603618435619
17134986 127 18191863418653378165
1813 80 13830133909853355344
18186145 218 18260544524077365052
20361792 2 15051740793598558432
20671657 1 18047181956250420195
21524375 3 17968095257374785539
21864079 5 18260546697320676537
22802520 49 18270124633457163746
23557571 272 17972602366338830306
23559900 14 18343863321256400440
2637199 183 18042698212399335760
2748010 2 17762036032891321675
4028521 119 18186799227030419356
5262128 65 18271824435747997348
74978 22 18334862718802296866
7832392 63 18261676982737229412
93112 12 18410863165832390326
9709674 26 18339929315537973750
9981440 41 17391914039493618784

> <PUBCHEM_SHAPE_MULTIPOLES>
327.92
7.49
2.54
1.16
3.33
0.97
0.16
0.77
-3.27
-0.87
-0.15
0.59
-0.27
0.03

> <PUBCHEM_SHAPE_SELFOVERLAP>
686.289

> <PUBCHEM_SHAPE_VOLUME>
185

> <PUBCHEM_COORDINATE_TYPE>
2
5
10

$$$$
