135398683
  -OEChem-03292013293D

 27 28  0     0  0  0  0  0  0999 V2000
   -0.9175    2.6265    0.0883 O   0  0  0  0  0  0  0  0  0  0  0  0
    3.4480    1.6644   -0.5252 O   0  0  0  0  0  0  0  0  0  0  0  0
   -0.2351   -2.1260    0.1637 N   0  0  0  0  0  0  0  0  0  0  0  0
    0.8872    0.6719    0.2603 N   0  0  0  0  0  0  0  0  0  0  0  0
   -2.3610   -1.1350    0.0382 N   0  0  0  0  0  0  0  0  0  0  0  0
   -2.6839    1.1746   -0.0129 N   0  0  0  0  0  0  0  0  0  0  0  0
   -4.5225   -0.2472   -0.1011 N   0  0  0  0  0  0  0  0  0  0  0  0
    1.8167   -1.3500   -0.8819 C   0  0  0  0  0  0  0  0  0  0  0  0
    1.1893   -2.3304    0.0875 C   0  0  0  0  0  0  0  0  0  0  0  0
    1.8752   -0.0187   -0.2001 C   0  0  0  0  0  0  0  0  0  0  0  0
   -0.9844   -0.9537    0.1130 C   0  0  0  0  0  0  0  0  0  0  0  0
   -0.4278    0.2899    0.1291 C   0  0  0  0  0  0  0  0  0  0  0  0
   -1.3483    1.4754    0.0675 C   0  0  0  0  0  0  0  0  0  0  0  0
    3.2269    0.5824   -0.0085 C   0  0  0  0  0  0  0  0  0  0  0  0
   -3.1614   -0.1149   -0.0234 C   0  0  0  0  0  0  0  0  0  0  0  0
    4.1987   -0.2094    0.8055 C   0  0  0  0  0  0  0  0  0  0  0  0
    1.2442   -1.2565   -1.8115 H   0  0  0  0  0  0  0  0  0  0  0  0
    2.8244   -1.6801   -1.1512 H   0  0  0  0  0  0  0  0  0  0  0  0
    1.3746   -3.3525   -0.2605 H   0  0  0  0  0  0  0  0  0  0  0  0
    1.6258   -2.2447    1.0893 H   0  0  0  0  0  0  0  0  0  0  0  0
   -0.8054   -2.9662    0.2091 H   0  0  0  0  0  0  0  0  0  0  0  0
   -3.3494    1.9403   -0.0607 H   0  0  0  0  0  0  0  0  0  0  0  0
    4.6124   -1.0273    0.2122 H   0  0  0  0  0  0  0  0  0  0  0  0
    3.7070   -0.6011    1.6998 H   0  0  0  0  0  0  0  0  0  0  0  0
    5.0146    0.4446    1.1264 H   0  0  0  0  0  0  0  0  0  0  0  0
   -4.9614   -1.1614   -0.1140 H   0  0  0  0  0  0  0  0  0  0  0  0
   -5.1311    0.5627   -0.1480 H   0  0  0  0  0  0  0  0  0  0  0  0
  1 13  2  0  0  0  0
  2 14  2  0  0  0  0
  3  9  1  0  0  0  0
  3 11  1  0  0  0  0
  3 21  1  0  0  0  0
  4 10  2  0  0  0  0
  4 12  1  0  0  0  0
  5 11  1  0  0  0  0
  5 15  2  0  0  0  0
  6 13  1  0  0  0  0
  6 15  1  0  0  0  0
  6 22  1  0  0  0  0
  7 15  1  0  0  0  0
  7 26  1  0  0  0  0
  7 27  1  0  0  0  0
  8  9  1  0  0  0  0
  8 10  1  0  0  0  0
  8 17  1  0  0  0  0
  8 18  1  0  0  0  0
  9 19  1  0  0  0  0
  9 20  1  0  0  0  0
 10 14  1  0  0  0  0
 11 12  2  0  0  0  0
 12 13  1  0  0  0  0
 14 16  1  0  0  0  0
 16 23  1  0  0  0  0
 16 24  1  0  0  0  0
 16 25  1  0  0  0  0
M  END
> <PUBCHEM_COMPOUND_CID>
135398683

> <PUBCHEM_CONFORMER_RMSD>
0.6

> <PUBCHEM_CONFORMER_DIVERSEORDER>
1
3
2
4

> <PUBCHEM_MMFF94_PARTIAL_CHARGES>
20
1 -0.57
10 0.39
11 0.27
12 0.19
13 0.62
14 0.51
15 0.56
16 0.06
2 -0.57
21 0.4
22 0.37
26 0.4
27 0.4
3 -0.87
4 -0.62
5 -0.62
6 -0.49
7 -0.85
8 0.06
9 0.37

> <PUBCHEM_EFFECTIVE_ROTOR_COUNT>
1.6

> <PUBCHEM_PHARMACOPHORE_FEATURES>
9
1 1 acceptor
1 2 acceptor
1 3 cation
1 3 donor
1 4 acceptor
1 6 donor
1 7 donor
6 5 6 11 12 13 15 rings
7 3 4 8 9 10 11 12 rings

> <PUBCHEM_HEAVY_ATOM_COUNT>
16

> <PUBCHEM_ATOM_DEF_STEREO_COUNT>
0

> <PUBCHEM_ATOM_UDEF_STEREO_COUNT>
0

> <PUBCHEM_BOND_DEF_STEREO_COUNT>
0

> <PUBCHEM_BOND_UDEF_STEREO_COUNT>
0

> <PUBCHEM_ISOTOPIC_ATOM_COUNT>
0

> <PUBCHEM_COMPONENT_COUNT>
1

> <PUBCHEM_CACTVS_TAUTO_COUNT>
-1

> <PUBCHEM_CONFORMER_ID>
0812051B00000001

> <PUBCHEM_MMFF94_ENERGY>
51.2058

> <PUBCHEM_FEATURE_SELFOVERLAP>
45.738

> <PUBCHEM_SHAPE_FINGERPRINT>
10608611 8 18339079272400494724
10967382 1 18410857676331299542
11132069 177 18272366503353861690
12251169 10 18333724728768094930
13140716 1 18196090168877905449
13380535 76 18411136939637645338
14614273 12 18187921721228799301
15196674 1 18411419466817676203
15219456 202 18271244906777454854
15536298 74 18200031733633466198
15775835 57 18201721760087753495
16945 1 18337122184605156102
17846911 113 18411978083069909722
18186145 218 18199194983624944628
193761 8 18050568434889369033
20201158 50 18412827988346786183
20510252 161 18343584018905647800
20588541 1 18341617052637769499
20645476 183 17678754551026587262
20645477 70 18199748055676078287
21267235 1 18410019822738404522
21501502 16 18196937673489479401
21524375 3 18342455950288155650
2334 1 17763746885283233344
23402539 116 18340756122143063950
23402655 69 18271235037807629269
23463225 33 18334572426199620778
23552423 10 18264774246672909871
23559900 14 18269553836973259630
2748010 2 18194689167725884151
2871803 45 18411698755787882823
34934 24 18341606015104724735
353137 74 18410572842927572809
43471831 8 18335416812169611850
528886 8 18412259575316381267
537710 114 18337397135721950445
53812653 166 18272366494663752490
58051976 378 18340764858133047652
6333272 397 18408605876881604666
69090 78 18131064948179854078
7364860 26 18126565622382767406
9709674 26 18339647745645201806

> <PUBCHEM_SHAPE_MULTIPOLES>
292.63
6.49
2.23
0.7
0.23
0.01
0.02
0.97
-0.32
-0.15
0.06
-0.37
-0.06
-0.06

> <PUBCHEM_SHAPE_SELFOVERLAP>
623.507

> <PUBCHEM_SHAPE_VOLUME>
160.2

> <PUBCHEM_COORDINATE_TYPE>
2
5
10

$$$$
