REMARK  Name = 135398695
REMARK  2 active torsions:
REMARK  status: ('A' for Active; 'I' for Inactive)
REMARK    1  A    between atoms: C_7  and  C_19
REMARK    2  A    between atoms: C_19  and  C_21
REMARK                            x       y       z     vdW  Elec       q    Type
REMARK                         _______ _______ _______ _____ _____    ______ ____
ROOT
ATOM      1  O   UNL     1       2.014   2.588   0.066  0.00  0.00    -0.273 OA
ATOM      2  N   UNL     1      -0.263   1.131   0.730  0.00  0.00    -0.278 NA
ATOM      3  N   UNL     1      -0.076  -1.584   0.716  0.00  0.00    -0.309 N 
ATOM      4  N   UNL     1       2.222  -1.467  -0.035  0.00  0.00    -0.361 NA
ATOM      5  N   UNL     1       3.201   0.650  -0.320  0.00  0.00    -0.246 N 
ATOM      6  N   UNL     1       4.449  -1.276  -0.737  0.00  0.00    -0.321 N 
ATOM      7  C   UNL     1      -1.510   0.412   0.910  0.00  0.00    +0.140 C 
ATOM      8  C   UNL     1      -1.243  -1.022   1.381  0.00  0.00    +0.113 C 
ATOM      9  C   UNL     1       0.917   0.505   0.389  0.00  0.00    +0.199 C 
ATOM     10  C   UNL     1       1.048  -0.844   0.348  0.00  0.00    +0.183 C 
ATOM     11  C   UNL     1       2.076   1.363   0.037  0.00  0.00    +0.251 C 
ATOM     12  C   UNL     1       3.251  -0.733  -0.352  0.00  0.00    +0.239 C 
ATOM     13  H   UNL     1      -0.259   2.108   0.856  0.00  0.00    +0.124 HD
ATOM     14  H   UNL     1      -0.080  -2.548   0.513  0.00  0.00    +0.149 HD
ATOM     15  H   UNL     1       4.012   1.152  -0.565  0.00  0.00    +0.159 HD
ATOM     16  H   UNL     1       4.555  -2.253  -0.782  0.00  0.00    +0.146 HD
ATOM     17  H   UNL     1       5.203  -0.687  -0.968  0.00  0.00    +0.146 HD
ENDROOT
BRANCH   7  19
ATOM     18  O   UNL     1      -1.795   0.939  -1.416  0.00  0.00    -0.287 OA
ATOM     19  C   UNL     1      -2.240   0.426  -0.397  0.00  0.00    +0.223 C 
BRANCH  19  21
ATOM     20  O   UNL     1      -3.751  -1.154  -1.259  0.00  0.00    -0.288 OA
ATOM     21  C   UNL     1      -3.604  -0.227  -0.473  0.00  0.00    +0.209 C 
ATOM     22  C   UNL     1      -4.698   0.291   0.412  0.00  0.00    +0.080 C 
ENDBRANCH  19  21
ENDBRANCH   7  19
TORSDOF 2
