REMARK  Name = 135398702
REMARK  3 active torsions:
REMARK  status: ('A' for Active; 'I' for Inactive)
REMARK    1  A    between atoms: C_7  and  C_19
REMARK    2  A    between atoms: C_19  and  C_20
REMARK    3  A    between atoms: C_20  and  O_22
REMARK                            x       y       z     vdW  Elec       q    Type
REMARK                         _______ _______ _______ _____ _____    ______ ____
ROOT
ATOM      1  O   UNL     1       1.774   2.595  -0.269  0.00  0.00    -0.273 OA
ATOM      2  N   UNL     1      -0.309   0.750  -0.170  0.00  0.00    -0.278 NA
ATOM      3  N   UNL     1       0.340  -1.873   0.158  0.00  0.00    -0.309 N 
ATOM      4  N   UNL     1       2.701  -1.341   0.115  0.00  0.00    -0.361 NA
ATOM      5  N   UNL     1       3.338   0.912  -0.083  0.00  0.00    -0.246 N 
ATOM      6  N   UNL     1       4.967  -0.748   0.091  0.00  0.00    -0.321 N 
ATOM      7  C   UNL     1      -1.386  -0.210  -0.350  0.00  0.00    +0.135 C 
ATOM      8  C   UNL     1      -1.051  -1.512   0.386  0.00  0.00    +0.112 C 
ATOM      9  C   UNL     1       1.009   0.353  -0.077  0.00  0.00    +0.199 C 
ATOM     10  C   UNL     1       1.378  -0.944   0.064  0.00  0.00    +0.183 C 
ATOM     11  C   UNL     1       2.053   1.406  -0.153  0.00  0.00    +0.251 C 
ATOM     12  C   UNL     1       3.634  -0.435   0.044  0.00  0.00    +0.239 C 
ATOM     13  H   UNL     1      -0.526   1.708  -0.113  0.00  0.00    +0.124 HD
ATOM     14  H   UNL     1       0.562  -2.828   0.066  0.00  0.00    +0.149 HD
ATOM     15  H   UNL     1       4.086   1.552  -0.125  0.00  0.00    +0.159 HD
ATOM     16  H   UNL     1       5.250  -1.686   0.181  0.00  0.00    +0.146 HD
ATOM     17  H   UNL     1       5.643  -0.033   0.035  0.00  0.00    +0.146 HD
ENDROOT
BRANCH   7  19
ATOM     18  O   UNL     1      -2.634   1.517   0.693  0.00  0.00    -0.292 OA
ATOM     19  C   UNL     1      -2.642   0.396   0.184  0.00  0.00    +0.193 C 
BRANCH  19  20
ATOM     20  C   UNL     1      -3.914  -0.434   0.073  0.00  0.00    +0.169 C 
ATOM     21  C   UNL     1      -4.274  -0.709  -1.376  0.00  0.00    +0.040 C 
BRANCH  20  22
ATOM     22  O   UNL     1      -4.986   0.277   0.669  0.00  0.00    -0.377 OA
ATOM     23  H   UNL     1      -4.775   0.463   1.597  0.00  0.00    +0.211 HD
ENDBRANCH  20  22
ENDBRANCH  19  20
ENDBRANCH   7  19
TORSDOF 3
