REMARK  Name = 13531824
REMARK  4 active torsions:
REMARK  status: ('A' for Active; 'I' for Inactive)
REMARK    1  A    between atoms: C_3  and  C_17
REMARK    2  A    between atoms: C_4  and  O_25
REMARK    3  A    between atoms: C_5  and  C_10
REMARK    4  A    between atoms: C_17  and  O_23
REMARK                            x       y       z     vdW  Elec       q    Type
REMARK                         _______ _______ _______ _____ _____    ______ ____
ROOT
ATOM      1  O   UNL     1      -1.017  -2.166   0.404  0.00  0.00    -0.322 OA
ATOM      2  O   UNL     1       1.306  -2.085  -0.089  0.00  0.00    -0.327 OA
ATOM      3  C   UNL     1      -1.141  -0.739   0.388  0.00  0.00    +0.198 C 
ATOM      4  C   UNL     1      -0.072  -0.136  -0.537  0.00  0.00    +0.170 C 
ATOM      5  C   UNL     1       1.318  -0.653  -0.135  0.00  0.00    +0.148 C 
ATOM      6  C   UNL     1       0.295  -2.561   0.797  0.00  0.00    +0.294 C 
ENDROOT
BRANCH   5  10
ATOM      7  O   UNL     1       5.140  -0.739   1.279  0.00  0.00    -0.275 OA
ATOM      8  O   UNL     1       2.813   3.113   0.300  0.00  0.00    -0.275 OA
ATOM      9  N   UNL     1       3.957   1.170   0.769  0.00  0.00    -0.255 N 
ATOM     10  C   UNL     1       2.423  -0.230  -1.094  0.00  0.00    +0.048 C 
ATOM     11  C   UNL     1       3.781  -0.797  -0.691  0.00  0.00    +0.088 C 
ATOM     12  C   UNL     1       2.523   1.287  -1.221  0.00  0.00    +0.088 C 
ATOM     13  C   UNL     1       4.346  -0.146   0.549  0.00  0.00    +0.228 C 
ATOM     14  C   UNL     1       3.083   1.946   0.017  0.00  0.00    +0.228 C 
ATOM     15  H   UNL     1       4.351   1.608   1.558  0.00  0.00    +0.158 HD
ENDBRANCH   5  10
BRANCH   3  17
ATOM     16  O   UNL     1      -3.477  -1.006   0.884  0.00  0.00    -0.328 OA
ATOM     17  C   UNL     1      -2.561  -0.400  -0.047  0.00  0.00    +0.215 C 
ATOM     18  C   UNL     1      -2.911   1.098  -0.051  0.00  0.00    +0.075 C 
ATOM     19  C   UNL     1      -4.399   1.008   0.135  0.00  0.00    -0.010 C 
ATOM     20  C   UNL     1      -4.726  -0.300   0.773  0.00  0.00    +0.167 C 
ATOM     21  C   UNL     1      -2.296   1.906   1.092  0.00  0.00    +0.010 C 
ATOM     22  C   UNL     1      -5.297   1.905  -0.284  0.00  0.00    -0.007 C 
BRANCH  17  23
ATOM     23  O   UNL     1      -2.724  -0.964  -1.355  0.00  0.00    -0.362 OA
ATOM     24  H   UNL     1      -2.499  -1.907  -1.331  0.00  0.00    +0.213 HD
ENDBRANCH  17  23
ENDBRANCH   3  17
BRANCH   4  25
ATOM     25  O   UNL     1      -0.364  -0.510  -1.883  0.00  0.00    -0.379 OA
ATOM     26  H   UNL     1      -1.242  -0.180  -2.128  0.00  0.00    +0.211 HD
ENDBRANCH   4  25
TORSDOF 4
