REMARK  Name = 135398729
REMARK  4 active torsions:
REMARK  status: ('A' for Active; 'I' for Inactive)
REMARK    1  A    between atoms: C_7  and  C_16
REMARK    2  A    between atoms: C_16  and  O_17
REMARK    3  A    between atoms: C_16  and  C_19
REMARK    4  A    between atoms: C_19  and  O_21
REMARK                            x       y       z     vdW  Elec       q    Type
REMARK                         _______ _______ _______ _____ _____    ______ ____
ROOT
ATOM      1  O   UNL     1      -1.320  -2.610   0.007  0.00  0.00    -0.266 OA
ATOM      2  N   UNL     1       0.538  -0.658  -0.358  0.00  0.00    -0.390 NA
ATOM      3  N   UNL     1      -0.381   1.997  -0.307  0.00  0.00    -0.200 NA
ATOM      4  N   UNL     1      -3.009  -1.037   0.218  0.00  0.00    -0.241 N 
ATOM      5  N   UNL     1      -2.579   1.276   0.067  0.00  0.00    -0.318 NA
ATOM      6  N   UNL     1      -4.761   0.498   0.439  0.00  0.00    -0.320 N 
ATOM      7  C   UNL     1       1.369   0.387  -0.527  0.00  0.00    +0.142 C 
ATOM      8  C   UNL     1      -0.756  -0.339  -0.164  0.00  0.00    +0.257 C 
ATOM      9  C   UNL     1       0.919   1.690  -0.502  0.00  0.00    +0.194 C 
ATOM     10  C   UNL     1      -1.227   0.960  -0.136  0.00  0.00    +0.121 C 
ATOM     11  C   UNL     1      -1.699  -1.446   0.025  0.00  0.00    +0.293 C 
ATOM     12  C   UNL     1      -3.422   0.293   0.235  0.00  0.00    +0.248 C 
ATOM     13  H   UNL     1      -3.693  -1.732   0.351  0.00  0.00    +0.159 HD
ATOM     14  H   UNL     1      -5.363  -0.271   0.562  0.00  0.00    +0.146 HD
ATOM     15  H   UNL     1      -5.121   1.414   0.463  0.00  0.00    +0.146 HD
ENDROOT
BRANCH   7  16
ATOM     16  C   UNL     1       2.813   0.092  -0.746  0.00  0.00    +0.187 C 
BRANCH  16  17
ATOM     17  O   UNL     1       2.954  -1.115  -1.515  0.00  0.00    -0.376 OA
ATOM     18  H   UNL     1       3.895  -1.301  -1.654  0.00  0.00    +0.211 HD
ENDBRANCH  16  17
BRANCH  16  19
ATOM     19  C   UNL     1       3.676  -0.042   0.535  0.00  0.00    +0.144 C 
ATOM     20  C   UNL     1       3.187  -1.135   1.477  0.00  0.00    +0.035 C 
BRANCH  19  21
ATOM     21  O   UNL     1       3.700   1.189   1.254  0.00  0.00    -0.382 OA
ATOM     22  H   UNL     1       4.010   1.899   0.669  0.00  0.00    +0.210 HD
ENDBRANCH  19  21
ENDBRANCH  16  19
ENDBRANCH   7  16
TORSDOF 4
