REMARK  Name = 135398742
REMARK  9 active torsions:
REMARK  status: ('A' for Active; 'I' for Inactive)
REMARK    1  A    between atoms: C_1  and  N_3
REMARK    2  A    between atoms: C_1  and  O_16
REMARK    3  A    between atoms: O_16  and  C_17
REMARK    4  A    between atoms: C_17  and  C_18
REMARK    5  A    between atoms: C_18  and  O_19
REMARK    6  A    between atoms: O_19  and  C_21
REMARK    7  A    between atoms: C_21  and  C_22
REMARK    8  A    between atoms: C_22  and  N_23
REMARK    9  A    between atoms: C_22  and  C_27
REMARK                            x       y       z     vdW  Elec       q    Type
REMARK                         _______ _______ _______ _____ _____    ______ ____
ROOT
ATOM      1  C   UNL     1      -0.767  -2.554   0.887  0.00  0.00    +0.244 C 
ENDROOT
BRANCH   1   3
ATOM      2  O   UNL     1      -4.682   1.344  -1.423  0.00  0.00    -0.268 OA
ATOM      3  N   UNL     1      -1.830  -1.786   0.154  0.00  0.00    -0.235 N 
ATOM      4  N   UNL     1      -3.494  -1.375  -1.282  0.00  0.00    -0.240 NA
ATOM      5  N   UNL     1      -1.583   0.392   1.182  0.00  0.00    -0.357 NA
ATOM      6  N   UNL     1      -3.158   1.935   0.244  0.00  0.00    -0.243 N 
ATOM      7  N   UNL     1      -1.656   2.620   1.924  0.00  0.00    -0.321 N 
ATOM      8  C   UNL     1      -2.160  -0.473   0.318  0.00  0.00    +0.211 C 
ATOM      9  C   UNL     1      -3.181  -0.253  -0.575  0.00  0.00    +0.176 C 
ATOM     10  C   UNL     1      -2.660  -2.286  -0.820  0.00  0.00    +0.224 C 
ATOM     11  C   UNL     1      -3.769   1.055  -0.659  0.00  0.00    +0.273 C 
ATOM     12  C   UNL     1      -2.103   1.599   1.126  0.00  0.00    +0.239 C 
ATOM     13  H   UNL     1      -3.488   2.863   0.267  0.00  0.00    +0.159 HD
ATOM     14  H   UNL     1      -0.925   2.461   2.563  0.00  0.00    +0.146 HD
ATOM     15  H   UNL     1      -2.067   3.512   1.858  0.00  0.00    +0.146 HD
ENDBRANCH   1   3
BRANCH   1  16
ATOM     16  O   UNL     1       0.503  -2.173   0.367  0.00  0.00    -0.330 OA
BRANCH  16  17
ATOM     17  C   UNL     1       1.563  -2.873   1.007  0.00  0.00    +0.191 C 
BRANCH  17  18
ATOM     18  C   UNL     1       2.884  -2.425   0.411  0.00  0.00    +0.240 C 
BRANCH  18  19
ATOM     19  O   UNL     1       3.026  -1.013   0.598  0.00  0.00    -0.447 OA
BRANCH  19  21
ATOM     20  O   UNL     1       4.275  -0.886  -1.334  0.00  0.00    -0.252 OA
ATOM     21  C   UNL     1       3.753  -0.361  -0.358  0.00  0.00    +0.296 C 
BRANCH  21  22
ATOM     22  C   UNL     1       3.818   1.120  -0.018  0.00  0.00    +0.036 C 
BRANCH  22  23
ATOM     23  N   UNL     1       4.703   1.776  -0.982  0.00  0.00    +0.389 N 
ATOM     24  H   UNL     1       4.759   2.772  -0.769  0.00  0.00    -0.088 HD
ATOM     25  H   UNL     1       4.333   1.650  -1.924  0.00  0.00    -0.088 HD
ATOM     26  H   UNL     1       5.634   1.363  -0.925  0.00  0.00    -0.088 HD
ENDBRANCH  22  23
BRANCH  22  27
ATOM     27  C   UNL     1       2.411   1.759   0.043  0.00  0.00    -0.010 C 
ATOM     28  C   UNL     1       1.619   1.627  -1.263  0.00  0.00    -0.002 C 
ATOM     29  C   UNL     1       2.488   3.233   0.454  0.00  0.00    -0.002 C 
ENDBRANCH  22  27
ENDBRANCH  21  22
ENDBRANCH  19  21
ENDBRANCH  18  19
ENDBRANCH  17  18
ENDBRANCH  16  17
ENDBRANCH   1  16
TORSDOF 9
