REMARK  Name = 135398640
REMARK  8 active torsions:
REMARK  status: ('A' for Active; 'I' for Inactive)
REMARK    1  A    between atoms: C_2  and  O_17
REMARK    2  A    between atoms: C_3  and  O_19
REMARK    3  A    between atoms: C_4  and  N_7
REMARK    4  A    between atoms: C_5  and  C_21
REMARK    5  A    between atoms: C_21  and  O_22
REMARK    6  A    between atoms: O_22  and  P_23
REMARK    7  A    between atoms: P_23  and  O_25
REMARK    8  A    between atoms: P_23  and  O_27
REMARK                            x       y       z     vdW  Elec       q    Type
REMARK                         _______ _______ _______ _____ _____    ______ ____
ROOT
ATOM      1  O   UNL     1       1.051  -0.797   1.086  0.00  0.00    -0.333 OA
ATOM      2  C   UNL     1       0.229  -1.941  -0.816  0.00  0.00    +0.187 C 
ATOM      3  C   UNL     1       1.544  -2.577  -0.410  0.00  0.00    +0.171 C 
ATOM      4  C   UNL     1      -0.180  -1.218   0.463  0.00  0.00    +0.225 C 
ATOM      5  C   UNL     1       2.157  -1.504   0.482  0.00  0.00    +0.176 C 
ENDROOT
BRANCH   4   7
ATOM      6  O   UNL     1      -4.627   2.720  -0.390  0.00  0.00    -0.268 OA
ATOM      7  N   UNL     1      -1.099  -0.046   0.209  0.00  0.00    -0.247 N 
ATOM      8  N   UNL     1      -1.736   2.049  -0.249  0.00  0.00    -0.241 NA
ATOM      9  N   UNL     1      -3.259  -1.120   0.453  0.00  0.00    -0.232 NA
ATOM     10  N   UNL     1      -5.026   0.475   0.108  0.00  0.00    -0.279 N 
ATOM     11  C   UNL     1      -2.463  -0.052   0.215  0.00  0.00    +0.154 C 
ATOM     12  C   UNL     1      -0.709   1.240  -0.074  0.00  0.00    +0.223 C 
ATOM     13  C   UNL     1      -2.822   1.246  -0.069  0.00  0.00    +0.162 C 
ATOM     14  C   UNL     1      -4.219   1.593  -0.140  0.00  0.00    +0.267 C 
ATOM     15  C   UNL     1      -4.519  -0.800   0.387  0.00  0.00    +0.220 C 
ATOM     16  H   UNL     1      -6.003   0.592   0.086  0.00  0.00    +0.152 HD
ENDBRANCH   4   7
BRANCH   2  17
ATOM     17  O   UNL     1      -0.730  -2.885  -1.248  0.00  0.00    -0.378 OA
ATOM     18  H   UNL     1      -0.420  -3.313  -2.061  0.00  0.00    +0.211 HD
ENDBRANCH   2  17
BRANCH   3  19
ATOM     19  O   UNL     1       1.311  -3.735   0.391  0.00  0.00    -0.379 OA
ATOM     20  H   UNL     1       0.920  -4.433  -0.157  0.00  0.00    +0.211 HD
ENDBRANCH   3  19
BRANCH   5  21
ATOM     21  C   UNL     1       3.002  -0.499  -0.288  0.00  0.00    +0.186 C 
BRANCH  21  22
ATOM     22  O   UNL     1       3.514   0.456   0.625  0.00  0.00    -0.271 OA
BRANCH  22  23
ATOM     23  P   UNL     1       4.453   1.645   0.054  0.00  0.00    +0.473 P 
ATOM     24  O   UNL     1       4.952   2.611   1.088  0.00  0.00    -0.227 OA
BRANCH  23  25
ATOM     25  O   UNL     1       5.608   0.842  -0.744  0.00  0.00    -0.303 OA
ATOM     26  H   UNL     1       5.200   0.243  -1.388  0.00  0.00    +0.222 HD
ENDBRANCH  23  25
BRANCH  23  27
ATOM     27  O   UNL     1       3.568   2.297  -1.132  0.00  0.00    -0.303 OA
ATOM     28  H   UNL     1       3.291   1.602  -1.749  0.00  0.00    +0.222 HD
ENDBRANCH  23  27
ENDBRANCH  22  23
ENDBRANCH  21  22
ENDBRANCH   5  21
TORSDOF 8
