REMARK  Name = 135398034
REMARK  8 active torsions:
REMARK  status: ('A' for Active; 'I' for Inactive)
REMARK    1  A    between atoms: C_6  and  O_23
REMARK    2  A    between atoms: C_11  and  C_22
REMARK    3  A    between atoms: O_23  and  C_25
REMARK    4  A    between atoms: C_26  and  O_30
REMARK    5  A    between atoms: C_27  and  O_32
REMARK    6  A    between atoms: C_28  and  C_36
REMARK    7  A    between atoms: C_29  and  O_34
REMARK    8  A    between atoms: C_36  and  O_37
REMARK                            x       y       z     vdW  Elec       q    Type
REMARK                         _______ _______ _______ _____ _____    ______ ____
ROOT
ATOM      1  C   UNL     1      -0.865  -1.621  -1.110  0.00  0.00    +0.006 C 
ATOM      2  C   UNL     1      -1.647  -1.820   0.244  0.00  0.00    +0.000 C 
ATOM      3  C   UNL     1      -2.507  -0.575   0.737  0.00  0.00    +0.001 C 
ATOM      4  C   UNL     1      -3.355  -0.048  -0.478  0.00  0.00    +0.010 C 
ATOM      5  C   UNL     1       0.486  -0.921  -0.899  0.00  0.00    +0.032 C 
ATOM      6  C   UNL     1       1.273  -1.988  -0.142  0.00  0.00    +0.110 C 
ATOM      7  C   UNL     1      -1.722  -0.930  -2.175  0.00  0.00    +0.000 C 
ATOM      8  C   UNL     1      -0.754  -2.468   1.342  0.00  0.00    +0.003 C 
ATOM      9  C   UNL     1      -0.371  -2.999  -1.657  0.00  0.00    +0.024 C 
ATOM     10  C   UNL     1      -2.454   0.309  -1.673  0.00  0.00    +0.001 C 
ATOM     11  C   UNL     1      -4.414   1.026  -0.115  0.00  0.00    +0.094 C 
ATOM     12  C   UNL     1       0.733  -2.097   1.286  0.00  0.00    +0.031 C 
ATOM     13  C   UNL     1      -3.514  -1.053   1.832  0.00  0.00    +0.000 C 
ATOM     14  C   UNL     1       0.944  -3.222  -0.950  0.00  0.00    -0.020 C 
ATOM     15  C   UNL     1      -1.617   0.522   1.365  0.00  0.00    +0.000 C 
ATOM     16  C   UNL     1      -5.320   0.535   1.024  0.00  0.00    +0.011 C 
ATOM     17  C   UNL     1      -4.556  -0.006   2.226  0.00  0.00    +0.001 C 
ATOM     18  C   UNL     1      -5.305   1.407  -1.312  0.00  0.00    +0.011 C 
ATOM     19  C   UNL     1       1.692  -4.324  -1.071  0.00  0.00    -0.007 C 
ENDROOT
BRANCH  11  22
ATOM     20  O   UNL     1      -3.080   2.905  -0.622  0.00  0.00    -0.246 OA
ATOM     21  O   UNL     1      -4.212   2.845   1.365  0.00  0.00    -0.246 OA
ATOM     22  C   UNL     1      -3.844   2.396   0.243  0.00  0.00    +0.364 C 
ENDBRANCH  11  22
BRANCH   6  23
ATOM     23  O   UNL     1       2.655  -1.683  -0.114  0.00  0.00    -0.330 OA
BRANCH  23  25
ATOM     24  O   UNL     1       2.913   0.486  -0.934  0.00  0.00    -0.326 OA
ATOM     25  C   UNL     1       2.889  -0.321   0.241  0.00  0.00    +0.266 C 
ATOM     26  C   UNL     1       4.232  -0.249   0.968  0.00  0.00    +0.196 C 
ATOM     27  C   UNL     1       4.633   1.199   1.252  0.00  0.00    +0.172 C 
ATOM     28  C   UNL     1       3.120   1.869  -0.645  0.00  0.00    +0.176 C 
ATOM     29  C   UNL     1       4.492   2.068   0.003  0.00  0.00    +0.169 C 
BRANCH  26  30
ATOM     30  O   UNL     1       4.112  -0.958   2.201  0.00  0.00    -0.378 OA
ATOM     31  H   UNL     1       3.857  -1.877   2.021  0.00  0.00    +0.211 HD
ENDBRANCH  26  30
BRANCH  27  32
ATOM     32  O   UNL     1       5.999   1.241   1.668  0.00  0.00    -0.379 OA
ATOM     33  H   UNL     1       6.113   0.695   2.462  0.00  0.00    +0.211 HD
ENDBRANCH  27  32
BRANCH  29  34
ATOM     34  O   UNL     1       4.650   3.438   0.361  0.00  0.00    -0.379 OA
ATOM     35  H   UNL     1       5.520   3.567   0.772  0.00  0.00    +0.211 HD
ENDBRANCH  29  34
BRANCH  28  36
ATOM     36  C   UNL     1       2.999   2.637  -1.958  0.00  0.00    +0.169 C 
BRANCH  36  37
ATOM     37  O   UNL     1       1.714   2.398  -2.502  0.00  0.00    -0.379 OA
ATOM     38  H   UNL     1       1.623   2.881  -3.339  0.00  0.00    +0.211 HD
ENDBRANCH  36  37
ENDBRANCH  28  36
ENDBRANCH  23  25
ENDBRANCH   6  23
TORSDOF 8
