135398721
  -OEChem-03292013293D

 29 30  0     1  0  0  0  0  0999 V2000
    2.6801   -0.3461    2.2148 O   0  0  0  0  0  0  0  0  0  0  0  0
    2.9062    1.5877    0.1983 O   0  0  0  0  0  0  0  0  0  0  0  0
    4.3823    0.5609   -2.1714 O   0  0  0  0  0  0  0  0  0  0  0  0
   -1.2810    2.5183    0.5750 O   0  0  0  0  0  0  0  0  0  0  0  0
    0.3492    0.3415    0.5484 N   0  0  0  0  0  0  0  0  0  0  0  0
   -0.8227   -2.1160   -0.1494 N   0  0  0  0  0  0  0  0  0  0  0  0
   -3.1009    1.2295   -0.0573 N   0  0  0  0  0  0  0  0  0  0  0  0
   -2.9117   -1.0907   -0.4285 N   0  0  0  0  0  0  0  0  0  0  0  0
   -4.9783   -0.0131   -0.6932 N   0  0  0  0  0  0  0  0  0  0  0  0
    2.5103   -0.7227    0.8374 C   0  0  2  0  0  0  0  0  0  0  0  0
    3.3557    0.2497   -0.0255 C   0  0  1  0  0  0  0  0  0  0  0  0
    1.0615   -0.8002    0.5026 C   0  0  0  0  0  0  0  0  0  0  0  0
    3.2800   -0.0611   -1.5179 C   0  0  0  0  0  0  0  0  0  0  0  0
   -0.9559    0.2193    0.2375 C   0  0  0  0  0  0  0  0  0  0  0  0
    0.4868   -2.0056    0.1602 C   0  0  0  0  0  0  0  0  0  0  0  0
   -1.5495   -0.9802   -0.1077 C   0  0  0  0  0  0  0  0  0  0  0  0
   -1.7713    1.4374    0.2738 C   0  0  0  0  0  0  0  0  0  0  0  0
   -3.6408   -0.0087   -0.3971 C   0  0  0  0  0  0  0  0  0  0  0  0
    2.9611   -1.7186    0.7441 H   0  0  0  0  0  0  0  0  0  0  0  0
    4.3955    0.2186    0.3226 H   0  0  0  0  0  0  0  0  0  0  0  0
    2.3594    0.3261   -1.9660 H   0  0  0  0  0  0  0  0  0  0  0  0
    3.3562   -1.1375   -1.7000 H   0  0  0  0  0  0  0  0  0  0  0  0
    1.0501   -2.9306    0.1196 H   0  0  0  0  0  0  0  0  0  0  0  0
    1.9746   -0.7673    2.7350 H   0  0  0  0  0  0  0  0  0  0  0  0
    3.4515    2.1738   -0.3540 H   0  0  0  0  0  0  0  0  0  0  0  0
   -3.7213    2.0338   -0.0513 H   0  0  0  0  0  0  0  0  0  0  0  0
    4.3116    0.3447   -3.1169 H   0  0  0  0  0  0  0  0  0  0  0  0
   -5.4562   -0.8696   -0.9512 H   0  0  0  0  0  0  0  0  0  0  0  0
   -5.5295    0.8376   -0.6635 H   0  0  0  0  0  0  0  0  0  0  0  0
  1 10  1  0  0  0  0
  1 24  1  0  0  0  0
  2 11  1  0  0  0  0
  2 25  1  0  0  0  0
  3 13  1  0  0  0  0
  3 27  1  0  0  0  0
  4 17  2  0  0  0  0
  5 12  1  0  0  0  0
  5 14  2  0  0  0  0
  6 15  1  0  0  0  0
  6 16  2  0  0  0  0
  7 17  1  0  0  0  0
  7 18  1  0  0  0  0
  7 26  1  0  0  0  0
  8 16  1  0  0  0  0
  8 18  2  0  0  0  0
  9 18  1  0  0  0  0
  9 28  1  0  0  0  0
  9 29  1  0  0  0  0
 10 11  1  0  0  0  0
 10 12  1  0  0  0  0
 10 19  1  0  0  0  0
 11 13  1  0  0  0  0
 11 20  1  0  0  0  0
 12 15  2  0  0  0  0
 13 21  1  0  0  0  0
 13 22  1  0  0  0  0
 14 16  1  0  0  0  0
 14 17  1  0  0  0  0
 15 23  1  0  0  0  0
M  END
> <PUBCHEM_COMPOUND_CID>
135398721

> <PUBCHEM_CONFORMER_RMSD>
0.6

> <PUBCHEM_CONFORMER_DIVERSEORDER>
1
10
14
12
25
29
30
18
13
15
24
6
31
8
26
20
7
23
3
27
2
22
21
4
17
28
5
19
11
16
9

> <PUBCHEM_MMFF94_PARTIAL_CHARGES>
25
1 -0.68
10 0.42
11 0.28
12 0.17
13 0.28
14 0.4
15 0.16
16 0.49
17 0.54
18 0.56
2 -0.68
23 0.15
24 0.4
25 0.4
26 0.37
27 0.4
28 0.4
29 0.4
3 -0.68
4 -0.57
5 -0.62
6 -0.62
7 -0.49
8 -0.63
9 -0.85

> <PUBCHEM_EFFECTIVE_ROTOR_COUNT>
3

> <PUBCHEM_PHARMACOPHORE_FEATURES>
13
1 1 acceptor
1 1 donor
1 2 acceptor
1 2 donor
1 3 acceptor
1 3 donor
1 4 acceptor
1 5 acceptor
1 7 donor
1 9 donor
3 6 8 16 cation
6 5 6 12 14 15 16 rings
6 7 8 14 16 17 18 rings

> <PUBCHEM_HEAVY_ATOM_COUNT>
18

> <PUBCHEM_ATOM_DEF_STEREO_COUNT>
2

> <PUBCHEM_ATOM_UDEF_STEREO_COUNT>
0

> <PUBCHEM_BOND_DEF_STEREO_COUNT>
0

> <PUBCHEM_BOND_UDEF_STEREO_COUNT>
0

> <PUBCHEM_ISOTOPIC_ATOM_COUNT>
0

> <PUBCHEM_COMPONENT_COUNT>
1

> <PUBCHEM_CACTVS_TAUTO_COUNT>
-1

> <PUBCHEM_CONFORMER_ID>
0812054100000001

> <PUBCHEM_MMFF94_ENERGY>
45.8439

> <PUBCHEM_FEATURE_SELFOVERLAP>
66.078

> <PUBCHEM_SHAPE_FINGERPRINT>
10498660 4 18410293639756576669
11132069 177 18129929152984580275
11640471 11 17749118828395831622
12236239 1 17967807245790244058
13538477 17 18260537961636700106
14289901 80 16225763017148003779
14993402 34 18334297573677443293
15342168 16 16009325317409922782
15775835 57 17894635868006134028
16752209 62 18341328907677178881
16945 1 18413383233266204163
18186145 218 17917714573712022552
20559304 39 18335689504196268970
20645476 183 17895198864787925167
20871999 31 18129680646303635628
21501502 16 18125720080776560115
21524375 3 18260830362989093042
2255824 54 17313381172207889530
22892500 29 15502654867246411786
23048698 100 17313100826300811218
23366157 5 17901107421533311931
23402539 116 18271792571364256422
23557571 272 17985544704882462818
23559900 14 18201437008757624316
2748010 2 17981876746834666331
296302 2 16515407373922136655
312423 11 18264775350516642971
3323516 105 16917071031516352631
4409770 3 15520088388530500850
474 4 16950853595473942060
4990 188 17489868228403568927
5262128 65 17845674623906700804
537710 114 18408036317068635765
57096353 35 18411129230376772439
77492 1 17967807241242088658
9981440 41 17394742013718308048

> <PUBCHEM_SHAPE_MULTIPOLES>
322.05
7.51
1.88
1.3
1.27
0.17
0.14
1.53
3.01
0.56
-0.22
-1.91
0.08
-0.71

> <PUBCHEM_SHAPE_SELFOVERLAP>
687.56

> <PUBCHEM_SHAPE_VOLUME>
177.3

> <PUBCHEM_COORDINATE_TYPE>
2
5
10

$$$$
