REMARK  Name = 135398597
REMARK  7 active torsions:
REMARK  status: ('A' for Active; 'I' for Inactive)
REMARK    1  A    between atoms: C_2  and  O_20
REMARK    2  A    between atoms: C_3  and  N_7
REMARK    3  A    between atoms: C_4  and  C_22
REMARK    4  A    between atoms: C_22  and  O_23
REMARK    5  A    between atoms: O_23  and  P_24
REMARK    6  A    between atoms: P_24  and  O_26
REMARK    7  A    between atoms: P_24  and  O_28
REMARK                            x       y       z     vdW  Elec       q    Type
REMARK                         _______ _______ _______ _____ _____    ______ ____
ROOT
ATOM      1  O   UNL     1      -1.209   0.936   0.942  0.00  0.00    -0.335 OA
ATOM      2  C   UNL     1      -1.639   2.625  -0.675  0.00  0.00    +0.144 C 
ATOM      3  C   UNL     1       0.029   1.257   0.281  0.00  0.00    +0.198 C 
ATOM      4  C   UNL     1      -2.284   1.663   0.313  0.00  0.00    +0.174 C 
ATOM      5  C   UNL     1      -0.348   1.927  -1.036  0.00  0.00    +0.083 C 
ENDROOT
BRANCH   3   7
ATOM      6  O   UNL     1       4.332  -2.869  -0.337  0.00  0.00    -0.268 OA
ATOM      7  N   UNL     1       0.904   0.043   0.098  0.00  0.00    -0.239 N 
ATOM      8  N   UNL     1       1.465  -2.097  -0.230  0.00  0.00    -0.240 NA
ATOM      9  N   UNL     1       3.096   1.056   0.264  0.00  0.00    -0.357 NA
ATOM     10  N   UNL     1       4.801  -0.609   0.014  0.00  0.00    -0.243 N 
ATOM     11  N   UNL     1       5.367   1.650   0.365  0.00  0.00    -0.321 N 
ATOM     12  C   UNL     1       2.268   0.002   0.097  0.00  0.00    +0.211 C 
ATOM     13  C   UNL     1       0.468  -1.244  -0.103  0.00  0.00    +0.224 C 
ATOM     14  C   UNL     1       2.579  -1.321  -0.105  0.00  0.00    +0.176 C 
ATOM     15  C   UNL     1       3.959  -1.716  -0.161  0.00  0.00    +0.273 C 
ATOM     16  C   UNL     1       4.368   0.723   0.218  0.00  0.00    +0.239 C 
ATOM     17  H   UNL     1       5.772  -0.771  -0.007  0.00  0.00    +0.159 HD
ATOM     18  H   UNL     1       5.143   2.597   0.510  0.00  0.00    +0.146 HD
ATOM     19  H   UNL     1       6.310   1.368   0.325  0.00  0.00    +0.146 HD
ENDBRANCH   3   7
BRANCH   2  20
ATOM     20  O   UNL     1      -1.321   3.848  -0.015  0.00  0.00    -0.382 OA
ATOM     21  H   UNL     1      -2.141   4.309   0.223  0.00  0.00    +0.210 HD
ENDBRANCH   2  20
BRANCH   4  22
ATOM     22  C   UNL     1      -3.203   0.653  -0.362  0.00  0.00    +0.186 C 
BRANCH  22  23
ATOM     23  O   UNL     1      -3.745  -0.201   0.630  0.00  0.00    -0.271 OA
BRANCH  23  24
ATOM     24  P   UNL     1      -4.763  -1.372   0.168  0.00  0.00    +0.473 P 
ATOM     25  O   UNL     1      -5.290  -2.229   1.282  0.00  0.00    -0.227 OA
BRANCH  24  26
ATOM     26  O   UNL     1      -3.944  -2.160  -0.983  0.00  0.00    -0.303 OA
ATOM     27  H   UNL     1      -3.644  -1.529  -1.656  0.00  0.00    +0.222 HD
ENDBRANCH  24  26
BRANCH  24  28
ATOM     28  O   UNL     1      -5.890  -0.565  -0.664  0.00  0.00    -0.303 OA
ATOM     29  H   UNL     1      -5.464  -0.040  -1.360  0.00  0.00    +0.222 HD
ENDBRANCH  24  28
ENDBRANCH  23  24
ENDBRANCH  22  23
ENDBRANCH   4  22
TORSDOF 7
