135397949
  -OEChem-03292013293D

 30 30  0     1  0  0  0  0  0999 V2000
   -0.3576   -0.5163    0.1376 O   0  0  0  0  0  0  0  0  0  0  0  0
   -0.9109    2.0345    1.4038 O   0  0  0  0  0  0  0  0  0  0  0  0
   -3.2030    2.5068   -0.0849 O   0  0  0  0  0  0  0  0  0  0  0  0
   -1.6136   -1.2971   -1.7217 O   0  0  0  0  0  0  0  0  0  0  0  0
    1.9778    2.2294   -0.3037 O   0  0  0  0  0  0  0  0  0  0  0  0
   -1.5882   -2.1991    1.6058 O   0  5  0  0  0  0  0  0  0  0  0  0
   -2.7908   -2.9406   -0.1937 O   0  0  0  0  0  0  0  0  0  0  0  0
    3.7845    0.1561    0.3299 N   0  0  0  0  0  0  0  0  0  0  0  0
    4.6800   -0.6545    0.0366 N   0  3  0  0  0  0  0  0  0  0  0  0
    5.5084   -1.3930   -0.2271 N   0  5  0  0  0  0  0  0  0  0  0  0
    0.1033    0.7379   -0.3822 C   0  0  1  0  0  0  0  0  0  0  0  0
   -0.8772    1.8594   -0.0142 C   0  0  1  0  0  0  0  0  0  0  0  0
   -2.2775    1.5223   -0.5300 C   0  0  1  0  0  0  0  0  0  0  0  0
   -2.7180    0.1331   -0.0642 C   0  0  0  0  0  0  0  0  0  0  0  0
   -1.6357   -0.9055   -0.3573 C   0  0  2  0  0  0  0  0  0  0  0  0
    1.4977    0.9786    0.1843 C   0  0  1  0  0  0  0  0  0  0  0  0
    2.4651   -0.1166   -0.2497 C   0  0  0  0  0  0  0  0  0  0  0  0
   -2.0442   -2.1356    0.4306 C   0  0  0  0  0  0  0  0  0  0  0  0
    0.1666    0.6701   -1.4768 H   0  0  0  0  0  0  0  0  0  0  0  0
   -0.5588    2.8190   -0.4355 H   0  0  0  0  0  0  0  0  0  0  0  0
   -2.2695    1.5561   -1.6260 H   0  0  0  0  0  0  0  0  0  0  0  0
   -2.9452    0.1817    1.0094 H   0  0  0  0  0  0  0  0  0  0  0  0
   -3.6618   -0.1274   -0.5607 H   0  0  0  0  0  0  0  0  0  0  0  0
    1.4734    1.0237    1.2798 H   0  0  0  0  0  0  0  0  0  0  0  0
    2.1161   -1.1013    0.0820 H   0  0  0  0  0  0  0  0  0  0  0  0
    2.5515   -0.1293   -1.3437 H   0  0  0  0  0  0  0  0  0  0  0  0
   -1.0543    1.1643    1.8127 H   0  0  0  0  0  0  0  0  0  0  0  0
   -4.0793    2.2611   -0.4271 H   0  0  0  0  0  0  0  0  0  0  0  0
   -1.8061   -0.5189   -2.2699 H   0  0  0  0  0  0  0  0  0  0  0  0
    2.8730    2.3576    0.0538 H   0  0  0  0  0  0  0  0  0  0  0  0
  1 11  1  0  0  0  0
  1 15  1  0  0  0  0
  2 12  1  0  0  0  0
  2 27  1  0  0  0  0
  3 13  1  0  0  0  0
  3 28  1  0  0  0  0
  4 15  1  0  0  0  0
  4 29  1  0  0  0  0
  5 16  1  0  0  0  0
  5 30  1  0  0  0  0
  6 18  1  0  0  0  0
  7 18  2  0  0  0  0
  8  9  2  0  0  0  0
  8 17  1  0  0  0  0
  9 10  2  0  0  0  0
 11 12  1  0  0  0  0
 11 16  1  0  0  0  0
 11 19  1  0  0  0  0
 12 13  1  0  0  0  0
 12 20  1  0  0  0  0
 13 14  1  0  0  0  0
 13 21  1  0  0  0  0
 14 15  1  0  0  0  0
 14 22  1  0  0  0  0
 14 23  1  0  0  0  0
 15 18  1  0  0  0  0
 16 17  1  0  0  0  0
 16 24  1  0  0  0  0
 17 25  1  0  0  0  0
 17 26  1  0  0  0  0
M  CHG  3   6  -1   9   1  10  -1
M  END
> <PUBCHEM_COMPOUND_CID>
135397949

> <PUBCHEM_CONFORMER_RMSD>
0.6

> <PUBCHEM_CONFORMER_DIVERSEORDER>
1
96
79
104
75
63
34
98
107
122
119
52
16
103
60
153
123
33
111
105
46
131
9
151
160
101
65
76
44
13
147
81
158
30
42
70
116
29
124
113
138
83
94
146
67
125
7
128
43
91
57
87
2
155
35
51
69
120
78
156
89
139
110
127
134
108
3
97
38
31
58
47
150
59
22
115
64
92
71
114
32
68
15
23
148
27
102
77
106
45
39
144
90
25
88
135
19
6
149
143
118
154
141
82
72
5
56
132
100
53
117
93
40
142
145
49
8
21
86
12
26
95
85
159
14
84
18
41
48
112
74
109
152
133
54
10
129
66
137
80
99
37
73
55
20
126
136
157
121
17
140
36
130
61
24
28
50
62
4
11

> <PUBCHEM_MMFF94_PARTIAL_CHARGES>
21
1 -0.56
10 -0.37
11 0.28
12 0.28
13 0.28
15 0.45
16 0.28
17 0.25
18 0.91
2 -0.68
27 0.4
28 0.4
29 0.4
3 -0.68
30 0.4
4 -0.68
5 -0.68
6 -0.9
7 -0.9
8 -0.56
9 0.69

> <PUBCHEM_EFFECTIVE_ROTOR_COUNT>
5.2

> <PUBCHEM_PHARMACOPHORE_FEATURES>
13
1 1 acceptor
1 2 acceptor
1 2 donor
1 3 acceptor
1 3 donor
1 4 acceptor
1 4 donor
1 5 acceptor
1 5 donor
1 6 acceptor
1 7 acceptor
3 6 7 18 anion
6 1 11 12 13 14 15 rings

> <PUBCHEM_HEAVY_ATOM_COUNT>
18

> <PUBCHEM_ATOM_DEF_STEREO_COUNT>
4

> <PUBCHEM_ATOM_UDEF_STEREO_COUNT>
1

> <PUBCHEM_BOND_DEF_STEREO_COUNT>
0

> <PUBCHEM_BOND_UDEF_STEREO_COUNT>
0

> <PUBCHEM_ISOTOPIC_ATOM_COUNT>
0

> <PUBCHEM_COMPONENT_COUNT>
1

> <PUBCHEM_CACTVS_TAUTO_COUNT>
5

> <PUBCHEM_CONFORMER_ID>
0812023D00000001

> <PUBCHEM_MMFF94_ENERGY>
38.4397

> <PUBCHEM_FEATURE_SELFOVERLAP>
66.108

> <PUBCHEM_SHAPE_FINGERPRINT>
10616163 171 18410575063832444358
11315181 36 17917426472639900274
11578080 2 17273682355387742705
12555020 224 18265041440941351606
13024252 1 13262399942864407493
13140716 1 18342744052061833136
14965852 173 18409166632080604396
15042514 8 18409172121328136689
15422964 175 17759241091128229707
16945 1 18409169922225974277
17804303 29 18411702063002683132
20645476 183 18115304471392924241
20681677 155 18335419007393356544
20871998 22 17977666738360425947
21501502 16 18336834211554222196
21524375 3 18268426841934373533
221490 88 18336833108348688880
2306618 200 17060618893083046866
23402539 116 17988631944407387285
23526113 38 17756687995354030015
23559900 14 18343012265102576416
23566358 27 17752225008600034436
23728640 28 18343297041901789775
2748010 2 18197492033450663293
3759504 43 17968095257807496821
5104073 3 18341608227223834008
54173680 148 18410575110448934317
559249 180 18191581961436752962
81228 2 18190732227826900905
8809292 202 18408604772974782874
9709674 26 18340762728193135620

> <PUBCHEM_SHAPE_MULTIPOLES>
314.4
7.04
2.95
0.98
12.81
0.45
-0.07
2.68
0.38
-2.66
-0.37
-0.52
0.25
0.17

> <PUBCHEM_SHAPE_SELFOVERLAP>
642.496

> <PUBCHEM_SHAPE_VOLUME>
179

> <PUBCHEM_COORDINATE_TYPE>
2
5
10

$$$$
