REMARK  Name = 135398647
REMARK  7 active torsions:
REMARK  status: ('A' for Active; 'I' for Inactive)
REMARK    1  A    between atoms: C_2  and  N_6
REMARK    2  A    between atoms: C_3  and  O_18
REMARK    3  A    between atoms: C_4  and  O_20
REMARK    4  A    between atoms: C_5  and  O_22
REMARK    5  A    between atoms: C_8  and  N_15
REMARK    6  A    between atoms: C_10  and  N_14
REMARK    7  A    between atoms: O_22  and  P_23
REMARK                            x       y       z     vdW  Elec       q    Type
REMARK                         _______ _______ _______ _____ _____    ______ ____
ROOT
ATOM      1  O   UNL     1       1.218  -0.341   1.062  0.00  0.00    -0.309 OA
ATOM      2  C   UNL     1       0.115  -1.068   0.480  0.00  0.00    +0.227 C 
ATOM      3  C   UNL     1       0.656  -1.714  -0.792  0.00  0.00    +0.189 C 
ATOM      4  C   UNL     1       2.125  -1.903  -0.463  0.00  0.00    +0.199 C 
ATOM      5  C   UNL     1       2.423  -0.643   0.334  0.00  0.00    +0.276 C 
ENDROOT
BRANCH   2   6
ATOM      6  N   UNL     1      -1.064  -0.159   0.227  0.00  0.00    -0.253 N 
ATOM      7  N   UNL     1      -2.198   1.616  -0.244  0.00  0.00    -0.295 N 
ATOM      8  C   UNL     1      -2.392  -0.508   0.294  0.00  0.00    +0.134 C 
ATOM      9  C   UNL     1      -0.959   1.133  -0.101  0.00  0.00    +0.189 C 
ATOM     10  C   UNL     1      -3.110   0.616  -0.004  0.00  0.00    +0.219 C 
ATOM     11  H   UNL     1      -2.422   2.544  -0.483  0.00  0.00    +0.150 HD
BRANCH  10  14
ATOM     12  O   UNL     1      -4.860   2.064  -0.400  0.00  0.00    -0.125 OA
ATOM     13  O   UNL     1      -5.324  -0.016   0.125  0.00  0.00    -0.125 OA
ATOM     14  N   UNL     1      -4.453   0.892  -0.094  0.00  0.00    +0.074 N 
ENDBRANCH  10  14
BRANCH   8  15
ATOM     15  N   UNL     1      -2.764  -1.803   0.619  0.00  0.00    -0.344 N 
ATOM     16  H   UNL     1      -2.074  -2.482   0.803  0.00  0.00    +0.144 HD
ATOM     17  H   UNL     1      -3.717  -2.044   0.667  0.00  0.00    +0.144 HD
ENDBRANCH   8  15
ENDBRANCH   2   6
BRANCH   3  18
ATOM     18  O   UNL     1      -0.003  -2.930  -1.085  0.00  0.00    -0.378 OA
ATOM     19  H   UNL     1      -0.935  -2.753  -1.287  0.00  0.00    +0.211 HD
ENDBRANCH   3  18
BRANCH   4  20
ATOM     20  O   UNL     1       2.325  -3.049   0.358  0.00  0.00    -0.377 OA
ATOM     21  H   UNL     1       2.134  -3.851  -0.154  0.00  0.00    +0.211 HD
ENDBRANCH   4  20
BRANCH   5  22
ATOM     22  O   UNL     1       2.749   0.412  -0.563  0.00  0.00    -0.242 OA
BRANCH  22  23
ATOM     23  P   UNL     1       3.714   1.638  -0.025  0.00  0.00    +0.535 P 
ATOM     24  O   UNL     1       3.834   2.553  -1.240  0.00  0.00    -0.222 OA
ATOM     25  O   UNL     1       5.021   0.958   0.371  0.00  0.00    -0.114 OA
ATOM     26  O   UNL     1       2.946   2.253   1.141  0.00  0.00    -0.114 OA
ENDBRANCH  22  23
ENDBRANCH   5  22
TORSDOF 7
