REMARK  Name = 135399257
REMARK  7 active torsions:
REMARK  status: ('A' for Active; 'I' for Inactive)
REMARK    1  A    between atoms: N_2  and  C_15
REMARK    2  A    between atoms: C_15  and  C_17
REMARK    3  A    between atoms: C_15  and  O_18
REMARK    4  A    between atoms: O_18  and  C_19
REMARK    5  A    between atoms: C_19  and  C_21
REMARK    6  A    between atoms: C_19  and  C_22
REMARK    7  A    between atoms: C_22  and  O_23
REMARK                            x       y       z     vdW  Elec       q    Type
REMARK                         _______ _______ _______ _____ _____    ______ ____
ROOT
ATOM      1  O   UNL     1      -4.225  -1.386   0.934  0.00  0.00    -0.268 OA
ATOM      2  N   UNL     1      -0.017  -0.929  -0.647  0.00  0.00    -0.232 N 
ATOM      3  N   UNL     1      -1.589  -2.384  -0.003  0.00  0.00    -0.240 NA
ATOM      4  N   UNL     1      -1.182   1.165  -0.302  0.00  0.00    -0.357 NA
ATOM      5  N   UNL     1      -3.390   0.758   0.534  0.00  0.00    -0.243 N 
ATOM      6  N   UNL     1      -2.631   2.955   0.161  0.00  0.00    -0.321 N 
ATOM      7  C   UNL     1      -1.098  -0.184  -0.277  0.00  0.00    +0.212 C 
ATOM      8  C   UNL     1      -2.042  -1.103   0.111  0.00  0.00    +0.176 C 
ATOM      9  C   UNL     1      -0.361  -2.246  -0.465  0.00  0.00    +0.224 C 
ATOM     10  C   UNL     1      -3.324  -0.642   0.568  0.00  0.00    +0.273 C 
ATOM     11  C   UNL     1      -2.347   1.615   0.111  0.00  0.00    +0.239 C 
ATOM     12  H   UNL     1      -4.230   1.179   0.829  0.00  0.00    +0.159 HD
ATOM     13  H   UNL     1      -1.953   3.613  -0.118  0.00  0.00    +0.146 HD
ATOM     14  H   UNL     1      -3.513   3.260   0.476  0.00  0.00    +0.146 HD
ENDROOT
BRANCH   2  15
ATOM     15  C   UNL     1       1.250  -0.444  -1.138  0.00  0.00    +0.263 C 
BRANCH  15  17
ATOM     16  O   UNL     1       1.351   1.481  -2.618  0.00  0.00    -0.284 OA
ATOM     17  C   UNL     1       1.065   0.300  -2.445  0.00  0.00    +0.258 C 
ENDBRANCH  15  17
BRANCH  15  18
ATOM     18  O   UNL     1       1.852   0.455  -0.210  0.00  0.00    -0.323 OA
BRANCH  18  19
ATOM     19  C   UNL     1       2.760  -0.189   0.675  0.00  0.00    +0.211 C 
BRANCH  19  21
ATOM     20  O   UNL     1       2.056   1.514   2.255  0.00  0.00    -0.286 OA
ATOM     21  C   UNL     1       2.740   0.525   2.011  0.00  0.00    +0.239 C 
ENDBRANCH  19  21
BRANCH  19  22
ATOM     22  C   UNL     1       4.154  -0.138   0.070  0.00  0.00    +0.175 C 
BRANCH  22  23
ATOM     23  O   UNL     1       4.977  -1.126   0.675  0.00  0.00    -0.379 OA
ATOM     24  H   UNL     1       5.865  -1.090   0.286  0.00  0.00    +0.211 HD
ENDBRANCH  22  23
ENDBRANCH  19  22
ENDBRANCH  18  19
ENDBRANCH  15  18
ENDBRANCH   2  15
TORSDOF 7
