REMARK  Name = 135398641
REMARK  5 active torsions:
REMARK  status: ('A' for Active; 'I' for Inactive)
REMARK    1  A    between atoms: C2*_2  and  O2*_17
REMARK    2  A    between atoms: C1*_3  and  N9_7
REMARK    3  A    between atoms: C3*_4  and  O3*_19
REMARK    4  A    between atoms: C4*_5  and  C5*_21
REMARK    5  A    between atoms: C5*_21  and  O5*_22
REMARK                            x       y       z     vdW  Elec       q    Type
REMARK                         _______ _______ _______ _____ _____    ______ ____
ROOT
ATOM      1  O4* I   A   1       2.042   0.503   0.979  0.00  0.00    -0.333 OA
ATOM      2  C2* I   A   1       1.713  -0.986  -0.831  0.00  0.00    +0.187 C 
ATOM      3  C1* I   A   1       1.072  -0.412   0.428  0.00  0.00    +0.225 C 
ATOM      4  C3* I   A   1       3.180  -1.015  -0.452  0.00  0.00    +0.171 C 
ATOM      5  C4* I   A   1       3.327   0.264   0.362  0.00  0.00    +0.175 C 
ENDROOT
BRANCH   3   7
ATOM      6  O6  I   A   1      -4.600   1.354  -0.419  0.00  0.00    -0.268 OA
ATOM      7  N9  I   A   1      -0.246   0.275   0.159  0.00  0.00    -0.247 N 
ATOM      8  N7  I   A   1      -1.681   1.908  -0.369  0.00  0.00    -0.241 NA
ATOM      9  N3  I   A   1      -1.785  -1.558   0.544  0.00  0.00    -0.232 NA
ATOM     10  N1  I   A   1      -4.051  -0.829   0.200  0.00  0.00    -0.279 N 
ATOM     11  C4  I   A   1      -1.491  -0.277   0.223  0.00  0.00    +0.154 C 
ATOM     12  C8  I   A   1      -0.412   1.590  -0.201  0.00  0.00    +0.223 C 
ATOM     13  C5  I   A   1      -2.349   0.749  -0.106  0.00  0.00    +0.162 C 
ATOM     14  C6  I   A   1      -3.768   0.502  -0.135  0.00  0.00    +0.267 C 
ATOM     15  C2  I   A   1      -3.068  -1.774   0.516  0.00  0.00    +0.220 C 
ATOM     16  H1  I   A   1      -4.993  -1.115   0.213  0.00  0.00    +0.152 HD
ENDBRANCH   3   7
BRANCH   2  17
ATOM     17  O2* I   A   1       1.206  -2.259  -1.177  0.00  0.00    -0.378 OA
ATOM     18  H2* I   A   1       0.268  -2.181  -1.410  0.00  0.00    +0.211 HD
ENDBRANCH   2  17
BRANCH   4  19
ATOM     19  O3* I   A   1       3.449  -2.119   0.411  0.00  0.00    -0.379 OA
ATOM     20  H3* I   A   1       3.361  -2.947  -0.086  0.00  0.00    +0.211 HD
ENDBRANCH   4  19
BRANCH   5  21
ATOM     21  C5* I   A   1       3.680   1.476  -0.489  0.00  0.00    +0.169 C 
BRANCH  21  22
ATOM     22  O5* I   A   1       3.782   2.609   0.356  0.00  0.00    -0.379 OA
ATOM     23  H5* I   A   1       4.007   3.389  -0.175  0.00  0.00    +0.211 HD
ENDBRANCH  21  22
ENDBRANCH   5  21
TORSDOF 5
