REMARK  Name = 135398593
REMARK  4 active torsions:
REMARK  status: ('A' for Active; 'I' for Inactive)
REMARK    1  A    between atoms: N9_2  and  C1*_13
REMARK    2  A    between atoms: C3*_14  and  O3*_17
REMARK    3  A    between atoms: C4*_16  and  C5*_19
REMARK    4  A    between atoms: C5*_19  and  O5*_20
REMARK                            x       y       z     vdW  Elec       q    Type
REMARK                         _______ _______ _______ _____ _____    ______ ____
ROOT
ATOM      1  O6  I   A   1       4.513  -1.370  -0.311  0.00  0.00    -0.268 OA
ATOM      2  N9  I   A   1       0.176  -0.156   0.105  0.00  0.00    -0.249 N 
ATOM      3  N7  I   A   1       1.583  -1.859  -0.255  0.00  0.00    -0.241 NA
ATOM      4  N3  I   A   1       1.749   1.672   0.348  0.00  0.00    -0.232 NA
ATOM      5  N1  I   A   1       4.003   0.871   0.103  0.00  0.00    -0.279 N 
ATOM      6  C4  I   A   1       1.432   0.374   0.138  0.00  0.00    +0.154 C 
ATOM      7  C8  I   A   1       0.319  -1.502  -0.134  0.00  0.00    +0.223 C 
ATOM      8  C5  I   A   1       2.272  -0.694  -0.086  0.00  0.00    +0.162 C 
ATOM      9  C6  I   A   1       3.696  -0.479  -0.116  0.00  0.00    +0.267 C 
ATOM     10  C2  I   A   1       3.037   1.859   0.320  0.00  0.00    +0.220 C 
ATOM     11  H1  I   A   1       4.951   1.138   0.104  0.00  0.00    +0.152 HD
ENDROOT
BRANCH   2  13
ATOM     12  O4* I   A   1      -2.128  -0.250   0.916  0.00  0.00    -0.335 OA
ATOM     13  C1* I   A   1      -1.128   0.577   0.293  0.00  0.00    +0.197 C 
ATOM     14  C3* I   A   1      -3.201   1.155  -0.674  0.00  0.00    +0.144 C 
ATOM     15  C2* I   A   1      -1.732   1.068  -1.018  0.00  0.00    +0.083 C 
ATOM     16  C4* I   A   1      -3.400  -0.018   0.277  0.00  0.00    +0.173 C 
BRANCH  14  17
ATOM     17  O3* I   A   1      -3.431   2.379   0.019  0.00  0.00    -0.382 OA
ATOM     18  H3* I   A   1      -3.304   3.124  -0.589  0.00  0.00    +0.210 HD
ENDBRANCH  14  17
BRANCH  16  19
ATOM     19  C5* I   A   1      -3.805  -1.298  -0.442  0.00  0.00    +0.169 C 
BRANCH  19  20
ATOM     20  O5* I   A   1      -3.955  -2.329   0.518  0.00  0.00    -0.379 OA
ATOM     21  H5* I   A   1      -4.213  -3.151   0.071  0.00  0.00    +0.211 HD
ENDBRANCH  19  20
ENDBRANCH  16  19
ENDBRANCH   2  13
TORSDOF 4
