REMARK  Name = 135398749
REMARK  5 active torsions:
REMARK  status: ('A' for Active; 'I' for Inactive)
REMARK    1  A    between atoms: C_7  and  C_16
REMARK    2  A    between atoms: C_16  and  N_17
REMARK    3  A    between atoms: N_17  and  C_19
REMARK    4  A    between atoms: C_22  and  C_26
REMARK    5  A    between atoms: C_26  and  O_27
REMARK                            x       y       z     vdW  Elec       q    Type
REMARK                         _______ _______ _______ _____ _____    ______ ____
ROOT
ATOM      1  O   UNL     1      -3.684  -2.700  -0.160  0.00  0.00    -0.266 OA
ATOM      2  N   UNL     1      -1.934  -0.701   0.424  0.00  0.00    -0.391 NA
ATOM      3  N   UNL     1      -2.948   1.920   0.412  0.00  0.00    -0.200 NA
ATOM      4  N   UNL     1      -5.411  -1.179  -0.436  0.00  0.00    -0.241 N 
ATOM      5  N   UNL     1      -5.083   1.139  -0.159  0.00  0.00    -0.318 NA
ATOM      6  N   UNL     1      -7.198   0.302  -0.731  0.00  0.00    -0.320 N 
ATOM      7  C   UNL     1      -1.158   0.364   0.699  0.00  0.00    +0.133 C 
ATOM      8  C   UNL     1      -3.222  -0.420   0.145  0.00  0.00    +0.257 C 
ATOM      9  C   UNL     1      -3.738   0.862   0.134  0.00  0.00    +0.121 C 
ATOM     10  C   UNL     1      -1.655   1.650   0.693  0.00  0.00    +0.193 C 
ATOM     11  C   UNL     1      -4.105  -1.550  -0.160  0.00  0.00    +0.293 C 
ATOM     12  C   UNL     1      -5.872   0.136  -0.432  0.00  0.00    +0.248 C 
ATOM     13  H   UNL     1      -6.056  -1.891  -0.649  0.00  0.00    +0.159 HD
ATOM     14  H   UNL     1      -7.760  -0.481  -0.931  0.00  0.00    +0.146 HD
ATOM     15  H   UNL     1      -7.590   1.205  -0.746  0.00  0.00    +0.146 HD
ENDROOT
BRANCH   7  16
ATOM     16  C   UNL     1       0.275   0.111   1.015  0.00  0.00    +0.145 C 
BRANCH  16  17
ATOM     17  N   UNL     1       1.123   0.446  -0.110  0.00  0.00    -0.327 N 
ATOM     18  H   UNL     1       0.700   0.822  -0.915  0.00  0.00    +0.147 HD
BRANCH  17  19
ATOM     19  C   UNL     1       2.494   0.267  -0.114  0.00  0.00    +0.045 C 
ATOM     20  C   UNL     1       3.133  -0.263   1.008  0.00  0.00    +0.015 C 
ATOM     21  C   UNL     1       3.239   0.618  -1.240  0.00  0.00    +0.015 C 
ATOM     22  C   UNL     1       5.261  -0.092  -0.123  0.00  0.00    +0.076 C 
ATOM     23  C   UNL     1       4.516  -0.442   1.003  0.00  0.00    +0.008 C 
ATOM     24  C   UNL     1       4.622   0.438  -1.245  0.00  0.00    +0.008 C 
BRANCH  22  26
ATOM     25  O   UNL     1       7.368  -0.740   0.805  0.00  0.00    -0.245 OA
ATOM     26  C   UNL     1       6.703  -0.280  -0.129  0.00  0.00    +0.338 C 
BRANCH  26  27
ATOM     27  O   UNL     1       7.275   0.111  -1.300  0.00  0.00    -0.477 OA
ATOM     28  H   UNL     1       6.742   0.456  -1.990  0.00  0.00    +0.295 HD
ENDBRANCH  26  27
ENDBRANCH  22  26
ENDBRANCH  17  19
ENDBRANCH  16  17
ENDBRANCH   7  16
TORSDOF 5
