REMARK  Name = 135398558
REMARK  9 active torsions:
REMARK  status: ('A' for Active; 'I' for Inactive)
REMARK    1  A    between atoms: N_1  and  C_3
REMARK    2  A    between atoms: N_1  and  C_22
REMARK    3  A    between atoms: C_6  and  C_11
REMARK    4  A    between atoms: N_10  and  CA_13
REMARK    5  A    between atoms: CA_13  and  C_16
REMARK    6  A    between atoms: CA_13  and  CB_17
REMARK    7  A    between atoms: CB_17  and  CG_18
REMARK    8  A    between atoms: CG_18  and  CD_21
REMARK    9  A    between atoms: C_22  and  C_30
REMARK                            x       y       z     vdW  Elec       q    Type
REMARK                         _______ _______ _______ _____ _____    ______ ____
ROOT
ATOM      1  N   UNL     1      -1.755  -1.217   0.785  0.00  0.00    -0.331 N 
ATOM      2  H   UNL     1      -2.006  -2.110   0.454  0.00  0.00    +0.147 HD
ENDROOT
BRANCH   1   3
ATOM      3  C   UNL     1      -0.446  -0.794   0.592  0.00  0.00    +0.045 C 
ATOM      4  C   UNL     1      -0.044   0.463   1.045  0.00  0.00    +0.014 C 
ATOM      5  C   UNL     1       0.468  -1.627  -0.054  0.00  0.00    +0.014 C 
ATOM      6  C   UNL     1       2.183   0.054   0.204  0.00  0.00    +0.053 C 
ATOM      7  C   UNL     1       1.270   0.887   0.851  0.00  0.00    +0.006 C 
ATOM      8  C   UNL     1       1.782  -1.203  -0.249  0.00  0.00    +0.006 C 
BRANCH   6  11
ATOM      9  O   UNL     1       3.824   1.709  -0.059  0.00  0.00    -0.270 OA
ATOM     10  N   UNL     1       4.535  -0.498  -0.092  0.00  0.00    -0.293 N 
ATOM     11  C   ACE A   0       3.554   0.496   0.003  0.00  0.00    +0.246 C 
ATOM     12  H   UNL     1       4.251  -1.439  -0.036  0.00  0.00    +0.150 HD
BRANCH  10  13
ATOM     13  CA  UNL     1       5.942  -0.218  -0.269  0.00  0.00    +0.177 C 
BRANCH  13  16
ATOM     14  O   UNL     1       6.610  -2.474  -0.671  0.00  0.00    -0.244 OA
ATOM     15  OXT UNL     1       7.014  -0.889  -2.263  0.00  0.00    -0.244 OA
ATOM     16  C   UNL     1       6.586  -1.306  -1.147  0.00  0.00    +0.382 C 
ENDBRANCH  13  16
BRANCH  13  17
ATOM     17  CB  UNL     1       6.644  -0.045   1.085  0.00  0.00    +0.043 C 
BRANCH  17  18
ATOM     18  CG  UNL     1       8.098   0.415   0.967  0.00  0.00    +0.116 C 
BRANCH  18  21
ATOM     19  OE1 UNL     1       9.393   1.791  -0.476  0.00  0.00    -0.246 OA
ATOM     20  OE2 UNL     1       7.436   2.597   0.380  0.00  0.00    -0.246 OA
ATOM     21  CD  UNL     1       8.336   1.725   0.209  0.00  0.00    +0.365 C 
ENDBRANCH  18  21
ENDBRANCH  17  18
ENDBRANCH  13  17
ENDBRANCH  10  13
ENDBRANCH   6  11
ENDBRANCH   1   3
BRANCH   1  22
ATOM     22  C   UNL     1      -2.765  -0.431   1.438  0.00  0.00    +0.109 C 
BRANCH  22  30
ATOM     23  O   UNL     1      -5.251  -0.375  -2.616  0.00  0.00    -0.272 OA
ATOM     24  O   UNL     1      -3.809  -3.318  -0.413  0.00  0.00    -0.265 OA
ATOM     25  N   UNL     1      -4.719  -1.222   0.133  0.00  0.00    -0.257 N 
ATOM     26  N   UNL     1      -5.667   0.524   2.041  0.00  0.00    -0.308 N 
ATOM     27  N   UNL     1      -6.736   1.870   0.389  0.00  0.00    -0.361 NA
ATOM     28  N   UNL     1      -6.657   1.250  -1.862  0.00  0.00    -0.246 N 
ATOM     29  N   UNL     1      -7.876   3.129  -1.224  0.00  0.00    -0.321 N 
ATOM     30  C   UNL     1      -4.082  -1.213   1.471  0.00  0.00    +0.116 C 
ATOM     31  C   UNL     1      -5.049  -0.683   2.528  0.00  0.00    +0.111 C 
ATOM     32  C   UNL     1      -5.498  -0.109  -0.233  0.00  0.00    +0.220 C 
ATOM     33  C   UNL     1      -5.962   0.767   0.704  0.00  0.00    +0.187 C 
ATOM     34  C   UNL     1      -5.788   0.197  -1.673  0.00  0.00    +0.255 C 
ATOM     35  C   UNL     1      -4.489  -2.331  -0.680  0.00  0.00    +0.304 C 
ATOM     36  C   UNL     1      -7.082   2.078  -0.845  0.00  0.00    +0.239 C 
ATOM     37  H   UNL     1      -5.896   1.221   2.697  0.00  0.00    +0.149 HD
ATOM     38  H   UNL     1      -6.992   1.420  -2.772  0.00  0.00    +0.159 HD
ATOM     39  H   UNL     1      -8.214   3.759  -0.547  0.00  0.00    +0.146 HD
ATOM     40  H   UNL     1      -8.107   3.254  -2.172  0.00  0.00    +0.146 HD
ENDBRANCH  22  30
ENDBRANCH   1  22
TORSDOF 9
