135398662
  -OEChem-03292013293D

 37 39  0     0  0  0  0  0  0999 V2000
    3.5041    2.5688   -0.7131 O   0  0  0  0  0  0  0  0  0  0  0  0
   -7.1501    0.6088    1.3678 O   0  0  0  0  0  0  0  0  0  0  0  0
   -7.4054    0.1664   -0.8471 O   0  0  0  0  0  0  0  0  0  0  0  0
    3.0128   -2.0199    0.2044 N   0  0  0  0  0  0  0  0  0  0  0  0
   -1.0598   -0.2848    0.1019 N   0  0  0  0  0  0  0  0  0  0  0  0
    1.8823    0.3534   -0.6639 N   0  0  0  0  0  0  0  0  0  0  0  0
    5.1224   -0.9243    0.5539 N   0  0  0  0  0  0  0  0  0  0  0  0
    5.2995    1.3650    0.0769 N   0  0  0  0  0  0  0  0  0  0  0  0
    7.1533    0.1982    0.8747 N   0  0  0  0  0  0  0  0  0  0  0  0
    1.1472   -0.7159   -0.6272 C   0  0  0  0  0  0  0  0  0  0  0  0
    1.6279   -2.0770   -0.1781 C   0  0  0  0  0  0  0  0  0  0  0  0
   -0.2920   -0.6092   -1.0620 C   0  0  0  0  0  0  0  0  0  0  0  0
    3.7957   -0.8792    0.1651 C   0  0  0  0  0  0  0  0  0  0  0  0
    3.1942    0.2539   -0.2672 C   0  0  0  0  0  0  0  0  0  0  0  0
   -2.4449   -0.1410    0.1091 C   0  0  0  0  0  0  0  0  0  0  0  0
    3.9921    1.5097   -0.3294 C   0  0  0  0  0  0  0  0  0  0  0  0
    5.8343    0.1643    0.5062 C   0  0  0  0  0  0  0  0  0  0  0  0
   -3.1712   -0.3149   -1.0691 C   0  0  0  0  0  0  0  0  0  0  0  0
   -3.1058    0.1779    1.2954 C   0  0  0  0  0  0  0  0  0  0  0  0
   -4.5584   -0.1700   -1.0608 C   0  0  0  0  0  0  0  0  0  0  0  0
   -4.4930    0.3227    1.3034 C   0  0  0  0  0  0  0  0  0  0  0  0
   -5.2194    0.1487    0.1254 C   0  0  0  0  0  0  0  0  0  0  0  0
   -6.6658    0.2984    0.1338 C   0  0  0  0  0  0  0  0  0  0  0  0
    1.0183   -2.4072    0.6688 H   0  0  0  0  0  0  0  0  0  0  0  0
    1.4970   -2.7870   -1.0006 H   0  0  0  0  0  0  0  0  0  0  0  0
   -0.5986   -1.5659   -1.4985 H   0  0  0  0  0  0  0  0  0  0  0  0
   -0.3739    0.1747   -1.8235 H   0  0  0  0  0  0  0  0  0  0  0  0
    3.4687   -2.8661    0.5292 H   0  0  0  0  0  0  0  0  0  0  0  0
   -0.5794   -0.1379    0.9838 H   0  0  0  0  0  0  0  0  0  0  0  0
    5.9010    2.1832    0.0599 H   0  0  0  0  0  0  0  0  0  0  0  0
   -2.6942   -0.5620   -2.0130 H   0  0  0  0  0  0  0  0  0  0  0  0
   -2.5516    0.3162    2.2204 H   0  0  0  0  0  0  0  0  0  0  0  0
   -5.1065   -0.3094   -1.9891 H   0  0  0  0  0  0  0  0  0  0  0  0
   -4.9673    0.5712    2.2487 H   0  0  0  0  0  0  0  0  0  0  0  0
    7.6286   -0.6356    1.2025 H   0  0  0  0  0  0  0  0  0  0  0  0
    7.6929    1.0558    0.8312 H   0  0  0  0  0  0  0  0  0  0  0  0
   -8.1261    0.7073    1.3626 H   0  0  0  0  0  0  0  0  0  0  0  0
  1 16  2  0  0  0  0
  2 23  1  0  0  0  0
  2 37  1  0  0  0  0
  3 23  2  0  0  0  0
  4 11  1  0  0  0  0
  4 13  1  0  0  0  0
  4 28  1  0  0  0  0
  5 12  1  0  0  0  0
  5 15  1  0  0  0  0
  5 29  1  0  0  0  0
  6 10  2  0  0  0  0
  6 14  1  0  0  0  0
  7 13  1  0  0  0  0
  7 17  2  0  0  0  0
  8 16  1  0  0  0  0
  8 17  1  0  0  0  0
  8 30  1  0  0  0  0
  9 17  1  0  0  0  0
  9 35  1  0  0  0  0
  9 36  1  0  0  0  0
 10 11  1  0  0  0  0
 10 12  1  0  0  0  0
 11 24  1  0  0  0  0
 11 25  1  0  0  0  0
 12 26  1  0  0  0  0
 12 27  1  0  0  0  0
 13 14  2  0  0  0  0
 14 16  1  0  0  0  0
 15 18  2  0  0  0  0
 15 19  1  0  0  0  0
 18 20  1  0  0  0  0
 18 31  1  0  0  0  0
 19 21  2  0  0  0  0
 19 32  1  0  0  0  0
 20 22  2  0  0  0  0
 20 33  1  0  0  0  0
 21 22  1  0  0  0  0
 21 34  1  0  0  0  0
 22 23  1  0  0  0  0
M  END
> <PUBCHEM_COMPOUND_CID>
135398662

> <PUBCHEM_CONFORMER_RMSD>
0.8

> <PUBCHEM_CONFORMER_DIVERSEORDER>
1
15
9
14
20
16
5
4
12
13
6
19
2
11
7
3
18
8
10
17

> <PUBCHEM_MMFF94_PARTIAL_CHARGES>
33
1 -0.57
10 0.33
11 0.43
12 0.43
13 0.27
14 0.19
15 0.1
16 0.62
17 0.56
18 -0.15
19 -0.15
2 -0.65
20 -0.15
21 -0.15
22 0.09
23 0.63
28 0.4
29 0.4
3 -0.57
30 0.37
31 0.15
32 0.15
33 0.15
34 0.15
35 0.4
36 0.4
37 0.5
4 -0.87
5 -0.87
6 -0.62
7 -0.62
8 -0.49
9 -0.85

> <PUBCHEM_EFFECTIVE_ROTOR_COUNT>
4.4

> <PUBCHEM_PHARMACOPHORE_FEATURES>
14
1 1 acceptor
1 2 acceptor
1 3 acceptor
1 4 cation
1 4 donor
1 5 cation
1 5 donor
1 6 acceptor
1 8 donor
1 9 donor
3 2 3 23 anion
6 15 18 19 20 21 22 rings
6 4 6 10 11 13 14 rings
6 7 8 13 14 16 17 rings

> <PUBCHEM_HEAVY_ATOM_COUNT>
23

> <PUBCHEM_ATOM_DEF_STEREO_COUNT>
0

> <PUBCHEM_ATOM_UDEF_STEREO_COUNT>
0

> <PUBCHEM_BOND_DEF_STEREO_COUNT>
0

> <PUBCHEM_BOND_UDEF_STEREO_COUNT>
0

> <PUBCHEM_ISOTOPIC_ATOM_COUNT>
0

> <PUBCHEM_COMPONENT_COUNT>
1

> <PUBCHEM_CACTVS_TAUTO_COUNT>
-1

> <PUBCHEM_CONFORMER_ID>
0812050600000001

> <PUBCHEM_MMFF94_ENERGY>
80.1345

> <PUBCHEM_FEATURE_SELFOVERLAP>
71.186

> <PUBCHEM_SHAPE_FINGERPRINT>
10 15 17749105617387716952
10162869 55 18338505435306241799
10354089 29 18410856560309780558
10411042 1 18049157762579689210
10670039 82 16558486200617218584
10688039 33 17822007584553023596
10968037 39 16630805509388940127
11045977 3 17822016436385070674
11524674 6 16950285118172216843
11646440 116 16950290589781215973
11724838 91 18271803544673570279
12236239 1 17917709097687034775
12390115 104 14620251685259146563
12616971 3 18413384358494667687
13073987 5 17313939706649593139
13167372 99 18342178817460162345
13533116 47 18187365372355535210
13540713 5 10230385630870571414
13631057 29 18057594559833111159
14123256 10 16988842787460281529
14170010 4 18408323272687347334
14341114 176 17531247275116103084
14429380 56 18337661001686104469
15348495 7 17459197424730136529
15419008 47 17240477001081549557
15475509 35 15792272849301952008
15483637 11 18118962494923942276
20157964 124 18410857650672570871
20511986 3 18130776842168984697
21033648 29 17822273708841630621
21150785 3 14117795834362121449
21267235 1 18261952956662316934
22122407 14 18271821133066178129
22224240 67 18333726936086360298
23559900 14 14635448146565731751
26918003 58 17894353280479925683
2767999 5 17989487428608858632
300161 21 18131911551048561343
3178227 256 17967529078602814282
3472631 163 16988277685739184336
34797466 226 14620794933279611425
397830 11 17532103863493746841
4073 2 17749676288991061426
4325135 7 17989204841683848773
4340502 62 18113901558722253722
465052 167 11025799786263478392
474 4 18411984689004092846
5104073 3 18189888906882355282
542803 24 17988925565746217935
559249 180 13912326794229908473
5758199 1 18343862234492544058
59755656 215 15285353994845186523

> <PUBCHEM_SHAPE_MULTIPOLES>
425.84
19.51
1.5
1.12
11.44
0.06
-0.09
5.04
-3.87
-2.51
0.18
1.08
0.09
-1.01

> <PUBCHEM_SHAPE_SELFOVERLAP>
927.911

> <PUBCHEM_SHAPE_VOLUME>
228.1

> <PUBCHEM_COORDINATE_TYPE>
2
5
10

$$$$
