REMARK  Name = 135398579
REMARK  3 active torsions:
REMARK  status: ('A' for Active; 'I' for Inactive)
REMARK    1  A    between atoms: C_8  and  C_18
REMARK    2  A    between atoms: C_18  and  C_19
REMARK    3  A    between atoms: C_19  and  O_21
REMARK                            x       y       z     vdW  Elec       q    Type
REMARK                         _______ _______ _______ _____ _____    ______ ____
ROOT
ATOM      1  O   UNL     1      -1.531   2.613   0.029  0.00  0.00    -0.267 OA
ATOM      2  N   UNL     1      -0.408  -1.954  -0.230  0.00  0.00    -0.300 N 
ATOM      3  N   UNL     1       0.417   0.694  -0.242  0.00  0.00    -0.393 NA
ATOM      4  N   UNL     1      -2.695  -1.269   0.042  0.00  0.00    -0.356 NA
ATOM      5  N   UNL     1      -3.187   1.021   0.168  0.00  0.00    -0.242 N 
ATOM      6  N   UNL     1      -4.907  -0.546   0.310  0.00  0.00    -0.321 N 
ATOM      7  C   UNL     1       1.007  -1.729  -0.374  0.00  0.00    +0.152 C 
ATOM      8  C   UNL     1       1.290  -0.254  -0.365  0.00  0.00    +0.166 C 
ATOM      9  C   UNL     1      -1.356  -0.952  -0.096  0.00  0.00    +0.218 C 
ATOM     10  C   UNL     1      -0.901   0.324  -0.107  0.00  0.00    +0.228 C 
ATOM     11  C   UNL     1      -1.881   1.436   0.034  0.00  0.00    +0.286 C 
ATOM     12  C   UNL     1      -3.565  -0.309   0.169  0.00  0.00    +0.239 C 
ATOM     13  H   UNL     1      -0.724  -2.886  -0.227  0.00  0.00    +0.150 HD
ATOM     14  H   UNL     1      -3.887   1.705   0.268  0.00  0.00    +0.159 HD
ATOM     15  H   UNL     1      -5.246  -1.470   0.320  0.00  0.00    +0.146 HD
ATOM     16  H   UNL     1      -5.533   0.209   0.403  0.00  0.00    +0.146 HD
ENDROOT
BRANCH   8  18
ATOM     17  O   UNL     1       3.006   0.828  -1.487  0.00  0.00    -0.286 OA
ATOM     18  C   UNL     1       2.713   0.154  -0.510  0.00  0.00    +0.226 C 
BRANCH  18  19
ATOM     19  C   UNL     1       3.679  -0.338   0.545  0.00  0.00    +0.174 C 
ATOM     20  C   UNL     1       3.333   0.197   1.924  0.00  0.00    +0.040 C 
BRANCH  19  21
ATOM     21  O   UNL     1       4.986   0.084   0.190  0.00  0.00    -0.377 OA
ATOM     22  H   UNL     1       5.208  -0.258  -0.691  0.00  0.00    +0.211 HD
ENDBRANCH  19  21
ENDBRANCH  18  19
ENDBRANCH   8  18
TORSDOF 3
