REMARK  Name = 135398721
REMARK  6 active torsions:
REMARK  status: ('A' for Active; 'I' for Inactive)
REMARK    1  A    between atoms: C_7  and  C_16
REMARK    2  A    between atoms: C_16  and  O_17
REMARK    3  A    between atoms: C_16  and  C_19
REMARK    4  A    between atoms: C_19  and  O_20
REMARK    5  A    between atoms: C_19  and  C_22
REMARK    6  A    between atoms: C_22  and  O_23
REMARK                            x       y       z     vdW  Elec       q    Type
REMARK                         _______ _______ _______ _____ _____    ______ ____
ROOT
ATOM      1  O   UNL     1      -1.281   2.518   0.575  0.00  0.00    -0.266 OA
ATOM      2  N   UNL     1       0.349   0.342   0.548  0.00  0.00    -0.390 NA
ATOM      3  N   UNL     1      -0.823  -2.116  -0.149  0.00  0.00    -0.200 NA
ATOM      4  N   UNL     1      -3.101   1.230  -0.057  0.00  0.00    -0.241 N 
ATOM      5  N   UNL     1      -2.912  -1.091  -0.428  0.00  0.00    -0.318 NA
ATOM      6  N   UNL     1      -4.978  -0.013  -0.693  0.00  0.00    -0.320 N 
ATOM      7  C   UNL     1       1.062  -0.800   0.503  0.00  0.00    +0.142 C 
ATOM      8  C   UNL     1      -0.956   0.219   0.237  0.00  0.00    +0.257 C 
ATOM      9  C   UNL     1       0.487  -2.006   0.160  0.00  0.00    +0.194 C 
ATOM     10  C   UNL     1      -1.550  -0.980  -0.108  0.00  0.00    +0.121 C 
ATOM     11  C   UNL     1      -1.771   1.437   0.274  0.00  0.00    +0.293 C 
ATOM     12  C   UNL     1      -3.641  -0.009  -0.397  0.00  0.00    +0.248 C 
ATOM     13  H   UNL     1      -3.703   2.008  -0.052  0.00  0.00    +0.159 HD
ATOM     14  H   UNL     1      -5.493   0.825  -0.658  0.00  0.00    +0.146 HD
ATOM     15  H   UNL     1      -5.425  -0.855  -0.941  0.00  0.00    +0.146 HD
ENDROOT
BRANCH   7  16
ATOM     16  C   UNL     1       2.510  -0.723   0.837  0.00  0.00    +0.190 C 
BRANCH  16  17
ATOM     17  O   UNL     1       2.680  -0.346   2.215  0.00  0.00    -0.376 OA
ATOM     18  H   UNL     1       3.626  -0.298   2.423  0.00  0.00    +0.211 HD
ENDBRANCH  16  17
BRANCH  16  19
ATOM     19  C   UNL     1       3.356   0.250  -0.025  0.00  0.00    +0.173 C 
BRANCH  19  20
ATOM     20  O   UNL     1       2.906   1.588   0.198  0.00  0.00    -0.379 OA
ATOM     21  H   UNL     1       2.952   1.790   1.146  0.00  0.00    +0.211 HD
ENDBRANCH  19  20
BRANCH  19  22
ATOM     22  C   UNL     1       3.280  -0.061  -1.518  0.00  0.00    +0.169 C 
BRANCH  22  23
ATOM     23  O   UNL     1       4.382   0.561  -2.171  0.00  0.00    -0.379 OA
ATOM     24  H   UNL     1       4.345   0.370  -3.122  0.00  0.00    +0.211 HD
ENDBRANCH  22  23
ENDBRANCH  19  22
ENDBRANCH  16  19
ENDBRANCH   7  16
TORSDOF 6
