135398558
  -OEChem-03292013293D

 55 57  0     1  0  0  0  0  0999 V2000
   -5.2513   -0.3748   -2.6162 O   0  0  0  0  0  0  0  0  0  0  0  0
   -3.8087   -3.3185   -0.4128 O   0  0  0  0  0  0  0  0  0  0  0  0
    3.8239    1.7090   -0.0586 O   0  0  0  0  0  0  0  0  0  0  0  0
    6.6099   -2.4745   -0.6707 O   0  5  0  0  0  0  0  0  0  0  0  0
    7.0145   -0.8894   -2.2632 O   0  0  0  0  0  0  0  0  0  0  0  0
    9.3933    1.7909   -0.4761 O   0  5  0  0  0  0  0  0  0  0  0  0
    7.4356    2.5968    0.3803 O   0  0  0  0  0  0  0  0  0  0  0  0
   -4.7190   -1.2216    0.1329 N   0  0  0  0  0  0  0  0  0  0  0  0
   -5.6674    0.5240    2.0413 N   0  0  0  0  0  0  0  0  0  0  0  0
   -1.7551   -1.2173    0.7848 N   0  0  0  0  0  0  0  0  0  0  0  0
   -6.7362    1.8700    0.3894 N   0  0  0  0  0  0  0  0  0  0  0  0
   -6.6570    1.2502   -1.8619 N   0  0  0  0  0  0  0  0  0  0  0  0
    4.5348   -0.4978   -0.0923 N   0  0  0  0  0  0  0  0  0  0  0  0
   -7.8756    3.1291   -1.2235 N   0  0  0  0  0  0  0  0  0  0  0  0
   -4.0825   -1.2134    1.4707 C   0  0  2  0  0  0  0  0  0  0  0  0
   -5.0487   -0.6829    2.5284 C   0  0  0  0  0  0  0  0  0  0  0  0
   -2.7648   -0.4309    1.4380 C   0  0  0  0  0  0  0  0  0  0  0  0
   -5.4981   -0.1086   -0.2328 C   0  0  0  0  0  0  0  0  0  0  0  0
   -5.9617    0.7667    0.7039 C   0  0  0  0  0  0  0  0  0  0  0  0
   -5.7882    0.1970   -1.6729 C   0  0  0  0  0  0  0  0  0  0  0  0
   -4.4885   -2.3313   -0.6801 C   0  0  0  0  0  0  0  0  0  0  0  0
   -0.4456   -0.7940    0.5922 C   0  0  0  0  0  0  0  0  0  0  0  0
   -7.0825    2.0782   -0.8452 C   0  0  0  0  0  0  0  0  0  0  0  0
   -0.0444    0.4631    1.0447 C   0  0  0  0  0  0  0  0  0  0  0  0
    0.4676   -1.6268   -0.0544 C   0  0  0  0  0  0  0  0  0  0  0  0
    5.9418   -0.2182   -0.2688 C   0  0  1  0  0  0  0  0  0  0  0  0
    2.1834    0.0543    0.2039 C   0  0  0  0  0  0  0  0  0  0  0  0
    6.6441   -0.0450    1.0855 C   0  0  0  0  0  0  0  0  0  0  0  0
    1.2701    0.8872    0.8505 C   0  0  0  0  0  0  0  0  0  0  0  0
    1.7821   -1.2026   -0.2486 C   0  0  0  0  0  0  0  0  0  0  0  0
    3.5540    0.4964    0.0026 C   0  0  0  0  0  0  0  0  0  0  0  0
    8.0979    0.4152    0.9673 C   0  0  0  0  0  0  0  0  0  0  0  0
    6.5862   -1.3061   -1.1475 C   0  0  0  0  0  0  0  0  0  0  0  0
    8.3360    1.7254    0.2093 C   0  0  0  0  0  0  0  0  0  0  0  0
   -3.8554   -2.2499    1.7561 H   0  0  0  0  0  0  0  0  0  0  0  0
   -5.8362   -1.4238    2.7120 H   0  0  0  0  0  0  0  0  0  0  0  0
   -4.5457   -0.4987    3.4834 H   0  0  0  0  0  0  0  0  0  0  0  0
   -2.4464   -0.2263    2.4676 H   0  0  0  0  0  0  0  0  0  0  0  0
   -2.8989    0.5292    0.9256 H   0  0  0  0  0  0  0  0  0  0  0  0
   -6.0604    1.1788    2.7092 H   0  0  0  0  0  0  0  0  0  0  0  0
   -1.9925   -2.1450    0.4507 H   0  0  0  0  0  0  0  0  0  0  0  0
   -5.0523   -2.3166   -1.6190 H   0  0  0  0  0  0  0  0  0  0  0  0
   -6.9238    1.4834   -2.8138 H   0  0  0  0  0  0  0  0  0  0  0  0
   -0.7221    1.1416    1.5541 H   0  0  0  0  0  0  0  0  0  0  0  0
    0.1659   -2.6059   -0.4182 H   0  0  0  0  0  0  0  0  0  0  0  0
    6.0015    0.7285   -0.8192 H   0  0  0  0  0  0  0  0  0  0  0  0
    6.6170   -0.9887    1.6452 H   0  0  0  0  0  0  0  0  0  0  0  0
    6.0877    0.6808    1.6928 H   0  0  0  0  0  0  0  0  0  0  0  0
    1.5644    1.8681    1.2147 H   0  0  0  0  0  0  0  0  0  0  0  0
    2.4518   -1.8694   -0.7838 H   0  0  0  0  0  0  0  0  0  0  0  0
    4.2826   -1.4701    0.0515 H   0  0  0  0  0  0  0  0  0  0  0  0
    8.5091    0.5490    1.9755 H   0  0  0  0  0  0  0  0  0  0  0  0
    8.6914   -0.3766    0.4938 H   0  0  0  0  0  0  0  0  0  0  0  0
   -8.2303    3.7912   -0.5420 H   0  0  0  0  0  0  0  0  0  0  0  0
   -8.1313    3.2766   -2.1936 H   0  0  0  0  0  0  0  0  0  0  0  0
  1 20  2  0  0  0  0
  2 21  2  0  0  0  0
  3 31  2  0  0  0  0
  4 33  1  0  0  0  0
  5 33  2  0  0  0  0
  6 34  1  0  0  0  0
  7 34  2  0  0  0  0
  8 15  1  0  0  0  0
  8 18  1  0  0  0  0
  8 21  1  0  0  0  0
  9 16  1  0  0  0  0
  9 19  1  0  0  0  0
  9 40  1  0  0  0  0
 10 17  1  0  0  0  0
 10 22  1  0  0  0  0
 10 41  1  0  0  0  0
 11 19  1  0  0  0  0
 11 23  2  0  0  0  0
 12 20  1  0  0  0  0
 12 23  1  0  0  0  0
 12 43  1  0  0  0  0
 13 26  1  0  0  0  0
 13 31  1  0  0  0  0
 13 51  1  0  0  0  0
 14 23  1  0  0  0  0
 14 54  1  0  0  0  0
 14 55  1  0  0  0  0
 15 16  1  0  0  0  0
 15 17  1  0  0  0  0
 15 35  1  0  0  0  0
 16 36  1  0  0  0  0
 16 37  1  0  0  0  0
 17 38  1  0  0  0  0
 17 39  1  0  0  0  0
 18 19  2  0  0  0  0
 18 20  1  0  0  0  0
 21 42  1  0  0  0  0
 22 24  2  0  0  0  0
 22 25  1  0  0  0  0
 24 29  1  0  0  0  0
 24 44  1  0  0  0  0
 25 30  2  0  0  0  0
 25 45  1  0  0  0  0
 26 28  1  0  0  0  0
 26 33  1  0  0  0  0
 26 46  1  0  0  0  0
 27 29  2  0  0  0  0
 27 30  1  0  0  0  0
 27 31  1  0  0  0  0
 28 32  1  0  0  0  0
 28 47  1  0  0  0  0
 28 48  1  0  0  0  0
 29 49  1  0  0  0  0
 30 50  1  0  0  0  0
 32 34  1  0  0  0  0
 32 52  1  0  0  0  0
 32 53  1  0  0  0  0
M  CHG  2   4  -1   6  -1
M  END
> <PUBCHEM_COMPOUND_CID>
135398558

> <PUBCHEM_CONFORMER_RMSD>
1.2

> <PUBCHEM_CONFORMER_DIVERSEORDER>
1
33
22
53
17
52
28
46
71
78
82
80
13
72
56
62
66
60
40
75
51
63
77
6
14
58
81
30
65
74
48
43
76
11
8
55
73
10
45
83
67
68
9
31
27
59
50
79
39
24
70
36
16
44
47
42
69
7
12
49
37
25
64
18
26
41
35
3
61
23
38
20
57
4
21
5
32
15
34
54
29
2
19

> <PUBCHEM_MMFF94_PARTIAL_CHARGES>
44
1 -0.57
10 -0.87
11 -0.62
12 -0.49
13 -0.73
14 -0.85
15 0.3
16 0.37
17 0.37
18 0.12
19 0.27
2 -0.57
20 0.62
21 0.57
22 0.1
23 0.56
24 -0.15
25 -0.15
26 0.19
27 0.09
29 -0.15
3 -0.57
30 -0.15
31 0.54
32 -0.11
33 0.91
34 0.91
4 -0.9
40 0.4
41 0.4
42 0.06
43 0.37
44 0.15
45 0.15
49 0.15
5 -0.9
50 0.15
51 0.37
54 0.4
55 0.4
6 -0.9
7 -0.9
8 -0.47
9 -0.87

> <PUBCHEM_EFFECTIVE_ROTOR_COUNT>
11.8

> <PUBCHEM_PHARMACOPHORE_FEATURES>
19
1 1 acceptor
1 10 cation
1 10 donor
1 12 donor
1 13 donor
1 14 donor
1 2 acceptor
1 3 acceptor
1 4 acceptor
1 5 acceptor
1 6 acceptor
1 7 acceptor
1 9 cation
1 9 donor
3 4 5 33 anion
3 6 7 34 anion
6 11 12 18 19 20 23 rings
6 22 24 25 27 29 30 rings
6 8 9 15 16 18 19 rings

> <PUBCHEM_HEAVY_ATOM_COUNT>
34

> <PUBCHEM_ATOM_DEF_STEREO_COUNT>
2

> <PUBCHEM_ATOM_UDEF_STEREO_COUNT>
0

> <PUBCHEM_BOND_DEF_STEREO_COUNT>
0

> <PUBCHEM_BOND_UDEF_STEREO_COUNT>
0

> <PUBCHEM_ISOTOPIC_ATOM_COUNT>
0

> <PUBCHEM_COMPONENT_COUNT>
1

> <PUBCHEM_CACTVS_TAUTO_COUNT>
-1

> <PUBCHEM_CONFORMER_ID>
0812049E00000001

> <PUBCHEM_MMFF94_ENERGY>
102.8599

> <PUBCHEM_FEATURE_SELFOVERLAP>
96.608

> <PUBCHEM_SHAPE_FINGERPRINT>
10554248 39 18202569488470222204
11135926 11 17988933232332088647
11181472 205 18114463375880299544
11315181 36 16773797009255244555
11456790 92 13767918040987218660
11578821 258 18115028632015680756
12082328 90 18060142046548196603
125118 31 18040156240975833900
12522641 126 15410349758663098484
12559416 138 8358255909329988625
13782708 43 14117803500931745662
14849402 71 13479719558208054038
15064981 113 16558463072888353037
15183329 4 18409731737880891354
15461852 350 14836405834765485281
1577012 14 16773806887421718450
17093844 174 18186802500254454555
21756936 100 17458341936681545115
23081809 10 16773525412429215938
23522609 53 13407371629071580718
23559900 14 17774998033383798899
3633792 109 18342742906138716056
4169191 19 18201444696422063000
44802255 64 18341890771943157503
4625314 4 18340488959078700974
49967989 163 15769495438369368727
999808 66 9223229654905915801

> <PUBCHEM_SHAPE_MULTIPOLES>
623.75
29.73
2.54
1.82
33.14
0.2
-0.19
15.54
-6.4
-1.7
-0.74
-2.85
-0.16
2.57

> <PUBCHEM_SHAPE_SELFOVERLAP>
1326.814

> <PUBCHEM_SHAPE_VOLUME>
340.2

> <PUBCHEM_COORDINATE_TYPE>
2
5
10

$$$$
