REMARK  Name = 135398683
REMARK  1 active torsions:
REMARK  status: ('A' for Active; 'I' for Inactive)
REMARK    1  A    between atoms: C_9  and  C_19
REMARK                            x       y       z     vdW  Elec       q    Type
REMARK                         _______ _______ _______ _____ _____    ______ ____
ROOT
ATOM      1  O   UNL     1      -0.917   2.627   0.088  0.00  0.00    -0.267 OA
ATOM      2  N   UNL     1      -0.235  -2.126   0.164  0.00  0.00    -0.306 N 
ATOM      3  N   UNL     1       0.887   0.672   0.260  0.00  0.00    -0.395 NA
ATOM      4  N   UNL     1      -2.361  -1.135   0.038  0.00  0.00    -0.356 NA
ATOM      5  N   UNL     1      -2.684   1.175  -0.013  0.00  0.00    -0.242 N 
ATOM      6  N   UNL     1      -4.522  -0.247  -0.101  0.00  0.00    -0.321 N 
ATOM      7  C   UNL     1       1.817  -1.350  -0.882  0.00  0.00    +0.083 C 
ATOM      8  C   UNL     1       1.189  -2.330   0.087  0.00  0.00    +0.097 C 
ATOM      9  C   UNL     1       1.875  -0.019  -0.200  0.00  0.00    +0.145 C 
ATOM     10  C   UNL     1      -0.984  -0.954   0.113  0.00  0.00    +0.217 C 
ATOM     11  C   UNL     1      -0.428   0.290   0.129  0.00  0.00    +0.228 C 
ATOM     12  C   UNL     1      -1.348   1.475   0.068  0.00  0.00    +0.286 C 
ATOM     13  C   UNL     1      -3.161  -0.115  -0.023  0.00  0.00    +0.239 C 
ATOM     14  H   UNL     1      -0.765  -2.949   0.269  0.00  0.00    +0.149 HD
ATOM     15  H   UNL     1      -3.330   1.915  -0.065  0.00  0.00    +0.159 HD
ATOM     16  H   UNL     1      -4.930  -1.143  -0.113  0.00  0.00    +0.146 HD
ATOM     17  H   UNL     1      -5.093   0.554  -0.145  0.00  0.00    +0.146 HD
ENDROOT
BRANCH   9  19
ATOM     18  O   UNL     1       3.448   1.664  -0.525  0.00  0.00    -0.289 OA
ATOM     19  C   UNL     1       3.227   0.582  -0.009  0.00  0.00    +0.199 C 
ATOM     20  C   UNL     1       4.199  -0.209   0.805  0.00  0.00    +0.080 C 
ENDBRANCH   9  19
TORSDOF 1
