REMARK  Name = 135397949
REMARK  6 active torsions:
REMARK  status: ('A' for Active; 'I' for Inactive)
REMARK    1  A    between atoms: C_2  and  C_16
REMARK    2  A    between atoms: C_3  and  O_10
REMARK    3  A    between atoms: C_4  and  O_12
REMARK    4  A    between atoms: C_6  and  C_9
REMARK    5  A    between atoms: C_6  and  O_14
REMARK    6  A    between atoms: C_16  and  O_18
REMARK                            x       y       z     vdW  Elec       q    Type
REMARK                         _______ _______ _______ _____ _____    ______ ____
ROOT
ATOM      1  O   UNL     1      -0.358  -0.516   0.138  0.00  0.00    -0.324 OA
ATOM      2  C   UNL     1       0.103   0.738  -0.382  0.00  0.00    +0.174 C 
ATOM      3  C   UNL     1      -0.877   1.859  -0.014  0.00  0.00    +0.167 C 
ATOM      4  C   UNL     1      -2.277   1.522  -0.530  0.00  0.00    +0.145 C 
ATOM      5  C   UNL     1      -2.718   0.133  -0.064  0.00  0.00    +0.100 C 
ATOM      6  C   UNL     1      -1.636  -0.905  -0.357  0.00  0.00    +0.283 C 
ENDROOT
BRANCH   6   9
ATOM      7  O   UNL     1      -1.588  -2.199   1.606  0.00  0.00    -0.240 OA
ATOM      8  O   UNL     1      -2.791  -2.941  -0.194  0.00  0.00    -0.240 OA
ATOM      9  C   UNL     1      -2.044  -2.136   0.431  0.00  0.00    +0.415 C 
ENDBRANCH   6   9
BRANCH   3  10
ATOM     10  O   UNL     1      -0.911   2.034   1.404  0.00  0.00    -0.379 OA
ATOM     11  H   UNL     1      -0.021   2.248   1.724  0.00  0.00    +0.211 HD
ENDBRANCH   3  10
BRANCH   4  12
ATOM     12  O   UNL     1      -3.203   2.507  -0.085  0.00  0.00    -0.382 OA
ATOM     13  H   UNL     1      -2.913   3.382  -0.386  0.00  0.00    +0.210 HD
ENDBRANCH   4  12
BRANCH   6  14
ATOM     14  O   UNL     1      -1.614  -1.297  -1.722  0.00  0.00    -0.356 OA
ATOM     15  H   UNL     1      -1.356  -0.540  -2.271  0.00  0.00    +0.213 HD
ENDBRANCH   6  14
BRANCH   2  16
ATOM     16  C   UNL     1       1.498   0.979   0.184  0.00  0.00    +0.140 C 
ATOM     17  C   UNL     1       2.465  -0.117  -0.250  0.00  0.00    +0.034 C 
BRANCH  16  18
ATOM     18  O   UNL     1       1.978   2.229  -0.304  0.00  0.00    -0.382 OA
ATOM     19  H   UNL     1       1.371   2.936  -0.034  0.00  0.00    +0.210 HD
ENDBRANCH  16  18
ENDBRANCH   2  16
TORSDOF 6
REMARK  Name = 135397949
REMARK  6 active torsions:
REMARK  status: ('A' for Active; 'I' for Inactive)
REMARK    1  A    between atoms: C_2  and  C_16
REMARK    2  A    between atoms: C_3  and  O_10
REMARK    3  A    between atoms: C_4  and  O_12
REMARK    4  A    between atoms: C_6  and  C_9
REMARK    5  A    between atoms: C_6  and  O_14
REMARK    6  A    between atoms: C_16  and  O_18
REMARK                            x       y       z     vdW  Elec       q    Type
REMARK                         _______ _______ _______ _____ _____    ______ ____
ROOT
ATOM      1  N   UNL     1       4.680  -0.654   0.037  0.00  0.00    +0.000 NA
ATOM      2  N   UNL     1       5.508  -1.393  -0.227  0.00  0.00    +0.000 NA
ENDROOT
TORSDOF 0
