REMARK  Name = 135398639
REMARK  6 active torsions:
REMARK  status: ('A' for Active; 'I' for Inactive)
REMARK    1  A    between atoms: C_2  and  O_17
REMARK    2  A    between atoms: C_3  and  O_19
REMARK    3  A    between atoms: C_4  and  N_7
REMARK    4  A    between atoms: C_5  and  C_21
REMARK    5  A    between atoms: C_21  and  O_22
REMARK    6  A    between atoms: O_22  and  P_23
REMARK                            x       y       z     vdW  Elec       q    Type
REMARK                         _______ _______ _______ _____ _____    ______ ____
ROOT
ATOM      1  O   UNL     1       1.061  -0.794   1.060  0.00  0.00    -0.333 OA
ATOM      2  C   UNL     1       0.217  -1.958  -0.820  0.00  0.00    +0.187 C 
ATOM      3  C   UNL     1       1.534  -2.592  -0.421  0.00  0.00    +0.171 C 
ATOM      4  C   UNL     1      -0.178  -1.218   0.455  0.00  0.00    +0.225 C 
ATOM      5  C   UNL     1       2.159  -1.511   0.452  0.00  0.00    +0.176 C 
ENDROOT
BRANCH   4   7
ATOM      6  O   UNL     1      -4.623   2.722  -0.397  0.00  0.00    -0.268 OA
ATOM      7  N   UNL     1      -1.096  -0.047   0.197  0.00  0.00    -0.247 N 
ATOM      8  N   UNL     1      -1.732   2.045  -0.279  0.00  0.00    -0.241 NA
ATOM      9  N   UNL     1      -3.256  -1.113   0.476  0.00  0.00    -0.232 NA
ATOM     10  N   UNL     1      -5.022   0.483   0.131  0.00  0.00    -0.279 N 
ATOM     11  C   UNL     1      -2.460  -0.049   0.217  0.00  0.00    +0.154 C 
ATOM     12  C   UNL     1      -0.706   1.234  -0.106  0.00  0.00    +0.223 C 
ATOM     13  C   UNL     1      -2.819   1.246  -0.078  0.00  0.00    +0.162 C 
ATOM     14  C   UNL     1      -4.215   1.596  -0.139  0.00  0.00    +0.267 C 
ATOM     15  C   UNL     1      -4.516  -0.790   0.419  0.00  0.00    +0.220 C 
ATOM     16  H   UNL     1      -6.000   0.602   0.118  0.00  0.00    +0.152 HD
ENDBRANCH   4   7
BRANCH   2  17
ATOM     17  O   UNL     1      -0.750  -2.904  -1.231  0.00  0.00    -0.378 OA
ATOM     18  H   UNL     1      -0.449  -3.342  -2.042  0.00  0.00    +0.211 HD
ENDBRANCH   2  17
BRANCH   3  19
ATOM     19  O   UNL     1       1.306  -3.740   0.396  0.00  0.00    -0.379 OA
ATOM     20  H   UNL     1       0.908  -4.443  -0.140  0.00  0.00    +0.211 HD
ENDBRANCH   3  19
BRANCH   5  21
ATOM     21  C   UNL     1       2.998  -0.516  -0.338  0.00  0.00    +0.186 C 
BRANCH  21  22
ATOM     22  O   UNL     1       3.522   0.448   0.558  0.00  0.00    -0.268 OA
BRANCH  22  23
ATOM     23  P   UNL     1       4.479   1.655  -0.041  0.00  0.00    +0.533 P 
ATOM     24  O   UNL     1       4.841   2.474   1.195  0.00  0.00    -0.115 OA
ATOM     25  O   UNL     1       3.589   2.395  -1.036  0.00  0.00    -0.222 OA
ATOM     26  O   UNL     1       5.664   0.932  -0.674  0.00  0.00    -0.115 OA
ENDBRANCH  22  23
ENDBRANCH  21  22
ENDBRANCH   5  21
TORSDOF 6
