REMARK  Name = 135398744
REMARK  7 active torsions:
REMARK  status: ('A' for Active; 'I' for Inactive)
REMARK    1  A    between atoms: C_1  and  S_22
REMARK    2  A    between atoms: C_3  and  C_12
REMARK    3  A    between atoms: C_5  and  O_33
REMARK    4  A    between atoms: C_15  and  C_19
REMARK    5  A    between atoms: C_19  and  C_20
REMARK    6  A    between atoms: S_22  and  N_25
REMARK    7  A    between atoms: O_33  and  C_34
REMARK                            x       y       z     vdW  Elec       q    Type
REMARK                         _______ _______ _______ _____ _____    ______ ____
ROOT
ATOM      1  C   UNL     1      -2.311   1.185  -1.054  0.00  0.00    +0.123 C 
ATOM      2  C   UNL     1      -1.153   0.408  -1.012  0.00  0.00    +0.027 C 
ATOM      3  C   UNL     1      -0.066   0.817  -0.241  0.00  0.00    +0.079 C 
ATOM      4  C   UNL     1      -2.381   2.372  -0.324  0.00  0.00    +0.023 C 
ATOM      5  C   UNL     1      -0.136   2.003   0.490  0.00  0.00    +0.142 C 
ATOM      6  C   UNL     1      -1.293   2.780   0.448  0.00  0.00    +0.038 C 
ENDROOT
BRANCH   3  12
ATOM      7  O   UNL     1       1.872  -3.417   0.809  0.00  0.00    -0.272 OA
ATOM      8  N   UNL     1       0.985  -1.337   0.279  0.00  0.00    -0.258 N 
ATOM      9  N   UNL     1       4.499  -2.236  -0.160  0.00  0.00    -0.217 N 
ATOM     10  N   UNL     1       2.297   0.476  -0.615  0.00  0.00    -0.388 NA
ATOM     11  N   UNL     1       5.411  -1.366  -0.649  0.00  0.00    -0.183 NA
ATOM     12  C   UNL     1       1.159  -0.026  -0.211  0.00  0.00    +0.188 C 
ATOM     13  C   UNL     1       3.358  -0.428  -0.532  0.00  0.00    +0.154 C 
ATOM     14  C   UNL     1       3.245  -1.711  -0.073  0.00  0.00    +0.220 C 
ATOM     15  C   UNL     1       4.699  -0.254  -0.875  0.00  0.00    +0.104 C 
ATOM     16  C   UNL     1       2.015  -2.277   0.383  0.00  0.00    +0.254 C 
ATOM     17  C   UNL     1       4.919  -3.567   0.209  0.00  0.00    +0.135 C 
ATOM     18  H   UNL     1       0.082  -1.608   0.565  0.00  0.00    +0.157 HD
BRANCH  15  19
ATOM     19  C   UNL     1       5.360   0.943  -1.422  0.00  0.00    +0.050 C 
BRANCH  19  20
ATOM     20  C   UNL     1       6.175   1.715  -0.364  0.00  0.00    +0.006 C 
ATOM     21  C   UNL     1       5.313   2.235   0.775  0.00  0.00    +0.000 C 
ENDBRANCH  19  20
ENDBRANCH  15  19
ENDBRANCH   3  12
BRANCH   1  22
ATOM     22  S   UNL     1      -3.687   0.669  -2.032  0.00  0.00    +0.063 S 
ATOM     23  O   UNL     1      -4.467   1.845  -2.355  0.00  0.00    -0.153 OA
ATOM     24  O   UNL     1      -3.191  -0.205  -3.072  0.00  0.00    -0.153 OA
BRANCH  22  25
ATOM     25  N   UNL     1      -4.539  -0.267  -0.878  0.00  0.00    -0.160 NA
ATOM     26  N   UNL     1      -5.413  -1.556   1.539  0.00  0.00    +0.387 N 
ATOM     27  C   UNL     1      -5.224   0.507   0.196  0.00  0.00    +0.073 C 
ATOM     28  C   UNL     1      -3.793  -1.431  -0.320  0.00  0.00    +0.073 C 
ATOM     29  C   UNL     1      -4.753  -2.319   0.471  0.00  0.00    -0.058 C 
ATOM     30  C   UNL     1      -6.156  -0.419   0.977  0.00  0.00    -0.058 C 
ATOM     31  C   UNL     1      -6.304  -2.420   2.314  0.00  0.00    -0.101 C 
ATOM     32  H   UNL     1      -4.695  -1.192   2.166  0.00  0.00    -0.080 HD
ENDBRANCH  22  25
ENDBRANCH   1  22
BRANCH   5  33
ATOM     33  O   UNL     1       0.915   2.419   1.251  0.00  0.00    -0.475 OA
BRANCH  33  34
ATOM     34  C   UNL     1       0.680   2.575   2.649  0.00  0.00    +0.206 C 
ATOM     35  C   UNL     1       1.963   2.289   3.400  0.00  0.00    +0.051 C 
ENDBRANCH  33  34
ENDBRANCH   5  33
TORSDOF 7
