135398695
  -OEChem-03292013293D

 28 29  0     1  0  0  0  0  0999 V2000
   -1.7950    0.9394   -1.4156 O   0  0  0  0  0  0  0  0  0  0  0  0
    2.0143    2.5884    0.0660 O   0  0  0  0  0  0  0  0  0  0  0  0
   -3.7505   -1.1538   -1.2593 O   0  0  0  0  0  0  0  0  0  0  0  0
   -0.2625    1.1312    0.7296 N   0  0  0  0  0  0  0  0  0  0  0  0
   -0.0756   -1.5842    0.7157 N   0  0  0  0  0  0  0  0  0  0  0  0
    2.2218   -1.4666   -0.0346 N   0  0  0  0  0  0  0  0  0  0  0  0
    3.2009    0.6504   -0.3196 N   0  0  0  0  0  0  0  0  0  0  0  0
    4.4487   -1.2755   -0.7366 N   0  0  0  0  0  0  0  0  0  0  0  0
   -1.5099    0.4117    0.9105 C   0  0  2  0  0  0  0  0  0  0  0  0
   -1.2429   -1.0225    1.3806 C   0  0  0  0  0  0  0  0  0  0  0  0
    0.9174    0.5050    0.3886 C   0  0  0  0  0  0  0  0  0  0  0  0
    1.0483   -0.8435    0.3480 C   0  0  0  0  0  0  0  0  0  0  0  0
   -2.2400    0.4263   -0.3972 C   0  0  0  0  0  0  0  0  0  0  0  0
    2.0764    1.3634    0.0370 C   0  0  0  0  0  0  0  0  0  0  0  0
    3.2508   -0.7333   -0.3516 C   0  0  0  0  0  0  0  0  0  0  0  0
   -3.6041   -0.2271   -0.4732 C   0  0  0  0  0  0  0  0  0  0  0  0
   -4.6981    0.2906    0.4118 C   0  0  0  0  0  0  0  0  0  0  0  0
   -2.1265    0.9441    1.6425 H   0  0  0  0  0  0  0  0  0  0  0  0
   -1.0386   -1.0115    2.4583 H   0  0  0  0  0  0  0  0  0  0  0  0
   -2.1037   -1.6805    1.2259 H   0  0  0  0  0  0  0  0  0  0  0  0
   -0.2810    2.1452    0.6921 H   0  0  0  0  0  0  0  0  0  0  0  0
    0.0342   -2.5928    0.6969 H   0  0  0  0  0  0  0  0  0  0  0  0
    4.0358    1.1690   -0.5756 H   0  0  0  0  0  0  0  0  0  0  0  0
   -4.7514    1.3793    0.3320 H   0  0  0  0  0  0  0  0  0  0  0  0
   -5.6561   -0.1276    0.0910 H   0  0  0  0  0  0  0  0  0  0  0  0
   -4.5073   -0.0040    1.4462 H   0  0  0  0  0  0  0  0  0  0  0  0
    4.5777   -2.2801   -0.7891 H   0  0  0  0  0  0  0  0  0  0  0  0
    5.2404   -0.6904   -0.9802 H   0  0  0  0  0  0  0  0  0  0  0  0
  1 13  2  0  0  0  0
  2 14  2  0  0  0  0
  3 16  2  0  0  0  0
  4  9  1  0  0  0  0
  4 11  1  0  0  0  0
  4 21  1  0  0  0  0
  5 10  1  0  0  0  0
  5 12  1  0  0  0  0
  5 22  1  0  0  0  0
  6 12  1  0  0  0  0
  6 15  2  0  0  0  0
  7 14  1  0  0  0  0
  7 15  1  0  0  0  0
  7 23  1  0  0  0  0
  8 15  1  0  0  0  0
  8 27  1  0  0  0  0
  8 28  1  0  0  0  0
  9 10  1  0  0  0  0
  9 13  1  0  0  0  0
  9 18  1  0  0  0  0
 10 19  1  0  0  0  0
 10 20  1  0  0  0  0
 11 12  2  0  0  0  0
 11 14  1  0  0  0  0
 13 16  1  0  0  0  0
 16 17  1  0  0  0  0
 17 24  1  0  0  0  0
 17 25  1  0  0  0  0
 17 26  1  0  0  0  0
M  END
> <PUBCHEM_COMPOUND_CID>
135398695

> <PUBCHEM_CONFORMER_RMSD>
0.6

> <PUBCHEM_CONFORMER_DIVERSEORDER>
3
24
15
20
19
21
26
13
16
31
1
18
33
17
28
4
2
12
22
29
14
11
27
32
9
5
30
25
10
37
36
6
7
38
8
23
35
34
39

> <PUBCHEM_MMFF94_PARTIAL_CHARGES>
22
1 -0.57
10 0.37
11 0.11
12 0.27
13 0.51
14 0.62
15 0.56
16 0.51
17 0.06
2 -0.57
21 0.4
22 0.4
23 0.37
27 0.4
28 0.4
3 -0.57
4 -0.87
5 -0.87
6 -0.62
7 -0.49
8 -0.85
9 0.43

> <PUBCHEM_EFFECTIVE_ROTOR_COUNT>
2.8

> <PUBCHEM_PHARMACOPHORE_FEATURES>
11
1 1 acceptor
1 2 acceptor
1 3 acceptor
1 4 cation
1 4 donor
1 5 cation
1 5 donor
1 7 donor
1 8 donor
6 4 5 9 10 11 12 rings
6 6 7 11 12 14 15 rings

> <PUBCHEM_HEAVY_ATOM_COUNT>
17

> <PUBCHEM_ATOM_DEF_STEREO_COUNT>
0

> <PUBCHEM_ATOM_UDEF_STEREO_COUNT>
1

> <PUBCHEM_BOND_DEF_STEREO_COUNT>
0

> <PUBCHEM_BOND_UDEF_STEREO_COUNT>
0

> <PUBCHEM_ISOTOPIC_ATOM_COUNT>
0

> <PUBCHEM_COMPONENT_COUNT>
1

> <PUBCHEM_CACTVS_TAUTO_COUNT>
-1

> <PUBCHEM_CONFORMER_ID>
0812052700000003

> <PUBCHEM_MMFF94_ENERGY>
44.7175

> <PUBCHEM_FEATURE_SELFOVERLAP>
55.907

> <PUBCHEM_SHAPE_FINGERPRINT>
10498660 4 16661193755353451917
11471102 20 18410296912658767256
124424 183 17967536749071851386
12892183 10 8934724443844269439
13583140 156 14187307883326477874
13705890 14 18272928328062761670
14250199 8 18410015459156983909
14350558 41 16773801372330171974
14350574 20 18335990817357997935
14911166 2 18334583416931422778
14943859 89 15791737399063601578
15219456 202 18189623902361341569
16945 1 18260261936672437467
18186145 218 18260821609977242209
19422 9 18060416958635336141
19784866 240 17489597731194585390
200 152 18130790057329810379
20201158 50 18408326575000278770
20645477 70 18343022206981136847
20671657 53 18342179917055789804
221490 88 18338803441016241666
23402539 116 18198904721646436062
23402655 69 18411418375991136541
23557571 272 15554176865453539384
23559900 14 18335986462952042080
25 1 18042122051115929873
2748010 2 18118135898586470370
3286 77 18409728460767954412
3323516 105 18408318900051768405
465052 167 17202196512313886631
633830 44 18260542342761525269

> <PUBCHEM_SHAPE_MULTIPOLES>
307.34
7.43
1.73
1.07
2.1
0.5
0.04
-1.23
2.14
-1.3
-0.06
0.67
-0.15
0.16

> <PUBCHEM_SHAPE_SELFOVERLAP>
654.548

> <PUBCHEM_SHAPE_VOLUME>
167.8

> <PUBCHEM_COORDINATE_TYPE>
2
5
10

$$$$
