REMARK  Name = 135398662
REMARK  5 active torsions:
REMARK  status: ('A' for Active; 'I' for Inactive)
REMARK    1  A    between atoms: C_7  and  C_17
REMARK    2  A    between atoms: C_17  and  N_18
REMARK    3  A    between atoms: N_18  and  C_20
REMARK    4  A    between atoms: C_25  and  C_27
REMARK    5  A    between atoms: C_27  and  O_28
REMARK                            x       y       z     vdW  Elec       q    Type
REMARK                         _______ _______ _______ _____ _____    ______ ____
ROOT
ATOM      1  O   UNL     1       3.504   2.569  -0.713  0.00  0.00    -0.267 OA
ATOM      2  N   UNL     1       3.013  -2.020   0.204  0.00  0.00    -0.300 N 
ATOM      3  N   UNL     1       1.882   0.353  -0.664  0.00  0.00    -0.398 NA
ATOM      4  N   UNL     1       5.122  -0.924   0.554  0.00  0.00    -0.356 NA
ATOM      5  N   UNL     1       5.300   1.365   0.077  0.00  0.00    -0.242 N 
ATOM      6  N   UNL     1       7.153   0.198   0.875  0.00  0.00    -0.321 N 
ATOM      7  C   UNL     1       1.147  -0.716  -0.627  0.00  0.00    +0.126 C 
ATOM      8  C   UNL     1       1.628  -2.077  -0.178  0.00  0.00    +0.146 C 
ATOM      9  C   UNL     1       3.796  -0.879   0.165  0.00  0.00    +0.218 C 
ATOM     10  C   UNL     1       3.194   0.254  -0.267  0.00  0.00    +0.227 C 
ATOM     11  C   UNL     1       3.992   1.510  -0.329  0.00  0.00    +0.286 C 
ATOM     12  C   UNL     1       5.834   0.164   0.506  0.00  0.00    +0.239 C 
ATOM     13  H   UNL     1       3.435  -2.853   0.517  0.00  0.00    +0.150 HD
ATOM     14  H   UNL     1       5.884   2.157   0.061  0.00  0.00    +0.159 HD
ATOM     15  H   UNL     1       7.597  -0.622   1.190  0.00  0.00    +0.146 HD
ATOM     16  H   UNL     1       7.657   1.043   0.824  0.00  0.00    +0.146 HD
ENDROOT
BRANCH   7  17
ATOM     17  C   UNL     1      -0.292  -0.609  -1.062  0.00  0.00    +0.144 C 
BRANCH  17  18
ATOM     18  N   UNL     1      -1.060  -0.285   0.102  0.00  0.00    -0.327 N 
ATOM     19  H   UNL     1      -0.578  -0.155   0.951  0.00  0.00    +0.147 HD
BRANCH  18  20
ATOM     20  C   UNL     1      -2.445  -0.141   0.109  0.00  0.00    +0.045 C 
ATOM     21  C   UNL     1      -3.171  -0.315  -1.069  0.00  0.00    +0.015 C 
ATOM     22  C   UNL     1      -3.106   0.178   1.295  0.00  0.00    +0.015 C 
ATOM     23  C   UNL     1      -4.558  -0.170  -1.061  0.00  0.00    +0.008 C 
ATOM     24  C   UNL     1      -4.493   0.323   1.303  0.00  0.00    +0.008 C 
ATOM     25  C   UNL     1      -5.219   0.149   0.125  0.00  0.00    +0.076 C 
BRANCH  25  27
ATOM     26  O   UNL     1      -7.405   0.166  -0.847  0.00  0.00    -0.245 OA
ATOM     27  C   UNL     1      -6.666   0.298   0.134  0.00  0.00    +0.338 C 
BRANCH  27  28
ATOM     28  O   UNL     1      -7.150   0.609   1.368  0.00  0.00    -0.477 OA
ATOM     29  H   UNL     1      -6.563   0.702   2.092  0.00  0.00    +0.295 HD
ENDBRANCH  27  28
ENDBRANCH  25  27
ENDBRANCH  18  20
ENDBRANCH  17  18
ENDBRANCH   7  17
TORSDOF 5
