135398729
  -OEChem-03292013293D

 28 29  0     1  0  0  0  0  0999 V2000
    2.9537   -1.1148   -1.5149 O   0  0  0  0  0  0  0  0  0  0  0  0
    3.7002    1.1893    1.2536 O   0  0  0  0  0  0  0  0  0  0  0  0
   -1.3202   -2.6103    0.0068 O   0  0  0  0  0  0  0  0  0  0  0  0
    0.5379   -0.6582   -0.3582 N   0  0  0  0  0  0  0  0  0  0  0  0
   -0.3813    1.9974   -0.3072 N   0  0  0  0  0  0  0  0  0  0  0  0
   -3.0094   -1.0371    0.2178 N   0  0  0  0  0  0  0  0  0  0  0  0
   -2.5795    1.2758    0.0665 N   0  0  0  0  0  0  0  0  0  0  0  0
   -4.7608    0.4980    0.4393 N   0  0  0  0  0  0  0  0  0  0  0  0
    2.8125    0.0918   -0.7458 C   0  0  2  0  0  0  0  0  0  0  0  0
    3.6760   -0.0424    0.5355 C   0  0  2  0  0  0  0  0  0  0  0  0
    1.3695    0.3872   -0.5274 C   0  0  0  0  0  0  0  0  0  0  0  0
    3.1872   -1.1345    1.4768 C   0  0  0  0  0  0  0  0  0  0  0  0
   -0.7565   -0.3392   -0.1643 C   0  0  0  0  0  0  0  0  0  0  0  0
    0.9187    1.6898   -0.5023 C   0  0  0  0  0  0  0  0  0  0  0  0
   -1.2268    0.9602   -0.1362 C   0  0  0  0  0  0  0  0  0  0  0  0
   -1.6994   -1.4461    0.0251 C   0  0  0  0  0  0  0  0  0  0  0  0
   -3.4218    0.2932    0.2351 C   0  0  0  0  0  0  0  0  0  0  0  0
    3.2349    0.8950   -1.3636 H   0  0  0  0  0  0  0  0  0  0  0  0
    4.7063   -0.2759    0.2406 H   0  0  0  0  0  0  0  0  0  0  0  0
    2.2169   -0.8828    1.9177 H   0  0  0  0  0  0  0  0  0  0  0  0
    3.1104   -2.1023    0.9727 H   0  0  0  0  0  0  0  0  0  0  0  0
    3.8815   -1.2443    2.3176 H   0  0  0  0  0  0  0  0  0  0  0  0
    1.5805    2.5377   -0.6359 H   0  0  0  0  0  0  0  0  0  0  0  0
    3.9006   -1.2321   -1.7028 H   0  0  0  0  0  0  0  0  0  0  0  0
    4.2851    1.0714    2.0215 H   0  0  0  0  0  0  0  0  0  0  0  0
   -3.7140   -1.7557    0.3552 H   0  0  0  0  0  0  0  0  0  0  0  0
   -5.1506    1.4338    0.4671 H   0  0  0  0  0  0  0  0  0  0  0  0
   -5.4010   -0.2778    0.5684 H   0  0  0  0  0  0  0  0  0  0  0  0
  1  9  1  0  0  0  0
  1 24  1  0  0  0  0
  2 10  1  0  0  0  0
  2 25  1  0  0  0  0
  3 16  2  0  0  0  0
  4 11  1  0  0  0  0
  4 13  2  0  0  0  0
  5 14  1  0  0  0  0
  5 15  2  0  0  0  0
  6 16  1  0  0  0  0
  6 17  1  0  0  0  0
  6 26  1  0  0  0  0
  7 15  1  0  0  0  0
  7 17  2  0  0  0  0
  8 17  1  0  0  0  0
  8 27  1  0  0  0  0
  8 28  1  0  0  0  0
  9 10  1  0  0  0  0
  9 11  1  0  0  0  0
  9 18  1  0  0  0  0
 10 12  1  0  0  0  0
 10 19  1  0  0  0  0
 11 14  2  0  0  0  0
 12 20  1  0  0  0  0
 12 21  1  0  0  0  0
 12 22  1  0  0  0  0
 13 15  1  0  0  0  0
 13 16  1  0  0  0  0
 14 23  1  0  0  0  0
M  END
> <PUBCHEM_COMPOUND_CID>
135398729

> <PUBCHEM_CONFORMER_RMSD>
0.6

> <PUBCHEM_CONFORMER_DIVERSEORDER>
1
27
8
21
7
24
26
13
15
16
19
5
18
9
20
28
22
3
11
14
12
2
6
25
17
4
10
23

> <PUBCHEM_MMFF94_PARTIAL_CHARGES>
22
1 -0.68
10 0.28
11 0.17
13 0.4
14 0.16
15 0.49
16 0.54
17 0.56
2 -0.68
23 0.15
24 0.4
25 0.4
26 0.37
27 0.4
28 0.4
3 -0.57
4 -0.62
5 -0.62
6 -0.49
7 -0.63
8 -0.85
9 0.42

> <PUBCHEM_EFFECTIVE_ROTOR_COUNT>
2

> <PUBCHEM_PHARMACOPHORE_FEATURES>
11
1 1 acceptor
1 1 donor
1 2 acceptor
1 2 donor
1 3 acceptor
1 4 acceptor
1 6 donor
1 8 donor
3 5 7 15 cation
6 4 5 11 13 14 15 rings
6 6 7 13 15 16 17 rings

> <PUBCHEM_HEAVY_ATOM_COUNT>
17

> <PUBCHEM_ATOM_DEF_STEREO_COUNT>
0

> <PUBCHEM_ATOM_UDEF_STEREO_COUNT>
2

> <PUBCHEM_BOND_DEF_STEREO_COUNT>
0

> <PUBCHEM_BOND_UDEF_STEREO_COUNT>
0

> <PUBCHEM_ISOTOPIC_ATOM_COUNT>
0

> <PUBCHEM_COMPONENT_COUNT>
1

> <PUBCHEM_CACTVS_TAUTO_COUNT>
-1

> <PUBCHEM_CONFORMER_ID>
0812054900000001

> <PUBCHEM_MMFF94_ENERGY>
41.7253

> <PUBCHEM_FEATURE_SELFOVERLAP>
55.919

> <PUBCHEM_SHAPE_FINGERPRINT>
10130415 120 18333453165937801253
11132069 177 18412829079616541669
11578080 2 17314764452145759396
12251169 10 18409443713289966488
12382932 28 18413388765226071418
12592029 89 18187937131872098979
12633257 1 18199164300832185496
13083527 12 17407092818203541990
13140716 1 18264773331892387793
13544592 145 18130239150728567918
13675066 3 17676481735547395905
14022347 108 18190201038681405742
14144814 61 18335140890426884891
14178342 30 18264196079830051594
14289901 80 16988840587867385208
15219456 202 17989208140234452478
15375358 24 18272368689302285348
15375462 189 17894908533756994298
15669948 3 18337676424496913166
16752209 62 18189621553019635245
16945 1 18408325466793150045
1813 80 16733826342939805842
200 152 14779262008226002276
20361792 2 16805314518238646708
20510252 161 18200595787230166945
20528008 55 18201718457226143881
20559304 39 17967817124394359876
20645476 183 17241913010316716647
21501502 16 18121222236252398485
21501925 9 18337949116165042613
2255824 54 17532101660022634100
22892500 29 16630524033853086450
23184049 29 18048598410732247383
232386 152 18260830440350972622
23402539 116 18342729715972390325
23419403 2 17120235642117934317
23463225 33 18260267434267434318
23552423 10 17827084205488622085
23559900 14 18343311349065067988
2748010 2 17976547113321681869
34934 24 18336547221934169716
4072396 5 18189607259969704825
43471831 8 18190463757794904243
465052 167 17822308893972867987
474 4 14260764257859898082
495365 180 17131265757962902470
5104073 3 18337400451942898065
58807428 26 18338242544515916323
5902787 121 18261956365800687616
69090 78 18131348613969453535
7364860 26 18197225964669635308
77492 1 17530971271658435718
81228 2 18265347130801693536
90316 7 18187077313194082980

> <PUBCHEM_SHAPE_MULTIPOLES>
307.34
7.11
1.91
1.02
1.26
0.35
0.05
0.17
1.97
0.44
-0.03
-1.18
0.15
-0.05

> <PUBCHEM_SHAPE_SELFOVERLAP>
657.625

> <PUBCHEM_SHAPE_VOLUME>
169.4

> <PUBCHEM_COORDINATE_TYPE>
2
5
10

$$$$
