REMARK  Name = 135398630
REMARK  6 active torsions:
REMARK  status: ('A' for Active; 'I' for Inactive)
REMARK    1  A    between atoms: C_2  and  O_20
REMARK    2  A    between atoms: C_3  and  O_22
REMARK    3  A    between atoms: C_4  and  N_7
REMARK    4  A    between atoms: C_5  and  C_24
REMARK    5  A    between atoms: C_24  and  O_25
REMARK    6  A    between atoms: O_25  and  P_26
REMARK                            x       y       z     vdW  Elec       q    Type
REMARK                         _______ _______ _______ _____ _____    ______ ____
ROOT
ATOM      1  O   UNL     1       1.238  -0.797   1.038  0.00  0.00    -0.333 OA
ATOM      2  C   UNL     1       0.361  -1.889  -0.869  0.00  0.00    +0.187 C 
ATOM      3  C   UNL     1       1.639  -2.596  -0.462  0.00  0.00    +0.171 C 
ATOM      4  C   UNL     1      -0.013  -1.149   0.410  0.00  0.00    +0.226 C 
ATOM      5  C   UNL     1       2.306  -1.561   0.435  0.00  0.00    +0.176 C 
ENDROOT
BRANCH   4   7
ATOM      6  O   UNL     1      -4.239   3.018  -0.438  0.00  0.00    -0.268 OA
ATOM      7  N   UNL     1      -0.867   0.071   0.158  0.00  0.00    -0.237 N 
ATOM      8  N   UNL     1      -1.388   2.199  -0.295  0.00  0.00    -0.240 NA
ATOM      9  N   UNL     1      -3.077  -0.887   0.391  0.00  0.00    -0.357 NA
ATOM     10  N   UNL     1      -4.751   0.792   0.049  0.00  0.00    -0.243 N 
ATOM     11  N   UNL     1      -5.359  -1.430   0.535  0.00  0.00    -0.321 N 
ATOM     12  C   UNL     1      -2.229   0.139   0.160  0.00  0.00    +0.211 C 
ATOM     13  C   UNL     1      -0.407   1.335  -0.120  0.00  0.00    +0.224 C 
ATOM     14  C   UNL     1      -2.516   1.453  -0.120  0.00  0.00    +0.176 C 
ATOM     15  C   UNL     1      -3.889   1.871  -0.194  0.00  0.00    +0.273 C 
ATOM     16  C   UNL     1      -4.343  -0.533   0.330  0.00  0.00    +0.239 C 
ATOM     17  H   UNL     1      -5.719   0.972   0.022  0.00  0.00    +0.159 HD
ATOM     18  H   UNL     1      -5.152  -2.371   0.736  0.00  0.00    +0.146 HD
ATOM     19  H   UNL     1      -6.296  -1.133   0.482  0.00  0.00    +0.146 HD
ENDBRANCH   4   7
BRANCH   2  20
ATOM     20  O   UNL     1      -0.647  -2.779  -1.307  0.00  0.00    -0.378 OA
ATOM     21  H   UNL     1      -0.357  -3.220  -2.121  0.00  0.00    +0.211 HD
ENDBRANCH   2  20
BRANCH   3  22
ATOM     22  O   UNL     1       1.341  -3.742   0.334  0.00  0.00    -0.379 OA
ATOM     23  H   UNL     1       0.915  -4.417  -0.217  0.00  0.00    +0.211 HD
ENDBRANCH   3  22
BRANCH   5  24
ATOM     24  C   UNL     1       3.206  -0.600  -0.329  0.00  0.00    +0.186 C 
BRANCH  24  25
ATOM     25  O   UNL     1       3.766   0.324   0.588  0.00  0.00    -0.268 OA
BRANCH  25  26
ATOM     26  P   UNL     1       4.791   1.489   0.019  0.00  0.00    +0.533 P 
ATOM     27  O   UNL     1       5.177   2.270   1.272  0.00  0.00    -0.115 OA
ATOM     28  O   UNL     1       3.954   2.288  -0.976  0.00  0.00    -0.222 OA
ATOM     29  O   UNL     1       5.946   0.714  -0.609  0.00  0.00    -0.115 OA
ENDBRANCH  25  26
ENDBRANCH  24  25
ENDBRANCH   5  24
TORSDOF 6
