REMARK  Name = 135398614
REMARK  7 active torsions:
REMARK  status: ('A' for Active; 'I' for Inactive)
REMARK    1  A    between atoms: C_2  and  O_17
REMARK    2  A    between atoms: C_3  and  N_7
REMARK    3  A    between atoms: C_4  and  C_19
REMARK    4  A    between atoms: C_19  and  O_20
REMARK    5  A    between atoms: O_20  and  P_21
REMARK    6  A    between atoms: P_21  and  O_23
REMARK    7  A    between atoms: P_21  and  O_25
REMARK                            x       y       z     vdW  Elec       q    Type
REMARK                         _______ _______ _______ _____ _____    ______ ____
ROOT
ATOM      1  O   UNL     1      -1.028   0.946   0.962  0.00  0.00    -0.335 OA
ATOM      2  C   UNL     1      -1.536   2.631  -0.638  0.00  0.00    +0.144 C 
ATOM      3  C   UNL     1       0.196   1.344   0.317  0.00  0.00    +0.197 C 
ATOM      4  C   UNL     1      -2.136   1.621   0.332  0.00  0.00    +0.174 C 
ATOM      5  C   UNL     1      -0.206   2.009  -0.995  0.00  0.00    +0.083 C 
ENDROOT
BRANCH   3   7
ATOM      6  O   UNL     1       4.725  -2.538  -0.315  0.00  0.00    -0.268 OA
ATOM      7  N   UNL     1       1.139   0.182   0.127  0.00  0.00    -0.249 N 
ATOM      8  N   UNL     1       1.820  -1.920  -0.222  0.00  0.00    -0.241 NA
ATOM      9  N   UNL     1       3.275   1.311   0.328  0.00  0.00    -0.232 NA
ATOM     10  N   UNL     1       5.076  -0.263   0.072  0.00  0.00    -0.279 N 
ATOM     11  C   UNL     1       2.502   0.216   0.140  0.00  0.00    +0.154 C 
ATOM     12  C   UNL     1       0.776  -1.124  -0.094  0.00  0.00    +0.223 C 
ATOM     13  C   UNL     1       2.889  -1.086  -0.077  0.00  0.00    +0.162 C 
ATOM     14  C   UNL     1       4.293  -1.408  -0.124  0.00  0.00    +0.267 C 
ATOM     15  C   UNL     1       4.541   1.014   0.284  0.00  0.00    +0.220 C 
ATOM     16  H   UNL     1       6.055  -0.361   0.061  0.00  0.00    +0.152 HD
ENDBRANCH   3   7
BRANCH   2  17
ATOM     17  O   UNL     1      -1.292   3.861   0.040  0.00  0.00    -0.382 OA
ATOM     18  H   UNL     1      -2.138   4.273   0.276  0.00  0.00    +0.210 HD
ENDBRANCH   2  17
BRANCH   4  19
ATOM     19  C   UNL     1      -2.991   0.572  -0.364  0.00  0.00    +0.186 C 
BRANCH  19  20
ATOM     20  O   UNL     1      -3.494  -0.324   0.612  0.00  0.00    -0.271 OA
BRANCH  20  21
ATOM     21  P   UNL     1      -4.442  -1.544   0.125  0.00  0.00    +0.473 P 
ATOM     22  O   UNL     1      -4.930  -2.443   1.223  0.00  0.00    -0.227 OA
BRANCH  21  23
ATOM     23  O   UNL     1      -5.605  -0.788  -0.707  0.00  0.00    -0.303 OA
ATOM     24  H   UNL     1      -5.202  -0.232  -1.392  0.00  0.00    +0.222 HD
ENDBRANCH  21  23
BRANCH  21  25
ATOM     25  O   UNL     1      -3.571  -2.270  -1.028  0.00  0.00    -0.303 OA
ATOM     26  H   UNL     1      -3.301  -1.615  -1.690  0.00  0.00    +0.222 HD
ENDBRANCH  21  25
ENDBRANCH  20  21
ENDBRANCH  19  20
ENDBRANCH   4  19
TORSDOF 7
