135398579
  -OEChem-03292013293D

 28 29  0     1  0  0  0  0  0999 V2000
    4.9863    0.0835    0.1896 O   0  0  0  0  0  0  0  0  0  0  0  0
    3.0057    0.8278   -1.4871 O   0  0  0  0  0  0  0  0  0  0  0  0
   -1.5306    2.6129    0.0289 O   0  0  0  0  0  0  0  0  0  0  0  0
   -0.4076   -1.9535   -0.2302 N   0  0  0  0  0  0  0  0  0  0  0  0
    0.4170    0.6944   -0.2424 N   0  0  0  0  0  0  0  0  0  0  0  0
   -2.6954   -1.2693    0.0424 N   0  0  0  0  0  0  0  0  0  0  0  0
   -3.1865    1.0206    0.1678 N   0  0  0  0  0  0  0  0  0  0  0  0
   -4.9072   -0.5456    0.3105 N   0  0  0  0  0  0  0  0  0  0  0  0
    1.0071   -1.7294   -0.3742 C   0  0  0  0  0  0  0  0  0  0  0  0
    1.2897   -0.2540   -0.3651 C   0  0  0  0  0  0  0  0  0  0  0  0
   -1.3561   -0.9520   -0.0957 C   0  0  0  0  0  0  0  0  0  0  0  0
   -0.9010    0.3243   -0.1074 C   0  0  0  0  0  0  0  0  0  0  0  0
    2.7132    0.1536   -0.5101 C   0  0  0  0  0  0  0  0  0  0  0  0
    3.6785   -0.3379    0.5453 C   0  0  2  0  0  0  0  0  0  0  0  0
   -1.8808    1.4364    0.0343 C   0  0  0  0  0  0  0  0  0  0  0  0
    3.3329    0.1974    1.9244 C   0  0  0  0  0  0  0  0  0  0  0  0
   -3.5653   -0.3092    0.1688 C   0  0  0  0  0  0  0  0  0  0  0  0
    1.3623   -2.1561   -1.3171 H   0  0  0  0  0  0  0  0  0  0  0  0
    1.5327   -2.2128    0.4535 H   0  0  0  0  0  0  0  0  0  0  0  0
   -0.7566   -2.9061   -0.2207 H   0  0  0  0  0  0  0  0  0  0  0  0
    3.6815   -1.4319    0.5387 H   0  0  0  0  0  0  0  0  0  0  0  0
    3.3275    1.2933    1.9262 H   0  0  0  0  0  0  0  0  0  0  0  0
    2.3497   -0.1478    2.2583 H   0  0  0  0  0  0  0  0  0  0  0  0
    4.0806   -0.1182    2.6598 H   0  0  0  0  0  0  0  0  0  0  0  0
   -3.9077    1.7284    0.2695 H   0  0  0  0  0  0  0  0  0  0  0  0
    5.6066   -0.3185    0.8215 H   0  0  0  0  0  0  0  0  0  0  0  0
   -5.2756   -1.4905    0.3221 H   0  0  0  0  0  0  0  0  0  0  0  0
   -5.5710    0.2149    0.4077 H   0  0  0  0  0  0  0  0  0  0  0  0
  1 14  1  0  0  0  0
  1 26  1  0  0  0  0
  2 13  2  0  0  0  0
  3 15  2  0  0  0  0
  4  9  1  0  0  0  0
  4 11  1  0  0  0  0
  4 20  1  0  0  0  0
  5 10  2  0  0  0  0
  5 12  1  0  0  0  0
  6 11  1  0  0  0  0
  6 17  2  0  0  0  0
  7 15  1  0  0  0  0
  7 17  1  0  0  0  0
  7 25  1  0  0  0  0
  8 17  1  0  0  0  0
  8 27  1  0  0  0  0
  8 28  1  0  0  0  0
  9 10  1  0  0  0  0
  9 18  1  0  0  0  0
  9 19  1  0  0  0  0
 10 13  1  0  0  0  0
 11 12  2  0  0  0  0
 12 15  1  0  0  0  0
 13 14  1  0  0  0  0
 14 16  1  0  0  0  0
 14 21  1  0  0  0  0
 16 22  1  0  0  0  0
 16 23  1  0  0  0  0
 16 24  1  0  0  0  0
M  END
> <PUBCHEM_COMPOUND_CID>
135398579

> <PUBCHEM_CONFORMER_RMSD>
0.6

> <PUBCHEM_CONFORMER_DIVERSEORDER>
1
17
6
9
18
14
5
12
2
16
10
11
13
15
19
4
3
8
7

> <PUBCHEM_MMFF94_PARTIAL_CHARGES>
21
1 -0.68
10 0.39
11 0.27
12 0.19
13 0.51
14 0.34
15 0.62
17 0.56
2 -0.57
20 0.4
25 0.37
26 0.4
27 0.4
28 0.4
3 -0.57
4 -0.87
5 -0.62
6 -0.62
7 -0.49
8 -0.85
9 0.43

> <PUBCHEM_EFFECTIVE_ROTOR_COUNT>
2.4

> <PUBCHEM_PHARMACOPHORE_FEATURES>
11
1 1 acceptor
1 1 donor
1 2 acceptor
1 3 acceptor
1 4 cation
1 4 donor
1 5 acceptor
1 7 donor
1 8 donor
6 4 5 9 10 11 12 rings
6 6 7 11 12 15 17 rings

> <PUBCHEM_HEAVY_ATOM_COUNT>
17

> <PUBCHEM_ATOM_DEF_STEREO_COUNT>
1

> <PUBCHEM_ATOM_UDEF_STEREO_COUNT>
0

> <PUBCHEM_BOND_DEF_STEREO_COUNT>
0

> <PUBCHEM_BOND_UDEF_STEREO_COUNT>
0

> <PUBCHEM_ISOTOPIC_ATOM_COUNT>
0

> <PUBCHEM_COMPONENT_COUNT>
1

> <PUBCHEM_CACTVS_TAUTO_COUNT>
-1

> <PUBCHEM_CONFORMER_ID>
081204B300000001

> <PUBCHEM_MMFF94_ENERGY>
43.5517

> <PUBCHEM_FEATURE_SELFOVERLAP>
55.913

> <PUBCHEM_SHAPE_FINGERPRINT>
11132069 177 18272090504539620143
12119455 92 16989122058929086422
12236239 1 17822009813624510636
12251169 10 18259702307156029510
12403259 415 18130783439228416496
13140716 1 18196092368201938611
13380535 76 18409735049353606047
13538477 17 18114465685965907022
13581323 91 18408597059297882858
13862211 1 18339079397693323383
14178342 30 18193557770250729841
14614273 12 18261391075475394149
15042514 8 18338801237935824375
15219456 202 18059579023058202558
15342168 16 15697424671957050008
15536298 74 18270685251312311238
16945 1 18412546530660760175
17846911 113 18412824694291473491
1813 80 16951125037966666342
18186145 218 17203892955011430962
200 152 15864066576689397113
20510252 161 18271808982075773848
20559304 39 18333733516054989124
20645477 70 14707195596788813594
21267235 1 18335150790342592743
21486144 27 16630525171824305862
22854114 59 17988924474439448443
2297311 6 18271257062036121044
23048698 100 17167866382854013756
23402539 116 18341604941162466903
23463225 33 18260548896580938630
23557571 272 18202289078123135197
23559900 14 18268995293561202278
26918003 58 17603305972818090891
2748010 2 18123196705780189191
4072396 5 18335127675361245315
43471831 8 18335137531836916755
474 4 17024883791024870892
5104073 3 18268717112835022675
53655031 270 18334575741645542739
5374978 207 18408321115938622536
537710 114 18335993050994173725
53812653 166 18202561769986554218
69090 78 17561077029371564447
7364860 26 17985548845120608310
77492 1 17822010921567811012
90316 7 17968086469972528772

> <PUBCHEM_SHAPE_MULTIPOLES>
307.34
8.02
1.73
1
1.08
0.3
0.25
0.19
1.65
-1.1
-0.15
1.21
0.14
-0.02

> <PUBCHEM_SHAPE_SELFOVERLAP>
656.414

> <PUBCHEM_SHAPE_VOLUME>
167.8

> <PUBCHEM_COORDINATE_TYPE>
2
5
10

$$$$
