135398749
  -OEChem-03292013293D

 35 37  0     0  0  0  0  0  0999 V2000
   -3.6839   -2.6997   -0.1597 O   0  0  0  0  0  0  0  0  0  0  0  0
    7.2748    0.1110   -1.3005 O   0  0  0  0  0  0  0  0  0  0  0  0
    7.3684   -0.7398    0.8052 O   0  0  0  0  0  0  0  0  0  0  0  0
    1.1225    0.4461   -0.1097 N   0  0  0  0  0  0  0  0  0  0  0  0
   -1.9342   -0.7011    0.4244 N   0  0  0  0  0  0  0  0  0  0  0  0
   -2.9481    1.9203    0.4118 N   0  0  0  0  0  0  0  0  0  0  0  0
   -5.4112   -1.1789   -0.4362 N   0  0  0  0  0  0  0  0  0  0  0  0
   -5.0826    1.1389   -0.1594 N   0  0  0  0  0  0  0  0  0  0  0  0
   -7.1981    0.3021   -0.7309 N   0  0  0  0  0  0  0  0  0  0  0  0
    0.2746    0.1106    1.0149 C   0  0  0  0  0  0  0  0  0  0  0  0
   -1.1583    0.3644    0.6992 C   0  0  0  0  0  0  0  0  0  0  0  0
    2.4943    0.2673   -0.1137 C   0  0  0  0  0  0  0  0  0  0  0  0
   -3.2218   -0.4197    0.1453 C   0  0  0  0  0  0  0  0  0  0  0  0
   -3.7381    0.8624    0.1342 C   0  0  0  0  0  0  0  0  0  0  0  0
   -1.6555    1.6502    0.6931 C   0  0  0  0  0  0  0  0  0  0  0  0
    3.1328   -0.2625    1.0077 C   0  0  0  0  0  0  0  0  0  0  0  0
    3.2391    0.6177   -1.2399 C   0  0  0  0  0  0  0  0  0  0  0  0
   -4.1048   -1.5497   -0.1600 C   0  0  0  0  0  0  0  0  0  0  0  0
    5.2609   -0.0916   -0.1234 C   0  0  0  0  0  0  0  0  0  0  0  0
    4.5160   -0.4419    1.0028 C   0  0  0  0  0  0  0  0  0  0  0  0
    4.6223    0.4383   -1.2446 C   0  0  0  0  0  0  0  0  0  0  0  0
   -5.8716    0.1357   -0.4319 C   0  0  0  0  0  0  0  0  0  0  0  0
    6.7027   -0.2799   -0.1286 C   0  0  0  0  0  0  0  0  0  0  0  0
    0.5535    0.6957    1.9002 H   0  0  0  0  0  0  0  0  0  0  0  0
    0.3908   -0.9501    1.2711 H   0  0  0  0  0  0  0  0  0  0  0  0
    0.6974    0.8334   -0.9456 H   0  0  0  0  0  0  0  0  0  0  0  0
   -1.0375    2.5130    0.9133 H   0  0  0  0  0  0  0  0  0  0  0  0
    2.5933   -0.5470    1.9061 H   0  0  0  0  0  0  0  0  0  0  0  0
    2.7540    1.0317   -2.1204 H   0  0  0  0  0  0  0  0  0  0  0  0
    4.9951   -0.8559    1.8863 H   0  0  0  0  0  0  0  0  0  0  0  0
    5.1635    0.7243   -2.1421 H   0  0  0  0  0  0  0  0  0  0  0  0
   -6.0756   -1.9151   -0.6562 H   0  0  0  0  0  0  0  0  0  0  0  0
   -7.7966   -0.4893   -0.9403 H   0  0  0  0  0  0  0  0  0  0  0  0
   -7.6201    1.2241   -0.7514 H   0  0  0  0  0  0  0  0  0  0  0  0
    8.2470   -0.0202   -1.2936 H   0  0  0  0  0  0  0  0  0  0  0  0
  1 18  2  0  0  0  0
  2 23  1  0  0  0  0
  2 35  1  0  0  0  0
  3 23  2  0  0  0  0
  4 10  1  0  0  0  0
  4 12  1  0  0  0  0
  4 26  1  0  0  0  0
  5 11  1  0  0  0  0
  5 13  2  0  0  0  0
  6 14  2  0  0  0  0
  6 15  1  0  0  0  0
  7 18  1  0  0  0  0
  7 22  1  0  0  0  0
  7 32  1  0  0  0  0
  8 14  1  0  0  0  0
  8 22  2  0  0  0  0
  9 22  1  0  0  0  0
  9 33  1  0  0  0  0
  9 34  1  0  0  0  0
 10 11  1  0  0  0  0
 10 24  1  0  0  0  0
 10 25  1  0  0  0  0
 11 15  2  0  0  0  0
 12 16  2  0  0  0  0
 12 17  1  0  0  0  0
 13 14  1  0  0  0  0
 13 18  1  0  0  0  0
 15 27  1  0  0  0  0
 16 20  1  0  0  0  0
 16 28  1  0  0  0  0
 17 21  2  0  0  0  0
 17 29  1  0  0  0  0
 19 20  2  0  0  0  0
 19 21  1  0  0  0  0
 19 23  1  0  0  0  0
 20 30  1  0  0  0  0
 21 31  1  0  0  0  0
M  END
> <PUBCHEM_COMPOUND_CID>
135398749

> <PUBCHEM_CONFORMER_RMSD>
0.8

> <PUBCHEM_CONFORMER_DIVERSEORDER>
1
6
7
18
4
3
10
13
17
15
12
14
5
11
8
16
9
2

> <PUBCHEM_MMFF94_PARTIAL_CHARGES>
33
1 -0.57
10 0.51
11 0.17
12 0.1
13 0.4
14 0.49
15 0.16
16 -0.15
17 -0.15
18 0.54
19 0.09
2 -0.65
20 -0.15
21 -0.15
22 0.56
23 0.63
26 0.4
27 0.15
28 0.15
29 0.15
3 -0.57
30 0.15
31 0.15
32 0.37
33 0.4
34 0.4
35 0.5
4 -0.87
5 -0.62
6 -0.62
7 -0.49
8 -0.63
9 -0.85

> <PUBCHEM_EFFECTIVE_ROTOR_COUNT>
4

> <PUBCHEM_PHARMACOPHORE_FEATURES>
13
1 1 acceptor
1 2 acceptor
1 3 acceptor
1 4 cation
1 4 donor
1 5 acceptor
1 7 donor
1 9 donor
3 2 3 23 anion
3 6 8 14 cation
6 12 16 17 19 20 21 rings
6 5 6 11 13 14 15 rings
6 7 8 13 14 18 22 rings

> <PUBCHEM_HEAVY_ATOM_COUNT>
23

> <PUBCHEM_ATOM_DEF_STEREO_COUNT>
0

> <PUBCHEM_ATOM_UDEF_STEREO_COUNT>
0

> <PUBCHEM_BOND_DEF_STEREO_COUNT>
0

> <PUBCHEM_BOND_UDEF_STEREO_COUNT>
0

> <PUBCHEM_ISOTOPIC_ATOM_COUNT>
0

> <PUBCHEM_COMPONENT_COUNT>
1

> <PUBCHEM_CACTVS_TAUTO_COUNT>
-1

> <PUBCHEM_CONFORMER_ID>
0812055D00000001

> <PUBCHEM_MMFF94_ENERGY>
73.6458

> <PUBCHEM_FEATURE_SELFOVERLAP>
66.119

> <PUBCHEM_SHAPE_FINGERPRINT>
10 15 17346587592093311450
10354089 29 11959731569210053050
106641 1 12031781487803852101
11089746 13 17748830722200872020
11315181 36 17703792539672522297
11524674 6 16559029406917191031
11719270 70 18130787833391852494
12107183 9 17541090970627713856
12166972 35 18259988188859590948
12236239 1 18186239537405418938
12516196 113 17203608181494718504
13288520 33 18272651260176216361
13533116 47 18041553646992075066
13540713 4 8285106599287610089
13685833 64 15841551868893171216
13885169 127 16487262032799641721
1420 363 16917071057813527156
14251752 14 18260827089944081332
14386348 63 17203892967701043583
14848160 23 17561083609619904238
14849402 71 11671480324013698210
14933364 13 10737289039437529406
15183329 4 17821723935868484767
15716309 27 13614521848652523132
16992828 155 17533497829269039085
17844677 252 15913332394358908320
1813 80 14333141796353366048
18681886 176 18411134779674946360
18927931 339 18272373092023734319
19489759 90 18341896277046400833
20281389 69 10737283559048697446
21033648 29 16199857376399213768
21054139 6 18334293193370470738
21150785 3 17530684320392681272
21267235 1 18411701032890799835
21623969 137 15769781251743082844
22224240 67 14620789406178720070
2297311 6 18131353003252138649
23035841 295 18412826884635045931
23198884 109 17312822684424346489
23402539 116 18407758148805130572
23557571 272 17845940640795011897
23559900 14 18270391823547143625
29717793 49 18187369822727202014
300161 21 17894347791643661696
3004659 81 18335417993232617184
335352 9 18411975867964219397
34797466 226 17917997196152337512
4073 2 15502668126016248576
4325135 7 18333167254180661711
5283156 175 18335701615661100058
559249 180 18408039624230552315
59755656 215 18201441350585023798
59755656 520 16153708739004397923
67856867 119 18263365940114302124
7495541 125 17775286105968306896

> <PUBCHEM_SHAPE_MULTIPOLES>
425.84
19.83
1.46
1.06
11.48
0.42
0.08
2.79
4.53
-2.47
-0.05
1.19
-0.09
-0.87

> <PUBCHEM_SHAPE_SELFOVERLAP>
935.085

> <PUBCHEM_SHAPE_VOLUME>
227.7

> <PUBCHEM_COORDINATE_TYPE>
2
5
10

$$$$
