REMARK  Name = 135398687
REMARK  4 active torsions:
REMARK  status: ('A' for Active; 'I' for Inactive)
REMARK    1  A    between atoms: C_7  and  C_17
REMARK    2  A    between atoms: C_17  and  O_18
REMARK    3  A    between atoms: C_17  and  C_20
REMARK    4  A    between atoms: C_20  and  O_22
REMARK                            x       y       z     vdW  Elec       q    Type
REMARK                         _______ _______ _______ _____ _____    ______ ____
ROOT
ATOM      1  O   UNL     1       1.175  -2.580  -0.225  0.00  0.00    -0.267 OA
ATOM      2  N   UNL     1       0.578   2.083  -0.031  0.00  0.00    -0.300 N 
ATOM      3  N   UNL     1      -0.539  -0.436  -0.298  0.00  0.00    -0.398 NA
ATOM      4  N   UNL     1       2.773   1.125   0.160  0.00  0.00    -0.356 NA
ATOM      5  N   UNL     1       3.001  -1.207   0.055  0.00  0.00    -0.242 N 
ATOM      6  N   UNL     1       4.887   0.133   0.340  0.00  0.00    -0.321 N 
ATOM      7  C   UNL     1      -1.318   0.602  -0.327  0.00  0.00    +0.136 C 
ATOM      8  C   UNL     1      -0.850   2.034  -0.193  0.00  0.00    +0.147 C 
ATOM      9  C   UNL     1       1.407   0.976  -0.001  0.00  0.00    +0.218 C 
ATOM     10  C   UNL     1       0.810  -0.232  -0.135  0.00  0.00    +0.227 C 
ATOM     11  C   UNL     1       1.657  -1.457  -0.109  0.00  0.00    +0.286 C 
ATOM     12  C   UNL     1       3.528   0.065   0.185  0.00  0.00    +0.239 C 
ATOM     13  H   UNL     1       0.996   2.969   0.065  0.00  0.00    +0.150 HD
ATOM     14  H   UNL     1       3.618  -1.973   0.081  0.00  0.00    +0.159 HD
ATOM     15  H   UNL     1       5.328   1.008   0.439  0.00  0.00    +0.146 HD
ATOM     16  H   UNL     1       5.423  -0.693   0.354  0.00  0.00    +0.146 HD
ENDROOT
BRANCH   7  17
ATOM     17  C   UNL     1      -2.798   0.381  -0.504  0.00  0.00    +0.187 C 
BRANCH  17  18
ATOM     18  O   UNL     1      -2.956  -0.219  -1.777  0.00  0.00    -0.376 OA
ATOM     19  H   UNL     1      -2.587   0.364  -2.458  0.00  0.00    +0.211 HD
ENDBRANCH  17  18
BRANCH  17  20
ATOM     20  C   UNL     1      -3.377  -0.533   0.570  0.00  0.00    +0.144 C 
ATOM     21  C   UNL     1      -4.879  -0.736   0.425  0.00  0.00    +0.035 C 
BRANCH  20  22
ATOM     22  O   UNL     1      -3.097   0.000   1.864  0.00  0.00    -0.382 OA
ATOM     23  H   UNL     1      -2.141   0.131   1.960  0.00  0.00    +0.210 HD
ENDBRANCH  20  22
ENDBRANCH  17  20
ENDBRANCH   7  17
TORSDOF 4
