REMARK  Name = 135398740
REMARK  7 active torsions:
REMARK  status: ('A' for Active; 'I' for Inactive)
REMARK    1  A    between atoms: N_2  and  C_15
REMARK    2  A    between atoms: C_15  and  O_16
REMARK    3  A    between atoms: O_16  and  C_17
REMARK    4  A    between atoms: C_17  and  C_18
REMARK    5  A    between atoms: C_17  and  C_21
REMARK    6  A    between atoms: C_18  and  O_19
REMARK    7  A    between atoms: C_21  and  O_22
REMARK                            x       y       z     vdW  Elec       q    Type
REMARK                         _______ _______ _______ _____ _____    ______ ____
ROOT
ATOM      1  O   UNL     1      -4.489   0.677   0.655  0.00  0.00    -0.268 OA
ATOM      2  N   UNL     1      -0.113   1.220  -0.331  0.00  0.00    -0.235 N 
ATOM      3  N   UNL     1      -1.986   2.245   0.336  0.00  0.00    -0.240 NA
ATOM      4  N   UNL     1      -0.912  -1.052  -0.574  0.00  0.00    -0.357 NA
ATOM      5  N   UNL     1      -3.239  -1.177  -0.018  0.00  0.00    -0.243 N 
ATOM      6  N   UNL     1      -2.057  -3.100  -0.687  0.00  0.00    -0.321 N 
ATOM      7  C   UNL     1      -1.077   0.257  -0.278  0.00  0.00    +0.211 C 
ATOM      8  C   UNL     1      -2.210   0.915   0.133  0.00  0.00    +0.176 C 
ATOM      9  C   UNL     1      -0.709   2.399   0.047  0.00  0.00    +0.224 C 
ATOM     10  C   UNL     1      -3.432   0.176   0.294  0.00  0.00    +0.273 C 
ATOM     11  C   UNL     1      -2.016  -1.754  -0.435  0.00  0.00    +0.239 C 
ATOM     12  H   UNL     1      -4.018  -1.775   0.060  0.00  0.00    +0.159 HD
ATOM     13  H   UNL     1      -1.244  -3.571  -0.982  0.00  0.00    +0.146 HD
ATOM     14  H   UNL     1      -2.900  -3.597  -0.574  0.00  0.00    +0.146 HD
ENDROOT
BRANCH   2  15
ATOM     15  C   UNL     1       1.269   1.052  -0.709  0.00  0.00    +0.244 C 
BRANCH  15  16
ATOM     16  O   UNL     1       1.959   0.427   0.369  0.00  0.00    -0.332 OA
BRANCH  16  17
ATOM     17  C   UNL     1       3.176  -0.169  -0.061  0.00  0.00    +0.175 C 
BRANCH  17  18
ATOM     18  C   UNL     1       3.584  -1.205   0.978  0.00  0.00    +0.169 C 
BRANCH  18  19
ATOM     19  O   UNL     1       2.553  -2.180   1.089  0.00  0.00    -0.379 OA
ATOM     20  H   UNL     1       2.805  -2.844   1.749  0.00  0.00    +0.211 HD
ENDBRANCH  18  19
ENDBRANCH  17  18
BRANCH  17  21
ATOM     21  C   UNL     1       4.231   0.922  -0.204  0.00  0.00    +0.169 C 
BRANCH  21  22
ATOM     22  O   UNL     1       5.469   0.347  -0.606  0.00  0.00    -0.379 OA
ATOM     23  H   UNL     1       6.136   1.045  -0.695  0.00  0.00    +0.211 HD
ENDBRANCH  21  22
ENDBRANCH  17  21
ENDBRANCH  16  17
ENDBRANCH  15  16
ENDBRANCH   2  15
TORSDOF 7
