REMARK  Name = 135398592
REMARK  4 active torsions:
REMARK  status: ('A' for Active; 'I' for Inactive)
REMARK    1  A    between atoms: N9_2  and  C1*_16
REMARK    2  A    between atoms: C3*_17  and  O3*_20
REMARK    3  A    between atoms: C4*_19  and  C5*_22
REMARK    4  A    between atoms: C5*_22  and  O5*_23
REMARK                            x       y       z     vdW  Elec       q    Type
REMARK                         _______ _______ _______ _____ _____    ______ ____
ROOT
ATOM      1  O6  G   A   1       4.160  -1.938  -0.313  0.00  0.00    -0.268 OA
ATOM      2  N9  G   A   1      -0.039  -0.320   0.091  0.00  0.00    -0.239 N 
ATOM      3  N7  G   A   1       1.200  -2.157  -0.215  0.00  0.00    -0.240 NA
ATOM      4  N3  G   A   1       1.694   1.363   0.246  0.00  0.00    -0.357 NA
ATOM      5  N1  G   A   1       3.855   0.354   0.014  0.00  0.00    -0.243 N 
ATOM      6  N2  G   A   1       3.640   2.675   0.341  0.00  0.00    -0.321 N 
ATOM      7  C4  G   A   1       1.261   0.092   0.091  0.00  0.00    +0.211 C 
ATOM      8  C8  G   A   1      -0.024  -1.681  -0.096  0.00  0.00    +0.224 C 
ATOM      9  C5  G   A   1       1.994  -1.055  -0.098  0.00  0.00    +0.176 C 
ATOM     10  C6  G   A   1       3.427  -0.971  -0.149  0.00  0.00    +0.273 C 
ATOM     11  C2  G   A   1       3.005   1.469   0.204  0.00  0.00    +0.239 C 
ATOM     12  H1  G   A   1       4.825   0.522  -0.005  0.00  0.00    +0.159 HD
ATOM     13  H21 G   A   1       3.114   3.497   0.476  0.00  0.00    +0.146 HD
ATOM     14  H22 G   A   1       4.623   2.721   0.305  0.00  0.00    +0.146 HD
ENDROOT
BRANCH   2  16
ATOM     15  O4* G   A   1      -2.332  -0.169   0.925  0.00  0.00    -0.335 OA
ATOM     16  C1* G   A   1      -1.267   0.538   0.261  0.00  0.00    +0.198 C 
ATOM     17  C3* G   A   1      -3.290   1.268  -0.711  0.00  0.00    +0.144 C 
ATOM     18  C2* G   A   1      -1.840   1.032  -1.063  0.00  0.00    +0.083 C 
ATOM     19  C4* G   A   1      -3.584   0.156   0.288  0.00  0.00    +0.173 C 
BRANCH  17  20
ATOM     20  O3* G   A   1      -3.398   2.534  -0.063  0.00  0.00    -0.382 OA
ATOM     21  H3* G   A   1      -3.210   3.240  -0.701  0.00  0.00    +0.210 HD
ENDBRANCH  17  20
BRANCH  19  22
ATOM     22  C5* G   A   1      -4.115  -1.107  -0.377  0.00  0.00    +0.169 C 
BRANCH  22  23
ATOM     23  O5* G   A   1      -4.348  -2.083   0.624  0.00  0.00    -0.379 OA
ATOM     24  H5* G   A   1      -4.686  -2.893   0.213  0.00  0.00    +0.211 HD
ENDBRANCH  22  23
ENDBRANCH  19  22
ENDBRANCH   2  16
TORSDOF 4
