135398597
  -OEChem-03292013293D

 37 39  0     1  0  0  0  0  0999 V2000
   -4.7629   -1.3722    0.1680 P   0  0  0  0  0  0  0  0  0  0  0  0
   -1.2094    0.9356    0.9419 O   0  0  0  0  0  0  0  0  0  0  0  0
   -1.3215    3.8484   -0.0155 O   0  0  0  0  0  0  0  0  0  0  0  0
   -3.7452   -0.2006    0.6298 O   0  0  0  0  0  0  0  0  0  0  0  0
   -3.9442   -2.1599   -0.9829 O   0  0  0  0  0  0  0  0  0  0  0  0
   -5.8901   -0.5647   -0.6640 O   0  0  0  0  0  0  0  0  0  0  0  0
    4.3315   -2.8691   -0.3372 O   0  0  0  0  0  0  0  0  0  0  0  0
   -5.2896   -2.2293    1.2816 O   0  0  0  0  0  0  0  0  0  0  0  0
    0.9043    0.0430    0.0980 N   0  0  0  0  0  0  0  0  0  0  0  0
    1.4651   -2.0971   -0.2299 N   0  0  0  0  0  0  0  0  0  0  0  0
    3.0964    1.0560    0.2637 N   0  0  0  0  0  0  0  0  0  0  0  0
    4.8014   -0.6087    0.0140 N   0  0  0  0  0  0  0  0  0  0  0  0
    5.3675    1.6496    0.3647 N   0  0  0  0  0  0  0  0  0  0  0  0
   -1.6387    2.6252   -0.6755 C   0  0  2  0  0  0  0  0  0  0  0  0
    0.0290    1.2571    0.2812 C   0  0  1  0  0  0  0  0  0  0  0  0
   -2.2843    1.6629    0.3132 C   0  0  1  0  0  0  0  0  0  0  0  0
   -0.3484    1.9266   -1.0357 C   0  0  0  0  0  0  0  0  0  0  0  0
   -3.2028    0.6533   -0.3620 C   0  0  0  0  0  0  0  0  0  0  0  0
    2.2675    0.0018    0.0974 C   0  0  0  0  0  0  0  0  0  0  0  0
    0.4677   -1.2438   -0.1026 C   0  0  0  0  0  0  0  0  0  0  0  0
    2.5792   -1.3209   -0.1054 C   0  0  0  0  0  0  0  0  0  0  0  0
    3.9594   -1.7159   -0.1605 C   0  0  0  0  0  0  0  0  0  0  0  0
    4.3682    0.7229    0.2177 C   0  0  0  0  0  0  0  0  0  0  0  0
    0.5871    1.9338    0.9390 H   0  0  0  0  0  0  0  0  0  0  0  0
   -2.2597    2.8612   -1.5443 H   0  0  0  0  0  0  0  0  0  0  0  0
   -2.8241    2.1842    1.1116 H   0  0  0  0  0  0  0  0  0  0  0  0
   -0.5309    1.1765   -1.8143 H   0  0  0  0  0  0  0  0  0  0  0  0
    0.4407    2.6006   -1.3831 H   0  0  0  0  0  0  0  0  0  0  0  0
   -2.6461    0.0437   -1.0807 H   0  0  0  0  0  0  0  0  0  0  0  0
   -4.0137    1.1711   -0.8835 H   0  0  0  0  0  0  0  0  0  0  0  0
   -2.1610    4.2593    0.2528 H   0  0  0  0  0  0  0  0  0  0  0  0
   -0.5825   -1.4980   -0.1496 H   0  0  0  0  0  0  0  0  0  0  0  0
    5.8032   -0.7765   -0.0078 H   0  0  0  0  0  0  0  0  0  0  0  0
    5.1562    2.6301    0.5150 H   0  0  0  0  0  0  0  0  0  0  0  0
    6.3453    1.3834    0.3275 H   0  0  0  0  0  0  0  0  0  0  0  0
   -4.3363   -2.9691   -1.3748 H   0  0  0  0  0  0  0  0  0  0  0  0
   -6.6834   -1.0473   -0.9801 H   0  0  0  0  0  0  0  0  0  0  0  0
  1  4  1  0  0  0  0
  1  5  1  0  0  0  0
  1  6  1  0  0  0  0
  1  8  2  0  0  0  0
  2 15  1  0  0  0  0
  2 16  1  0  0  0  0
  3 14  1  0  0  0  0
  3 31  1  0  0  0  0
  4 18  1  0  0  0  0
  5 36  1  0  0  0  0
  6 37  1  0  0  0  0
  7 22  2  0  0  0  0
  9 15  1  0  0  0  0
  9 19  1  0  0  0  0
  9 20  1  0  0  0  0
 10 20  2  0  0  0  0
 10 21  1  0  0  0  0
 11 19  1  0  0  0  0
 11 23  2  0  0  0  0
 12 22  1  0  0  0  0
 12 23  1  0  0  0  0
 12 33  1  0  0  0  0
 13 23  1  0  0  0  0
 13 34  1  0  0  0  0
 13 35  1  0  0  0  0
 14 16  1  0  0  0  0
 14 17  1  0  0  0  0
 14 25  1  0  0  0  0
 15 17  1  0  0  0  0
 15 24  1  0  0  0  0
 16 18  1  0  0  0  0
 16 26  1  0  0  0  0
 17 27  1  0  0  0  0
 17 28  1  0  0  0  0
 18 29  1  0  0  0  0
 18 30  1  0  0  0  0
 19 21  2  0  0  0  0
 20 32  1  0  0  0  0
 21 22  1  0  0  0  0
M  END
> <PUBCHEM_COMPOUND_CID>
135398597

> <PUBCHEM_CONFORMER_RMSD>
0.8

> <PUBCHEM_CONFORMER_DIVERSEORDER>
1
50
40
29
49
11
5
18
17
30
39
44
12
45
2
37
27
19
51
42
7
21
4
28
35
8
41
26
46
31
13
43
47
32
34
25
52
36
24
16
22
6
15
48
14
3
10
9
23
38
33
20

> <PUBCHEM_MMFF94_PARTIAL_CHARGES>
29
1 1.51
10 -0.57
11 -0.58
12 -0.49
13 -0.85
14 0.28
15 0.54
16 0.28
18 0.28
19 -0.03
2 -0.56
20 0.04
21 0.14
22 0.72
23 0.56
3 -0.68
31 0.4
32 0.15
33 0.37
34 0.4
35 0.4
36 0.5
37 0.5
4 -0.55
5 -0.77
6 -0.77
7 -0.57
8 -0.7
9 0.05

> <PUBCHEM_EFFECTIVE_ROTOR_COUNT>
5

> <PUBCHEM_PHARMACOPHORE_FEATURES>
14
1 12 donor
1 13 donor
1 2 acceptor
1 3 acceptor
1 3 donor
1 5 acceptor
1 6 acceptor
1 7 acceptor
1 8 acceptor
3 9 10 20 cation
4 1 5 6 8 anion
5 2 14 15 16 17 rings
5 9 10 19 20 21 rings
6 11 12 19 21 22 23 rings

> <PUBCHEM_HEAVY_ATOM_COUNT>
23

> <PUBCHEM_ATOM_DEF_STEREO_COUNT>
3

> <PUBCHEM_ATOM_UDEF_STEREO_COUNT>
0

> <PUBCHEM_BOND_DEF_STEREO_COUNT>
0

> <PUBCHEM_BOND_UDEF_STEREO_COUNT>
0

> <PUBCHEM_ISOTOPIC_ATOM_COUNT>
0

> <PUBCHEM_COMPONENT_COUNT>
1

> <PUBCHEM_CACTVS_TAUTO_COUNT>
-1

> <PUBCHEM_CONFORMER_ID>
081204C500000001

> <PUBCHEM_MMFF94_ENERGY>
15.8097

> <PUBCHEM_FEATURE_SELFOVERLAP>
71.262

> <PUBCHEM_SHAPE_FINGERPRINT>
11806522 49 18408605872280909605
12403259 226 18338232653301386576
12403260 363 18261109613578569008
12623949 98 18059872644086798014
12916754 54 18268994198217811120
13004483 165 18338224982515825367
13544653 18 18409453600499678745
14787075 74 18335138751791874752
14790565 3 17400924592395436125
15196674 1 18411982429624350907
15352361 1 18409168831430913979
15927050 60 17331686154855830804
17349148 13 17530972362569553312
17492 89 18339078164700216178
19141452 34 18339368444697312105
19591789 44 18339923702074168814
20261772 1 18131629006382621887
20286276 3 18195816158923652428
21065198 57 18122344575821392936
21673915 165 18412544322873347110
221490 88 18340207367531452262
22393880 68 18043244639608495918
23402539 116 18040713666967932993
23557571 272 18261387819684630525
23559900 14 18266170635214931304
2871803 45 18334290938179928011
314194 84 18269275823713575303
350125 39 18413107260791212050
4325135 7 18341894112662439084
46194498 28 17459743912638045047
474229 33 18411135874543505402
5104073 3 18342173307027217072
5283173 99 17969209063260897565
59554788 248 17631726050509281500
9709674 26 18053663568748579063

> <PUBCHEM_SHAPE_MULTIPOLES>
411.19
11.7
3.33
0.84
2.85
1.07
0
-6.59
-0.71
0.94
0.31
0.64
-0.04
0.83

> <PUBCHEM_SHAPE_SELFOVERLAP>
868.335

> <PUBCHEM_SHAPE_VOLUME>
233.1

> <PUBCHEM_COORDINATE_TYPE>
2
5
10

$$$$
