REMARK  Name = 135459780
REMARK  5 active torsions:
REMARK  status: ('A' for Active; 'I' for Inactive)
REMARK    1  A    between atoms: C_1  and  N_7
REMARK    2  A    between atoms: C_2  and  O_17
REMARK    3  A    between atoms: C_3  and  O_19
REMARK    4  A    between atoms: C_4  and  C_21
REMARK    5  A    between atoms: C_21  and  O_22
REMARK                            x       y       z     vdW  Elec       q    Type
REMARK                         _______ _______ _______ _____ _____    ______ ____
ROOT
ATOM      1  C   UNL     1      -0.847   0.789   0.290  0.00  0.00    +0.105 C 
ATOM      2  C   UNL     1      -1.778   1.119  -0.900  0.00  0.00    +0.155 C 
ATOM      3  C   UNL     1      -2.962   0.139  -0.802  0.00  0.00    +0.141 C 
ATOM      4  C   UNL     1      -2.925  -0.292   0.634  0.00  0.00    +0.060 C 
ATOM      5  C   UNL     1      -1.767   0.044   1.217  0.00  0.00    +0.027 C 
ENDROOT
BRANCH   1   7
ATOM      6  O   UNL     1       4.632  -1.500  -0.604  0.00  0.00    -0.268 OA
ATOM      7  N   UNL     1       0.402   0.003  -0.049  0.00  0.00    -0.271 N 
ATOM      8  N   UNL     1       1.674  -1.660  -0.837  0.00  0.00    -0.241 NA
ATOM      9  N   UNL     1       2.109   1.495   0.809  0.00  0.00    -0.232 NA
ATOM     10  N   UNL     1       4.295   0.560   0.442  0.00  0.00    -0.279 N 
ATOM     11  C   UNL     1       1.694   0.359   0.202  0.00  0.00    +0.152 C 
ATOM     12  C   UNL     1       0.442  -1.219  -0.675  0.00  0.00    +0.221 C 
ATOM     13  C   UNL     1       2.450  -0.679  -0.293  0.00  0.00    +0.162 C 
ATOM     14  C   UNL     1       3.885  -0.623  -0.188  0.00  0.00    +0.267 C 
ATOM     15  C   UNL     1       3.407   1.541   0.900  0.00  0.00    +0.220 C 
ATOM     16  H   UNL     1       5.259   0.710   0.569  0.00  0.00    +0.152 HD
ENDBRANCH   1   7
BRANCH   2  17
ATOM     17  O   UNL     1      -2.222   2.473  -0.775  0.00  0.00    -0.380 OA
ATOM     18  H   UNL     1      -1.460   3.070  -0.840  0.00  0.00    +0.211 HD
ENDBRANCH   2  17
BRANCH   3  19
ATOM     19  O   UNL     1      -4.181   0.766  -1.157  0.00  0.00    -0.382 OA
ATOM     20  H   UNL     1      -4.151   1.024  -2.092  0.00  0.00    +0.210 HD
ENDBRANCH   3  19
BRANCH   4  21
ATOM     21  C   UNL     1      -4.035  -1.060   1.257  0.00  0.00    +0.140 C 
BRANCH  21  22
ATOM     22  O   UNL     1      -4.274  -2.256   0.529  0.00  0.00    -0.382 OA
ATOM     23  H   UNL     1      -4.999  -2.748   0.945  0.00  0.00    +0.210 HD
ENDBRANCH  21  22
ENDBRANCH   4  21
TORSDOF 5
