REMARK  Name = 135469150
REMARK  2 active torsions:
REMARK  status: ('A' for Active; 'I' for Inactive)
REMARK    1  A    between atoms: C_17  and  O_29
REMARK    2  A    between atoms: C_18  and  O_31
REMARK                            x       y       z     vdW  Elec       q    Type
REMARK                         _______ _______ _______ _____ _____    ______ ____
ROOT
ATOM      1  O   UNL     1       2.541   3.416   0.207  0.00  0.00    -0.347 OA
ATOM      2  O   UNL     1      -0.192   3.973  -0.232  0.00  0.00    -0.347 OA
ATOM      3  O   UNL     1      -2.598   2.544  -0.043  0.00  0.00    -0.470 OA
ATOM      4  O   UNL     1       3.089   0.636   0.483  0.00  0.00    -0.470 OA
ATOM      5  N   UNL     1       0.113  -3.411   0.129  0.00  0.00    -0.211 NA
ATOM      6  N   UNL     1      -2.531  -3.179   1.362  0.00  0.00    -0.267 NA
ATOM      7  C   UNL     1       1.872   4.488   0.870  0.00  0.00    +0.174 C 
ATOM      8  C   UNL     1       0.766   5.013  -0.031  0.00  0.00    +0.174 C 
ATOM      9  C   UNL     1       3.616   2.900   0.994  0.00  0.00    +0.189 C 
ATOM     10  C   UNL     1      -1.396   4.466  -0.819  0.00  0.00    +0.189 C 
ATOM     11  C   UNL     1       4.119   1.618   0.342  0.00  0.00    +0.237 C 
ATOM     12  C   UNL     1      -2.265   3.282  -1.223  0.00  0.00    +0.237 C 
ATOM     13  C   UNL     1      -3.141   1.306  -0.271  0.00  0.00    +0.172 C 
ATOM     14  C   UNL     1       3.329  -0.606  -0.040  0.00  0.00    +0.172 C 
ATOM     15  C   UNL     1      -3.327  -0.974   0.513  0.00  0.00    +0.055 C 
ATOM     16  C   UNL     1       2.373  -2.798  -0.447  0.00  0.00    +0.032 C 
ATOM     17  C   UNL     1       2.253  -1.497   0.052  0.00  0.00    +0.165 C 
ATOM     18  C   UNL     1      -2.826   0.321   0.670  0.00  0.00    +0.169 C 
ATOM     19  C   UNL     1       4.523  -1.029  -0.630  0.00  0.00    +0.040 C 
ATOM     20  C   UNL     1      -3.997   1.001  -1.333  0.00  0.00    +0.040 C 
ATOM     21  C   UNL     1      -4.197  -1.277  -0.534  0.00  0.00    +0.005 C 
ATOM     22  C   UNL     1       3.565  -3.220  -1.034  0.00  0.00    +0.000 C 
ATOM     23  C   UNL     1      -2.282  -3.759   0.048  0.00  0.00    +0.144 C 
ATOM     24  C   UNL     1      -0.918  -4.450   0.068  0.00  0.00    +0.115 C 
ATOM     25  C   UNL     1      -4.525  -0.287  -1.459  0.00  0.00    +0.003 C 
ATOM     26  C   UNL     1       4.638  -2.333  -1.123  0.00  0.00    +0.003 C 
ATOM     27  C   UNL     1       1.246  -3.744  -0.385  0.00  0.00    +0.118 C 
ATOM     28  C   UNL     1      -2.954  -1.975   1.524  0.00  0.00    +0.096 C 
ENDROOT
BRANCH  17  29
ATOM     29  O   UNL     1       1.100  -1.050   0.634  0.00  0.00    -0.503 OA
ATOM     30  H   UNL     1       1.050  -0.172   0.959  0.00  0.00    +0.292 HD
ENDBRANCH  17  29
BRANCH  18  31
ATOM     31  O   UNL     1      -1.995   0.625   1.709  0.00  0.00    -0.503 OA
ATOM     32  H   UNL     1      -1.665   1.497   1.805  0.00  0.00    +0.292 HD
ENDBRANCH  18  31
TORSDOF 2
