REMARK  Name = 135403659
REMARK  4 active torsions:
REMARK  status: ('A' for Active; 'I' for Inactive)
REMARK    1  A    between atoms: C_7  and  C_16
REMARK    2  A    between atoms: C_16  and  O_17
REMARK    3  A    between atoms: C_16  and  C_19
REMARK    4  A    between atoms: C_19  and  O_21
REMARK                            x       y       z     vdW  Elec       q    Type
REMARK                         _______ _______ _______ _____ _____    ______ ____
ROOT
ATOM      1  O   UNL     1       1.050   2.562   0.313  0.00  0.00    -0.266 OA
ATOM      2  N   UNL     1      -0.632   0.425   0.324  0.00  0.00    -0.390 NA
ATOM      3  N   UNL     1       0.531  -2.110  -0.023  0.00  0.00    -0.200 NA
ATOM      4  N   UNL     1       2.885   1.184  -0.014  0.00  0.00    -0.241 N 
ATOM      5  N   UNL     1       2.666  -1.157  -0.188  0.00  0.00    -0.318 NA
ATOM      6  N   UNL     1       4.778  -0.150  -0.345  0.00  0.00    -0.320 N 
ATOM      7  C   UNL     1      -1.369  -0.702   0.313  0.00  0.00    +0.142 C 
ATOM      8  C   UNL     1       0.693   0.248   0.158  0.00  0.00    +0.257 C 
ATOM      9  C   UNL     1      -0.798  -1.945   0.143  0.00  0.00    +0.194 C 
ATOM     10  C   UNL     1       1.283  -0.990  -0.015  0.00  0.00    +0.121 C 
ATOM     11  C   UNL     1       1.536   1.448   0.163  0.00  0.00    +0.293 C 
ATOM     12  C   UNL     1       3.419  -0.091  -0.184  0.00  0.00    +0.248 C 
ATOM     13  H   UNL     1       3.506   1.947  -0.020  0.00  0.00    +0.159 HD
ATOM     14  H   UNL     1       5.311   0.678  -0.336  0.00  0.00    +0.146 HD
ATOM     15  H   UNL     1       5.222  -1.020  -0.470  0.00  0.00    +0.146 HD
ENDROOT
BRANCH   7  16
ATOM     16  C   UNL     1      -2.841  -0.565   0.493  0.00  0.00    +0.187 C 
BRANCH  16  17
ATOM     17  O   UNL     1      -3.131  -0.055   1.806  0.00  0.00    -0.376 OA
ATOM     18  H   UNL     1      -4.091   0.031   1.914  0.00  0.00    +0.211 HD
ENDBRANCH  16  17
BRANCH  16  19
ATOM     19  C   UNL     1      -3.571   0.339  -0.534  0.00  0.00    +0.144 C 
ATOM     20  C   UNL     1      -3.393  -0.124  -1.974  0.00  0.00    +0.035 C 
BRANCH  19  21
ATOM     21  O   UNL     1      -3.106   1.684  -0.436  0.00  0.00    -0.382 OA
ATOM     22  H   UNL     1      -3.212   1.997   0.476  0.00  0.00    +0.210 HD
ENDBRANCH  19  21
ENDBRANCH  16  19
ENDBRANCH   7  16
TORSDOF 4
