REMARK  Name = 135464322
REMARK  9 active torsions:
REMARK  status: ('A' for Active; 'I' for Inactive)
REMARK    1  A    between atoms: C_2  and  C_21
REMARK    2  A    between atoms: C_3  and  O_17
REMARK    3  A    between atoms: C_4  and  O_19
REMARK    4  A    between atoms: C_5  and  N_7
REMARK    5  A    between atoms: C_21  and  C_22
REMARK    6  A    between atoms: C_22  and  C_24
REMARK    7  A    between atoms: C_24  and  C_25
REMARK    8  A    between atoms: C_28  and  C_32
REMARK    9  A    between atoms: C_32  and  O_33
REMARK                            x       y       z     vdW  Elec       q    Type
REMARK                         _______ _______ _______ _____ _____    ______ ____
ROOT
ATOM      1  O   UNL     1       2.152   1.496   1.044  0.00  0.00    -0.335 OA
ATOM      2  C   UNL     1       1.694   2.657   0.315  0.00  0.00    +0.147 C 
ATOM      3  C   UNL     1       2.880   3.142  -0.508  0.00  0.00    +0.168 C 
ATOM      4  C   UNL     1       3.641   1.856  -0.760  0.00  0.00    +0.187 C 
ATOM      5  C   UNL     1       3.457   1.115   0.561  0.00  0.00    +0.225 C 
ENDROOT
BRANCH   5   7
ATOM      6  O   UNL     1       2.880  -4.805  -0.226  0.00  0.00    -0.268 OA
ATOM      7  N   UNL     1       3.578  -0.383   0.418  0.00  0.00    -0.247 N 
ATOM      8  N   UNL     1       4.525  -2.410   0.397  0.00  0.00    -0.241 NA
ATOM      9  N   UNL     1       1.291  -0.958  -0.143  0.00  0.00    -0.232 NA
ATOM     10  N   UNL     1       1.082  -3.334  -0.455  0.00  0.00    -0.279 N 
ATOM     11  C   UNL     1       2.586  -1.264   0.104  0.00  0.00    +0.154 C 
ATOM     12  C   UNL     1       4.725  -1.120   0.585  0.00  0.00    +0.223 C 
ATOM     13  C   UNL     1       3.197  -2.497   0.099  0.00  0.00    +0.162 C 
ATOM     14  C   UNL     1       2.419  -3.671  -0.202  0.00  0.00    +0.267 C 
ATOM     15  C   UNL     1       0.593  -2.023  -0.414  0.00  0.00    +0.220 C 
ATOM     16  H   UNL     1       0.452  -4.059  -0.673  0.00  0.00    +0.152 HD
ENDBRANCH   5   7
BRANCH   3  17
ATOM     17  O   UNL     1       3.650   4.024   0.306  0.00  0.00    -0.379 OA
ATOM     18  H   UNL     1       3.151   4.842   0.459  0.00  0.00    +0.211 HD
ENDBRANCH   3  17
BRANCH   4  19
ATOM     19  O   UNL     1       4.999   2.072  -1.087  0.00  0.00    -0.378 OA
ATOM     20  H   UNL     1       5.057   2.544  -1.932  0.00  0.00    +0.211 HD
ENDBRANCH   4  19
BRANCH   2  21
ATOM     21  C   UNL     1       0.503   2.244  -0.539  0.00  0.00    +0.040 C 
BRANCH  21  22
ATOM     22  C   UNL     1      -0.647   1.725   0.322  0.00  0.00    +0.072 C 
BRANCH  22  24
ATOM     23  O   UNL     1      -1.826   1.340  -1.745  0.00  0.00    -0.291 OA
ATOM     24  C   UNL     1      -1.836   1.281  -0.518  0.00  0.00    +0.173 C 
BRANCH  24  25
ATOM     25  C   UNL     1      -3.050   0.760   0.177  0.00  0.00    +0.035 C 
ATOM     26  C   UNL     1      -4.156   0.347  -0.566  0.00  0.00    +0.009 C 
ATOM     27  C   UNL     1      -3.079   0.687   1.570  0.00  0.00    +0.003 C 
ATOM     28  C   UNL     1      -5.290  -0.139   0.084  0.00  0.00    +0.076 C 
ATOM     29  C   UNL     1      -4.213   0.201   2.220  0.00  0.00    +0.000 C 
ATOM     30  C   UNL     1      -5.319  -0.212   1.477  0.00  0.00    +0.006 C 
BRANCH  28  32
ATOM     31  O   UNL     1      -6.528  -0.548  -1.922  0.00  0.00    -0.245 OA
ATOM     32  C   UNL     1      -6.444  -0.569  -0.690  0.00  0.00    +0.338 C 
BRANCH  32  33
ATOM     33  O   UNL     1      -7.463  -1.013   0.097  0.00  0.00    -0.477 OA
ATOM     34  H   UNL     1      -7.368  -1.015   1.029  0.00  0.00    +0.295 HD
ENDBRANCH  32  33
ENDBRANCH  28  32
ENDBRANCH  24  25
ENDBRANCH  22  24
ENDBRANCH  21  22
ENDBRANCH   2  21
TORSDOF 9
