REMARK  Name = 135451582
REMARK  1 active torsions:
REMARK  status: ('A' for Active; 'I' for Inactive)
REMARK    1  A    between atoms: C_8  and  C_13
REMARK                            x       y       z     vdW  Elec       q    Type
REMARK                         _______ _______ _______ _____ _____    ______ ____
ROOT
ATOM      1  O   UNL     1      -4.301   0.637   0.198  0.00  0.00    -0.269 OA
ATOM      2  N   UNL     1      -2.545   2.043   0.295  0.00  0.00    -0.300 N 
ATOM      3  N   UNL     1      -2.737  -1.652   0.009  0.00  0.00    -0.308 N 
ATOM      4  C   UNL     1       0.186   0.468  -0.328  0.00  0.00    +0.082 C 
ATOM      5  C   UNL     1      -0.295   1.844  -0.704  0.00  0.00    +0.033 C 
ATOM      6  C   UNL     1      -0.826  -0.546  -0.215  0.00  0.00    +0.004 C 
ATOM      7  C   UNL     1      -1.155   2.441   0.396  0.00  0.00    +0.091 C 
ATOM      8  C   UNL     1      -2.195  -0.376  -0.008  0.00  0.00    +0.099 C 
ATOM      9  C   UNL     1      -3.074   0.772   0.165  0.00  0.00    +0.259 C 
ATOM     10  C   UNL     1      -0.580  -1.952  -0.309  0.00  0.00    +0.013 C 
ATOM     11  C   UNL     1      -1.778  -2.603  -0.166  0.00  0.00    +0.062 C 
ATOM     12  H   UNL     1      -3.201   2.776   0.322  0.00  0.00    +0.150 HD
ATOM     13  H   UNL     1      -3.695  -1.845   0.131  0.00  0.00    +0.152 HD
ENDROOT
BRANCH   4  18
ATOM     14  O   UNL     1       1.431  -2.118   0.384  0.00  0.00    -0.267 OA
ATOM     15  N   UNL     1       2.500   1.174  -0.228  0.00  0.00    -0.373 NA
ATOM     16  N   UNL     1       3.377  -0.814   0.310  0.00  0.00    -0.242 N 
ATOM     17  N   UNL     1       4.862   1.003   0.072  0.00  0.00    -0.321 N 
ATOM     18  C   UNL     1       1.498   0.247  -0.133  0.00  0.00    +0.169 C 
ATOM     19  C   UNL     1       2.039  -1.079   0.221  0.00  0.00    +0.278 C 
ATOM     20  C   UNL     1       3.591   0.510   0.040  0.00  0.00    +0.238 C 
ATOM     21  H   UNL     1       4.076  -1.471   0.533  0.00  0.00    +0.159 HD
ATOM     22  H   UNL     1       5.027   1.954  -0.121  0.00  0.00    +0.146 HD
ATOM     23  H   UNL     1       5.616   0.407   0.288  0.00  0.00    +0.146 HD
ENDBRANCH   4  18
TORSDOF 1
