135402053
  -OEChem-03292013293D

 58 60  0     1  0  0  0  0  0999 V2000
    3.3381   -2.8045   -1.1188 O   0  0  0  0  0  0  0  0  0  0  0  0
    6.4041   -0.3083    2.0082 O   0  0  0  0  0  0  0  0  0  0  0  0
    4.2668   -0.2061    2.7645 O   0  0  0  0  0  0  0  0  0  0  0  0
   -2.2085    2.8214    2.7428 O   0  0  0  0  0  0  0  0  0  0  0  0
    4.3827    3.8269   -1.3651 O   0  0  0  0  0  0  0  0  0  0  0  0
    5.6575    2.3280   -2.4942 O   0  0  0  0  0  0  0  0  0  0  0  0
   -2.9343   -2.6189   -0.0434 N   0  0  3  0  0  0  0  0  0  0  0  0
    3.2617   -1.0786    0.4278 N   0  0  0  0  0  0  0  0  0  0  0  0
   -3.3049    3.6432   -1.1066 N   0  0  0  0  0  0  0  0  0  0  0  0
   -2.4904    4.3074    0.9983 N   0  0  0  0  0  0  0  0  0  0  0  0
   -2.7434    5.8840   -0.7076 N   0  0  0  0  0  0  0  0  0  0  0  0
   -3.7309   -1.7280    0.7720 C   0  0  0  0  0  0  0  0  0  0  0  0
    4.6799   -0.8002    0.4388 C   0  0  1  0  0  0  0  0  0  0  0  0
   -3.6142   -0.3197    0.2944 C   0  0  0  0  0  0  0  0  0  0  0  0
   -1.5427   -2.4842   -0.1227 C   0  0  0  0  0  0  0  0  0  0  0  0
    5.0909    0.2225   -0.6272 C   0  0  0  0  0  0  0  0  0  0  0  0
   -3.1421    0.6709    1.1537 C   0  0  0  0  0  0  0  0  0  0  0  0
   -3.6145   -3.6794   -0.7858 C   0  0  0  0  0  0  0  0  0  0  0  0
    1.2296   -2.2161   -0.2784 C   0  0  0  0  0  0  0  0  0  0  0  0
   -3.0371    1.9873    0.6953 C   0  0  0  0  0  0  0  0  0  0  0  0
    4.4792    1.6218   -0.4823 C   0  0  0  0  0  0  0  0  0  0  0  0
   -3.9771    0.0042   -1.0121 C   0  0  0  0  0  0  0  0  0  0  0  0
   -0.8694   -2.8652   -1.2834 C   0  0  0  0  0  0  0  0  0  0  0  0
   -0.8300   -1.9693    0.9601 C   0  0  0  0  0  0  0  0  0  0  0  0
   -3.3979    2.3285   -0.6148 C   0  0  0  0  0  0  0  0  0  0  0  0
    2.6747   -2.0754   -0.3603 C   0  0  0  0  0  0  0  0  0  0  0  0
    0.5168   -2.7312   -1.3611 C   0  0  0  0  0  0  0  0  0  0  0  0
    0.5562   -1.8354    0.8823 C   0  0  0  0  0  0  0  0  0  0  0  0
   -3.8692    1.3212   -1.4638 C   0  0  0  0  0  0  0  0  0  0  0  0
    5.0575   -0.3985    1.8498 C   0  0  0  0  0  0  0  0  0  0  0  0
   -2.5408    3.0541    1.5865 C   0  0  0  0  0  0  0  0  0  0  0  0
    4.9063    2.5892   -1.5649 C   0  0  0  0  0  0  0  0  0  0  0  0
   -2.8654    4.5783   -0.3122 C   0  0  0  0  0  0  0  0  0  0  0  0
   -3.1027   -4.9949   -0.3941 C   0  0  0  0  0  0  0  0  0  0  0  0
   -2.6864   -6.0751   -0.0757 C   0  0  0  0  0  0  0  0  0  0  0  0
   -3.4669   -1.8280    1.8319 H   0  0  0  0  0  0  0  0  0  0  0  0
   -4.7950   -1.9977    0.7364 H   0  0  0  0  0  0  0  0  0  0  0  0
    5.1963   -1.7465    0.2336 H   0  0  0  0  0  0  0  0  0  0  0  0
    6.1843    0.3212   -0.6249 H   0  0  0  0  0  0  0  0  0  0  0  0
    4.8267   -0.1720   -1.6174 H   0  0  0  0  0  0  0  0  0  0  0  0
   -2.8621    0.4183    2.1730 H   0  0  0  0  0  0  0  0  0  0  0  0
    2.6728   -0.4549    0.9703 H   0  0  0  0  0  0  0  0  0  0  0  0
   -4.6934   -3.6595   -0.5887 H   0  0  0  0  0  0  0  0  0  0  0  0
   -3.5207   -3.5208   -1.8659 H   0  0  0  0  0  0  0  0  0  0  0  0
    4.7745    2.0523    0.4810 H   0  0  0  0  0  0  0  0  0  0  0  0
    3.3864    1.5519   -0.5163 H   0  0  0  0  0  0  0  0  0  0  0  0
   -4.3528   -0.7563   -1.6916 H   0  0  0  0  0  0  0  0  0  0  0  0
   -1.3857   -3.2496   -2.1574 H   0  0  0  0  0  0  0  0  0  0  0  0
   -1.3083   -1.6931    1.8942 H   0  0  0  0  0  0  0  0  0  0  0  0
    1.0220   -3.0249   -2.2776 H   0  0  0  0  0  0  0  0  0  0  0  0
    1.0761   -1.4648    1.7610 H   0  0  0  0  0  0  0  0  0  0  0  0
   -4.1580    1.5569   -2.4853 H   0  0  0  0  0  0  0  0  0  0  0  0
   -2.1562    5.0808    1.5657 H   0  0  0  0  0  0  0  0  0  0  0  0
    6.6483   -0.0636    2.9262 H   0  0  0  0  0  0  0  0  0  0  0  0
   -2.9941    6.1739   -1.6465 H   0  0  0  0  0  0  0  0  0  0  0  0
   -2.3997    6.5984   -0.0752 H   0  0  0  0  0  0  0  0  0  0  0  0
    4.6720    4.4617   -2.0547 H   0  0  0  0  0  0  0  0  0  0  0  0
   -2.3162   -7.0328    0.2068 H   0  0  0  0  0  0  0  0  0  0  0  0
  1 26  2  0  0  0  0
  2 30  1  0  0  0  0
  2 54  1  0  0  0  0
  3 30  2  0  0  0  0
  4 31  2  0  0  0  0
  5 32  1  0  0  0  0
  5 57  1  0  0  0  0
  6 32  2  0  0  0  0
  7 12  1  0  0  0  0
  7 15  1  0  0  0  0
  7 18  1  0  0  0  0
  8 13  1  0  0  0  0
  8 26  1  0  0  0  0
  8 42  1  0  0  0  0
  9 25  1  0  0  0  0
  9 33  2  0  0  0  0
 10 31  1  0  0  0  0
 10 33  1  0  0  0  0
 10 53  1  0  0  0  0
 11 33  1  0  0  0  0
 11 55  1  0  0  0  0
 11 56  1  0  0  0  0
 12 14  1  0  0  0  0
 12 36  1  0  0  0  0
 12 37  1  0  0  0  0
 13 16  1  0  0  0  0
 13 30  1  0  0  0  0
 13 38  1  0  0  0  0
 14 17  2  0  0  0  0
 14 22  1  0  0  0  0
 15 23  2  0  0  0  0
 15 24  1  0  0  0  0
 16 21  1  0  0  0  0
 16 39  1  0  0  0  0
 16 40  1  0  0  0  0
 17 20  1  0  0  0  0
 17 41  1  0  0  0  0
 18 34  1  0  0  0  0
 18 43  1  0  0  0  0
 18 44  1  0  0  0  0
 19 26  1  0  0  0  0
 19 27  2  0  0  0  0
 19 28  1  0  0  0  0
 20 25  2  0  0  0  0
 20 31  1  0  0  0  0
 21 32  1  0  0  0  0
 21 45  1  0  0  0  0
 21 46  1  0  0  0  0
 22 29  2  0  0  0  0
 22 47  1  0  0  0  0
 23 27  1  0  0  0  0
 23 48  1  0  0  0  0
 24 28  2  0  0  0  0
 24 49  1  0  0  0  0
 25 29  1  0  0  0  0
 27 50  1  0  0  0  0
 28 51  1  0  0  0  0
 29 52  1  0  0  0  0
 34 35  3  0  0  0  0
 35 58  1  0  0  0  0
M  END
> <PUBCHEM_COMPOUND_CID>
135402053

> <PUBCHEM_CONFORMER_RMSD>
1.2

> <PUBCHEM_CONFORMER_DIVERSEORDER>
1
145
101
53
173
80
96
176
99
66
100
87
222
119
203
20
160
75
116
186
161
141
148
163
125
185
121
112
217
219
150
127
211
194
190
4
152
147
212
131
204
124
95
82
136
38
192
104
149
172
89
183
123
35
158
175
46
81
36
129
56
27
59
206
64
177
209
140
60
69
93
137
21
109
49
72
88
207
73
113
220
105
155
78
110
210
200
108
182
90
91
205
117
120
157
41
118
133
39
29
208
19
167
111
5
79
30
102
40
11
14
199
44
170
51
71
215
153
37
191
162
184
159
12
213
138
15
84
171
187
63
33
61
128
47
67
50
144
70
135
202
201
196
25
174
2
57
106
178
188
179
164
195
42
32
143
65
85
48
151
92
168
86
55
77
146
166
156
6
17
165
122
139
107
169
214
13
114
97
26
189
16
132
221
3
218
76
181
134
28
98
62
197
52
193
180
198
54
103
23
9
24
216
74
43
8
45
126
83
7
34
115
154
10
18
94
142
31
22
58
68
130

> <PUBCHEM_MMFF94_PARTIAL_CHARGES>
48
1 -0.57
10 -0.49
11 -0.85
12 0.51
13 0.36
14 -0.14
15 0.1
17 -0.15
18 0.57
19 0.09
2 -0.65
20 0.09
21 0.06
22 -0.15
23 -0.15
24 -0.15
25 0.18
26 0.54
27 -0.15
28 -0.15
29 -0.15
3 -0.57
30 0.66
31 0.54
32 0.66
33 0.56
34 -0.2
35 -0.18
4 -0.57
41 0.15
42 0.37
47 0.15
48 0.15
49 0.15
5 -0.65
50 0.15
51 0.15
52 0.15
53 0.37
54 0.5
55 0.4
56 0.4
57 0.5
58 0.18
6 -0.57
7 -0.84
8 -0.73
9 -0.63

> <PUBCHEM_EFFECTIVE_ROTOR_COUNT>
11

> <PUBCHEM_PHARMACOPHORE_FEATURES>
16
1 1 acceptor
1 10 donor
1 11 donor
1 2 acceptor
1 3 acceptor
1 35 hydrophobe
1 4 acceptor
1 5 acceptor
1 6 acceptor
1 7 cation
1 8 donor
3 2 3 30 anion
3 5 6 32 anion
6 14 17 20 22 25 29 rings
6 15 19 23 24 27 28 rings
6 9 10 20 25 31 33 rings

> <PUBCHEM_HEAVY_ATOM_COUNT>
35

> <PUBCHEM_ATOM_DEF_STEREO_COUNT>
0

> <PUBCHEM_ATOM_UDEF_STEREO_COUNT>
1

> <PUBCHEM_BOND_DEF_STEREO_COUNT>
0

> <PUBCHEM_BOND_UDEF_STEREO_COUNT>
0

> <PUBCHEM_ISOTOPIC_ATOM_COUNT>
0

> <PUBCHEM_COMPONENT_COUNT>
1

> <PUBCHEM_CACTVS_TAUTO_COUNT>
-1

> <PUBCHEM_CONFORMER_ID>
0812124500000001

> <PUBCHEM_MMFF94_ENERGY>
99.3805

> <PUBCHEM_FEATURE_SELFOVERLAP>
81.387

> <PUBCHEM_SHAPE_FINGERPRINT>
10670039 82 18198071472437272198
10937287 8 17980193094132743691
11059845 2 18050257325388091978
12107183 9 17974270050917498770
12788726 201 18193556890251906618
12978246 48 18410014299600573936
13627167 48 18192175852345293932
14251764 38 18336270041935349964
14784336 7 17472143250544789702
14950920 106 17312822675955718834
15001296 14 18267026244403763608
15320291 9 18335140869480719172
16067690 210 18189054359997319538
16708801 149 18337380527257685212
16988056 13 16320609845208399839
18393751 57 18337687317383522987
20764821 26 18127123302184326840
21033648 144 18059851740560153794
21133410 221 17268862070504775624
22956985 138 17039780141703690155
376196 1 17759802546929177195
4173938 77 16973662646165102281
4561138 5 17678431225403364491
508706 21 18200860829740708738
550186 7 18201726170998607430
550186 72 18194124246371846751
6036956 94 18261118490976329581
6371009 1 18337092493754851348
6608658 132 18195534915822565174
6700243 42 17769965646205416870
9981440 41 18193831536552513411

> <PUBCHEM_SHAPE_MULTIPOLES>
660.16
12.65
8.39
1.96
21.95
2.63
0.71
4.54
-0.48
-11.3
-1.97
2.08
1.23
-2.54

> <PUBCHEM_SHAPE_SELFOVERLAP>
1411.879

> <PUBCHEM_SHAPE_VOLUME>
361.2

> <PUBCHEM_COORDINATE_TYPE>
2
5
10

$$$$
