REMARK  Name = 135410910
REMARK  9 active torsions:
REMARK  status: ('A' for Active; 'I' for Inactive)
REMARK    1  A    between atoms: N_2  and  C_26
REMARK    2  A    between atoms: C_7  and  C_12
REMARK    3  A    between atoms: C_14  and  O_24
REMARK    4  A    between atoms: C_15  and  C_20
REMARK    5  A    between atoms: C_26  and  C_27
REMARK    6  A    between atoms: C_27  and  C_28
REMARK    7  A    between atoms: C_28  and  C_29
REMARK    8  A    between atoms: C_29  and  C_30
REMARK    9  A    between atoms: C_30  and  N_31
REMARK                            x       y       z     vdW  Elec       q    Type
REMARK                         _______ _______ _______ _____ _____    ______ ____
ROOT
ATOM      1  O   UNL     1       1.625   0.103   2.102  0.00  0.00    -0.267 OA
ATOM      2  N   UNL     1       0.935  -1.949   1.237  0.00  0.00    -0.266 N 
ATOM      3  N   UNL     1       2.854  -1.508  -0.785  0.00  0.00    -0.400 NA
ATOM      4  C   UNL     1       1.160  -2.946   0.249  0.00  0.00    +0.150 C 
ATOM      5  C   UNL     1       1.677  -0.771   1.245  0.00  0.00    +0.279 C 
ATOM      6  C   UNL     1       2.131  -2.704  -0.729  0.00  0.00    +0.131 C 
ATOM      7  C   UNL     1       2.649  -0.585   0.098  0.00  0.00    +0.187 C 
ATOM      8  C   UNL     1       0.457  -4.162   0.229  0.00  0.00    +0.000 C 
ATOM      9  C   UNL     1       2.389  -3.675  -1.708  0.00  0.00    +0.030 C 
ATOM     10  C   UNL     1       0.721  -5.121  -0.751  0.00  0.00    -0.002 C 
ATOM     11  C   UNL     1       1.688  -4.878  -1.719  0.00  0.00    +0.002 C 
ENDROOT
BRANCH   7  12
ATOM     12  C   UNL     1       3.402   0.685  -0.023  0.00  0.00    +0.068 C 
ATOM     13  C   UNL     1       2.699   1.881  -0.169  0.00  0.00    +0.008 C 
ATOM     14  C   UNL     1       4.797   0.695   0.007  0.00  0.00    +0.136 C 
ATOM     15  C   UNL     1       3.390   3.087  -0.283  0.00  0.00    +0.031 C 
ATOM     16  C   UNL     1       5.488   1.901  -0.107  0.00  0.00    +0.037 C 
ATOM     17  C   UNL     1       4.785   3.097  -0.252  0.00  0.00    +0.006 C 
BRANCH  15  20
ATOM     18  N   UNL     1       3.321   5.554  -0.556  0.00  0.00    -0.343 N 
ATOM     19  N   UNL     1       1.337   4.322  -0.462  0.00  0.00    -0.285 NA
ATOM     20  C   UNL     1       2.658   4.334  -0.437  0.00  0.00    +0.117 C 
ATOM     21  H   UNL     1       2.805   6.386  -0.659  0.00  0.00    +0.144 HD
ATOM     22  H   UNL     1       4.304   5.584  -0.536  0.00  0.00    +0.144 HD
ATOM     23  H   UNL     1       0.839   5.165  -0.566  0.00  0.00    +0.188 HD
ENDBRANCH  15  20
BRANCH  14  24
ATOM     24  O   UNL     1       5.502  -0.463   0.149  0.00  0.00    -0.505 OA
ATOM     25  H   UNL     1       5.050  -1.280   0.227  0.00  0.00    +0.292 HD
ENDBRANCH  14  24
ENDBRANCH   7  12
BRANCH   2  26
ATOM     26  C   UNL     1      -0.053  -2.180   2.284  0.00  0.00    +0.094 C 
BRANCH  26  27
ATOM     27  C   UNL     1      -1.473  -1.990   1.766  0.00  0.00    +0.021 C 
BRANCH  27  28
ATOM     28  C   UNL     1      -1.690  -0.569   1.246  0.00  0.00    -0.000 C 
BRANCH  28  29
ATOM     29  C   UNL     1      -3.127  -0.366   0.760  0.00  0.00    -0.023 C 
BRANCH  29  30
ATOM     30  C   UNL     1      -3.330   1.044   0.207  0.00  0.00    -0.077 C 
BRANCH  30  31
ATOM     31  N   UNL     1      -4.716   1.220  -0.244  0.00  0.00    +0.390 N 
ATOM     32  C   UNL     1      -5.021   0.340  -1.405  0.00  0.00    -0.058 C 
ATOM     33  C   UNL     1      -5.678   0.994   0.868  0.00  0.00    -0.058 C 
ATOM     34  C   UNL     1      -7.127   1.222   0.399  0.00  0.00    -0.021 C 
ATOM     35  C   UNL     1      -6.462   0.560  -1.901  0.00  0.00    -0.021 C 
ATOM     36  C   UNL     1      -7.475   0.345  -0.791  0.00  0.00    -0.004 C 
ATOM     37  C   UNL     1      -4.081   0.569  -2.600  0.00  0.00    -0.023 C 
ATOM     38  C   UNL     1      -5.434   1.914   2.076  0.00  0.00    -0.023 C 
ATOM     39  H   UNL     1      -4.821   2.187  -0.552  0.00  0.00    -0.080 HD
ENDBRANCH  30  31
ENDBRANCH  29  30
ENDBRANCH  28  29
ENDBRANCH  27  28
ENDBRANCH  26  27
ENDBRANCH   2  26
TORSDOF 9
