REMARK  Name = 135400189
REMARK  8 active torsions:
REMARK  status: ('A' for Active; 'I' for Inactive)
REMARK    1  A    between atoms: C_1  and  S_22
REMARK    2  A    between atoms: C_4  and  C_12
REMARK    3  A    between atoms: C_5  and  O_34
REMARK    4  A    between atoms: C_14  and  C_19
REMARK    5  A    between atoms: C_19  and  C_20
REMARK    6  A    between atoms: S_22  and  N_25
REMARK    7  A    between atoms: N_26  and  C_32
REMARK    8  A    between atoms: O_34  and  C_35
REMARK                            x       y       z     vdW  Elec       q    Type
REMARK                         _______ _______ _______ _____ _____    ______ ____
ROOT
ATOM      1  C   UNL     1       2.003   1.556   0.978  0.00  0.00    +0.122 C 
ATOM      2  C   UNL     1       0.895   0.710   1.029  0.00  0.00    +0.026 C 
ATOM      3  C   UNL     1       2.032   2.614   0.069  0.00  0.00    +0.023 C 
ATOM      4  C   UNL     1      -0.184   0.922   0.171  0.00  0.00    +0.069 C 
ATOM      5  C   UNL     1      -0.156   1.979  -0.738  0.00  0.00    +0.141 C 
ATOM      6  C   UNL     1       0.952   2.825  -0.789  0.00  0.00    +0.038 C 
ENDROOT
BRANCH   4  12
ATOM      7  O   UNL     1      -1.854  -3.526  -0.180  0.00  0.00    -0.272 OA
ATOM      8  N   UNL     1      -3.524  -0.443   0.564  0.00  0.00    -0.173 N 
ATOM      9  N   UNL     1      -1.095  -1.348   0.002  0.00  0.00    -0.266 N 
ATOM     10  N   UNL     1      -2.535   0.488   0.528  0.00  0.00    -0.160 NA
ATOM     11  N   UNL     1      -5.540  -1.352   0.782  0.00  0.00    -0.396 NA
ATOM     12  C   UNL     1      -1.355   0.009   0.243  0.00  0.00    +0.155 C 
ATOM     13  C   UNL     1      -3.365  -1.787   0.335  0.00  0.00    +0.222 C 
ATOM     14  C   UNL     1      -4.849  -0.233   0.828  0.00  0.00    +0.179 C 
ATOM     15  C   UNL     1      -4.622  -2.326   0.475  0.00  0.00    +0.117 C 
ATOM     16  C   UNL     1      -2.077  -2.337   0.029  0.00  0.00    +0.254 C 
ATOM     17  C   UNL     1      -5.045  -3.729   0.341  0.00  0.00    +0.064 C 
ATOM     18  H   UNL     1      -0.170  -1.616  -0.197  0.00  0.00    +0.156 HD
BRANCH  14  19
ATOM     19  C   UNL     1      -5.388   1.110   1.123  0.00  0.00    +0.077 C 
BRANCH  19  20
ATOM     20  C   UNL     1      -6.129   1.731  -0.076  0.00  0.00    +0.009 C 
ATOM     21  C   UNL     1      -5.223   1.928  -1.280  0.00  0.00    +0.000 C 
ENDBRANCH  19  20
ENDBRANCH  14  19
ENDBRANCH   4  12
BRANCH   1  22
ATOM     22  S   UNL     1       3.369   1.289   2.064  0.00  0.00    +0.063 S 
ATOM     23  O   UNL     1       4.067   2.548   2.216  0.00  0.00    -0.153 OA
ATOM     24  O   UNL     1       2.886   0.561   3.217  0.00  0.00    -0.153 OA
BRANCH  22  25
ATOM     25  N   UNL     1       4.317   0.238   1.099  0.00  0.00    -0.160 NA
ATOM     26  N   UNL     1       5.356  -1.359  -1.054  0.00  0.00    +0.389 N 
ATOM     27  C   UNL     1       4.997   0.874  -0.065  0.00  0.00    +0.073 C 
ATOM     28  C   UNL     1       3.662  -1.044   0.714  0.00  0.00    +0.073 C 
ATOM     29  C   UNL     1       6.009  -0.103  -0.661  0.00  0.00    -0.058 C 
ATOM     30  C   UNL     1       4.701  -1.984   0.103  0.00  0.00    -0.058 C 
ATOM     31  H   UNL     1       4.642  -1.145  -1.751  0.00  0.00    -0.080 HD
BRANCH  26  32
ATOM     32  C   UNL     1       6.323  -2.276  -1.655  0.00  0.00    -0.077 C 
ATOM     33  C   UNL     1       5.649  -3.553  -2.129  0.00  0.00    -0.025 C 
ENDBRANCH  26  32
ENDBRANCH  22  25
ENDBRANCH   1  22
BRANCH   5  34
ATOM     34  O   UNL     1      -1.200   2.202  -1.585  0.00  0.00    -0.475 OA
BRANCH  34  35
ATOM     35  C   UNL     1      -0.921   2.149  -2.983  0.00  0.00    +0.206 C 
ATOM     36  C   UNL     1      -2.156   1.667  -3.714  0.00  0.00    +0.051 C 
ENDBRANCH  34  35
ENDBRANCH   5  34
TORSDOF 8
