135452876
  -OEChem-03292013293D

 66 69  0     1  0  0  0  0  0999 V2000
   -3.7901   -1.3022    1.3838 S   0  0  0  0  0  0  0  0  0  0  0  0
   -3.3517   -2.6808    1.3502 O   0  0  0  0  0  0  0  0  0  0  0  0
   -4.7581   -0.8511    2.3605 O   0  0  0  0  0  0  0  0  0  0  0  0
    1.0028    2.1335    1.8791 O   0  0  0  0  0  0  0  0  0  0  0  0
    2.8173   -3.7592    0.5634 O   0  0  0  0  0  0  0  0  0  0  0  0
   -4.3239   -0.8473   -0.1789 N   0  0  0  0  0  0  0  0  0  0  0  0
   -4.6497    0.4284   -2.7283 N   0  0  0  0  0  0  0  0  0  0  0  0
    1.4990   -1.8696    0.8571 N   0  0  0  0  0  0  0  0  0  0  0  0
    2.2290    0.3578    0.2947 N   0  0  0  0  0  0  0  0  0  0  0  0
    4.8844   -1.8108   -0.5160 N   0  0  0  0  0  0  0  0  0  0  0  0
    5.4892   -0.6636   -0.8979 N   0  0  0  0  0  0  0  0  0  0  0  0
   -4.0629   -0.9139   -2.6328 C   0  0  2  0  0  0  0  0  0  0  0  0
   -5.6098    0.6673   -1.6435 C   0  0  1  0  0  0  0  0  0  0  0  0
   -3.3554   -1.0973   -1.2857 C   0  0  0  0  0  0  0  0  0  0  0  0
   -4.9289    0.5127   -0.2794 C   0  0  0  0  0  0  0  0  0  0  0  0
   -6.1954    2.0695   -1.7943 C   0  0  0  0  0  0  0  0  0  0  0  0
   -3.0809   -1.1126   -3.7851 C   0  0  0  0  0  0  0  0  0  0  0  0
   -2.3565   -0.2825    1.5289 C   0  0  0  0  0  0  0  0  0  0  0  0
   -1.1166   -0.7562    1.1003 C   0  0  0  0  0  0  0  0  0  0  0  0
   -2.4642    0.9979    2.0718 C   0  0  0  0  0  0  0  0  0  0  0  0
    0.0158    0.0503    1.2145 C   0  0  0  0  0  0  0  0  0  0  0  0
   -0.0919    1.3306    1.7576 C   0  0  0  0  0  0  0  0  0  0  0  0
   -1.3318    1.8044    2.1863 C   0  0  0  0  0  0  0  0  0  0  0  0
    1.3278   -0.4738    0.7507 C   0  0  0  0  0  0  0  0  0  0  0  0
    3.4089   -0.2742   -0.1048 C   0  0  0  0  0  0  0  0  0  0  0  0
    3.6256   -1.6222   -0.0307 C   0  0  0  0  0  0  0  0  0  0  0  0
    4.5722    0.2793   -0.6407 C   0  0  0  0  0  0  0  0  0  0  0  0
    4.8690    1.6913   -0.9301 C   0  0  0  0  0  0  0  0  0  0  0  0
    2.6603   -2.5466    0.4728 C   0  0  0  0  0  0  0  0  0  0  0  0
    4.1906    2.1956   -2.2205 C   0  0  0  0  0  0  0  0  0  0  0  0
    5.5945   -3.0608   -0.6465 C   0  0  0  0  0  0  0  0  0  0  0  0
    0.7854    3.5406    1.7996 C   0  0  0  0  0  0  0  0  0  0  0  0
    4.4696    3.6654   -2.4926 C   0  0  0  0  0  0  0  0  0  0  0  0
    2.0263    4.2002    1.2366 C   0  0  0  0  0  0  0  0  0  0  0  0
   -4.8626   -1.6591   -2.7334 H   0  0  0  0  0  0  0  0  0  0  0  0
   -6.4306   -0.0565   -1.7301 H   0  0  0  0  0  0  0  0  0  0  0  0
   -4.1578    1.2808   -0.1541 H   0  0  0  0  0  0  0  0  0  0  0  0
   -2.9735   -2.1219   -1.2194 H   0  0  0  0  0  0  0  0  0  0  0  0
   -2.5126   -0.4008   -1.2216 H   0  0  0  0  0  0  0  0  0  0  0  0
   -5.6812    0.6432    0.5059 H   0  0  0  0  0  0  0  0  0  0  0  0
   -3.9075    1.1274   -2.6848 H   0  0  0  0  0  0  0  0  0  0  0  0
   -2.2566   -0.3917   -3.7436 H   0  0  0  0  0  0  0  0  0  0  0  0
   -3.5831   -0.9965   -4.7520 H   0  0  0  0  0  0  0  0  0  0  0  0
   -2.6488   -2.1186   -3.7541 H   0  0  0  0  0  0  0  0  0  0  0  0
   -5.4211    2.8415   -1.7209 H   0  0  0  0  0  0  0  0  0  0  0  0
   -6.9378    2.2633   -1.0126 H   0  0  0  0  0  0  0  0  0  0  0  0
   -6.6953    2.1830   -2.7626 H   0  0  0  0  0  0  0  0  0  0  0  0
   -1.0576   -1.7414    0.6475 H   0  0  0  0  0  0  0  0  0  0  0  0
   -3.4190    1.3857    2.4154 H   0  0  0  0  0  0  0  0  0  0  0  0
   -1.4580    2.7817    2.6424 H   0  0  0  0  0  0  0  0  0  0  0  0
    0.7641   -2.4426    1.2599 H   0  0  0  0  0  0  0  0  0  0  0  0
    4.5400    2.3100   -0.0854 H   0  0  0  0  0  0  0  0  0  0  0  0
    5.9529    1.8432   -1.0134 H   0  0  0  0  0  0  0  0  0  0  0  0
    4.5359    1.5994   -3.0741 H   0  0  0  0  0  0  0  0  0  0  0  0
    3.1057    2.0484   -2.1521 H   0  0  0  0  0  0  0  0  0  0  0  0
    5.0214   -3.7156   -1.3075 H   0  0  0  0  0  0  0  0  0  0  0  0
    6.5839   -2.8777   -1.0738 H   0  0  0  0  0  0  0  0  0  0  0  0
    5.6962   -3.5048    0.3467 H   0  0  0  0  0  0  0  0  0  0  0  0
   -0.0481    3.7895    1.1307 H   0  0  0  0  0  0  0  0  0  0  0  0
    0.5829    3.9316    2.8028 H   0  0  0  0  0  0  0  0  0  0  0  0
    3.9710    3.9827   -3.4137 H   0  0  0  0  0  0  0  0  0  0  0  0
    4.1025    4.2914   -1.6733 H   0  0  0  0  0  0  0  0  0  0  0  0
    5.5433    3.8441   -2.6072 H   0  0  0  0  0  0  0  0  0  0  0  0
    2.8987    3.9774    1.8598 H   0  0  0  0  0  0  0  0  0  0  0  0
    2.2451    3.8150    0.2352 H   0  0  0  0  0  0  0  0  0  0  0  0
    1.9018    5.2851    1.1778 H   0  0  0  0  0  0  0  0  0  0  0  0
  1  2  2  0  0  0  0
  1  3  2  0  0  0  0
  1  6  1  0  0  0  0
  1 18  1  0  0  0  0
  4 22  1  0  0  0  0
  4 32  1  0  0  0  0
  5 29  2  0  0  0  0
  6 14  1  0  0  0  0
  6 15  1  0  0  0  0
  7 12  1  0  0  0  0
  7 13  1  0  0  0  0
  7 41  1  0  0  0  0
  8 24  1  0  0  0  0
  8 29  1  0  0  0  0
  8 51  1  0  0  0  0
  9 24  2  0  0  0  0
  9 25  1  0  0  0  0
 10 11  1  0  0  0  0
 10 26  1  0  0  0  0
 10 31  1  0  0  0  0
 11 27  2  0  0  0  0
 12 14  1  0  0  0  0
 12 17  1  0  0  0  0
 12 35  1  0  0  0  0
 13 15  1  0  0  0  0
 13 16  1  0  0  0  0
 13 36  1  0  0  0  0
 14 38  1  0  0  0  0
 14 39  1  0  0  0  0
 15 37  1  0  0  0  0
 15 40  1  0  0  0  0
 16 45  1  0  0  0  0
 16 46  1  0  0  0  0
 16 47  1  0  0  0  0
 17 42  1  0  0  0  0
 17 43  1  0  0  0  0
 17 44  1  0  0  0  0
 18 19  2  0  0  0  0
 18 20  1  0  0  0  0
 19 21  1  0  0  0  0
 19 48  1  0  0  0  0
 20 23  2  0  0  0  0
 20 49  1  0  0  0  0
 21 22  2  0  0  0  0
 21 24  1  0  0  0  0
 22 23  1  0  0  0  0
 23 50  1  0  0  0  0
 25 26  2  0  0  0  0
 25 27  1  0  0  0  0
 26 29  1  0  0  0  0
 27 28  1  0  0  0  0
 28 30  1  0  0  0  0
 28 52  1  0  0  0  0
 28 53  1  0  0  0  0
 30 33  1  0  0  0  0
 30 54  1  0  0  0  0
 30 55  1  0  0  0  0
 31 56  1  0  0  0  0
 31 57  1  0  0  0  0
 31 58  1  0  0  0  0
 32 34  1  0  0  0  0
 32 59  1  0  0  0  0
 32 60  1  0  0  0  0
 33 61  1  0  0  0  0
 33 62  1  0  0  0  0
 33 63  1  0  0  0  0
 34 64  1  0  0  0  0
 34 65  1  0  0  0  0
 34 66  1  0  0  0  0
M  END
> <PUBCHEM_COMPOUND_CID>
135452876

> <PUBCHEM_CONFORMER_RMSD>
1

> <PUBCHEM_CONFORMER_DIVERSEORDER>
4
80
112
71
65
47
76
94
128
120
3
89
102
19
14
38
74
60
75
59
25
133
26
13
116
63
121
130
108
64
122
132
61
34
30
66
124
87
43
33
23
110
85
68
100
73
99
93
123
113
101
90
131
31
40
45
17
41
111
42
79
134
88
135
118
9
55
27
98
28
62
126
106
96
81
84
57
83
20
117
56
77
48
115
51
82
53
12
54
92
50
129
103
49
125
127
104
91
86
2
119
95
114
6
7
16
70
1
15
24
105
52
69
58
8
37
72
36
97
29
11
78
44
22
67
107
21
18
109
10
32
39
46
5
35

> <PUBCHEM_MMFF94_PARTIAL_CHARGES>
34
1 1.45
10 0.31
11 -0.71
12 0.27
13 0.27
14 0.36
15 0.36
18 -0.01
19 -0.15
2 -0.65
20 -0.15
21 0.09
22 0.08
23 -0.15
24 0.42
25 0.12
26 -0.24
27 0.11
28 0.18
29 0.71
3 -0.65
31 0.26
32 0.28
4 -0.36
41 0.36
48 0.15
49 0.15
5 -0.57
50 0.15
51 0.37
6 -0.85
7 -0.9
8 -0.49
9 -0.57

> <PUBCHEM_EFFECTIVE_ROTOR_COUNT>
8.2

> <PUBCHEM_PHARMACOPHORE_FEATURES>
13
1 11 acceptor
1 2 acceptor
1 3 acceptor
1 33 hydrophobe
1 4 acceptor
1 5 acceptor
1 7 cation
1 7 donor
1 8 donor
5 10 11 25 26 27 rings
6 18 19 20 21 22 23 rings
6 6 7 12 13 14 15 rings
6 8 9 24 25 26 29 rings

> <PUBCHEM_HEAVY_ATOM_COUNT>
34

> <PUBCHEM_ATOM_DEF_STEREO_COUNT>
2

> <PUBCHEM_ATOM_UDEF_STEREO_COUNT>
0

> <PUBCHEM_BOND_DEF_STEREO_COUNT>
0

> <PUBCHEM_BOND_UDEF_STEREO_COUNT>
0

> <PUBCHEM_ISOTOPIC_ATOM_COUNT>
0

> <PUBCHEM_COMPONENT_COUNT>
1

> <PUBCHEM_CACTVS_TAUTO_COUNT>
-1

> <PUBCHEM_CONFORMER_ID>
0812D8CC00000004

> <PUBCHEM_MMFF94_ENERGY>
61.7257

> <PUBCHEM_FEATURE_SELFOVERLAP>
66.105

> <PUBCHEM_SHAPE_FINGERPRINT>
10838868 217 11607537034644728926
11049842 53 16010125658753342937
11479125 193 18045784743545118948
11578080 2 17894916252103544041
11621639 307 18269014088086122616
12553582 1 18202565064253370683
12633046 712 18411707620737947251
12788726 201 17916583112244720003
14068700 675 17131822132711719145
14251757 17 17530960250661591143
14739800 52 15286462405334554133
15274700 147 15948554428953084748
15950262 2 15938390406749987340
16992727 255 18054786179333848505
21033648 144 17533802617580106966
21033648 29 16588034528253464742
21223535 225 17752188514225893837
2132832 1 18192423066394037002
23559900 14 18411419518410051666
328310 1195 17749108941397180956
3459 39 14418118626284495575
3493558 16 18040442053083771061
3882209 13 17322653190335426946
392239 28 12902414296024230517
4098825 35 18260268530249135227
4394409 98 17560230328868466813
44880168 125 16556800567777123638
46194498 28 17750525150869894147
6126387 218 17023174978546842978
6669772 16 17769098183160340432

> <PUBCHEM_SHAPE_MULTIPOLES>
650.19
13.96
4.14
3.18
2.31
2.04
2.14
-1.54
10.04
-6.06
-0.52
3.76
1.23
-0.95

> <PUBCHEM_SHAPE_SELFOVERLAP>
1367.841

> <PUBCHEM_SHAPE_VOLUME>
369.4

> <PUBCHEM_COORDINATE_TYPE>
2
5
10

$$$$
