135456222
  -OEChem-03292013293D

 32 34  0     1  0  0  0  0  0999 V2000
   -1.8437   -0.4377    1.0443 O   0  0  0  0  0  0  0  0  0  0  0  0
   -1.2203    2.3042   -1.1798 O   0  0  0  0  0  0  0  0  0  0  0  0
   -3.4751    1.9658    0.3146 O   0  0  0  0  0  0  0  0  0  0  0  0
   -3.2569   -2.7745    0.4032 O   0  0  0  0  0  0  0  0  0  0  0  0
    0.3397   -0.0918    0.1889 N   0  0  0  0  0  0  0  0  0  0  0  0
    1.6551    1.9532    0.4842 N   0  0  0  0  0  0  0  0  0  0  0  0
    3.6362    0.9777    0.1353 N   0  0  0  0  0  0  0  0  0  0  0  0
    1.6341   -2.1128   -0.2718 N   0  0  0  0  0  0  0  0  0  0  0  0
    3.9565   -1.9893   -0.4654 N   0  0  0  0  0  0  0  0  0  0  0  0
   -1.5908    0.9850   -0.8330 C   0  0  1  0  0  0  0  0  0  0  0  0
   -0.9388    0.5156    0.4579 C   0  0  1  0  0  0  0  0  0  0  0  0
   -3.0645    0.8717   -0.5048 C   0  0  1  0  0  0  0  0  0  0  0  0
   -3.1056   -0.3910    0.3437 C   0  0  1  0  0  0  0  0  0  0  0  0
   -3.2394   -1.6658   -0.4786 C   0  0  0  0  0  0  0  0  0  0  0  0
    1.4975    0.6195    0.2368 C   0  0  0  0  0  0  0  0  0  0  0  0
    0.5303   -1.4497   -0.0592 C   0  0  0  0  0  0  0  0  0  0  0  0
    2.7016   -0.0103    0.0209 C   0  0  0  0  0  0  0  0  0  0  0  0
    2.8254   -1.4085   -0.2527 C   0  0  0  0  0  0  0  0  0  0  0  0
    2.9585    2.1386    0.4154 C   0  0  0  0  0  0  0  0  0  0  0  0
   -1.3373    0.3222   -1.6696 H   0  0  0  0  0  0  0  0  0  0  0  0
   -0.8366    1.3397    1.1757 H   0  0  0  0  0  0  0  0  0  0  0  0
   -3.7078    0.8518   -1.3891 H   0  0  0  0  0  0  0  0  0  0  0  0
   -3.8889   -0.3577    1.1094 H   0  0  0  0  0  0  0  0  0  0  0  0
   -2.4054   -1.7991   -1.1732 H   0  0  0  0  0  0  0  0  0  0  0  0
   -4.1749   -1.6595   -1.0470 H   0  0  0  0  0  0  0  0  0  0  0  0
   -1.7575    2.5662   -1.9468 H   0  0  0  0  0  0  0  0  0  0  0  0
   -4.4137    1.8311    0.5303 H   0  0  0  0  0  0  0  0  0  0  0  0
   -0.4065   -2.0233   -0.0756 H   0  0  0  0  0  0  0  0  0  0  0  0
   -3.3504   -3.5737   -0.1427 H   0  0  0  0  0  0  0  0  0  0  0  0
    4.6379    0.8776    0.0370 H   0  0  0  0  0  0  0  0  0  0  0  0
    3.4740    3.0779    0.5567 H   0  0  0  0  0  0  0  0  0  0  0  0
    3.7897   -2.9872   -0.6358 H   0  0  0  0  0  0  0  0  0  0  0  0
  1 11  1  0  0  0  0
  1 13  1  0  0  0  0
  2 10  1  0  0  0  0
  2 26  1  0  0  0  0
  3 12  1  0  0  0  0
  3 27  1  0  0  0  0
  4 14  1  0  0  0  0
  4 29  1  0  0  0  0
  5 11  1  0  0  0  0
  5 15  1  0  0  0  0
  5 16  1  0  0  0  0
  6 15  1  0  0  0  0
  6 19  2  0  0  0  0
  7 17  1  0  0  0  0
  7 19  1  0  0  0  0
  7 30  1  0  0  0  0
  8 16  2  0  0  0  0
  8 18  1  0  0  0  0
  9 18  2  0  0  0  0
  9 32  1  0  0  0  0
 10 11  1  0  0  0  0
 10 12  1  0  0  0  0
 10 20  1  0  0  0  0
 11 21  1  0  0  0  0
 12 13  1  0  0  0  0
 12 22  1  0  0  0  0
 13 14  1  0  0  0  0
 13 23  1  0  0  0  0
 14 24  1  0  0  0  0
 14 25  1  0  0  0  0
 15 17  2  0  0  0  0
 16 28  1  0  0  0  0
 17 18  1  0  0  0  0
 19 31  1  0  0  0  0
M  END
> <PUBCHEM_COMPOUND_CID>
135456222

> <PUBCHEM_CONFORMER_RMSD>
0.6

> <PUBCHEM_CONFORMER_DIVERSEORDER>
1
12
8
5
6
9
13
4
2
10
11
7
3

> <PUBCHEM_MMFF94_PARTIAL_CHARGES>
26
1 -0.56
10 0.28
11 0.65
12 0.28
13 0.28
14 0.28
15 0.31
16 0.44
17 -0.24
18 0.75
19 0.04
2 -0.68
26 0.4
27 0.4
28 0.06
29 0.4
3 -0.68
30 0.27
31 0.15
32 0.4
4 -0.68
5 -0.5
6 -0.57
7 0.03
8 -0.66
9 -0.85

> <PUBCHEM_EFFECTIVE_ROTOR_COUNT>
3

> <PUBCHEM_PHARMACOPHORE_FEATURES>
15
1 1 acceptor
1 2 acceptor
1 2 donor
1 3 acceptor
1 3 donor
1 4 acceptor
1 4 donor
1 7 donor
1 9 donor
3 5 8 16 cation
3 6 7 19 cation
3 8 9 18 cation
5 1 10 11 12 13 rings
5 6 7 15 17 19 rings
6 5 8 15 16 17 18 rings

> <PUBCHEM_HEAVY_ATOM_COUNT>
19

> <PUBCHEM_ATOM_DEF_STEREO_COUNT>
4

> <PUBCHEM_ATOM_UDEF_STEREO_COUNT>
0

> <PUBCHEM_BOND_DEF_STEREO_COUNT>
0

> <PUBCHEM_BOND_UDEF_STEREO_COUNT>
0

> <PUBCHEM_ISOTOPIC_ATOM_COUNT>
0

> <PUBCHEM_COMPONENT_COUNT>
1

> <PUBCHEM_CACTVS_TAUTO_COUNT>
-1

> <PUBCHEM_CONFORMER_ID>
0812E5DE00000001

> <PUBCHEM_MMFF94_ENERGY>
46.3746

> <PUBCHEM_FEATURE_SELFOVERLAP>
76.392

> <PUBCHEM_SHAPE_FINGERPRINT>
10608611 8 18409726244564920233
10616163 171 18340206405158123655
10967382 1 18195526123892556474
11132069 177 18260822730837515189
11471102 20 18341046311761606620
12403259 226 18409725184018922714
12553582 1 17837784330755035062
12633257 1 18266175028728897043
12932764 1 17749947756756840185
13140716 1 18410852135860476298
13296908 3 18411982455272887363
14223421 5 18339923817584351739
14289901 80 18271242828182121289
15196674 1 18411981360193461358
15219456 202 18409449171918963153
15375462 6 18337952397572830358
16945 1 18119515557840333893
17834074 16 18411418414556047895
18186145 218 18188205403539014461
19591789 44 15596122572665289155
200 152 17917421004355313061
20645477 70 18273209764147513687
21501502 16 18409727352666164387
21524375 3 18195805404626217320
221490 88 18411706508278211514
2334 1 18337951293681748147
23402539 116 18042109024311302993
23557571 272 18113892810284899517
23559900 14 18411973654985014336
2748010 2 18408884065854886564
2838139 119 16661512708747349502
2871803 45 18336538425999799207
3084891 72 17184737005655190916
335352 9 18196091045040671285
5104073 3 18411981355740129043
58051976 378 18269832180454211150
69090 78 18337387128985876581
7364860 26 18343299262879487960
74978 22 18341050701144024929
77492 1 17060337409563802928
81228 2 17968382342106259913
8809292 202 18335424504286967402
93112 12 18339641144448759647
9709674 26 18410574015411829811

> <PUBCHEM_SHAPE_MULTIPOLES>
342.63
6.9
2.74
0.82
0.08
0.41
0.05
1.1
0.05
0.01
0.18
-0.29
-0.15
0.8

> <PUBCHEM_SHAPE_SELFOVERLAP>
748.95

> <PUBCHEM_SHAPE_VOLUME>
185.2

> <PUBCHEM_COORDINATE_TYPE>
2
5
10

$$$$
