135404346
  -OEChem-03292013293D

 61 63  0     0  0  0  0  0  0999 V2000
   -4.5591   -1.9040   -3.2534 O   0  0  0  0  0  0  0  0  0  0  0  0
   -1.1118    6.1488   -0.6425 O   0  0  0  0  0  0  0  0  0  0  0  0
   -0.6816    5.4664    1.4808 O   0  0  0  0  0  0  0  0  0  0  0  0
   -2.0751   -1.1675    3.2624 O   0  0  0  0  0  0  0  0  0  0  0  0
   -2.1987   -2.6760    1.5684 O   0  0  0  0  0  0  0  0  0  0  0  0
    6.4652   -0.2216   -1.8863 O   0  0  0  0  0  0  0  0  0  0  0  0
   -0.2557   -0.5358   -0.7025 N   0  0  0  0  0  0  0  0  0  0  0  0
   -3.2810   -0.5201   -1.8673 N   0  0  0  0  0  0  0  0  0  0  0  0
    4.1780   -0.6344   -1.8307 N   0  0  0  0  0  0  0  0  0  0  0  0
    0.2008    1.5030    0.1700 C   0  0  0  0  0  0  0  0  0  0  0  0
   -0.8787    0.5926   -0.2323 C   0  0  0  0  0  0  0  0  0  0  0  0
    1.3851    0.8916   -0.0723 C   0  0  0  0  0  0  0  0  0  0  0  0
   -3.2597   -0.1032   -0.5618 C   0  0  0  0  0  0  0  0  0  0  0  0
   -4.3172   -0.6996    0.0888 C   0  0  0  0  0  0  0  0  0  0  0  0
    1.1112   -0.4350   -0.6391 C   0  0  0  0  0  0  0  0  0  0  0  0
   -0.0567    2.8550    0.7400 C   0  0  0  0  0  0  0  0  0  0  0  0
   -2.1934    0.8260   -0.1517 C   0  0  0  0  0  0  0  0  0  0  0  0
   -4.9984   -1.5027   -0.8590 C   0  0  0  0  0  0  0  0  0  0  0  0
   -4.6762   -0.5339    1.5131 C   0  0  0  0  0  0  0  0  0  0  0  0
   -0.4764    3.8680   -0.3187 C   0  0  0  0  0  0  0  0  0  0  0  0
   -4.3363   -1.3728   -2.0599 C   0  0  0  0  0  0  0  0  0  0  0  0
    2.7665    1.3970    0.1631 C   0  0  0  0  0  0  0  0  0  0  0  0
    2.0153   -1.3477   -1.0119 C   0  0  0  0  0  0  0  0  0  0  0  0
   -4.2431   -1.7046    2.4126 C   0  0  0  0  0  0  0  0  0  0  0  0
   -6.1981   -2.3287   -0.6117 C   0  0  0  0  0  0  0  0  0  0  0  0
    3.4314   -1.1513   -0.9062 C   0  0  0  0  0  0  0  0  0  0  0  0
    4.1527   -1.5412    0.3107 C   0  0  0  0  0  0  0  0  0  0  0  0
   -0.7685    5.2209    0.2844 C   0  0  0  0  0  0  0  0  0  0  0  0
    5.4212   -1.2099    0.0374 C   0  0  0  0  0  0  0  0  0  0  0  0
   -2.7500   -1.9208    2.3591 C   0  0  0  0  0  0  0  0  0  0  0  0
    5.4573   -0.6280   -1.3289 C   0  0  0  0  0  0  0  0  0  0  0  0
    3.5445   -2.1522    1.5168 C   0  0  0  0  0  0  0  0  0  0  0  0
    6.5841   -1.3559    0.8548 C   0  0  0  0  0  0  0  0  0  0  0  0
    6.6026   -1.1223    2.1739 C   0  0  0  0  0  0  0  0  0  0  0  0
    0.8354    3.2277    1.2575 H   0  0  0  0  0  0  0  0  0  0  0  0
   -0.8196    2.7851    1.5264 H   0  0  0  0  0  0  0  0  0  0  0  0
   -2.5571    1.7461    0.2977 H   0  0  0  0  0  0  0  0  0  0  0  0
   -0.7399   -1.3509   -1.0465 H   0  0  0  0  0  0  0  0  0  0  0  0
   -5.7614   -0.4040    1.6071 H   0  0  0  0  0  0  0  0  0  0  0  0
   -4.2332    0.3915    1.9033 H   0  0  0  0  0  0  0  0  0  0  0  0
   -2.6229   -0.2435   -2.5834 H   0  0  0  0  0  0  0  0  0  0  0  0
   -1.3791    3.5405   -0.8447 H   0  0  0  0  0  0  0  0  0  0  0  0
    0.3288    3.9936   -1.0521 H   0  0  0  0  0  0  0  0  0  0  0  0
    3.2898    0.8284    0.9318 H   0  0  0  0  0  0  0  0  0  0  0  0
    2.7383    2.4241    0.5439 H   0  0  0  0  0  0  0  0  0  0  0  0
    3.3424    1.4664   -0.7610 H   0  0  0  0  0  0  0  0  0  0  0  0
    1.6889   -2.3030   -1.4124 H   0  0  0  0  0  0  0  0  0  0  0  0
   -4.7298   -2.6397    2.1133 H   0  0  0  0  0  0  0  0  0  0  0  0
   -4.5397   -1.5193    3.4512 H   0  0  0  0  0  0  0  0  0  0  0  0
   -6.9664   -1.7561   -0.0826 H   0  0  0  0  0  0  0  0  0  0  0  0
   -6.6413   -2.6855   -1.5472 H   0  0  0  0  0  0  0  0  0  0  0  0
   -5.9424   -3.2050   -0.0078 H   0  0  0  0  0  0  0  0  0  0  0  0
   -3.8758   -1.5779   -3.8650 H   0  0  0  0  0  0  0  0  0  0  0  0
    3.0158   -1.3983    2.1076 H   0  0  0  0  0  0  0  0  0  0  0  0
    4.2835   -2.6388    2.1589 H   0  0  0  0  0  0  0  0  0  0  0  0
    2.8264   -2.9290    1.2336 H   0  0  0  0  0  0  0  0  0  0  0  0
    7.5041   -1.6518    0.3590 H   0  0  0  0  0  0  0  0  0  0  0  0
   -1.2860    7.0248   -0.2369 H   0  0  0  0  0  0  0  0  0  0  0  0
   -1.1058   -1.3056    3.2026 H   0  0  0  0  0  0  0  0  0  0  0  0
    7.5260   -1.2443    2.7310 H   0  0  0  0  0  0  0  0  0  0  0  0
    5.7313   -0.7883    2.7259 H   0  0  0  0  0  0  0  0  0  0  0  0
  1 21  1  0  0  0  0
  1 53  1  0  0  0  0
  2 28  1  0  0  0  0
  2 58  1  0  0  0  0
  3 28  2  0  0  0  0
  4 30  1  0  0  0  0
  4 59  1  0  0  0  0
  5 30  2  0  0  0  0
  6 31  2  0  0  0  0
  7 11  1  0  0  0  0
  7 15  1  0  0  0  0
  7 38  1  0  0  0  0
  8 13  1  0  0  0  0
  8 21  1  0  0  0  0
  8 41  1  0  0  0  0
  9 26  2  0  0  0  0
  9 31  1  0  0  0  0
 10 11  1  0  0  0  0
 10 12  2  0  0  0  0
 10 16  1  0  0  0  0
 11 17  2  0  0  0  0
 12 15  1  0  0  0  0
 12 22  1  0  0  0  0
 13 14  2  0  0  0  0
 13 17  1  0  0  0  0
 14 18  1  0  0  0  0
 14 19  1  0  0  0  0
 15 23  2  0  0  0  0
 16 20  1  0  0  0  0
 16 35  1  0  0  0  0
 16 36  1  0  0  0  0
 17 37  1  0  0  0  0
 18 21  2  0  0  0  0
 18 25  1  0  0  0  0
 19 24  1  0  0  0  0
 19 39  1  0  0  0  0
 19 40  1  0  0  0  0
 20 28  1  0  0  0  0
 20 42  1  0  0  0  0
 20 43  1  0  0  0  0
 22 44  1  0  0  0  0
 22 45  1  0  0  0  0
 22 46  1  0  0  0  0
 23 26  1  0  0  0  0
 23 47  1  0  0  0  0
 24 30  1  0  0  0  0
 24 48  1  0  0  0  0
 24 49  1  0  0  0  0
 25 50  1  0  0  0  0
 25 51  1  0  0  0  0
 25 52  1  0  0  0  0
 26 27  1  0  0  0  0
 27 29  2  0  0  0  0
 27 32  1  0  0  0  0
 29 31  1  0  0  0  0
 29 33  1  0  0  0  0
 32 54  1  0  0  0  0
 32 55  1  0  0  0  0
 32 56  1  0  0  0  0
 33 34  2  0  0  0  0
 33 57  1  0  0  0  0
 34 60  1  0  0  0  0
 34 61  1  0  0  0  0
M  END
> <PUBCHEM_COMPOUND_CID>
135404346

> <PUBCHEM_CONFORMER_RMSD>
1

> <PUBCHEM_CONFORMER_DIVERSEORDER>
1
34
29
19
28
60
62
26
24
35
11
55
50
61
47
54
6
57
30
46
18
42
15
56
58
25
43
39
49
17
38
5
8
31
20
44
52
10
16
21
36
59
23
41
22
33
7
13
12
14
45
40
27
9
51
2
3
63
4
48
53
37
32

> <PUBCHEM_MMFF94_PARTIAL_CHARGES>
44
1 -0.51
10 -0.14
11 0.1
12 -0.14
13 -0.2
14 -0.18
15 0.1
16 0.14
17 -0.11
18 -0.18
19 0.18
2 -0.65
20 0.06
21 -0.09
22 0.14
23 -0.14
24 0.06
25 0.18
26 0.42
27 -0.12
28 0.66
29 0.01
3 -0.57
30 0.66
31 0.77
32 0.14
33 -0.15
34 -0.3
37 0.15
38 0.4
4 -0.65
41 0.27
47 0.15
5 -0.57
53 0.45
57 0.15
58 0.5
59 0.5
6 -0.57
60 0.15
61 0.15
7 -0.6
8 0.03
9 -0.66

> <PUBCHEM_EFFECTIVE_ROTOR_COUNT>
9

> <PUBCHEM_PHARMACOPHORE_FEATURES>
18
1 1 donor
1 2 acceptor
1 3 acceptor
1 34 hydrophobe
1 4 acceptor
1 5 acceptor
1 6 acceptor
1 7 cation
1 7 donor
1 8 cation
1 8 donor
1 9 acceptor
1 9 donor
3 2 3 28 anion
3 4 5 30 anion
5 7 10 11 12 15 rings
5 8 13 14 18 21 rings
5 9 26 27 29 31 rings

> <PUBCHEM_HEAVY_ATOM_COUNT>
34

> <PUBCHEM_ATOM_DEF_STEREO_COUNT>
0

> <PUBCHEM_ATOM_UDEF_STEREO_COUNT>
0

> <PUBCHEM_BOND_DEF_STEREO_COUNT>
2

> <PUBCHEM_BOND_UDEF_STEREO_COUNT>
0

> <PUBCHEM_ISOTOPIC_ATOM_COUNT>
0

> <PUBCHEM_COMPONENT_COUNT>
1

> <PUBCHEM_CACTVS_TAUTO_COUNT>
-1

> <PUBCHEM_CONFORMER_ID>
08121B3A00000001

> <PUBCHEM_MMFF94_ENERGY>
83.4485

> <PUBCHEM_FEATURE_SELFOVERLAP>
91.552

> <PUBCHEM_SHAPE_FINGERPRINT>
11991303 11 17903079936735094653
12106331 60 18337118882456112510
12160290 23 17838366015002302204
12342043 65 17606129613732087419
12596602 18 16128656353602049898
12788726 201 18192428576388723593
13782708 43 17750240382044359779
14114206 34 18114734941887488421
15183329 4 15213292011219299914
15361156 5 18339657633176446972
1813 80 18129958835282088709
20101258 96 18341344317962288793
21304303 282 17826787041112845741
23559900 14 17386289921078147231
23929065 36 18196351655604925768
4015057 19 18263360464014558187
469060 322 18202845435270270974
513202 73 17983880902934346870
57527295 17 18188470408149991399

> <PUBCHEM_SHAPE_MULTIPOLES>
649.55
14.59
5.23
2.46
13.17
14.3
0.5
-14.95
-1.37
-3.66
1.46
-1.76
-1.92
-0.75

> <PUBCHEM_SHAPE_SELFOVERLAP>
1398.658

> <PUBCHEM_SHAPE_VOLUME>
358

> <PUBCHEM_COORDINATE_TYPE>
2
5
10

$$$$
