REMARK  Name = 135487647
REMARK  6 active torsions:
REMARK  status: ('A' for Active; 'I' for Inactive)
REMARK    1  A    between atoms: C_1  and  C_29
REMARK    2  A    between atoms: C_2  and  C_15
REMARK    3  A    between atoms: C_4  and  O_32
REMARK    4  A    between atoms: C_13  and  C_19
REMARK    5  A    between atoms: C_19  and  C_20
REMARK    6  A    between atoms: O_32  and  C_33
REMARK                            x       y       z     vdW  Elec       q    Type
REMARK                         _______ _______ _______ _____ _____    ______ ____
ROOT
ATOM      1  C   UNL     1      -2.686   1.073  -0.741  0.00  0.00    +0.054 C 
ATOM      2  C   UNL     1      -0.362   0.802  -0.141  0.00  0.00    +0.078 C 
ATOM      3  C   UNL     1      -1.540   0.280  -0.673  0.00  0.00    +0.011 C 
ATOM      4  C   UNL     1      -0.329   2.117   0.324  0.00  0.00    +0.142 C 
ATOM      5  C   UNL     1      -2.653   2.388  -0.277  0.00  0.00    +0.008 C 
ATOM      6  C   UNL     1      -1.474   2.910   0.256  0.00  0.00    +0.037 C 
ENDROOT
BRANCH   2  15
ATOM      7  O   UNL     1       1.645  -3.183   1.555  0.00  0.00    -0.272 OA
ATOM      8  N   UNL     1       4.144  -2.331   0.052  0.00  0.00    -0.217 N 
ATOM      9  N   UNL     1       0.721  -1.231   0.701  0.00  0.00    -0.258 N 
ATOM     10  N   UNL     1       1.933   0.303  -0.710  0.00  0.00    -0.388 NA
ATOM     11  N   UNL     1       4.999  -1.619  -0.715  0.00  0.00    -0.183 NA
ATOM     12  C   UNL     1       2.987  -0.602  -0.561  0.00  0.00    +0.154 C 
ATOM     13  C   UNL     1       4.277  -0.554  -1.089  0.00  0.00    +0.104 C 
ATOM     14  C   UNL     1       2.917  -1.754   0.173  0.00  0.00    +0.220 C 
ATOM     15  C   UNL     1       0.848  -0.060  -0.076  0.00  0.00    +0.188 C 
ATOM     16  C   UNL     1       1.746  -2.164   0.881  0.00  0.00    +0.254 C 
ATOM     17  C   UNL     1       4.592  -3.569   0.646  0.00  0.00    +0.135 C 
ATOM     18  H   UNL     1      -0.142  -1.401   1.143  0.00  0.00    +0.157 HD
BRANCH  13  19
ATOM     19  C   UNL     1       4.878   0.475  -1.953  0.00  0.00    +0.050 C 
BRANCH  19  20
ATOM     20  C   UNL     1       5.826   1.422  -1.189  0.00  0.00    +0.006 C 
ATOM     21  C   UNL     1       5.116   2.203  -0.095  0.00  0.00    +0.000 C 
ENDBRANCH  19  20
ENDBRANCH  13  19
ENDBRANCH   2  15
BRANCH   1  29
ATOM     22  O   UNL     1      -4.089   0.674  -2.514  0.00  0.00    -0.270 OA
ATOM     23  N   UNL     1      -4.821  -0.109  -0.437  0.00  0.00    -0.280 N 
ATOM     24  N   UNL     1      -6.311  -2.100   0.982  0.00  0.00    +0.386 N 
ATOM     25  C   UNL     1      -6.111  -0.576  -0.944  0.00  0.00    +0.070 C 
ATOM     26  C   UNL     1      -4.628  -0.288   1.008  0.00  0.00    +0.070 C 
ATOM     27  C   UNL     1      -6.410  -1.996  -0.475  0.00  0.00    -0.060 C 
ATOM     28  C   UNL     1      -4.975  -1.713   1.437  0.00  0.00    -0.060 C 
ATOM     29  C   UNL     1      -3.927   0.524  -1.304  0.00  0.00    +0.249 C 
ATOM     30  H   UNL     1      -6.495  -3.063   1.262  0.00  0.00    -0.084 HD
ATOM     31  H   UNL     1      -6.997  -1.473   1.403  0.00  0.00    -0.084 HD
ENDBRANCH   1  29
BRANCH   4  32
ATOM     32  O   UNL     1       0.813   2.645   0.848  0.00  0.00    -0.475 OA
BRANCH  32  33
ATOM     33  C   UNL     1       0.756   3.100   2.198  0.00  0.00    +0.206 C 
ATOM     34  C   UNL     1       2.119   2.932   2.834  0.00  0.00    +0.051 C 
ENDBRANCH  32  33
ENDBRANCH   4  32
TORSDOF 6
