REMARK  Name = 135491415
REMARK  5 active torsions:
REMARK  status: ('A' for Active; 'I' for Inactive)
REMARK    1  A    between atoms: N_2  and  C_17
REMARK    2  A    between atoms: C_16  and  N_20
REMARK    3  A    between atoms: C_18  and  O_24
REMARK    4  A    between atoms: C_19  and  C_26
REMARK    5  A    between atoms: C_26  and  O_27
REMARK                            x       y       z     vdW  Elec       q    Type
REMARK                         _______ _______ _______ _____ _____    ______ ____
ROOT
ATOM      1  O   UNL     1       4.260  -1.929  -0.434  0.00  0.00    -0.268 OA
ATOM      2  N   UNL     1       0.034  -0.428   0.117  0.00  0.00    -0.240 N 
ATOM      3  N   UNL     1       1.304  -2.210  -0.346  0.00  0.00    -0.240 NA
ATOM      4  N   UNL     1       1.737   1.267   0.409  0.00  0.00    -0.357 NA
ATOM      5  N   UNL     1       3.915   0.321   0.087  0.00  0.00    -0.243 N 
ATOM      6  N   UNL     1       3.660   2.602   0.609  0.00  0.00    -0.321 N 
ATOM      7  C   UNL     1       1.327   0.006   0.148  0.00  0.00    +0.211 C 
ATOM      8  C   UNL     1       0.073  -1.768  -0.185  0.00  0.00    +0.224 C 
ATOM      9  C   UNL     1       2.079  -1.107  -0.139  0.00  0.00    +0.176 C 
ATOM     10  C   UNL     1       3.510  -0.993  -0.187  0.00  0.00    +0.273 C 
ATOM     11  C   UNL     1       3.046   1.400   0.372  0.00  0.00    +0.239 C 
ATOM     12  H   UNL     1       4.881   0.508   0.079  0.00  0.00    +0.159 HD
ATOM     13  H   UNL     1       3.120   3.399   0.815  0.00  0.00    +0.146 HD
ATOM     14  H   UNL     1       4.642   2.669   0.574  0.00  0.00    +0.146 HD
ENDROOT
BRANCH   2  17
ATOM     15  O   UNL     1      -2.236  -0.408   0.993  0.00  0.00    -0.337 OA
ATOM     16  C   UNL     1      -1.845   0.950  -0.912  0.00  0.00    +0.012 C 
ATOM     17  C   UNL     1      -1.210   0.390   0.362  0.00  0.00    +0.178 C 
ATOM     18  C   UNL     1      -3.290   1.141  -0.473  0.00  0.00    +0.124 C 
ATOM     19  C   UNL     1      -3.519  -0.073   0.421  0.00  0.00    +0.171 C 
BRANCH  16  20
ATOM     20  N   UNL     1      -1.203   2.163  -1.396  0.00  0.00    +0.386 N 
ATOM     21  H   UNL     1      -0.243   1.953  -1.669  0.00  0.00    -0.089 HD
ATOM     22  H   UNL     1      -1.200   2.865  -0.655  0.00  0.00    -0.089 HD
ATOM     23  H   UNL     1      -1.715   2.521  -2.202  0.00  0.00    -0.089 HD
ENDBRANCH  16  20
BRANCH  18  24
ATOM     24  O   UNL     1      -3.408   2.320   0.324  0.00  0.00    -0.384 OA
ATOM     25  H   UNL     1      -3.264   3.102  -0.232  0.00  0.00    +0.210 HD
ENDBRANCH  18  24
BRANCH  19  26
ATOM     26  C   UNL     1      -4.033  -1.286  -0.341  0.00  0.00    +0.169 C 
BRANCH  26  27
ATOM     27  O   UNL     1      -4.203  -2.357   0.571  0.00  0.00    -0.379 OA
ATOM     28  H   UNL     1      -4.530  -3.137   0.097  0.00  0.00    +0.211 HD
ENDBRANCH  26  27
ENDBRANCH  19  26
ENDBRANCH   2  17
TORSDOF 5
