135475605
  -OEChem-03292013293D

 32 34  0     1  0  0  0  0  0999 V2000
   -2.2887   -0.2340    0.9080 O   0  0  0  0  0  0  0  0  0  0  0  0
   -3.3139    2.5032   -0.0250 O   0  0  0  0  0  0  0  0  0  0  0  0
   -4.3343   -2.1107    0.5723 O   0  0  0  0  0  0  0  0  0  0  0  0
    1.2814    2.3181    0.4434 O   0  0  0  0  0  0  0  0  0  0  0  0
    0.0008   -0.4041    0.0681 N   0  0  0  0  0  0  0  0  0  0  0  0
    1.2009   -2.2522   -0.2739 N   0  0  0  0  0  0  0  0  0  0  0  0
    3.2837    1.1835    0.1835 N   0  0  0  0  0  0  0  0  0  0  0  0
    3.4339   -1.1817   -0.1964 N   0  0  0  0  0  0  0  0  0  0  0  0
    5.3631    0.1382   -0.0673 N   0  0  0  0  0  0  0  0  0  0  0  0
   -1.2140    0.4691    0.2569 C   0  0  1  0  0  0  0  0  0  0  0  0
   -1.7804    0.9978   -1.0563 C   0  0  0  0  0  0  0  0  0  0  0  0
   -3.2264    1.2490   -0.6971 C   0  0  1  0  0  0  0  0  0  0  0  0
   -3.5369    0.1222    0.2797 C   0  0  1  0  0  0  0  0  0  0  0  0
   -4.0873   -1.1193   -0.4092 C   0  0  0  0  0  0  0  0  0  0  0  0
    1.3088   -0.0168    0.0748 C   0  0  0  0  0  0  0  0  0  0  0  0
   -0.0130   -1.7581   -0.1451 C   0  0  0  0  0  0  0  0  0  0  0  0
    2.0287   -1.1694   -0.1369 C   0  0  0  0  0  0  0  0  0  0  0  0
    1.8942    1.2726    0.2543 C   0  0  0  0  0  0  0  0  0  0  0  0
    3.9995   -0.0073   -0.0339 C   0  0  0  0  0  0  0  0  0  0  0  0
   -0.9119    1.2762    0.9316 H   0  0  0  0  0  0  0  0  0  0  0  0
   -1.7148    0.2360   -1.8421 H   0  0  0  0  0  0  0  0  0  0  0  0
   -1.2443    1.8901   -1.3939 H   0  0  0  0  0  0  0  0  0  0  0  0
   -3.8880    1.2849   -1.5673 H   0  0  0  0  0  0  0  0  0  0  0  0
   -4.2156    0.4382    1.0798 H   0  0  0  0  0  0  0  0  0  0  0  0
   -3.3692   -1.5321   -1.1248 H   0  0  0  0  0  0  0  0  0  0  0  0
   -5.0255   -0.8958   -0.9264 H   0  0  0  0  0  0  0  0  0  0  0  0
   -0.9298   -2.3288   -0.2002 H   0  0  0  0  0  0  0  0  0  0  0  0
   -4.2410    2.6249    0.2422 H   0  0  0  0  0  0  0  0  0  0  0  0
   -4.6859   -2.8905    0.1101 H   0  0  0  0  0  0  0  0  0  0  0  0
    3.8164    2.0411    0.2970 H   0  0  0  0  0  0  0  0  0  0  0  0
    5.9723   -0.6584   -0.2184 H   0  0  0  0  0  0  0  0  0  0  0  0
    5.8018    1.0439    0.0576 H   0  0  0  0  0  0  0  0  0  0  0  0
  1 10  1  0  0  0  0
  1 13  1  0  0  0  0
  2 12  1  0  0  0  0
  2 28  1  0  0  0  0
  3 14  1  0  0  0  0
  3 29  1  0  0  0  0
  4 18  2  0  0  0  0
  5 10  1  0  0  0  0
  5 15  1  0  0  0  0
  5 16  1  0  0  0  0
  6 16  2  0  0  0  0
  6 17  1  0  0  0  0
  7 18  1  0  0  0  0
  7 19  1  0  0  0  0
  7 30  1  0  0  0  0
  8 17  1  0  0  0  0
  8 19  2  0  0  0  0
  9 19  1  0  0  0  0
  9 31  1  0  0  0  0
  9 32  1  0  0  0  0
 10 11  1  0  0  0  0
 10 20  1  0  0  0  0
 11 12  1  0  0  0  0
 11 21  1  0  0  0  0
 11 22  1  0  0  0  0
 12 13  1  0  0  0  0
 12 23  1  0  0  0  0
 13 14  1  0  0  0  0
 13 24  1  0  0  0  0
 14 25  1  0  0  0  0
 14 26  1  0  0  0  0
 15 17  2  0  0  0  0
 15 18  1  0  0  0  0
 16 27  1  0  0  0  0
M  END
> <PUBCHEM_COMPOUND_CID>
135475605

> <PUBCHEM_CONFORMER_RMSD>
0.6

> <PUBCHEM_CONFORMER_DIVERSEORDER>
1
9
11
7
4
10
5
2
8
3
6

> <PUBCHEM_MMFF94_PARTIAL_CHARGES>
24
1 -0.56
10 0.54
12 0.28
13 0.28
14 0.28
15 -0.24
16 0.04
17 0.35
18 0.71
19 0.56
2 -0.68
27 0.15
28 0.4
29 0.4
3 -0.68
30 0.37
31 0.4
32 0.4
4 -0.57
5 0.05
6 -0.57
7 -0.49
8 -0.57
9 -0.85

> <PUBCHEM_EFFECTIVE_ROTOR_COUNT>
3

> <PUBCHEM_PHARMACOPHORE_FEATURES>
12
1 1 acceptor
1 2 acceptor
1 2 donor
1 3 acceptor
1 3 donor
1 4 acceptor
1 7 donor
1 9 donor
3 5 6 16 cation
5 1 10 11 12 13 rings
5 5 6 15 16 17 rings
6 7 8 15 17 18 19 rings

> <PUBCHEM_HEAVY_ATOM_COUNT>
19

> <PUBCHEM_ATOM_DEF_STEREO_COUNT>
3

> <PUBCHEM_ATOM_UDEF_STEREO_COUNT>
0

> <PUBCHEM_BOND_DEF_STEREO_COUNT>
0

> <PUBCHEM_BOND_UDEF_STEREO_COUNT>
0

> <PUBCHEM_ISOTOPIC_ATOM_COUNT>
0

> <PUBCHEM_COMPONENT_COUNT>
1

> <PUBCHEM_CACTVS_TAUTO_COUNT>
-1

> <PUBCHEM_CONFORMER_ID>
0813319500000001

> <PUBCHEM_MMFF94_ENERGY>
43.061

> <PUBCHEM_FEATURE_SELFOVERLAP>
61.072

> <PUBCHEM_SHAPE_FINGERPRINT>
10366900 7 18114184176275991531
10608611 8 18337106778837144205
11471102 20 18340482258170200508
11615757 297 18059859475774447011
12236239 1 17203609272205232841
12403259 226 18339074999045211273
12403259 415 18271520983228499824
12403260 363 18336259132428085740
12670546 56 16733253591506602400
13862211 1 18412540999349791022
15196674 1 18411136901240967302
15219456 202 18335985264028360381
17802600 8 18410008874871703959
18186145 218 18131638867679832432
200 152 18131344220407677191
20645477 56 18261392179593413685
20645477 70 18058444292514015798
21267235 1 18340495538151278246
21501502 16 18262512585819989467
21524375 3 18411139181673883850
221490 88 18411143519306165646
23402539 116 17675918794094128062
23402655 69 18271240521637081132
23557571 272 18113617894013250901
23559900 14 18336820914192652627
25 1 18338230458261472276
2748010 2 18270122456420291330
2871803 45 18335975454777113831
3286 77 18409445929192462972
350125 39 18339083820849943408
3545911 37 18410573947082678301
4990 188 18131639958928645134
5104073 3 18411416168319820986
58051976 378 18413386536280697207
81228 2 17405405076481932578
9709674 26 18410297986649043695

> <PUBCHEM_SHAPE_MULTIPOLES>
342.63
8.73
2.24
0.76
1.79
0.08
-0.05
-0.39
-0.06
-1.06
0.03
-0.38
0.05
0.62

> <PUBCHEM_SHAPE_SELFOVERLAP>
742.62

> <PUBCHEM_SHAPE_VOLUME>
186.3

> <PUBCHEM_COORDINATE_TYPE>
2
5
10

$$$$
