135474247
  -OEChem-03292013293D

 33 34  0     0  0  0  0  0  0999 V2000
    2.1519    0.1137   -0.0846 O   0  0  0  0  0  0  0  0  0  0  0  0
    2.9127   -2.4455   -0.9049 O   0  0  0  0  0  0  0  0  0  0  0  0
    4.8181    1.3763   -0.4675 O   0  0  0  0  0  0  0  0  0  0  0  0
   -4.2809    1.2194   -0.8434 O   0  0  0  0  0  0  0  0  0  0  0  0
   -0.0157    0.6835    0.5481 N   0  0  0  0  0  0  0  0  0  0  0  0
   -1.5509    2.1565   -0.1415 N   0  0  0  0  0  0  0  0  0  0  0  0
   -1.2967   -1.3684    0.4566 N   0  0  0  0  0  0  0  0  0  0  0  0
   -3.5272   -0.9220   -0.2956 N   0  0  0  0  0  0  0  0  0  0  0  0
    0.6549    2.9365    0.4218 N   0  0  0  0  0  0  0  0  0  0  0  0
   -2.8529   -3.1146    0.2353 N   0  0  0  0  0  0  0  0  0  0  0  0
    1.2451    0.1512    1.0136 C   0  0  0  0  0  0  0  0  0  0  0  0
    3.4155   -0.4137    0.2962 C   0  0  0  0  0  0  0  0  0  0  0  0
   -1.1500   -0.0336    0.3048 C   0  0  0  0  0  0  0  0  0  0  0  0
   -2.0704    0.8960   -0.1154 C   0  0  0  0  0  0  0  0  0  0  0  0
   -0.3068    1.9956    0.2650 C   0  0  0  0  0  0  0  0  0  0  0  0
    4.4412    0.0303   -0.7384 C   0  0  0  0  0  0  0  0  0  0  0  0
    3.3120   -1.9332    0.3621 C   0  0  0  0  0  0  0  0  0  0  0  0
   -3.3967    0.4642   -0.4600 C   0  0  0  0  0  0  0  0  0  0  0  0
   -2.5031   -1.7921    0.1477 C   0  0  0  0  0  0  0  0  0  0  0  0
    1.6181    0.8006    1.8134 H   0  0  0  0  0  0  0  0  0  0  0  0
    1.0623   -0.8441    1.4264 H   0  0  0  0  0  0  0  0  0  0  0  0
    3.7047   -0.0162    1.2779 H   0  0  0  0  0  0  0  0  0  0  0  0
    2.5828   -2.2702    1.1028 H   0  0  0  0  0  0  0  0  0  0  0  0
    4.0368   -0.0103   -1.7551 H   0  0  0  0  0  0  0  0  0  0  0  0
    5.3491   -0.5785   -0.6815 H   0  0  0  0  0  0  0  0  0  0  0  0
    4.2817   -2.3721    0.6202 H   0  0  0  0  0  0  0  0  0  0  0  0
   -4.4300   -1.3344   -0.5126 H   0  0  0  0  0  0  0  0  0  0  0  0
    0.4685    3.9144    0.2234 H   0  0  0  0  0  0  0  0  0  0  0  0
    1.6012    2.7263    0.7219 H   0  0  0  0  0  0  0  0  0  0  0  0
    5.4734    1.6296   -1.1398 H   0  0  0  0  0  0  0  0  0  0  0  0
    2.8733   -3.4135   -0.8213 H   0  0  0  0  0  0  0  0  0  0  0  0
   -2.1867   -3.8144    0.5436 H   0  0  0  0  0  0  0  0  0  0  0  0
   -3.7856   -3.4321   -0.0048 H   0  0  0  0  0  0  0  0  0  0  0  0
  1 11  1  0  0  0  0
  1 12  1  0  0  0  0
  2 17  1  0  0  0  0
  2 31  1  0  0  0  0
  3 16  1  0  0  0  0
  3 30  1  0  0  0  0
  4 18  2  0  0  0  0
  5 11  1  0  0  0  0
  5 13  1  0  0  0  0
  5 15  1  0  0  0  0
  6 14  1  0  0  0  0
  6 15  2  0  0  0  0
  7 13  1  0  0  0  0
  7 19  2  0  0  0  0
  8 18  1  0  0  0  0
  8 19  1  0  0  0  0
  8 27  1  0  0  0  0
  9 15  1  0  0  0  0
  9 28  1  0  0  0  0
  9 29  1  0  0  0  0
 10 19  1  0  0  0  0
 10 32  1  0  0  0  0
 10 33  1  0  0  0  0
 11 20  1  0  0  0  0
 11 21  1  0  0  0  0
 12 16  1  0  0  0  0
 12 17  1  0  0  0  0
 12 22  1  0  0  0  0
 13 14  2  0  0  0  0
 14 18  1  0  0  0  0
 16 24  1  0  0  0  0
 16 25  1  0  0  0  0
 17 23  1  0  0  0  0
 17 26  1  0  0  0  0
M  END
> <PUBCHEM_COMPOUND_CID>
135474247

> <PUBCHEM_CONFORMER_RMSD>
0.8

> <PUBCHEM_CONFORMER_DIVERSEORDER>
1
20
18
9
10
7
21
14
12
13
8
19
23
11
4
5
15
2
3
6
17
16
22

> <PUBCHEM_MMFF94_PARTIAL_CHARGES>
26
1 -0.56
10 -0.85
11 0.54
12 0.28
13 -0.03
14 0.14
15 0.27
16 0.28
17 0.28
18 0.72
19 0.56
2 -0.68
27 0.37
28 0.4
29 0.4
3 -0.68
30 0.4
31 0.4
32 0.4
33 0.4
4 -0.57
5 0.05
6 -0.57
7 -0.58
8 -0.49
9 -0.88

> <PUBCHEM_EFFECTIVE_ROTOR_COUNT>
5

> <PUBCHEM_PHARMACOPHORE_FEATURES>
12
1 1 acceptor
1 10 donor
1 2 acceptor
1 2 donor
1 3 acceptor
1 3 donor
1 4 acceptor
1 8 donor
1 9 donor
4 5 6 9 15 cation
5 5 6 13 14 15 rings
6 7 8 13 14 18 19 rings

> <PUBCHEM_HEAVY_ATOM_COUNT>
19

> <PUBCHEM_ATOM_DEF_STEREO_COUNT>
0

> <PUBCHEM_ATOM_UDEF_STEREO_COUNT>
0

> <PUBCHEM_BOND_DEF_STEREO_COUNT>
0

> <PUBCHEM_BOND_UDEF_STEREO_COUNT>
0

> <PUBCHEM_ISOTOPIC_ATOM_COUNT>
0

> <PUBCHEM_COMPONENT_COUNT>
1

> <PUBCHEM_CACTVS_TAUTO_COUNT>
-1

> <PUBCHEM_CONFORMER_ID>
08132C4700000001

> <PUBCHEM_MMFF94_ENERGY>
40.9692

> <PUBCHEM_FEATURE_SELFOVERLAP>
61.082

> <PUBCHEM_SHAPE_FINGERPRINT>
10498660 4 18410581686592438950
10616163 171 18412548712699630670
10693767 8 17913176834339695967
12553582 1 18267581488684722090
12670546 177 18187080680669534676
14790565 3 18123193394598612097
14911166 2 18337660954536396277
15099037 51 18337664231643857397
15415430 112 18409168835171869914
16752209 62 18120639246065989593
16945 1 18263905723156163889
20281475 54 18343585114164051418
20645476 183 17675922071687132699
20871999 31 18334292110642689751
22213442 358 18339361980111804216
23402539 116 18197484152080024197
23557571 272 18411147956413168174
23559900 14 18411975846056749240
2748010 2 18120075433077316761
3004659 81 18188486874727335394
34934 24 18410285922011406656
58051976 378 18341333310625201902
67856867 119 18259978298045208728
7364860 26 18124873718510508441
9709674 26 18270403759398356998

> <PUBCHEM_SHAPE_MULTIPOLES>
337.65
8.22
2.92
0.82
5.15
0.59
0
1.47
2.36
-0.74
-0.09
0.22
0.02
0.37

> <PUBCHEM_SHAPE_SELFOVERLAP>
715.17

> <PUBCHEM_SHAPE_VOLUME>
185.8

> <PUBCHEM_COORDINATE_TYPE>
2
5
10

$$$$
