REMARK  Name = 135484485
REMARK  4 active torsions:
REMARK  status: ('A' for Active; 'I' for Inactive)
REMARK    1  A    between atoms: N_2  and  C_15
REMARK    2  A    between atoms: C_16  and  C_22
REMARK    3  A    between atoms: C_18  and  O_20
REMARK    4  A    between atoms: C_22  and  O_23
REMARK                            x       y       z     vdW  Elec       q    Type
REMARK                         _______ _______ _______ _____ _____    ______ ____
ROOT
ATOM      1  O   UNL     1       4.633  -0.035  -0.333  0.00  0.00    -0.268 OA
ATOM      2  N   UNL     1       0.340  -1.394   0.044  0.00  0.00    -0.263 N 
ATOM      3  N   UNL     1       2.459  -2.057  -0.228  0.00  0.00    -0.240 NA
ATOM      4  N   UNL     1       0.638   1.006   0.167  0.00  0.00    -0.357 NA
ATOM      5  N   UNL     1       2.958   1.566  -0.048  0.00  0.00    -0.243 N 
ATOM      6  N   UNL     1       1.335   3.248   0.236  0.00  0.00    -0.321 N 
ATOM      7  C   UNL     1       1.097  -0.259   0.035  0.00  0.00    +0.210 C 
ATOM      8  C   UNL     1       1.205  -2.449  -0.118  0.00  0.00    +0.222 C 
ATOM      9  C   UNL     1       2.388  -0.698  -0.132  0.00  0.00    +0.176 C 
ATOM     10  C   UNL     1       3.455   0.263  -0.186  0.00  0.00    +0.273 C 
ATOM     11  C   UNL     1       1.595   1.907   0.122  0.00  0.00    +0.239 C 
ATOM     12  H   UNL     1       3.609   2.304  -0.070  0.00  0.00    +0.159 HD
ATOM     13  H   UNL     1       0.409   3.562   0.356  0.00  0.00    +0.146 HD
ATOM     14  H   UNL     1       2.074   3.898   0.198  0.00  0.00    +0.146 HD
ENDROOT
BRANCH   2  15
ATOM     15  C   UNL     1      -1.161  -1.490   0.200  0.00  0.00    +0.079 C 
ATOM     16  C   UNL     1      -3.149  -0.163  -0.235  0.00  0.00    +0.058 C 
ATOM     17  C   UNL     1      -1.919  -0.753  -0.923  0.00  0.00    +0.025 C 
ATOM     18  C   UNL     1      -2.592   0.264   1.121  0.00  0.00    +0.115 C 
ATOM     19  C   UNL     1      -1.706  -0.913   1.522  0.00  0.00    +0.049 C 
BRANCH  18  20
ATOM     20  O   UNL     1      -3.631   0.473   2.058  0.00  0.00    -0.384 OA
ATOM     21  H   UNL     1      -4.175   1.225   1.775  0.00  0.00    +0.210 HD
ENDBRANCH  18  20
BRANCH  16  22
ATOM     22  C   UNL     1      -3.778   0.982  -1.013  0.00  0.00    +0.140 C 
BRANCH  22  23
ATOM     23  O   UNL     1      -4.167   0.504  -2.290  0.00  0.00    -0.382 OA
ATOM     24  H   UNL     1      -4.570   1.227  -2.796  0.00  0.00    +0.210 HD
ENDBRANCH  22  23
ENDBRANCH  16  22
ENDBRANCH   2  15
TORSDOF 4
