135476776
  -OEChem-03292013293D

 30 31  0     1  0  0  0  0  0999 V2000
   -2.9565    0.2271   -1.7756 O   0  0  0  0  0  0  0  0  0  0  0  0
   -3.0958   -0.0089    1.8619 O   0  0  0  0  0  0  0  0  0  0  0  0
    1.1763    2.5802   -0.2236 O   0  0  0  0  0  0  0  0  0  0  0  0
    0.5770   -2.0829   -0.0346 N   0  0  0  0  0  0  0  0  0  0  0  0
   -0.5389    0.4371   -0.2970 N   0  0  0  0  0  0  0  0  0  0  0  0
    2.7722   -1.1255    0.1592 N   0  0  0  0  0  0  0  0  0  0  0  0
    3.0012    1.2063    0.0568 N   0  0  0  0  0  0  0  0  0  0  0  0
    4.8869   -0.1344    0.3420 N   0  0  0  0  0  0  0  0  0  0  0  0
   -2.7980   -0.3791   -0.5053 C   0  0  1  0  0  0  0  0  0  0  0  0
   -1.3178   -0.6010   -0.3273 C   0  0  0  0  0  0  0  0  0  0  0  0
   -0.8507   -2.0328   -0.1979 C   0  0  0  0  0  0  0  0  0  0  0  0
   -3.3775    0.5314    0.5715 C   0  0  1  0  0  0  0  0  0  0  0  0
    1.4066   -0.9755   -0.0021 C   0  0  0  0  0  0  0  0  0  0  0  0
    0.8103    0.2325   -0.1350 C   0  0  0  0  0  0  0  0  0  0  0  0
   -4.8804    0.7343    0.4289 C   0  0  0  0  0  0  0  0  0  0  0  0
    1.6575    1.4569   -0.1075 C   0  0  0  0  0  0  0  0  0  0  0  0
    3.5277   -0.0658    0.1857 C   0  0  0  0  0  0  0  0  0  0  0  0
   -3.3130   -1.3465   -0.5033 H   0  0  0  0  0  0  0  0  0  0  0  0
   -1.3432   -2.4876    0.6672 H   0  0  0  0  0  0  0  0  0  0  0  0
   -1.1447   -2.5819   -1.0978 H   0  0  0  0  0  0  0  0  0  0  0  0
   -2.8999    1.5178    0.5199 H   0  0  0  0  0  0  0  0  0  0  0  0
    1.0293   -2.9854    0.0654 H   0  0  0  0  0  0  0  0  0  0  0  0
   -5.4116   -0.2194    0.5213 H   0  0  0  0  0  0  0  0  0  0  0  0
   -5.1376    1.1876   -0.5329 H   0  0  0  0  0  0  0  0  0  0  0  0
   -5.2578    1.3817    1.2279 H   0  0  0  0  0  0  0  0  0  0  0  0
   -2.6982   -0.4260   -2.4484 H   0  0  0  0  0  0  0  0  0  0  0  0
    3.6373    1.9975    0.0845 H   0  0  0  0  0  0  0  0  0  0  0  0
   -3.4513    0.6089    2.5234 H   0  0  0  0  0  0  0  0  0  0  0  0
    5.3594   -1.0259    0.4440 H   0  0  0  0  0  0  0  0  0  0  0  0
    5.4601    0.7020    0.3604 H   0  0  0  0  0  0  0  0  0  0  0  0
  1  9  1  0  0  0  0
  1 26  1  0  0  0  0
  2 12  1  0  0  0  0
  2 28  1  0  0  0  0
  3 16  2  0  0  0  0
  4 11  1  0  0  0  0
  4 13  1  0  0  0  0
  4 22  1  0  0  0  0
  5 10  2  0  0  0  0
  5 14  1  0  0  0  0
  6 13  1  0  0  0  0
  6 17  2  0  0  0  0
  7 16  1  0  0  0  0
  7 17  1  0  0  0  0
  7 27  1  0  0  0  0
  8 17  1  0  0  0  0
  8 29  1  0  0  0  0
  8 30  1  0  0  0  0
  9 10  1  0  0  0  0
  9 12  1  0  0  0  0
  9 18  1  0  0  0  0
 10 11  1  0  0  0  0
 11 19  1  0  0  0  0
 11 20  1  0  0  0  0
 12 15  1  0  0  0  0
 12 21  1  0  0  0  0
 13 14  2  0  0  0  0
 14 16  1  0  0  0  0
 15 23  1  0  0  0  0
 15 24  1  0  0  0  0
 15 25  1  0  0  0  0
M  END
> <PUBCHEM_COMPOUND_CID>
135476776

> <PUBCHEM_CONFORMER_RMSD>
0.6

> <PUBCHEM_CONFORMER_DIVERSEORDER>
1
13
10
11
12
14
7
6
16
2
5
4
9
3
8
15

> <PUBCHEM_MMFF94_PARTIAL_CHARGES>
22
1 -0.68
10 0.33
11 0.43
12 0.28
13 0.27
14 0.19
16 0.62
17 0.56
2 -0.68
22 0.4
26 0.4
27 0.37
28 0.4
29 0.4
3 -0.57
30 0.4
4 -0.87
5 -0.62
6 -0.62
7 -0.49
8 -0.85
9 0.34

> <PUBCHEM_EFFECTIVE_ROTOR_COUNT>
2.4

> <PUBCHEM_PHARMACOPHORE_FEATURES>
12
1 1 acceptor
1 1 donor
1 2 acceptor
1 2 donor
1 3 acceptor
1 4 cation
1 4 donor
1 5 acceptor
1 7 donor
1 8 donor
6 4 5 10 11 13 14 rings
6 6 7 13 14 16 17 rings

> <PUBCHEM_HEAVY_ATOM_COUNT>
17

> <PUBCHEM_ATOM_DEF_STEREO_COUNT>
2

> <PUBCHEM_ATOM_UDEF_STEREO_COUNT>
0

> <PUBCHEM_BOND_DEF_STEREO_COUNT>
0

> <PUBCHEM_BOND_UDEF_STEREO_COUNT>
0

> <PUBCHEM_ISOTOPIC_ATOM_COUNT>
0

> <PUBCHEM_COMPONENT_COUNT>
1

> <PUBCHEM_CACTVS_TAUTO_COUNT>
-1

> <PUBCHEM_CONFORMER_ID>
0813362800000001

> <PUBCHEM_MMFF94_ENERGY>
44.5428

> <PUBCHEM_FEATURE_SELFOVERLAP>
60.983

> <PUBCHEM_SHAPE_FINGERPRINT>
10366900 7 17313101973326078851
11132069 177 18338785793528053970
11471102 20 18410008810626555727
11543360 7 15625931101498068782
12236239 1 17775282746913295975
12251169 10 18408608071546699923
124424 183 17821717325876860446
13140716 1 18265330780087460138
13922767 16 18411982459562612481
14004511 7 18273216408546173233
14144814 61 18412823603142849048
14289901 80 15936413342206276301
15209294 21 17917993836928392504
15309172 13 18409449185030815719
15375462 189 17968085413874297650
15653759 3 17167861958974408229
15775835 57 17988926656683754905
16945 1 18410008832054075382
17844478 74 17676204658654080829
18186145 218 18413386544574927310
18219364 16 18333445448113575103
18511873 20 18342457075410987348
19049666 15 17460588126692876367
200 152 18200584900199909743
20671657 1 18191873541981128404
21501502 16 18120936363276603974
21524375 3 18273498987693651287
22094290 62 18338797917819985852
23184049 59 18410014320863848524
23402539 116 17988917873101094740
23493267 7 16950831519020507909
23557571 272 14836400363456976971
23559900 14 18342175627217144732
25 1 18408600353247973374
2748010 2 18121496023401062622
350125 39 18121786285601454771
474 4 18342741814668357627
5104073 3 18264762328597509346
74978 22 18268710687210252868
77492 1 17847056675430442087
7832392 63 18341327902844683694
81228 2 16390682842043507851
9981440 41 17051305162102328432

> <PUBCHEM_SHAPE_MULTIPOLES>
307.34
7.84
1.84
0.97
1.14
0.06
-0.03
1.69
-1.5
-0.76
0.12
1.08
0.05
-0.3

> <PUBCHEM_SHAPE_SELFOVERLAP>
651.221

> <PUBCHEM_SHAPE_VOLUME>
169.6

> <PUBCHEM_COORDINATE_TYPE>
2
5
10

$$$$
