REMARK  Name = 135413514
REMARK  8 active torsions:
REMARK  status: ('A' for Active; 'I' for Inactive)
REMARK    1  A    between atoms: C_6  and  C_21
REMARK    2  A    between atoms: C_8  and  O_29
REMARK    3  A    between atoms: C_17  and  C_34
REMARK    4  A    between atoms: C_18  and  O_31
REMARK    5  A    between atoms: N_20  and  C_23
REMARK    6  A    between atoms: C_23  and  C_24
REMARK    7  A    between atoms: C_24  and  N_25
REMARK    8  A    between atoms: C_34  and  O_35
REMARK                            x       y       z     vdW  Elec       q    Type
REMARK                         _______ _______ _______ _____ _____    ______ ____
ROOT
ATOM      1  N   UNL     1      -0.476   2.429  -0.036  0.00  0.00    -0.397 NA
ATOM      2  N   UNL     1       0.187  -0.230  -0.153  0.00  0.00    -0.396 NA
ATOM      3  C   UNL     1      -1.454   1.501  -0.041  0.00  0.00    +0.161 A 
ATOM      4  C   UNL     1      -1.100   0.147  -0.101  0.00  0.00    +0.168 A 
ATOM      5  C   UNL     1      -2.820   1.861   0.012  0.00  0.00    +0.035 A 
ATOM      6  C   UNL     1      -2.093  -0.822  -0.107  0.00  0.00    +0.119 A 
ATOM      7  C   UNL     1      -3.821   0.860   0.004  0.00  0.00    +0.036 A 
ATOM      8  C   UNL     1      -3.441  -0.480  -0.056  0.00  0.00    +0.141 A 
ATOM      9  C   UNL     1       1.149   0.704  -0.147  0.00  0.00    +0.161 C 
ATOM     10  C   UNL     1       0.812   2.056  -0.088  0.00  0.00    +0.164 C 
ATOM     11  C   UNL     1      -3.238   3.208   0.073  0.00  0.00    +0.003 C 
ATOM     12  C   UNL     1      -5.179   1.218   0.057  0.00  0.00    +0.003 C 
ATOM     13  C   UNL     1       2.493   0.338  -0.201  0.00  0.00    +0.044 C 
ATOM     14  C   UNL     1       1.827   3.011  -0.083  0.00  0.00    +0.072 C 
ATOM     15  C   UNL     1      -4.591   3.551   0.125  0.00  0.00    +0.000 C 
ATOM     16  C   UNL     1      -5.561   2.557   0.117  0.00  0.00    +0.000 C 
ATOM     17  C   UNL     1       3.505   1.297  -0.196  0.00  0.00    +0.112 C 
ATOM     18  C   UNL     1       3.169   2.642  -0.137  0.00  0.00    +0.148 C 
ENDROOT
BRANCH   6  21
ATOM     19  O   UNL     1      -2.095  -2.936  -1.121  0.00  0.00    -0.270 OA
ATOM     20  N   UNL     1      -0.933  -2.723   0.873  0.00  0.00    -0.303 N 
ATOM     21  C   UNL     1      -1.725  -2.236  -0.168  0.00  0.00    +0.251 C 
ATOM     22  H   UNL     1      -0.679  -2.105   1.596  0.00  0.00    +0.150 HD
BRANCH  20  23
ATOM     23  C   UNL     1      -0.467  -4.090   0.943  0.00  0.00    +0.067 C 
BRANCH  23  24
ATOM     24  C   UNL     1       0.878  -4.250   0.250  0.00  0.00    -0.056 C 
BRANCH  24  25
ATOM     25  N   UNL     1       1.342  -5.627   0.357  0.00  0.00    +0.385 N 
ATOM     26  C   UNL     1       0.664  -6.478  -0.623  0.00  0.00    -0.101 C 
ATOM     27  C   UNL     1       2.793  -5.698   0.173  0.00  0.00    -0.101 C 
ATOM     28  H   UNL     1       1.116  -5.966   1.292  0.00  0.00    -0.080 HD
ENDBRANCH  24  25
ENDBRANCH  23  24
ENDBRANCH  20  23
ENDBRANCH   6  21
BRANCH   8  29
ATOM     29  O   UNL     1      -4.380  -1.474  -0.064  0.00  0.00    -0.505 OA
ATOM     30  H   UNL     1      -4.112  -2.371  -0.105  0.00  0.00    +0.292 HD
ENDBRANCH   8  29
BRANCH  18  31
ATOM     31  O   UNL     1       4.129   3.608  -0.129  0.00  0.00    -0.471 OA
ATOM     32  C   UNL     1       4.623   4.021   1.144  0.00  0.00    +0.252 C 
ENDBRANCH  18  31
BRANCH  17  34
ATOM     33  O   UNL     1       5.821   1.510  -0.758  0.00  0.00    -0.245 OA
ATOM     34  C   UNL     1       4.895   0.869  -0.250  0.00  0.00    +0.341 C 
BRANCH  34  35
ATOM     35  O   UNL     1       5.087  -0.346   0.332  0.00  0.00    -0.477 OA
ATOM     36  H   UNL     1       4.362  -0.805   0.708  0.00  0.00    +0.295 HD
ENDBRANCH  34  35
ENDBRANCH  17  34
TORSDOF 8
