REMARK  Name = 135464206
REMARK  4 active torsions:
REMARK  status: ('A' for Active; 'I' for Inactive)
REMARK    1  A    between atoms: C_19  and  O_23
REMARK    2  A    between atoms: C_20  and  O_25
REMARK    3  A    between atoms: C_21  and  O_29
REMARK    4  A    between atoms: C_22  and  O_27
REMARK                            x       y       z     vdW  Elec       q    Type
REMARK                         _______ _______ _______ _____ _____    ______ ____
ROOT
ATOM      1  O   UNL     1      -2.002  -1.810   0.001  0.00  0.00    -0.450 OA
ATOM      2  O   UNL     1       2.002   1.810   0.001  0.00  0.00    -0.450 OA
ATOM      3  O   UNL     1       0.736  -2.646   0.000  0.00  0.00    -0.283 OA
ATOM      4  O   UNL     1      -0.735   2.646   0.000  0.00  0.00    -0.283 OA
ATOM      5  C   UNL     1       1.361  -0.360   0.001  0.00  0.00    +0.083 A 
ATOM      6  C   UNL     1      -1.361   0.360   0.000  0.00  0.00    +0.083 A 
ATOM      7  C   UNL     1       0.943   0.963   0.001  0.00  0.00    +0.187 A 
ATOM      8  C   UNL     1      -0.943  -0.963   0.000  0.00  0.00    +0.187 A 
ATOM      9  C   UNL     1      -2.781   0.323   0.000  0.00  0.00    +0.044 A 
ATOM     10  C   UNL     1       2.781  -0.323   0.000  0.00  0.00    +0.044 A 
ATOM     11  C   UNL     1      -0.411   1.466   0.000  0.00  0.00    +0.233 C 
ATOM     12  C   UNL     1       0.411  -1.466   0.000  0.00  0.00    +0.233 C 
ATOM     13  C   UNL     1       3.122   1.030   0.001  0.00  0.00    +0.149 A 
ATOM     14  C   UNL     1      -3.122  -1.030   0.000  0.00  0.00    +0.149 A 
ATOM     15  C   UNL     1       3.818  -1.273   0.000  0.00  0.00    +0.043 C 
ATOM     16  C   UNL     1      -3.818   1.273  -0.001  0.00  0.00    +0.043 C 
ATOM     17  C   UNL     1       4.433   1.503   0.001  0.00  0.00    +0.077 C 
ATOM     18  C   UNL     1      -4.433  -1.503   0.000  0.00  0.00    +0.077 C 
ATOM     19  C   UNL     1       5.146  -0.824  -0.001  0.00  0.00    +0.168 C 
ATOM     20  C   UNL     1      -5.146   0.824  -0.001  0.00  0.00    +0.168 C 
ATOM     21  C   UNL     1       5.446   0.539  -0.001  0.00  0.00    +0.171 C 
ATOM     22  C   UNL     1      -5.446  -0.539   0.000  0.00  0.00    +0.171 C 
ENDROOT
BRANCH  19  23
ATOM     23  O   UNL     1       6.152  -1.747  -0.001  0.00  0.00    -0.503 OA
ATOM     24  H   UNL     1       5.948  -2.662  -0.001  0.00  0.00    +0.292 HD
ENDBRANCH  19  23
BRANCH  20  25
ATOM     25  O   UNL     1      -6.152   1.747  -0.001  0.00  0.00    -0.503 OA
ATOM     26  H   UNL     1      -5.949   2.661  -0.001  0.00  0.00    +0.292 HD
ENDBRANCH  20  25
BRANCH  22  27
ATOM     27  O   UNL     1      -6.746  -0.954   0.000  0.00  0.00    -0.503 OA
ATOM     28  H   UNL     1      -6.946  -1.869   0.001  0.00  0.00    +0.292 HD
ENDBRANCH  22  27
BRANCH  21  29
ATOM     29  O   UNL     1       6.747   0.954  -0.001  0.00  0.00    -0.503 OA
ATOM     30  H   UNL     1       6.947   1.869   0.000  0.00  0.00    +0.292 HD
ENDBRANCH  21  29
TORSDOF 4
