REMARK  Name = 135438599
REMARK  12 active torsions:
REMARK  status: ('A' for Active; 'I' for Inactive)
REMARK    1  A    between atoms: CA_2  and  C_10
REMARK    2  A    between atoms: CA_5  and  C_14
REMARK    3  A    between atoms: C_7  and  C_18
REMARK    4  A    between atoms: C_10  and  O_11
REMARK    5  A    between atoms: C_14  and  O_15
REMARK    6  A    between atoms: N_17  and  C_18
REMARK    7  A    between atoms: N_17  and  CA_19
REMARK    8  A    between atoms: CA_19  and  C_21
REMARK    9  A    between atoms: CA_19  and  CB_24
REMARK   10  A    between atoms: C_21  and  O_22
REMARK   11  A    between atoms: CB_24  and  CG_25
REMARK   12  A    between atoms: CG_25  and  CD_28
REMARK                            x       y       z     vdW  Elec       q    Type
REMARK                         _______ _______ _______ _____ _____    ______ ____
ROOT
ATOM      1  N   GLN A   1      -4.182  -0.069  -0.833  0.00  0.00    -0.320 N 
ATOM      2  CA  GLN A   1      -3.139  -0.983  -1.263  0.00  0.00    +0.174 C 
ATOM      3  C   GLN A   1      -1.776  -0.270  -1.303  0.00  0.00    +0.057 C 
ATOM      4  C   GLN A   1      -1.538   0.664  -0.128  0.00  0.00    -0.021 C 
ATOM      5  CA  GLN A   1      -3.935   0.994   0.000  0.00  0.00    +0.121 C 
ATOM      6  C   GLN A   1      -2.705   1.369   0.385  0.00  0.00    +0.016 C 
ATOM      7  C   GLN A   1      -0.318   0.847   0.398  0.00  0.00    -0.012 C 
ATOM      8  H   GLN A   1      -5.102  -0.218  -1.151  0.00  0.00    +0.147 HD
ENDROOT
BRANCH   2  10
ATOM      9  OXT GLN A   1      -3.845  -2.263   0.661  0.00  0.00    -0.248 OA
ATOM     10  C   GLN A   1      -3.124  -2.145  -0.318  0.00  0.00    +0.332 C 
BRANCH  10  11
ATOM     11  O   GLN A   1      -2.194  -3.056  -0.696  0.00  0.00    -0.479 OA
ATOM     12  H   GLN A   1      -1.673  -2.905  -1.459  0.00  0.00    +0.295 HD
ENDBRANCH  10  11
ENDBRANCH   2  10
BRANCH   5  14
ATOM     13  OXT GLN A   1      -4.989   2.692   1.288  0.00  0.00    -0.244 OA
ATOM     14  C   GLN A   1      -5.077   1.747   0.525  0.00  0.00    +0.351 C 
BRANCH  14  15
ATOM     15  O   GLN A   1      -6.223   1.231   0.034  0.00  0.00    -0.476 OA
ATOM     16  H   GLN A   1      -6.195   0.499  -0.550  0.00  0.00    +0.295 HD
ENDBRANCH  14  15
ENDBRANCH   5  14
BRANCH   7  17
ATOM     17  C   GLN A   1       0.821   0.104  -0.167  0.00  0.00    +0.115 C 
BRANCH  17  18
ATOM     18  N   GLN A   1       1.835  -0.228   0.553  0.00  0.00    -0.204 NA
BRANCH  18  19
ATOM     19  CA  GLN A   1       2.866  -0.965  -0.172  0.00  0.00    +0.172 C 
BRANCH  19  21
ATOM     20  OXT GLN A   1       3.197  -2.047   1.984  0.00  0.00    -0.249 OA
ATOM     21  C   GLN A   1       3.476  -1.958   0.795  0.00  0.00    +0.330 C 
BRANCH  21  22
ATOM     22  O   GLN A   1       4.394  -2.758   0.194  0.00  0.00    -0.479 OA
ATOM     23  H   GLN A   1       4.578  -2.656  -0.720  0.00  0.00    +0.295 HD
ENDBRANCH  21  22
ENDBRANCH  19  21
BRANCH  19  24
ATOM     24  CB  GLN A   1       3.894   0.002  -0.772  0.00  0.00    +0.038 C 
BRANCH  24  25
ATOM     25  CG  GLN A   1       4.656   0.863   0.242  0.00  0.00    +0.087 C 
BRANCH  25  28
ATOM     26  OE1 GLN A   1       5.874   1.888  -1.588  0.00  0.00    -0.275 OA
ATOM     27  NE2 GLN A   1       6.348   2.549   0.560  0.00  0.00    -0.329 N 
ATOM     28  CD  GLN A   1       5.683   1.791  -0.379  0.00  0.00    +0.219 C 
ATOM     29 HE21 GLN A   1       7.039   3.190   0.277  0.00  0.00    +0.145 HD
ATOM     30 HE22 GLN A   1       6.131   2.449   1.516  0.00  0.00    +0.145 HD
ENDBRANCH  25  28
ENDBRANCH  24  25
ENDBRANCH  19  24
ENDBRANCH  18  19
ENDBRANCH  17  18
ENDBRANCH   7  17
TORSDOF 12
