REMARK  Name = 135474712
REMARK  6 active torsions:
REMARK  status: ('A' for Active; 'I' for Inactive)
REMARK    1  A    between atoms: C_5  and  O_33
REMARK    2  A    between atoms: C_7  and  C_23
REMARK    3  A    between atoms: C_18  and  O_35
REMARK    4  A    between atoms: C_21  and  O_37
REMARK    5  A    between atoms: C_26  and  O_29
REMARK    6  A    between atoms: C_28  and  O_31
REMARK                            x       y       z     vdW  Elec       q    Type
REMARK                         _______ _______ _______ _____ _____    ______ ____
ROOT
ATOM      1  O   UNL     1      -2.166  -0.671  -0.036  0.00  0.00    -0.473 OA
ATOM      2  O   UNL     1       1.170   2.818   0.015  0.00  0.00    -0.443 OA
ATOM      3  O   UNL     1       2.389  -1.859   0.012  0.00  0.00    -0.457 OA
ATOM      4  O   UNL     1       6.901  -3.183   0.086  0.00  0.00    -0.288 OA
ATOM      5  C   UNL     1      -2.960   1.630  -0.374  0.00  0.00    +0.159 C 
ATOM      6  C   UNL     1      -1.581   2.205  -0.058  0.00  0.00    +0.062 C 
ATOM      7  C   UNL     1      -3.146   0.298   0.363  0.00  0.00    +0.215 C 
ATOM      8  C   UNL     1      -0.519   1.135  -0.029  0.00  0.00    +0.036 C 
ATOM      9  C   UNL     1      -0.870  -0.223  -0.013  0.00  0.00    +0.138 C 
ATOM     10  C   UNL     1       0.844   1.476   0.003  0.00  0.00    +0.216 C 
ATOM     11  C   UNL     1       1.833   0.483   0.017  0.00  0.00    +0.056 C 
ATOM     12  C   UNL     1       1.461  -0.854   0.004  0.00  0.00    +0.147 C 
ATOM     13  C   UNL     1       0.115  -1.214  -0.014  0.00  0.00    +0.074 C 
ATOM     14  C   UNL     1       3.249   0.874   0.043  0.00  0.00    +0.012 C 
ATOM     15  C   UNL     1       4.172  -0.122   0.052  0.00  0.00    +0.034 C 
ATOM     16  C   UNL     1       3.741  -1.532   0.037  0.00  0.00    +0.131 C 
ATOM     17  C   UNL     1       3.521   2.303   0.057  0.00  0.00    +0.077 C 
ATOM     18  C   UNL     1       2.510   3.192   0.044  0.00  0.00    +0.289 C 
ATOM     19  C   UNL     1       5.615   0.144   0.075  0.00  0.00    +0.042 C 
ATOM     20  C   UNL     1       4.635  -2.531   0.047  0.00  0.00    +0.137 C 
ATOM     21  C   UNL     1       6.527  -0.841   0.086  0.00  0.00    +0.169 C 
ATOM     22  C   UNL     1       6.092  -2.261   0.074  0.00  0.00    +0.214 C 
ENDROOT
BRANCH   7  23
ATOM     23  C   UNL     1      -4.538  -0.270   0.160  0.00  0.00    +0.023 C 
ATOM     24  C   UNL     1      -5.568   0.079   1.033  0.00  0.00    +0.039 C 
ATOM     25  C   UNL     1      -4.788  -1.141  -0.900  0.00  0.00    +0.003 C 
ATOM     26  C   UNL     1      -6.848  -0.443   0.846  0.00  0.00    +0.167 C 
ATOM     27  C   UNL     1      -6.067  -1.663  -1.088  0.00  0.00    +0.040 C 
ATOM     28  C   UNL     1      -7.098  -1.314  -0.215  0.00  0.00    +0.167 C 
BRANCH  26  29
ATOM     29  O   UNL     1      -7.847  -0.093   1.704  0.00  0.00    -0.503 OA
ATOM     30  H   UNL     1      -7.670   0.493   2.414  0.00  0.00    +0.292 HD
ENDBRANCH  26  29
BRANCH  28  31
ATOM     31  O   UNL     1      -8.344  -1.830  -0.408  0.00  0.00    -0.503 OA
ATOM     32  H   UNL     1      -9.041  -1.600   0.174  0.00  0.00    +0.292 HD
ENDBRANCH  28  31
ENDBRANCH   7  23
BRANCH   5  33
ATOM     33  O   UNL     1      -3.084   1.458  -1.787  0.00  0.00    -0.380 OA
ATOM     34  H   UNL     1      -2.962   2.313  -2.228  0.00  0.00    +0.211 HD
ENDBRANCH   5  33
BRANCH  18  35
ATOM     35  O   UNL     1       2.765   4.553   0.057  0.00  0.00    -0.480 OA
ATOM     36  H   UNL     1       2.054   5.163   0.048  0.00  0.00    +0.295 HD
ENDBRANCH  18  35
BRANCH  21  37
ATOM     37  O   UNL     1       7.885  -0.605   0.107  0.00  0.00    -0.503 OA
ATOM     38  H   UNL     1       8.208   0.275   0.116  0.00  0.00    +0.292 HD
ENDBRANCH  21  37
TORSDOF 6
