REMARK  Name = 135434162
REMARK  10 active torsions:
REMARK  status: ('A' for Active; 'I' for Inactive)
REMARK    1  A    between atoms: N_2  and  C_15
REMARK    2  A    between atoms: C_15  and  O_16
REMARK    3  A    between atoms: O_16  and  C_17
REMARK    4  A    between atoms: C_17  and  C_18
REMARK    5  A    between atoms: C_17  and  C_26
REMARK    6  A    between atoms: C_18  and  O_19
REMARK    7  A    between atoms: O_19  and  P_20
REMARK    8  A    between atoms: P_20  and  O_22
REMARK    9  A    between atoms: P_20  and  O_24
REMARK   10  A    between atoms: C_26  and  O_27
REMARK                            x       y       z     vdW  Elec       q    Type
REMARK                         _______ _______ _______ _____ _____    ______ ____
ROOT
ATOM      1  O   UNL     1      -5.035   0.371   0.395  0.00  0.00    -0.268 OA
ATOM      2  N   UNL     1      -1.056  -1.422  -0.775  0.00  0.00    -0.235 N 
ATOM      3  N   UNL     1      -3.264  -1.762  -0.673  0.00  0.00    -0.240 NA
ATOM      4  N   UNL     1      -0.909   0.819   0.127  0.00  0.00    -0.357 NA
ATOM      5  N   UNL     1      -3.090   1.629   0.697  0.00  0.00    -0.243 N 
ATOM      6  N   UNL     1      -1.183   2.968   1.037  0.00  0.00    -0.321 N 
ATOM      7  C   UNL     1      -1.593  -0.284  -0.250  0.00  0.00    +0.211 C 
ATOM      8  C   UNL     1      -2.945  -0.523  -0.200  0.00  0.00    +0.176 C 
ATOM      9  C   UNL     1      -2.101  -2.282  -1.013  0.00  0.00    +0.224 C 
ATOM     10  C   UNL     1      -3.819   0.495   0.313  0.00  0.00    +0.273 C 
ATOM     11  C   UNL     1      -1.686   1.769   0.601  0.00  0.00    +0.239 C 
ATOM     12  H   UNL     1      -3.597   2.390   1.064  0.00  0.00    +0.159 HD
ATOM     13  H   UNL     1      -0.214   3.138   1.001  0.00  0.00    +0.146 HD
ATOM     14  H   UNL     1      -1.792   3.658   1.387  0.00  0.00    +0.146 HD
ENDROOT
BRANCH   2  15
ATOM     15  C   UNL     1       0.338  -1.690  -1.037  0.00  0.00    +0.244 C 
BRANCH  15  16
ATOM     16  O   UNL     1       1.054  -1.589   0.190  0.00  0.00    -0.332 OA
BRANCH  16  17
ATOM     17  C   UNL     1       2.443  -1.828   0.007  0.00  0.00    +0.176 C 
BRANCH  17  18
ATOM     18  C   UNL     1       3.086  -0.567  -0.560  0.00  0.00    +0.186 C 
BRANCH  18  19
ATOM     19  O   UNL     1       2.875   0.525   0.328  0.00  0.00    -0.271 OA
BRANCH  19  20
ATOM     20  P   UNL     1       2.773   2.011  -0.298  0.00  0.00    +0.473 P 
ATOM     21  O   UNL     1       2.550   3.109   0.702  0.00  0.00    -0.227 OA
BRANCH  20  22
ATOM     22  O   UNL     1       1.635   1.873  -1.438  0.00  0.00    -0.303 OA
ATOM     23  H   UNL     1       1.863   1.143  -2.035  0.00  0.00    +0.222 HD
ENDBRANCH  20  22
BRANCH  20  24
ATOM     24  O   UNL     1       4.142   2.133  -1.150  0.00  0.00    -0.303 OA
ATOM     25  H   UNL     1       4.205   1.387  -1.768  0.00  0.00    +0.222 HD
ENDBRANCH  20  24
ENDBRANCH  19  20
ENDBRANCH  18  19
ENDBRANCH  17  18
BRANCH  17  26
ATOM     26  C   UNL     1       3.039  -2.196   1.360  0.00  0.00    +0.169 C 
BRANCH  26  27
ATOM     27  O   UNL     1       2.747  -3.561   1.638  0.00  0.00    -0.379 OA
ATOM     28  H   UNL     1       3.123  -3.803   2.499  0.00  0.00    +0.211 HD
ENDBRANCH  26  27
ENDBRANCH  17  26
ENDBRANCH  16  17
ENDBRANCH  15  16
ENDBRANCH   2  15
TORSDOF 10
