REMARK  Name = 135400916
REMARK  7 active torsions:
REMARK  status: ('A' for Active; 'I' for Inactive)
REMARK    1  A    between atoms: N_2  and  C_12
REMARK    2  A    between atoms: C_12  and  C_14
REMARK    3  A    between atoms: C_12  and  O_15
REMARK    4  A    between atoms: O_15  and  C_16
REMARK    5  A    between atoms: C_16  and  C_18
REMARK    6  A    between atoms: C_16  and  C_19
REMARK    7  A    between atoms: C_19  and  O_20
REMARK                            x       y       z     vdW  Elec       q    Type
REMARK                         _______ _______ _______ _____ _____    ______ ____
ROOT
ATOM      1  O   UNL     1      -4.533   1.071   0.398  0.00  0.00    -0.268 OA
ATOM      2  N   UNL     1      -0.255  -0.316   0.881  0.00  0.00    -0.243 N 
ATOM      3  N   UNL     1      -1.991   0.675   1.886  0.00  0.00    -0.241 NA
ATOM      4  N   UNL     1      -1.202  -0.754  -1.307  0.00  0.00    -0.232 NA
ATOM      5  N   UNL     1      -3.471   0.037  -1.406  0.00  0.00    -0.279 N 
ATOM      6  C   UNL     1      -1.259  -0.280  -0.041  0.00  0.00    +0.154 C 
ATOM      7  C   UNL     1      -2.309   0.333   0.604  0.00  0.00    +0.162 C 
ATOM      8  C   UNL     1      -0.744   0.270   2.023  0.00  0.00    +0.223 C 
ATOM      9  C   UNL     1      -3.550   0.533  -0.098  0.00  0.00    +0.267 C 
ATOM     10  C   UNL     1      -2.326  -0.570  -1.936  0.00  0.00    +0.220 C 
ATOM     11  H   UNL     1      -4.264   0.119  -1.984  0.00  0.00    +0.152 HD
ENDROOT
BRANCH   2  12
ATOM     12  C   UNL     1       1.070  -0.860   0.707  0.00  0.00    +0.262 C 
BRANCH  12  14
ATOM     13  O   UNL     1       1.417  -2.883  -0.594  0.00  0.00    -0.284 OA
ATOM     14  C   UNL     1       1.001  -2.348   0.429  0.00  0.00    +0.258 C 
ENDBRANCH  12  14
BRANCH  12  15
ATOM     15  O   UNL     1       1.740  -0.245  -0.391  0.00  0.00    -0.323 OA
BRANCH  15  16
ATOM     16  C   UNL     1       2.549   0.856   0.001  0.00  0.00    +0.211 C 
BRANCH  16  18
ATOM     17  O   UNL     1       4.273  -0.825   0.306  0.00  0.00    -0.286 OA
ATOM     18  C   UNL     1       3.929   0.351   0.368  0.00  0.00    +0.239 C 
ENDBRANCH  16  18
BRANCH  16  19
ATOM     19  C   UNL     1       2.637   1.837  -1.157  0.00  0.00    +0.175 C 
BRANCH  19  20
ATOM     20  O   UNL     1       3.025   3.116  -0.675  0.00  0.00    -0.379 OA
ATOM     21  H   UNL     1       3.079   3.738  -1.418  0.00  0.00    +0.211 HD
ENDBRANCH  19  20
ENDBRANCH  16  19
ENDBRANCH  15  16
ENDBRANCH  12  15
ENDBRANCH   2  12
TORSDOF 7
