REMARK  Name = 135480717
REMARK  7 active torsions:
REMARK  status: ('A' for Active; 'I' for Inactive)
REMARK    1  A    between atoms: N_2  and  C_15
REMARK    2  A    between atoms: C_15  and  S_16
REMARK    3  A    between atoms: S_16  and  C_17
REMARK    4  A    between atoms: C_17  and  C_18
REMARK    5  A    between atoms: C_17  and  C_21
REMARK    6  A    between atoms: C_18  and  O_19
REMARK    7  A    between atoms: C_21  and  O_22
REMARK                            x       y       z     vdW  Elec       q    Type
REMARK                         _______ _______ _______ _____ _____    ______ ____
ROOT
ATOM      1  O   UNL     1      -4.577  -0.959  -0.711  0.00  0.00    -0.268 OA
ATOM      2  N   UNL     1      -0.222  -1.000   0.492  0.00  0.00    -0.251 N 
ATOM      3  N   UNL     1      -1.972  -2.255  -0.113  0.00  0.00    -0.240 NA
ATOM      4  N   UNL     1      -1.214   1.207   0.427  0.00  0.00    -0.357 NA
ATOM      5  N   UNL     1      -3.516   1.064  -0.224  0.00  0.00    -0.243 N 
ATOM      6  N   UNL     1      -2.527   3.147   0.248  0.00  0.00    -0.321 N 
ATOM      7  C   UNL     1      -1.258  -0.137   0.287  0.00  0.00    +0.210 C 
ATOM      8  C   UNL     1      -2.313  -0.935  -0.082  0.00  0.00    +0.176 C 
ATOM      9  C   UNL     1      -0.701  -2.262   0.239  0.00  0.00    +0.223 C 
ATOM     10  C   UNL     1      -3.582  -0.329  -0.375  0.00  0.00    +0.273 C 
ATOM     11  C   UNL     1      -2.364   1.789   0.164  0.00  0.00    +0.239 C 
ATOM     12  H   UNL     1      -4.336   1.578  -0.403  0.00  0.00    +0.159 HD
ATOM     13  H   UNL     1      -1.770   3.718   0.513  0.00  0.00    +0.146 HD
ATOM     14  H   UNL     1      -3.401   3.552   0.045  0.00  0.00    +0.146 HD
ENDROOT
BRANCH   2  15
ATOM     15  C   UNL     1       1.123  -0.669   0.896  0.00  0.00    +0.154 C 
BRANCH  15  16
ATOM     16  S   UNL     1       2.084   0.024  -0.485  0.00  0.00    -0.114 S 
BRANCH  16  17
ATOM     17  C   UNL     1       3.660   0.256   0.372  0.00  0.00    +0.108 C 
BRANCH  17  18
ATOM     18  C   UNL     1       4.514   1.270  -0.388  0.00  0.00    +0.150 C 
BRANCH  18  19
ATOM     19  O   UNL     1       3.840   2.521  -0.460  0.00  0.00    -0.381 OA
ATOM     20  H   UNL     1       4.390   3.157  -0.943  0.00  0.00    +0.210 HD
ENDBRANCH  18  19
ENDBRANCH  17  18
BRANCH  17  21
ATOM     21  C   UNL     1       4.380  -1.087   0.497  0.00  0.00    +0.150 C 
BRANCH  21  22
ATOM     22  O   UNL     1       4.646  -1.646  -0.785  0.00  0.00    -0.381 OA
ATOM     23  H   UNL     1       5.102  -2.495  -0.680  0.00  0.00    +0.210 HD
ENDBRANCH  21  22
ENDBRANCH  17  21
ENDBRANCH  16  17
ENDBRANCH  15  16
ENDBRANCH   2  15
TORSDOF 7
