REMARK  Name = 135459767
REMARK  5 active torsions:
REMARK  status: ('A' for Active; 'I' for Inactive)
REMARK    1  A    between atoms: C_3  and  C_10
REMARK    2  A    between atoms: C_4  and  O_22
REMARK    3  A    between atoms: C_5  and  C_19
REMARK    4  A    between atoms: C_8  and  O_13
REMARK    5  A    between atoms: C_9  and  O_15
REMARK                            x       y       z     vdW  Elec       q    Type
REMARK                         _______ _______ _______ _____ _____    ______ ____
ROOT
ATOM      1  N   UNL     1       0.502  -1.455  -0.103  0.00  0.00    -0.171 NA
ATOM      2  N   UNL     1       1.838  -1.453  -0.245  0.00  0.00    -0.269 N 
ATOM      3  C   UNL     1       0.232  -0.192   0.237  0.00  0.00    +0.143 A 
ATOM      4  C   UNL     1       1.386   0.610   0.313  0.00  0.00    +0.173 A 
ATOM      5  C   UNL     1       2.416  -0.241  -0.007  0.00  0.00    +0.162 A 
ATOM      6  H   UNL     1       2.353  -2.254  -0.497  0.00  0.00    +0.189 HD
ENDROOT
BRANCH   3  10
ATOM      7  O   UNL     1      -1.975  -0.860   1.046  0.00  0.00    -0.347 OA
ATOM      8  C   UNL     1      -1.927   0.656  -0.775  0.00  0.00    +0.173 C 
ATOM      9  C   UNL     1      -3.375   0.362  -0.433  0.00  0.00    +0.167 C 
ATOM     10  C   UNL     1      -1.199   0.223   0.492  0.00  0.00    +0.189 C 
ATOM     11  C   UNL     1      -3.262  -0.913   0.393  0.00  0.00    +0.145 C 
ATOM     12  C   UNL     1      -3.317  -2.177  -0.453  0.00  0.00    +0.035 C 
BRANCH   8  13
ATOM     13  O   UNL     1      -1.700   2.018  -1.077  0.00  0.00    -0.379 OA
ATOM     14  H   UNL     1      -2.179   2.254  -1.887  0.00  0.00    +0.211 HD
ENDBRANCH   8  13
BRANCH   9  15
ATOM     15  O   UNL     1      -3.926   1.401   0.376  0.00  0.00    -0.379 OA
ATOM     16  H   UNL     1      -3.999   2.214  -0.148  0.00  0.00    +0.211 HD
ENDBRANCH   9  15
ENDBRANCH   3  10
BRANCH   5  19
ATOM     17  O   UNL     1       4.316   1.143   0.151  0.00  0.00    -0.269 OA
ATOM     18  N   UNL     1       4.676  -1.042  -0.444  0.00  0.00    -0.324 N 
ATOM     19  C   UNL     1       3.818   0.013  -0.092  0.00  0.00    +0.263 C 
ATOM     20  H   UNL     1       5.646  -0.888  -0.509  0.00  0.00    +0.145 HD
ATOM     21  H   UNL     1       4.306  -1.937  -0.626  0.00  0.00    +0.145 HD
ENDBRANCH   5  19
BRANCH   4  22
ATOM     22  O   UNL     1       1.499   1.908   0.622  0.00  0.00    -0.503 OA
ATOM     23  H   UNL     1       0.734   2.409   0.826  0.00  0.00    +0.292 HD
ENDBRANCH   4  22
TORSDOF 5
