REMARK  Name = 135485620
REMARK  12 active torsions:
REMARK  status: ('A' for Active; 'I' for Inactive)
REMARK    1  A    between atoms: C_1  and  C_22
REMARK    2  A    between atoms: C_4  and  C_9
REMARK    3  A    between atoms: N_8  and  CA_11
REMARK    4  A    between atoms: CA_11  and  C_13
REMARK    5  A    between atoms: CA_11  and  CB_16
REMARK    6  A    between atoms: C_13  and  O_14
REMARK    7  A    between atoms: CB_16  and  CG_17
REMARK    8  A    between atoms: CG_17  and  CD_19
REMARK    9  A    between atoms: CD_19  and  OE1_20
REMARK   10  A    between atoms: C_22  and  C_24
REMARK   11  A    between atoms: C_22  and  C_25
REMARK   12  A    between atoms: C_25  and  C_30
REMARK                            x       y       z     vdW  Elec       q    Type
REMARK                         _______ _______ _______ _____ _____    ______ ____
ROOT
ATOM      1  C   UNL     1       1.683   2.676  -0.338  0.00  0.00    -0.015 C 
ATOM      2  C   UNL     1       0.737   2.710   0.686  0.00  0.00    -0.004 C 
ATOM      3  C   UNL     1       1.296   2.335  -1.634  0.00  0.00    -0.004 C 
ATOM      4  C   UNL     1      -0.983   2.062  -0.881  0.00  0.00    +0.053 C 
ATOM      5  C   UNL     1      -0.596   2.403   0.415  0.00  0.00    +0.004 C 
ATOM      6  C   UNL     1      -0.037   2.028  -1.906  0.00  0.00    +0.004 C 
ENDROOT
BRANCH   4   9
ATOM      7  O   UNL     1      -2.839   1.903  -2.305  0.00  0.00    -0.270 OA
ATOM      8  N   UNL     1      -3.134   1.228  -0.107  0.00  0.00    -0.293 N 
ATOM      9  C   ACE A   0      -2.373   1.741  -1.163  0.00  0.00    +0.246 C 
ATOM     10  H   UNL     1      -2.701   1.125   0.772  0.00  0.00    +0.150 HD
BRANCH   8  11
ATOM     11  CA  UNL     1      -4.520   0.840  -0.235  0.00  0.00    +0.172 C 
BRANCH  11  13
ATOM     12  OXT UNL     1      -4.653   1.564   2.087  0.00  0.00    -0.248 OA
ATOM     13  C   UNL     1      -5.213   1.175   1.070  0.00  0.00    +0.332 C 
BRANCH  13  14
ATOM     14  O   UNL     1      -6.561   1.030   0.981  0.00  0.00    -0.479 OA
ATOM     15  H   UNL     1      -6.948   0.729   0.182  0.00  0.00    +0.295 HD
ENDBRANCH  13  14
ENDBRANCH  11  13
BRANCH  11  16
ATOM     16  CB  UNL     1      -4.689  -0.622  -0.667  0.00  0.00    +0.043 C 
BRANCH  16  17
ATOM     17  CG  UNL     1      -4.140  -1.674   0.304  0.00  0.00    +0.112 C 
BRANCH  17  19
ATOM     18  OE2 UNL     1      -4.837  -3.432  -1.231  0.00  0.00    -0.250 OA
ATOM     19  CD  UNL     1      -4.320  -3.099  -0.174  0.00  0.00    +0.314 C 
BRANCH  19  20
ATOM     20  OE1 UNL     1      -3.868  -3.995   0.741  0.00  0.00    -0.480 OA
ATOM     21  HE1 UNL     1      -3.478  -3.694   1.538  0.00  0.00    +0.295 HD
ENDBRANCH  19  20
ENDBRANCH  17  19
ENDBRANCH  16  17
ENDBRANCH  11  16
ENDBRANCH   8  11
ENDBRANCH   4   9
BRANCH   1  22
ATOM     22  C   UNL     1       3.134   3.011  -0.043  0.00  0.00    +0.091 C 
BRANCH  22  24
ATOM     23  O   UNL     1       2.409   5.267   0.540  0.00  0.00    -0.288 OA
ATOM     24  C   UNL     1       3.318   4.455   0.395  0.00  0.00    +0.212 C 
ENDBRANCH  22  24
BRANCH  22  25
ATOM     25  C   UNL     1       3.773   2.060   1.003  0.00  0.00    +0.038 C 
BRANCH  25  30
ATOM     26  O   UNL     1       0.631  -2.039   1.480  0.00  0.00    -0.274 OA
ATOM     27  N   UNL     1       3.873  -3.418  -0.590  0.00  0.00    -0.377 NA
ATOM     28  N   UNL     1       1.769  -3.741   0.412  0.00  0.00    -0.247 N 
ATOM     29  N   UNL     1       2.845  -5.524  -0.646  0.00  0.00    -0.321 N 
ATOM     30  C   UNL     1       3.785   0.626   0.593  0.00  0.00    -0.025 C 
ATOM     31  C   UNL     1       2.711  -0.201   0.917  0.00  0.00    -0.015 C 
ATOM     32  C   UNL     1       4.872   0.115  -0.115  0.00  0.00    -0.002 C 
ATOM     33  C   UNL     1       2.734  -1.544   0.528  0.00  0.00    +0.151 C 
ATOM     34  C   UNL     1       3.819  -2.072  -0.184  0.00  0.00    +0.124 C 
ATOM     35  C   UNL     1       4.888  -1.227  -0.501  0.00  0.00    +0.028 C 
ATOM     36  C   UNL     1       1.609  -2.440   0.861  0.00  0.00    +0.239 C 
ATOM     37  C   UNL     1       2.875  -4.202  -0.292  0.00  0.00    +0.237 C 
ATOM     38  H   UNL     1       1.048  -4.383   0.605  0.00  0.00    +0.158 HD
ATOM     39  H   UNL     1       3.596  -5.917  -1.147  0.00  0.00    +0.146 HD
ATOM     40  H   UNL     1       2.072  -6.082  -0.401  0.00  0.00    +0.146 HD
ENDBRANCH  25  30
ENDBRANCH  22  25
ENDBRANCH   1  22
TORSDOF 12
