REMARK  Name = 135443893
REMARK  5 active torsions:
REMARK  status: ('A' for Active; 'I' for Inactive)
REMARK    1  A    between atoms: C2*_2  and  O2*_17
REMARK    2  A    between atoms: C3*_3  and  O3*_19
REMARK    3  A    between atoms: C1*_4  and  N_7
REMARK    4  A    between atoms: C4*_5  and  C5*_21
REMARK    5  A    between atoms: C5*_21  and  O5*_22
REMARK                            x       y       z     vdW  Elec       q    Type
REMARK                         _______ _______ _______ _____ _____    ______ ____
ROOT
ATOM      1  O4* UNL     1      -1.935   0.773  -0.665  0.00  0.00    -0.332 OA
ATOM      2  C2* UNL     1      -1.584  -1.229   0.576  0.00  0.00    +0.188 C 
ATOM      3  C3* UNL     1      -3.067  -1.032   0.349  0.00  0.00    +0.171 C 
ATOM      4  C1* UNL     1      -0.978  -0.287  -0.461  0.00  0.00    +0.243 C 
ATOM      5  C4* UNL     1      -3.132   0.458   0.064  0.00  0.00    +0.176 C 
ENDROOT
BRANCH   4   7
ATOM      6  O   UNL     1       4.672   1.250   0.770  0.00  0.00    -0.268 OA
ATOM      7  N   UNL     1       0.358   0.274  -0.038  0.00  0.00    -0.157 N 
ATOM      8  N   UNL     1       0.426   1.398   0.708  0.00  0.00    -0.041 NA
ATOM      9  N   UNL     1       1.715   1.662   0.931  0.00  0.00    -0.136 NA
ATOM     10  N   UNL     1       1.917  -1.307  -1.024  0.00  0.00    -0.231 NA
ATOM     11  N   UNL     1       4.171  -0.646  -0.501  0.00  0.00    -0.279 N 
ATOM     12  C   UNL     1       1.601  -0.205  -0.308  0.00  0.00    +0.173 C 
ATOM     13  C   UNL     1       2.436   0.689   0.315  0.00  0.00    +0.188 C 
ATOM     14  C   UNL     1       3.859   0.501   0.245  0.00  0.00    +0.269 C 
ATOM     15  C   UNL     1       3.206  -1.476  -1.086  0.00  0.00    +0.220 C 
ATOM     16  H   UNL     1       5.120  -0.880  -0.619  0.00  0.00    +0.152 HD
ENDBRANCH   4   7
BRANCH   2  17
ATOM     17  O2* UNL     1      -1.195  -2.569   0.330  0.00  0.00    -0.378 OA
ATOM     18  H2* UNL     1      -1.590  -3.149   1.000  0.00  0.00    +0.211 HD
ENDBRANCH   2  17
BRANCH   3  19
ATOM     19  O3* UNL     1      -3.808  -1.385   1.500  0.00  0.00    -0.379 OA
ATOM     20  H3* UNL     1      -3.741  -2.342   1.647  0.00  0.00    +0.211 HD
ENDBRANCH   3  19
BRANCH   5  21
ATOM     21  C5* UNL     1      -4.346   0.864  -0.753  0.00  0.00    +0.169 C 
BRANCH  21  22
ATOM     22  O5* UNL     1      -4.316   2.268  -0.952  0.00  0.00    -0.379 OA
ATOM     23  H5* UNL     1      -5.088   2.537  -1.474  0.00  0.00    +0.211 HD
ENDBRANCH  21  22
ENDBRANCH   5  21
TORSDOF 5
