REMARK  Name = 135449095
REMARK  3 active torsions:
REMARK  status: ('A' for Active; 'I' for Inactive)
REMARK    1  A    between atoms: C_10  and  O_18
REMARK    2  A    between atoms: C_11  and  O_20
REMARK    3  A    between atoms: C_13  and  O_22
REMARK                            x       y       z     vdW  Elec       q    Type
REMARK                         _______ _______ _______ _____ _____    ______ ____
ROOT
ATOM      1  O   UNL     1      -0.291   2.540  -0.002  0.00  0.00    -0.286 OA
ATOM      2  O   UNL     1      -0.274  -2.804   0.001  0.00  0.00    -0.286 OA
ATOM      3  N   UNL     1      -3.931  -0.868   0.000  0.00  0.00    -0.248 NA
ATOM      4  C   UNL     1       1.021   0.571   0.000  0.00  0.00    +0.082 C 
ATOM      5  C   UNL     1       1.027  -0.827   0.000  0.00  0.00    +0.079 C 
ATOM      6  C   UNL     1      -1.524   0.561  -0.001  0.00  0.00    +0.045 C 
ATOM      7  C   UNL     1      -1.513  -0.831   0.000  0.00  0.00    +0.061 C 
ATOM      8  C   UNL     1      -0.256   1.316  -0.001  0.00  0.00    +0.199 C 
ATOM      9  C   UNL     1      -0.244  -1.580   0.000  0.00  0.00    +0.200 C 
ATOM     10  C   UNL     1       2.232   1.273   0.000  0.00  0.00    +0.171 C 
ATOM     11  C   UNL     1       2.242  -1.521   0.000  0.00  0.00    +0.140 C 
ATOM     12  C   UNL     1      -2.742   1.240   0.000  0.00  0.00    +0.018 C 
ATOM     13  C   UNL     1       3.441   0.578   0.001  0.00  0.00    +0.171 C 
ATOM     14  C   UNL     1      -2.733  -1.495   0.000  0.00  0.00    +0.102 C 
ATOM     15  C   UNL     1       3.446  -0.816   0.001  0.00  0.00    +0.076 C 
ATOM     16  C   UNL     1      -3.904   0.484   0.000  0.00  0.00    +0.059 C 
ATOM     17  C   UNL     1      -5.226   1.176   0.002  0.00  0.00    +0.052 C 
ENDROOT
BRANCH  10  18
ATOM     18  O   UNL     1       2.283   2.637   0.001  0.00  0.00    -0.503 OA
ATOM     19  H   UNL     1       1.490   3.136   0.001  0.00  0.00    +0.292 HD
ENDBRANCH  10  18
BRANCH  11  20
ATOM     20  O   UNL     1       2.316  -2.882  -0.001  0.00  0.00    -0.505 OA
ATOM     21  H   UNL     1       1.531  -3.394  -0.001  0.00  0.00    +0.292 HD
ENDBRANCH  11  20
BRANCH  13  22
ATOM     22  O   UNL     1       4.629   1.247   0.000  0.00  0.00    -0.503 OA
ATOM     23  H   UNL     1       4.638   2.184   0.000  0.00  0.00    +0.292 HD
ENDBRANCH  13  22
TORSDOF 3
