REMARK  Name = 135457811
REMARK  6 active torsions:
REMARK  status: ('A' for Active; 'I' for Inactive)
REMARK    1  A    between atoms: C_3  and  C_9
REMARK    2  A    between atoms: C_4  and  C_19
REMARK    3  A    between atoms: C_5  and  O_25
REMARK    4  A    between atoms: C_6  and  O_27
REMARK    5  A    between atoms: C_12  and  O_15
REMARK    6  A    between atoms: C_14  and  O_17
REMARK                            x       y       z     vdW  Elec       q    Type
REMARK                         _______ _______ _______ _____ _____    ______ ____
ROOT
ATOM      1  O   UNL     1       0.749  -2.325   0.184  0.00  0.00    -0.283 OA
ATOM      2  O   UNL     1      -1.819   2.336   0.036  0.00  0.00    -0.283 OA
ATOM      3  C   UNL     1       0.909   0.041   0.150  0.00  0.00    +0.079 C 
ATOM      4  C   UNL     1      -1.979  -0.031   0.035  0.00  0.00    +0.079 C 
ATOM      5  C   UNL     1       0.249   1.208   0.110  0.00  0.00    +0.176 C 
ATOM      6  C   UNL     1      -1.318  -1.198   0.069  0.00  0.00    +0.176 C 
ATOM      7  C   UNL     1       0.164  -1.246   0.138  0.00  0.00    +0.232 C 
ATOM      8  C   UNL     1      -1.233   1.257   0.057  0.00  0.00    +0.232 C 
ENDROOT
BRANCH   3   9
ATOM      9  C   UNL     1       2.383   0.019   0.198  0.00  0.00    +0.009 C 
ATOM     10  C   UNL     1       3.119  -0.013  -0.986  0.00  0.00    +0.040 C 
ATOM     11  C   UNL     1       3.040   0.029   1.429  0.00  0.00    +0.004 C 
ATOM     12  C   UNL     1       4.513  -0.034  -0.940  0.00  0.00    +0.167 C 
ATOM     13  C   UNL     1       4.434   0.007   1.475  0.00  0.00    +0.040 C 
ATOM     14  C   UNL     1       5.170  -0.024   0.291  0.00  0.00    +0.167 C 
BRANCH  12  15
ATOM     15  O   UNL     1       5.222  -0.066  -2.102  0.00  0.00    -0.503 OA
ATOM     16  H   UNL     1       4.773  -0.072  -2.925  0.00  0.00    +0.292 HD
ENDBRANCH  12  15
BRANCH  14  17
ATOM     17  O   UNL     1       6.531  -0.044   0.349  0.00  0.00    -0.503 OA
ATOM     18  H   UNL     1       7.034  -0.065  -0.442  0.00  0.00    +0.292 HD
ENDBRANCH  14  17
ENDBRANCH   3   9
BRANCH   4  19
ATOM     19  C   UNL     1      -3.452  -0.009  -0.038  0.00  0.00    +0.006 C 
ATOM     20  C   UNL     1      -4.208   0.004   1.134  0.00  0.00    +0.000 C 
ATOM     21  C   UNL     1      -4.089   0.000  -1.279  0.00  0.00    +0.000 C 
ATOM     22  C   UNL     1      -5.601   0.025   1.065  0.00  0.00    +0.000 C 
ATOM     23  C   UNL     1      -5.482   0.021  -1.348  0.00  0.00    +0.000 C 
ATOM     24  C   UNL     1      -6.238   0.033  -0.176  0.00  0.00    +0.000 C 
ENDBRANCH   4  19
BRANCH   5  25
ATOM     25  O   UNL     1       0.917   2.420   0.110  0.00  0.00    -0.503 OA
ATOM     26  H   UNL     1       1.853   2.439   0.142  0.00  0.00    +0.292 HD
ENDBRANCH   5  25
BRANCH   6  27
ATOM     27  O   UNL     1      -1.984  -2.410   0.037  0.00  0.00    -0.503 OA
ATOM     28  H   UNL     1      -2.920  -2.430  -0.006  0.00  0.00    +0.292 HD
ENDBRANCH   6  27
TORSDOF 6
