REMARK  Name = 135403792
REMARK  3 active torsions:
REMARK  status: ('A' for Active; 'I' for Inactive)
REMARK    1  A    between atoms: N_3  and  C_6
REMARK    2  A    between atoms: N_3  and  C_23
REMARK    3  A    between atoms: C_5  and  C_14
REMARK                            x       y       z     vdW  Elec       q    Type
REMARK                         _______ _______ _______ _____ _____    ______ ____
ROOT
ATOM      1  O   UNL     1       0.248   1.502   0.707  0.00  0.00    -0.267 OA
ATOM      2  N   UNL     1      -0.039  -0.607  -0.261  0.00  0.00    -0.250 N 
ATOM      3  N   UNL     1      -1.881  -1.902  -0.851  0.00  0.00    -0.371 N 
ATOM      4  C   UNL     1       0.709   0.468   0.231  0.00  0.00    +0.285 C 
ATOM      5  C   UNL     1      -1.435  -0.718  -0.310  0.00  0.00    +0.193 C 
ATOM      6  H   UNL     1       0.473  -1.370  -0.613  0.00  0.00    +0.158 HD
ATOM      7  H   UNL     1      -1.234  -2.576  -1.162  0.00  0.00    +0.159 HD
ATOM      8  H   UNL     1      -2.847  -2.075  -0.928  0.00  0.00    +0.159 HD
ENDROOT
BRANCH   4  13
ATOM      9 CL   UNL     1       4.505  -2.726   0.154  0.00  0.00    -0.044 Cl
ATOM     10  N   UNL     1       2.641  -0.943   0.175  0.00  0.00    -0.378 NA
ATOM     11  N   UNL     1       4.365   1.248  -0.134  0.00  0.00    -0.367 NA
ATOM     12  N   UNL     1       6.216  -0.235  -0.179  0.00  0.00    -0.330 N 
ATOM     13  C   UNL     1       2.183   0.324   0.119  0.00  0.00    +0.229 C 
ATOM     14  C   UNL     1       3.030   1.400  -0.033  0.00  0.00    +0.213 C 
ATOM     15  C   UNL     1       4.823  -0.019  -0.077  0.00  0.00    +0.220 C 
ATOM     16  C   UNL     1       3.976  -1.095   0.075  0.00  0.00    +0.232 C 
ATOM     17  H   UNL     1       6.826   0.530  -0.288  0.00  0.00    +0.145 HD
ATOM     18  H   UNL     1       6.576  -1.151  -0.141  0.00  0.00    +0.145 HD
ATOM     19  N   UNL     1       2.489   2.704  -0.085  0.00  0.00    -0.331 N 
ATOM     20  H   UNL     1       3.085   3.480  -0.193  0.00  0.00    +0.145 HD
ATOM     21  H   UNL     1       1.516   2.837  -0.013  0.00  0.00    +0.145 HD
ENDBRANCH   4  13
BRANCH   5  22
ATOM     22  N   UNL     1      -2.161   0.267   0.144  0.00  0.00    -0.216 NA
BRANCH  22  23
ATOM     23  C   UNL     1      -3.555   0.161   0.099  0.00  0.00    +0.084 C 
ATOM     24  C   UNL     1      -4.247  -0.396   1.175  0.00  0.00    +0.019 C 
ATOM     25  C   UNL     1      -4.253   0.612  -1.021  0.00  0.00    +0.019 C 
ATOM     26  C   UNL     1      -5.637  -0.501   1.130  0.00  0.00    +0.002 C 
ATOM     27  C   UNL     1      -5.643   0.507  -1.066  0.00  0.00    +0.002 C 
ATOM     28  C   UNL     1      -6.335  -0.050   0.010  0.00  0.00    +0.000 C 
ENDBRANCH  22  23
ENDBRANCH   5  22
TORSDOF 3
