REMARK  Name = 135418368
REMARK  4 active torsions:
REMARK  status: ('A' for Active; 'I' for Inactive)
REMARK    1  A    between atoms: N_4  and  N_14
REMARK    2  A    between atoms: N_14  and  C_15
REMARK    3  A    between atoms: C_15  and  C_16
REMARK    4  A    between atoms: C_21  and  O_22
REMARK                            x       y       z     vdW  Elec       q    Type
REMARK                         _______ _______ _______ _____ _____    ______ ____
ROOT
ATOM      1  S   UNL     1       4.985  -1.210  -0.308  0.00  0.00    +0.030 S 
ATOM      2  O   UNL     1       1.395   2.030   0.234  0.00  0.00    -0.265 OA
ATOM      3  O   UNL     1       0.276  -2.514   0.562  0.00  0.00    -0.245 OA
ATOM      4  N   UNL     1       0.826  -0.240   0.398  0.00  0.00    -0.157 N 
ATOM      5  N   UNL     1       2.467  -1.951   0.158  0.00  0.00    -0.299 N 
ATOM      6  N   UNL     1       5.389   0.410  -0.428  0.00  0.00    -0.212 NA
ATOM      7  C   UNL     1       3.071   0.405  -0.017  0.00  0.00    +0.095 A 
ATOM      8  C   UNL     1       3.353  -0.931  -0.028  0.00  0.00    +0.114 A 
ATOM      9  C   UNL     1       4.275   1.128  -0.252  0.00  0.00    +0.074 A 
ATOM     10  C   UNL     1       1.712   0.844   0.211  0.00  0.00    +0.285 A 
ATOM     11  C   UNL     1       1.124  -1.635   0.386  0.00  0.00    +0.349 A 
ATOM     12  C   UNL     1       4.399   2.600  -0.317  0.00  0.00    +0.053 C 
ATOM     13  H   UNL     1       2.766  -2.889   0.132  0.00  0.00    +0.171 HD
ENDROOT
BRANCH   4  14
ATOM     14  N   UNL     1      -0.475   0.100   0.619  0.00  0.00    -0.149 NA
BRANCH  14  15
ATOM     15  C   UNL     1      -1.290  -0.373  -0.266  0.00  0.00    +0.160 C 
BRANCH  15  16
ATOM     16  C   UNL     1      -2.741  -0.119  -0.207  0.00  0.00    +0.001 C 
ATOM     17  C   UNL     1      -3.583  -0.650  -1.184  0.00  0.00    +0.001 C 
ATOM     18  C   UNL     1      -3.272   0.654   0.826  0.00  0.00    +0.001 C 
ATOM     19  C   UNL     1      -4.955  -0.408  -1.129  0.00  0.00    +0.036 C 
ATOM     20  C   UNL     1      -4.645   0.896   0.881  0.00  0.00    +0.036 C 
ATOM     21  C   UNL     1      -5.486   0.365  -0.096  0.00  0.00    +0.134 C 
BRANCH  21  22
ATOM     22  O   UNL     1      -6.826   0.600  -0.042  0.00  0.00    -0.506 OA
ATOM     23  H   UNL     1      -7.391   0.244  -0.699  0.00  0.00    +0.292 HD
ENDBRANCH  21  22
ENDBRANCH  15  16
ENDBRANCH  14  15
ENDBRANCH   4  14
TORSDOF 4
