REMARK  Name = 135413558
REMARK  5 active torsions:
REMARK  status: ('A' for Active; 'I' for Inactive)
REMARK    1  A    between atoms: C_3  and  C_18
REMARK    2  A    between atoms: C_6  and  C_7
REMARK    3  A    between atoms: C_8  and  O_13
REMARK    4  A    between atoms: C_12  and  O_15
REMARK    5  A    between atoms: C_18  and  O_19
REMARK                            x       y       z     vdW  Elec       q    Type
REMARK                         _______ _______ _______ _____ _____    ______ ____
ROOT
ATOM      1  S   UNL     1      -1.048  -1.923  -0.803  0.00  0.00    -0.093 S 
ATOM      2  N   UNL     1      -1.154   0.207   0.685  0.00  0.00    -0.256 NA
ATOM      3  C   UNL     1      -2.555  -0.219   0.503  0.00  0.00    +0.184 C 
ATOM      4  C   UNL     1      -2.607  -1.683   0.073  0.00  0.00    +0.097 C 
ATOM      5  C   UNL     1      -3.303   0.000   1.817  0.00  0.00    +0.037 C 
ATOM      6  C   UNL     1      -0.337  -0.563   0.040  0.00  0.00    +0.105 C 
ENDROOT
BRANCH   6   7
ATOM      7  C   UNL     1       1.127  -0.331   0.015  0.00  0.00    +0.057 C 
ATOM      8  C   UNL     1       1.649   0.959   0.116  0.00  0.00    +0.139 C 
ATOM      9  C   UNL     1       1.986  -1.423  -0.113  0.00  0.00    +0.008 C 
ATOM     10  C   UNL     1       3.030   1.156   0.089  0.00  0.00    +0.073 C 
ATOM     11  C   UNL     1       3.366  -1.225  -0.139  0.00  0.00    +0.037 C 
ATOM     12  C   UNL     1       3.888   0.064  -0.038  0.00  0.00    +0.137 C 
BRANCH   8  13
ATOM     13  O   UNL     1       0.827   2.039   0.240  0.00  0.00    -0.505 OA
ATOM     14  H   UNL     1      -0.103   1.920   0.259  0.00  0.00    +0.292 HD
ENDBRANCH   8  13
BRANCH  12  15
ATOM     15  O   UNL     1       5.235   0.257  -0.064  0.00  0.00    -0.505 OA
ATOM     16  H   UNL     1       5.586   1.123   0.004  0.00  0.00    +0.292 HD
ENDBRANCH  12  15
ENDBRANCH   6   7
BRANCH   3  18
ATOM     17  O   UNL     1      -2.530   1.598  -1.101  0.00  0.00    -0.248 OA
ATOM     18  C   UNL     1      -3.137   0.697  -0.541  0.00  0.00    +0.335 C 
BRANCH  18  19
ATOM     19  O   UNL     1      -4.435   0.389  -0.779  0.00  0.00    -0.479 OA
ATOM     20  H   UNL     1      -4.842  -0.316  -0.315  0.00  0.00    +0.295 HD
ENDBRANCH  18  19
ENDBRANCH   3  18
TORSDOF 5
