REMARK  Name = 135460965
REMARK  6 active torsions:
REMARK  status: ('A' for Active; 'I' for Inactive)
REMARK    1  A    between atoms: C_7  and  C_16
REMARK    2  A    between atoms: C_16  and  O_17
REMARK    3  A    between atoms: C_16  and  C_19
REMARK    4  A    between atoms: C_19  and  O_20
REMARK    5  A    between atoms: C_19  and  C_22
REMARK    6  A    between atoms: C_22  and  O_23
REMARK                            x       y       z     vdW  Elec       q    Type
REMARK                         _______ _______ _______ _____ _____    ______ ____
ROOT
ATOM      1  O   UNL     1       1.415  -2.562  -0.521  0.00  0.00    -0.266 OA
ATOM      2  N   UNL     1      -0.297  -0.451  -0.615  0.00  0.00    -0.390 NA
ATOM      3  N   UNL     1       0.761   2.073   0.024  0.00  0.00    -0.200 NA
ATOM      4  N   UNL     1       3.166  -1.183   0.114  0.00  0.00    -0.241 N 
ATOM      5  N   UNL     1       2.879   1.140   0.397  0.00  0.00    -0.318 NA
ATOM      6  N   UNL     1       4.976   0.153   0.756  0.00  0.00    -0.320 N 
ATOM      7  C   UNL     1      -1.053   0.663  -0.629  0.00  0.00    +0.142 C 
ATOM      8  C   UNL     1       0.993  -0.268  -0.274  0.00  0.00    +0.257 C 
ATOM      9  C   UNL     1      -0.534   1.901  -0.316  0.00  0.00    +0.194 C 
ATOM     10  C   UNL     1       1.531   0.966   0.043  0.00  0.00    +0.121 C 
ATOM     11  C   UNL     1       1.855  -1.453  -0.245  0.00  0.00    +0.293 C 
ATOM     12  C   UNL     1       3.649   0.086   0.424  0.00  0.00    +0.248 C 
ATOM     13  H   UNL     1       3.797  -1.937   0.152  0.00  0.00    +0.159 HD
ATOM     14  H   UNL     1       5.523  -0.666   0.765  0.00  0.00    +0.146 HD
ATOM     15  H   UNL     1       5.383   1.019   0.987  0.00  0.00    +0.146 HD
ENDROOT
BRANCH   7  16
ATOM     16  C   UNL     1      -2.488   0.518  -0.999  0.00  0.00    +0.190 C 
BRANCH  16  17
ATOM     17  O   UNL     1      -2.636  -0.503  -2.001  0.00  0.00    -0.376 OA
ATOM     18  H   UNL     1      -3.573  -0.592  -2.236  0.00  0.00    +0.211 HD
ENDBRANCH  16  17
BRANCH  16  19
ATOM     19  C   UNL     1      -3.456   0.201   0.170  0.00  0.00    +0.173 C 
BRANCH  19  20
ATOM     20  O   UNL     1      -3.470   1.304   1.080  0.00  0.00    -0.379 OA
ATOM     21  H   UNL     1      -3.710   2.114   0.603  0.00  0.00    +0.211 HD
ENDBRANCH  19  20
BRANCH  19  22
ATOM     22  C   UNL     1      -3.078  -1.068   0.928  0.00  0.00    +0.169 C 
BRANCH  22  23
ATOM     23  O   UNL     1      -4.212  -1.517   1.664  0.00  0.00    -0.379 OA
ATOM     24  H   UNL     1      -3.983  -2.324   2.151  0.00  0.00    +0.211 HD
ENDBRANCH  22  23
ENDBRANCH  19  22
ENDBRANCH  16  19
ENDBRANCH   7  16
TORSDOF 6
