135451582
  -OEChem-03292013293D

 29 31  0     0  0  0  0  0  0999 V2000
   -4.3008    0.6372    0.1975 O   0  0  0  0  0  0  0  0  0  0  0  0
    1.4312   -2.1181    0.3835 O   0  0  0  0  0  0  0  0  0  0  0  0
   -2.5448    2.0426    0.2948 N   0  0  0  0  0  0  0  0  0  0  0  0
   -2.7375   -1.6516    0.0086 N   0  0  0  0  0  0  0  0  0  0  0  0
    2.5003    1.1743   -0.2276 N   0  0  0  0  0  0  0  0  0  0  0  0
    3.3773   -0.8138    0.3102 N   0  0  0  0  0  0  0  0  0  0  0  0
    4.8625    1.0026    0.0720 N   0  0  0  0  0  0  0  0  0  0  0  0
    0.1858    0.4680   -0.3275 C   0  0  0  0  0  0  0  0  0  0  0  0
   -0.2953    1.8442   -0.7037 C   0  0  0  0  0  0  0  0  0  0  0  0
   -0.8258   -0.5465   -0.2150 C   0  0  0  0  0  0  0  0  0  0  0  0
   -1.1555    2.4412    0.3957 C   0  0  0  0  0  0  0  0  0  0  0  0
   -2.1945   -0.3756   -0.0078 C   0  0  0  0  0  0  0  0  0  0  0  0
    1.4984    0.2467   -0.1329 C   0  0  0  0  0  0  0  0  0  0  0  0
   -3.0736    0.7723    0.1652 C   0  0  0  0  0  0  0  0  0  0  0  0
   -0.5800   -1.9520   -0.3088 C   0  0  0  0  0  0  0  0  0  0  0  0
   -1.7779   -2.6028   -0.1655 C   0  0  0  0  0  0  0  0  0  0  0  0
    2.0395   -1.0791    0.2209 C   0  0  0  0  0  0  0  0  0  0  0  0
    3.5907    0.5104    0.0403 C   0  0  0  0  0  0  0  0  0  0  0  0
    0.5490    2.5233   -0.8728 H   0  0  0  0  0  0  0  0  0  0  0  0
   -0.8360    1.8081   -1.6589 H   0  0  0  0  0  0  0  0  0  0  0  0
   -0.7973    2.1809    1.3983 H   0  0  0  0  0  0  0  0  0  0  0  0
   -1.1483    3.5338    0.3134 H   0  0  0  0  0  0  0  0  0  0  0  0
   -3.2254    2.7860    0.4197 H   0  0  0  0  0  0  0  0  0  0  0  0
    0.1460   -2.4640   -0.9338 H   0  0  0  0  0  0  0  0  0  0  0  0
   -3.7240   -1.8446    0.1111 H   0  0  0  0  0  0  0  0  0  0  0  0
   -2.0500   -3.6410   -0.2943 H   0  0  0  0  0  0  0  0  0  0  0  0
    4.0961   -1.4901    0.5397 H   0  0  0  0  0  0  0  0  0  0  0  0
    5.0544    1.9791   -0.1232 H   0  0  0  0  0  0  0  0  0  0  0  0
    5.6534    0.4071    0.2916 H   0  0  0  0  0  0  0  0  0  0  0  0
  1 14  2  0  0  0  0
  2 17  2  0  0  0  0
  3 11  1  0  0  0  0
  3 14  1  0  0  0  0
  3 23  1  0  0  0  0
  4 12  1  0  0  0  0
  4 16  1  0  0  0  0
  4 25  1  0  0  0  0
  5 13  1  0  0  0  0
  5 18  2  0  0  0  0
  6 17  1  0  0  0  0
  6 18  1  0  0  0  0
  6 27  1  0  0  0  0
  7 18  1  0  0  0  0
  7 28  1  0  0  0  0
  7 29  1  0  0  0  0
  8  9  1  0  0  0  0
  8 10  1  0  0  0  0
  8 13  2  0  0  0  0
  9 11  1  0  0  0  0
  9 19  1  0  0  0  0
  9 20  1  0  0  0  0
 10 12  2  0  0  0  0
 10 15  1  0  0  0  0
 11 21  1  0  0  0  0
 11 22  1  0  0  0  0
 12 14  1  0  0  0  0
 13 17  1  0  0  0  0
 15 16  2  0  0  0  0
 15 24  1  0  0  0  0
 16 26  1  0  0  0  0
M  END
> <PUBCHEM_COMPOUND_CID>
135451582

> <PUBCHEM_CONFORMER_RMSD>
0.6

> <PUBCHEM_CONFORMER_DIVERSEORDER>
1

> <PUBCHEM_MMFF94_PARTIAL_CHARGES>
25
1 -0.57
10 -0.05
11 0.3
12 -0.24
13 0.19
14 0.71
15 -0.15
16 -0.3
17 0.62
18 0.56
2 -0.57
23 0.37
24 0.15
25 0.27
26 0.15
27 0.37
28 0.4
29 0.4
3 -0.73
4 0.03
5 -0.62
6 -0.49
7 -0.85
8 -0.09
9 0.14

> <PUBCHEM_EFFECTIVE_ROTOR_COUNT>
0.8

> <PUBCHEM_PHARMACOPHORE_FEATURES>
10
1 1 acceptor
1 2 acceptor
1 3 donor
1 4 cation
1 4 donor
1 6 donor
1 7 donor
5 4 10 12 15 16 rings
5 5 6 13 17 18 rings
7 3 8 9 10 11 12 14 rings

> <PUBCHEM_HEAVY_ATOM_COUNT>
18

> <PUBCHEM_ATOM_DEF_STEREO_COUNT>
0

> <PUBCHEM_ATOM_UDEF_STEREO_COUNT>
0

> <PUBCHEM_BOND_DEF_STEREO_COUNT>
1

> <PUBCHEM_BOND_UDEF_STEREO_COUNT>
0

> <PUBCHEM_ISOTOPIC_ATOM_COUNT>
0

> <PUBCHEM_COMPONENT_COUNT>
1

> <PUBCHEM_CACTVS_TAUTO_COUNT>
-1

> <PUBCHEM_CONFORMER_ID>
0812D3BE00000001

> <PUBCHEM_MMFF94_ENERGY>
77.6641

> <PUBCHEM_FEATURE_SELFOVERLAP>
50.819

> <PUBCHEM_SHAPE_FINGERPRINT>
10411042 1 17546446039032606830
10493431 412 18412550894579797497
10616163 171 18411140276927467726
10967382 1 18338517443396341517
11132069 177 18410290328648047200
12173636 292 18341046333062272628
12251169 10 18409167705637753548
12382932 28 18411420617721329003
12390115 104 18129116532103334464
12403814 3 17603580837782136877
13027679 85 18267582605708028149
13132413 78 18339082717027589333
13140716 1 18194971965906196793
13380535 76 18341612581635077103
14081887 123 18271792562632144256
15196674 1 18410292488705204739
15309172 13 18266746787771077129
15442244 35 18193835942766770554
15536298 74 18341614772379562846
15775835 57 18411984645769388576
16945 1 18410855434374188847
1813 80 16879634757537420298
19591789 44 17977670805636920254
20510252 161 18201159832547896321
20871998 184 18273217533906973327
21041028 32 17831591133916607179
21267235 1 18337117881053499118
21501502 16 18338229380330383794
2334 1 17978229683697211061
23402539 116 18272925051356156095
23463225 33 18335139765145401407
23557571 272 18200883992689311350
23559900 14 18272089410008742356
2748010 2 17904202533684608853
3312278 4 18409449227748185274
335352 9 18338234839233895374
34934 24 18334851719005923321
350125 39 18121784919901971004
5104073 3 18410290328874803954
57005193 9 18335975415615694157
69090 78 18411696561091203807
7097593 13 17971735693699995858
7364860 26 18270120081124476942
7471813 234 17625525062827596743
9709674 26 18343024384756675694

> <PUBCHEM_SHAPE_MULTIPOLES>
333.79
6.49
2.66
0.66
4.01
0.39
0.03
-1.47
-0.69
-1.43
-0.05
-0.02
-0.06
-0.37

> <PUBCHEM_SHAPE_SELFOVERLAP>
750.131

> <PUBCHEM_SHAPE_VOLUME>
174.4

> <PUBCHEM_COORDINATE_TYPE>
2
5
10

$$$$
