REMARK  Name = 135449322
REMARK  7 active torsions:
REMARK  status: ('A' for Active; 'I' for Inactive)
REMARK    1  A    between atoms: C_2  and  O_20
REMARK    2  A    between atoms: C_3  and  N_7
REMARK    3  A    between atoms: C_5  and  C_27
REMARK    4  A    between atoms: O_20  and  P_21
REMARK    5  A    between atoms: P_21  and  O_23
REMARK    6  A    between atoms: P_21  and  O_25
REMARK    7  A    between atoms: C_27  and  O_28
REMARK                            x       y       z     vdW  Elec       q    Type
REMARK                         _______ _______ _______ _____ _____    ______ ____
ROOT
ATOM      1  O   UNL     1      -1.134  -1.189   0.931  0.00  0.00    -0.335 OA
ATOM      2  C   UNL     1      -2.492  -0.097  -0.687  0.00  0.00    +0.160 C 
ATOM      3  C   UNL     1      -0.338  -0.186   0.273  0.00  0.00    +0.198 C 
ATOM      4  C   UNL     1      -1.041   0.123  -1.044  0.00  0.00    +0.084 C 
ATOM      5  C   UNL     1      -2.429  -1.256   0.301  0.00  0.00    +0.174 C 
ENDROOT
BRANCH   3   7
ATOM      6  O   UNL     1       5.582  -0.887  -0.338  0.00  0.00    -0.268 OA
ATOM      7  N   UNL     1       1.092  -0.628   0.091  0.00  0.00    -0.239 N 
ATOM      8  N   UNL     1       2.829  -1.998  -0.236  0.00  0.00    -0.240 NA
ATOM      9  N   UNL     1       2.231   1.501   0.261  0.00  0.00    -0.357 NA
ATOM     10  N   UNL     1       4.595   1.200   0.015  0.00  0.00    -0.243 N 
ATOM     11  N   UNL     1       3.686   3.343   0.367  0.00  0.00    -0.321 N 
ATOM     12  C   UNL     1       2.205   0.161   0.093  0.00  0.00    +0.211 C 
ATOM     13  C   UNL     1       1.519  -1.918  -0.110  0.00  0.00    +0.224 C 
ATOM     14  C   UNL     1       3.251  -0.707  -0.109  0.00  0.00    +0.176 C 
ATOM     15  C   UNL     1       4.591  -0.191  -0.162  0.00  0.00    +0.273 C 
ATOM     16  C   UNL     1       3.447   2.002   0.218  0.00  0.00    +0.239 C 
ATOM     17  H   UNL     1       5.468   1.656  -0.004  0.00  0.00    +0.159 HD
ATOM     18  H   UNL     1       2.936   3.964   0.512  0.00  0.00    +0.146 HD
ATOM     19  H   UNL     1       4.608   3.686   0.329  0.00  0.00    +0.146 HD
ENDBRANCH   3   7
BRANCH   2  20
ATOM     20  O   UNL     1      -2.977   1.069  -0.026  0.00  0.00    -0.273 OA
BRANCH  20  21
ATOM     21  P   UNL     1      -4.573   1.310   0.026  0.00  0.00    +0.473 P 
ATOM     22  O   UNL     1      -5.358   0.231   0.713  0.00  0.00    -0.227 OA
BRANCH  21  23
ATOM     23  O   UNL     1      -4.973   1.580  -1.518  0.00  0.00    -0.303 OA
ATOM     24  H   UNL     1      -4.416   2.289  -1.877  0.00  0.00    +0.222 HD
ENDBRANCH  21  23
BRANCH  21  25
ATOM     25  O   UNL     1      -4.688   2.775   0.702  0.00  0.00    -0.303 OA
ATOM     26  H   UNL     1      -4.152   3.407   0.197  0.00  0.00    +0.222 HD
ENDBRANCH  21  25
ENDBRANCH  20  21
ENDBRANCH   2  20
BRANCH   5  27
ATOM     27  C   UNL     1      -2.553  -2.614  -0.376  0.00  0.00    +0.169 C 
BRANCH  27  28
ATOM     28  O   UNL     1      -2.473  -3.623   0.614  0.00  0.00    -0.379 OA
ATOM     29  H   UNL     1      -2.551  -4.495   0.195  0.00  0.00    +0.211 HD
ENDBRANCH  27  28
ENDBRANCH   5  27
TORSDOF 7
