REMARK  Name = 135464366
REMARK  6 active torsions:
REMARK  status: ('A' for Active; 'I' for Inactive)
REMARK    1  A    between atoms: C_5  and  O_33
REMARK    2  A    between atoms: C_7  and  C_23
REMARK    3  A    between atoms: C_18  and  O_35
REMARK    4  A    between atoms: C_21  and  O_37
REMARK    5  A    between atoms: C_26  and  O_29
REMARK    6  A    between atoms: C_28  and  O_31
REMARK                            x       y       z     vdW  Elec       q    Type
REMARK                         _______ _______ _______ _____ _____    ______ ____
ROOT
ATOM      1  O   UNL     1      -2.201  -0.572   0.343  0.00  0.00    -0.473 OA
ATOM      2  O   UNL     1       1.189   2.835  -0.107  0.00  0.00    -0.443 OA
ATOM      3  O   UNL     1       2.323  -1.854   0.176  0.00  0.00    -0.457 OA
ATOM      4  O   UNL     1       6.806  -3.272   0.043  0.00  0.00    -0.288 OA
ATOM      5  C   UNL     1      -2.962   1.704  -0.205  0.00  0.00    +0.159 C 
ATOM      6  C   UNL     1      -1.571   2.271   0.063  0.00  0.00    +0.062 C 
ATOM      7  C   UNL     1      -3.167   0.446   0.649  0.00  0.00    +0.215 C 
ATOM      8  C   UNL     1      -0.528   1.191   0.092  0.00  0.00    +0.036 C 
ATOM      9  C   UNL     1      -0.902  -0.150   0.238  0.00  0.00    +0.138 C 
ATOM     10  C   UNL     1       0.840   1.504   0.005  0.00  0.00    +0.216 C 
ATOM     11  C   UNL     1       1.810   0.493   0.032  0.00  0.00    +0.056 C 
ATOM     12  C   UNL     1       1.415  -0.831   0.150  0.00  0.00    +0.147 C 
ATOM     13  C   UNL     1       0.065  -1.160   0.251  0.00  0.00    +0.074 C 
ATOM     14  C   UNL     1       3.232   0.852  -0.066  0.00  0.00    +0.012 C 
ATOM     15  C   UNL     1       4.136  -0.160  -0.039  0.00  0.00    +0.034 C 
ATOM     16  C   UNL     1       3.680  -1.558   0.084  0.00  0.00    +0.131 C 
ATOM     17  C   UNL     1       3.529   2.272  -0.183  0.00  0.00    +0.077 C 
ATOM     18  C   UNL     1       2.534   3.180  -0.199  0.00  0.00    +0.289 C 
ATOM     19  C   UNL     1       5.581   0.074  -0.129  0.00  0.00    +0.042 C 
ATOM     20  C   UNL     1       4.554  -2.573   0.111  0.00  0.00    +0.137 C 
ATOM     21  C   UNL     1       6.475  -0.927  -0.104  0.00  0.00    +0.169 C 
ATOM     22  C   UNL     1       6.014  -2.335   0.018  0.00  0.00    +0.214 C 
ENDROOT
BRANCH   7  23
ATOM     23  C   UNL     1      -4.535  -0.177   0.443  0.00  0.00    +0.023 C 
ATOM     24  C   UNL     1      -4.927  -0.594  -0.829  0.00  0.00    +0.039 C 
ATOM     25  C   UNL     1      -5.401  -0.333   1.525  0.00  0.00    +0.003 C 
ATOM     26  C   UNL     1      -6.184  -1.167  -1.019  0.00  0.00    +0.167 C 
ATOM     27  C   UNL     1      -6.659  -0.905   1.335  0.00  0.00    +0.040 C 
ATOM     28  C   UNL     1      -7.050  -1.323   0.063  0.00  0.00    +0.167 C 
BRANCH  26  29
ATOM     29  O   UNL     1      -6.554  -1.573  -2.266  0.00  0.00    -0.503 OA
ATOM     30  H   UNL     1      -5.966  -1.464  -2.988  0.00  0.00    +0.292 HD
ENDBRANCH  26  29
BRANCH  28  31
ATOM     31  O   UNL     1      -8.280  -1.882  -0.110  0.00  0.00    -0.503 OA
ATOM     32  H   UNL     1      -8.551  -2.165  -0.961  0.00  0.00    +0.292 HD
ENDBRANCH  28  31
ENDBRANCH   7  23
BRANCH   5  33
ATOM     33  O   UNL     1      -3.908   2.712   0.133  0.00  0.00    -0.380 OA
ATOM     34  H   UNL     1      -3.758   3.495  -0.420  0.00  0.00    +0.211 HD
ENDBRANCH   5  33
BRANCH  18  35
ATOM     35  O   UNL     1       2.813   4.531  -0.310  0.00  0.00    -0.480 OA
ATOM     36  H   UNL     1       2.113   5.154  -0.320  0.00  0.00    +0.295 HD
ENDBRANCH  18  35
BRANCH  21  37
ATOM     37  O   UNL     1       7.835  -0.722  -0.189  0.00  0.00    -0.503 OA
ATOM     38  H   UNL     1       8.173   0.149  -0.267  0.00  0.00    +0.292 HD
ENDBRANCH  21  37
TORSDOF 6
