REMARK  Name = 135494248
REMARK  8 active torsions:
REMARK  status: ('A' for Active; 'I' for Inactive)
REMARK    1  A    between atoms: N_2  and  C_22
REMARK    2  A    between atoms: C_7  and  C_15
REMARK    3  A    between atoms: C_15  and  O_16
REMARK    4  A    between atoms: C_15  and  C_18
REMARK    5  A    between atoms: C_18  and  O_20
REMARK    6  A    between atoms: C_22  and  C_23
REMARK    7  A    between atoms: C_23  and  C_24
REMARK    8  A    between atoms: C_24  and  N_25
REMARK                            x       y       z     vdW  Elec       q    Type
REMARK                         _______ _______ _______ _____ _____    ______ ____
ROOT
ATOM      1  O   UNL     1      -0.859   2.827   0.185  0.00  0.00    -0.266 OA
ATOM      2  N   UNL     1       3.306   0.754  -0.025  0.00  0.00    -0.296 N 
ATOM      3  N   UNL     1      -2.158   0.440   0.292  0.00  0.00    -0.390 NA
ATOM      4  N   UNL     1       1.198   1.764   0.082  0.00  0.00    -0.241 N 
ATOM      5  N   UNL     1       1.385  -0.586   0.104  0.00  0.00    -0.318 NA
ATOM      6  N   UNL     1      -0.567  -1.877   0.233  0.00  0.00    -0.200 NA
ATOM      7  C   UNL     1      -2.694  -0.794   0.339  0.00  0.00    +0.142 C 
ATOM      8  C   UNL     1      -0.814   0.481   0.215  0.00  0.00    +0.257 C 
ATOM      9  C   UNL     1       1.948   0.590   0.055  0.00  0.00    +0.251 C 
ATOM     10  C   UNL     1      -0.015  -0.647   0.185  0.00  0.00    +0.121 C 
ATOM     11  C   UNL     1      -1.914  -1.931   0.311  0.00  0.00    +0.194 C 
ATOM     12  C   UNL     1      -0.185   1.805   0.161  0.00  0.00    +0.293 C 
ATOM     13  H   UNL     1       3.673   1.667  -0.058  0.00  0.00    +0.150 HD
ATOM     14  H   UNL     1       1.682   2.620   0.043  0.00  0.00    +0.159 HD
ENDROOT
BRANCH   7  15
ATOM     15  C   UNL     1      -4.177  -0.899   0.425  0.00  0.00    +0.187 C 
BRANCH  15  16
ATOM     16  O   UNL     1      -4.638  -0.346   1.669  0.00  0.00    -0.376 OA
ATOM     17  H   UNL     1      -5.604  -0.418   1.717  0.00  0.00    +0.211 HD
ENDBRANCH  15  16
BRANCH  15  18
ATOM     18  C   UNL     1      -4.975  -0.216  -0.717  0.00  0.00    +0.144 C 
ATOM     19  C   UNL     1      -4.623  -0.751  -2.098  0.00  0.00    +0.035 C 
BRANCH  18  20
ATOM     20  O   UNL     1      -4.749   1.192  -0.712  0.00  0.00    -0.382 OA
ATOM     21  H   UNL     1      -4.968   1.552   0.162  0.00  0.00    +0.210 HD
ENDBRANCH  18  20
ENDBRANCH  15  18
ENDBRANCH   7  15
BRANCH   2  22
ATOM     22  C   UNL     1       4.208  -0.355  -0.062  0.00  0.00    +0.088 C 
BRANCH  22  23
ATOM     23  C   UNL     1       5.656   0.121  -0.162  0.00  0.00    -0.003 C 
BRANCH  23  24
ATOM     24  C   UNL     1       6.652  -1.040  -0.202  0.00  0.00    -0.084 C 
BRANCH  24  25
ATOM     25  N   UNL     1       8.017  -0.532  -0.280  0.00  0.00    +0.380 N 
ATOM     26  H   UNL     1       8.670  -1.314  -0.305  0.00  0.00    -0.089 HD
ATOM     27  H   UNL     1       8.211   0.047   0.538  0.00  0.00    -0.089 HD
ATOM     28  H   UNL     1       8.123   0.028  -1.126  0.00  0.00    -0.089 HD
ENDBRANCH  24  25
ENDBRANCH  23  24
ENDBRANCH  22  23
ENDBRANCH   2  22
TORSDOF 8
