REMARK  Name = 135450852
REMARK  6 active torsions:
REMARK  status: ('A' for Active; 'I' for Inactive)
REMARK    1  A    between atoms: N_2  and  C1*_33
REMARK    2  A    between atoms: N_5  and  C_19
REMARK    3  A    between atoms: C_22  and  N_28
REMARK    4  A    between atoms: C3*_34  and  O3*_37
REMARK    5  A    between atoms: C4*_36  and  C5*_39
REMARK    6  A    between atoms: C5*_39  and  O5*_40
REMARK                            x       y       z     vdW  Elec       q    Type
REMARK                         _______ _______ _______ _____ _____    ______ ____
ROOT
ATOM      1  O   UNL     1       4.631   2.403   2.671  0.00  0.00    -0.268 OA
ATOM      2  N   UNL     1       3.684  -1.007  -0.138  0.00  0.00    -0.239 N 
ATOM      3  N   UNL     1       5.253  -0.075   1.155  0.00  0.00    -0.240 NA
ATOM      4  N   UNL     1       1.846   0.528   0.218  0.00  0.00    -0.356 NA
ATOM      5  N   UNL     1       0.356   2.208   0.816  0.00  0.00    -0.275 N 
ATOM      6  N   UNL     1       2.501   2.272   1.724  0.00  0.00    -0.242 N 
ATOM      7  C   UNL     1       3.112   0.098   0.419  0.00  0.00    +0.211 C 
ATOM      8  C   UNL     1       4.972  -1.069   0.335  0.00  0.00    +0.224 C 
ATOM      9  C   UNL     1       4.097   0.646   1.205  0.00  0.00    +0.176 C 
ATOM     10  C   UNL     1       1.563   1.625   0.885  0.00  0.00    +0.246 C 
ATOM     11  C   UNL     1       3.817   1.845   1.947  0.00  0.00    +0.273 C 
ATOM     12  H   UNL     1       0.337   3.185   0.934  0.00  0.00    +0.156 HD
ATOM     13  H   UNL     1       2.206   3.089   2.187  0.00  0.00    +0.159 HD
ENDROOT
BRANCH   5  19
ATOM     14  C   UNL     1      -3.332   0.354   0.155  0.00  0.00    -0.003 C 
ATOM     15  C   UNL     1      -2.292  -0.344   0.809  0.00  0.00    -0.002 C 
ATOM     16  C   UNL     1      -4.562  -0.521   0.031  0.00  0.00    -0.018 C 
ATOM     17  C   UNL     1      -2.765  -1.671   1.143  0.00  0.00    -0.014 C 
ATOM     18  C   UNL     1      -4.099  -1.801   0.695  0.00  0.00    +0.066 C 
ATOM     19  C   UNL     1      -0.892   1.579   0.592  0.00  0.00    +0.065 C 
ATOM     20  C   UNL     1      -1.068   0.263   1.032  0.00  0.00    +0.016 C 
ATOM     21  C   UNL     1      -3.165   1.656  -0.283  0.00  0.00    +0.016 C 
ATOM     22  C   UNL     1      -1.931   2.268  -0.059  0.00  0.00    +0.064 C 
ATOM     23  C   UNL     1      -2.132  -2.724   1.782  0.00  0.00    -0.004 C 
ATOM     24  C   UNL     1      -4.812  -2.973   0.878  0.00  0.00    -0.018 C 
ATOM     25  C   UNL     1      -2.847  -3.911   1.970  0.00  0.00    -0.001 C 
ATOM     26  C   UNL     1      -4.174  -4.034   1.522  0.00  0.00    -0.004 C 
BRANCH  22  28
ATOM     27  O   UNL     1      -3.817   4.139  -1.476  0.00  0.00    -0.275 OA
ATOM     28  N   UNL     1      -1.746   3.584  -0.496  0.00  0.00    -0.283 N 
ATOM     29  C   UNL     1      -2.664   4.410  -1.154  0.00  0.00    +0.227 C 
ATOM     30  C   UNL     1      -2.076   5.765  -1.456  0.00  0.00    +0.095 C 
ATOM     31  H   UNL     1      -0.862   3.978  -0.318  0.00  0.00    +0.155 HD
ENDBRANCH  22  28
ENDBRANCH   5  19
BRANCH   2  33
ATOM     32  O4* UNL     1       2.647  -1.353  -2.324  0.00  0.00    -0.335 OA
ATOM     33  C1* UNL     1       3.043  -1.983  -1.092  0.00  0.00    +0.198 C 
ATOM     34  C3* UNL     1       1.032  -3.010  -1.776  0.00  0.00    +0.144 C 
ATOM     35  C2* UNL     1       1.789  -2.639  -0.523  0.00  0.00    +0.083 C 
ATOM     36  C4* UNL     1       1.360  -1.866  -2.726  0.00  0.00    +0.173 C 
BRANCH  34  37
ATOM     37  O3* UNL     1       1.572  -4.227  -2.287  0.00  0.00    -0.382 OA
ATOM     38  H3* UNL     1       1.361  -4.954  -1.681  0.00  0.00    +0.210 HD
ENDBRANCH  34  37
BRANCH  36  39
ATOM     39  C5* UNL     1       0.354  -0.726  -2.645  0.00  0.00    +0.169 C 
BRANCH  39  40
ATOM     40  O5* UNL     1       0.746   0.291  -3.550  0.00  0.00    -0.379 OA
ATOM     41  H5* UNL     1       0.112   1.024  -3.508  0.00  0.00    +0.211 HD
ENDBRANCH  39  40
ENDBRANCH  36  39
ENDBRANCH   2  33
TORSDOF 6
