REMARK  Name = 135433622
REMARK  5 active torsions:
REMARK  status: ('A' for Active; 'I' for Inactive)
REMARK    1  A    between atoms: N_2  and  C_17
REMARK    2  A    between atoms: C_16  and  C_19
REMARK    3  A    between atoms: C_18  and  C_22
REMARK    4  A    between atoms: C_19  and  O_20
REMARK    5  A    between atoms: C_22  and  O_23
REMARK                            x       y       z     vdW  Elec       q    Type
REMARK                         _______ _______ _______ _____ _____    ______ ____
ROOT
ATOM      1  O   UNL     1      -4.010   1.798  -0.851  0.00  0.00    -0.268 OA
ATOM      2  N   UNL     1       0.152   0.585   0.425  0.00  0.00    -0.239 N 
ATOM      3  N   UNL     1      -1.119   2.257  -0.342  0.00  0.00    -0.240 NA
ATOM      4  N   UNL     1      -1.490  -1.188   0.575  0.00  0.00    -0.357 NA
ATOM      5  N   UNL     1      -3.637  -0.393  -0.132  0.00  0.00    -0.243 N 
ATOM      6  N   UNL     1      -3.354  -2.619   0.577  0.00  0.00    -0.321 N 
ATOM      7  C   UNL     1      -1.107   0.077   0.293  0.00  0.00    +0.211 C 
ATOM      8  C   UNL     1       0.094   1.899   0.031  0.00  0.00    +0.224 C 
ATOM      9  C   UNL     1      -1.861   1.125  -0.178  0.00  0.00    +0.176 C 
ATOM     10  C   UNL     1      -3.261   0.924  -0.430  0.00  0.00    +0.273 C 
ATOM     11  C   UNL     1      -2.769  -1.400   0.353  0.00  0.00    +0.239 C 
ATOM     12  H   UNL     1      -4.581  -0.636  -0.270  0.00  0.00    +0.159 HD
ATOM     13  H   UNL     1      -2.813  -3.370   0.914  0.00  0.00    +0.146 HD
ATOM     14  H   UNL     1      -4.314  -2.745   0.400  0.00  0.00    +0.146 HD
ENDROOT
BRANCH   2  17
ATOM     15  O   UNL     1       2.411   0.711   1.421  0.00  0.00    -0.337 OA
ATOM     16  C   UNL     1       2.231  -0.552  -0.290  0.00  0.00    +0.106 C 
ATOM     17  C   UNL     1       1.328  -0.114   0.888  0.00  0.00    +0.200 C 
ATOM     18  C   UNL     1       3.371   0.024   0.572  0.00  0.00    +0.153 C 
BRANCH  16  19
ATOM     19  C   UNL     1       2.290  -2.037  -0.584  0.00  0.00    +0.144 C 
BRANCH  19  20
ATOM     20  O   UNL     1       1.162  -2.390  -1.371  0.00  0.00    -0.382 OA
ATOM     21  H   UNL     1       1.188  -3.340  -1.567  0.00  0.00    +0.210 HD
ENDBRANCH  19  20
ENDBRANCH  16  19
BRANCH  18  22
ATOM     22  C   UNL     1       4.307   1.008  -0.098  0.00  0.00    +0.167 C 
BRANCH  22  23
ATOM     23  O   UNL     1       5.263   0.283  -0.859  0.00  0.00    -0.379 OA
ATOM     24  H   UNL     1       5.868   0.904  -1.293  0.00  0.00    +0.211 HD
ENDBRANCH  22  23
ENDBRANCH  18  22
ENDBRANCH   2  17
TORSDOF 5
