REMARK  Name = 135434159
REMARK  4 active torsions:
REMARK  status: ('A' for Active; 'I' for Inactive)
REMARK    1  A    between atoms: N_2  and  C_15
REMARK    2  A    between atoms: C_15  and  O_16
REMARK    3  A    between atoms: O_16  and  C_21
REMARK    4  A    between atoms: P_17  and  O_24
REMARK                            x       y       z     vdW  Elec       q    Type
REMARK                         _______ _______ _______ _____ _____    ______ ____
ROOT
ATOM      1  O   UNL     1       5.550   0.244  -0.715  0.00  0.00    -0.268 OA
ATOM      2  N   UNL     1       1.312   1.230   0.505  0.00  0.00    -0.235 N 
ATOM      3  N   UNL     1       3.300   2.075  -0.075  0.00  0.00    -0.240 NA
ATOM      4  N   UNL     1       1.785  -1.141   0.381  0.00  0.00    -0.357 NA
ATOM      5  N   UNL     1       4.061  -1.500  -0.275  0.00  0.00    -0.243 N 
ATOM      6  N   UNL     1       2.630  -3.321   0.149  0.00  0.00    -0.321 N 
ATOM      7  C   UNL     1       2.129   0.162   0.275  0.00  0.00    +0.211 C 
ATOM      8  C   UNL     1       3.337   0.712  -0.078  0.00  0.00    +0.176 C 
ATOM      9  C   UNL     1       2.063   2.359   0.282  0.00  0.00    +0.224 C 
ATOM     10  C   UNL     1       4.439  -0.155  -0.391  0.00  0.00    +0.273 C 
ATOM     11  C   UNL     1       2.776  -1.959   0.099  0.00  0.00    +0.239 C 
ATOM     12  H   UNL     1       4.746  -2.181  -0.469  0.00  0.00    +0.159 HD
ATOM     13  H   UNL     1       1.764  -3.714   0.402  0.00  0.00    +0.146 HD
ATOM     14  H   UNL     1       3.392  -3.906  -0.067  0.00  0.00    +0.146 HD
ENDROOT
BRANCH   2  15
ATOM     15  C   UNL     1      -0.073   1.198   0.906  0.00  0.00    +0.244 C 
BRANCH  15  16
ATOM     16  O   UNL     1      -0.863   0.844  -0.226  0.00  0.00    -0.332 OA
BRANCH  16  21
ATOM     17  P   UNL     1      -5.014  -0.393  -0.083  0.00  0.00    +0.476 P 
ATOM     18  O   UNL     1      -3.963  -0.541   1.140  0.00  0.00    -0.271 OA
ATOM     19  O   UNL     1      -4.446   0.875  -0.917  0.00  0.00    -0.271 OA
ATOM     20  O   UNL     1      -6.452  -0.271   0.328  0.00  0.00    -0.227 OA
ATOM     21  C   UNL     1      -2.246   0.806   0.091  0.00  0.00    +0.177 C 
ATOM     22  C   UNL     1      -3.054   0.921  -1.198  0.00  0.00    +0.186 C 
ATOM     23  C   UNL     1      -2.575  -0.482   0.840  0.00  0.00    +0.186 C 
BRANCH  17  24
ATOM     24  O   UNL     1      -4.697  -1.662  -1.037  0.00  0.00    -0.302 OA
ATOM     25  H   UNL     1      -3.753  -1.672  -1.258  0.00  0.00    +0.222 HD
ENDBRANCH  17  24
ENDBRANCH  16  21
ENDBRANCH  15  16
ENDBRANCH   2  15
TORSDOF 4
