REMARK  Name = 135484540
REMARK  4 active torsions:
REMARK  status: ('A' for Active; 'I' for Inactive)
REMARK    1  A    between atoms: C_7  and  S_16
REMARK    2  A    between atoms: C_12  and  N_25
REMARK    3  A    between atoms: C_13  and  O_22
REMARK    4  A    between atoms: S_16  and  N_19
REMARK                            x       y       z     vdW  Elec       q    Type
REMARK                         _______ _______ _______ _____ _____    ______ ____
ROOT
ATOM      1  N   UNL     1       1.907   2.874  -0.338  0.00  0.00    +0.391 N 
ATOM      2  N   UNL     1      -2.535   1.569  -0.235  0.00  0.00    -0.324 N 
ATOM      3  C   UNL     1       1.071   0.744   0.224  0.00  0.00    -0.029 C 
ATOM      4  C   UNL     1      -0.027   1.576  -0.008  0.00  0.00    -0.032 C 
ATOM      5  C   UNL     1       2.318   1.575   0.241  0.00  0.00    -0.049 C 
ATOM      6  C   UNL     1       0.444   2.994  -0.154  0.00  0.00    -0.048 C 
ATOM      7  C   UNL     1       0.936  -0.617   0.427  0.00  0.00    +0.116 C 
ATOM      8  C   UNL     1      -1.296   1.011  -0.039  0.00  0.00    +0.054 A 
ATOM      9  C   UNL     1      -1.479  -0.364   0.153  0.00  0.00    +0.041 A 
ATOM     10  C   UNL     1      -0.346  -1.183   0.388  0.00  0.00    +0.023 C 
ATOM     11  C   UNL     1       2.643   4.000   0.215  0.00  0.00    -0.100 C 
ATOM     12  C   UNL     1      -2.878  -0.608   0.058  0.00  0.00    +0.163 A 
ATOM     13  C   UNL     1      -3.499   0.597  -0.180  0.00  0.00    +0.220 A 
ATOM     14  H   UNL     1       2.135   2.899  -1.331  0.00  0.00    -0.079 HD
ATOM     15  H   UNL     1      -2.706   2.525  -0.393  0.00  0.00    +0.169 HD
ENDROOT
BRANCH   7  16
ATOM     16  S   UNL     1       2.320  -1.633   0.734  0.00  0.00    +0.063 S 
ATOM     17  O   UNL     1       3.374  -0.807   1.314  0.00  0.00    -0.153 OA
ATOM     18  O   UNL     1       1.871  -2.806   1.476  0.00  0.00    -0.153 OA
BRANCH  16  19
ATOM     19  N   UNL     1       2.812  -2.132  -0.849  0.00  0.00    -0.153 NA
ATOM     20  C   UNL     1       1.831  -2.890  -1.665  0.00  0.00    +0.115 C 
ATOM     21  C   UNL     1       3.582  -1.159  -1.666  0.00  0.00    +0.115 C 
ENDBRANCH  16  19
ENDBRANCH   7  16
BRANCH  13  22
ATOM     22  O   UNL     1      -4.775   0.917  -0.347  0.00  0.00    -0.492 OA
ATOM     23  H   UNL     1      -5.019   1.808  -0.504  0.00  0.00    +0.294 HD
ENDBRANCH  13  22
BRANCH  12  25
ATOM     24  O   UNL     1      -4.735  -1.766   0.059  0.00  0.00    -0.060 OA
ATOM     25  N   UNL     1      -3.537  -1.891   0.191  0.00  0.00    -0.092 NA
ENDBRANCH  12  25
TORSDOF 4
