135401060
  -OEChem-03292013293D

 37 39  0     0  0  0  0  0  0999 V2000
   -2.7279   -1.3523   -2.4094 O   0  0  0  0  0  0  0  0  0  0  0  0
    1.5459    4.6389    0.1338 O   0  0  0  0  0  0  0  0  0  0  0  0
    4.7389   -2.8372    1.3848 O   0  0  0  0  0  0  0  0  0  0  0  0
    3.9495   -3.6686   -0.5780 O   0  0  0  0  0  0  0  0  0  0  0  0
    1.4866    2.3348   -0.3331 N   0  0  0  0  0  0  0  0  0  0  0  0
   -1.4247    0.6683   -1.1385 N   0  0  0  0  0  0  0  0  0  0  0  0
   -2.2307    1.2449    1.4916 N   0  0  0  0  0  0  0  0  0  0  0  0
   -4.0622   -1.7314   -0.5523 N   0  0  0  0  0  0  0  0  0  0  0  0
   -3.8438   -0.4536    1.4164 N   0  0  0  0  0  0  0  0  0  0  0  0
   -5.4419   -2.1656    1.2863 N   0  0  0  0  0  0  0  0  0  0  0  0
    0.2438    2.4278   -1.0582 C   0  0  0  0  0  0  0  0  0  0  0  0
   -0.8490    1.6472   -0.4152 C   0  0  0  0  0  0  0  0  0  0  0  0
    2.1347    1.0397   -0.1892 C   0  0  0  0  0  0  0  0  0  0  0  0
   -2.4074   -0.0084   -0.5131 C   0  0  0  0  0  0  0  0  0  0  0  0
    1.9783    0.0676   -1.1773 C   0  0  0  0  0  0  0  0  0  0  0  0
    2.9113    0.7701    0.9377 C   0  0  0  0  0  0  0  0  0  0  0  0
   -2.8173    0.2608    0.7792 C   0  0  0  0  0  0  0  0  0  0  0  0
   -1.2442    1.9300    0.8749 C   0  0  0  0  0  0  0  0  0  0  0  0
    3.3751   -1.4436    0.0885 C   0  0  0  0  0  0  0  0  0  0  0  0
    2.5984   -1.1740   -1.0384 C   0  0  0  0  0  0  0  0  0  0  0  0
    3.5314   -0.4715    1.0766 C   0  0  0  0  0  0  0  0  0  0  0  0
   -3.0636   -1.0843   -1.2627 C   0  0  0  0  0  0  0  0  0  0  0  0
    2.0281    3.5111    0.2107 C   0  0  0  0  0  0  0  0  0  0  0  0
   -4.4304   -1.4118    0.7524 C   0  0  0  0  0  0  0  0  0  0  0  0
    4.0209   -2.7387    0.2324 C   0  0  0  0  0  0  0  0  0  0  0  0
    0.4030    2.1213   -2.0982 H   0  0  0  0  0  0  0  0  0  0  0  0
   -0.0876    3.4715   -1.1241 H   0  0  0  0  0  0  0  0  0  0  0  0
    1.4009    0.2408   -2.0794 H   0  0  0  0  0  0  0  0  0  0  0  0
    3.0287    1.4900    1.7422 H   0  0  0  0  0  0  0  0  0  0  0  0
   -0.7912    2.7185    1.4646 H   0  0  0  0  0  0  0  0  0  0  0  0
    2.4678   -1.9167   -1.8212 H   0  0  0  0  0  0  0  0  0  0  0  0
    4.1209   -0.6425    1.9731 H   0  0  0  0  0  0  0  0  0  0  0  0
    2.9966    3.3547    0.7073 H   0  0  0  0  0  0  0  0  0  0  0  0
   -4.5575   -2.4882   -1.0148 H   0  0  0  0  0  0  0  0  0  0  0  0
   -5.7757   -2.0035    2.2302 H   0  0  0  0  0  0  0  0  0  0  0  0
   -5.8864   -2.9065    0.7554 H   0  0  0  0  0  0  0  0  0  0  0  0
    5.1704   -3.7140    1.4721 H   0  0  0  0  0  0  0  0  0  0  0  0
  1 22  2  0  0  0  0
  2 23  2  0  0  0  0
  3 25  1  0  0  0  0
  3 37  1  0  0  0  0
  4 25  2  0  0  0  0
  5 11  1  0  0  0  0
  5 13  1  0  0  0  0
  5 23  1  0  0  0  0
  6 12  1  0  0  0  0
  6 14  2  0  0  0  0
  7 17  2  0  0  0  0
  7 18  1  0  0  0  0
  8 22  1  0  0  0  0
  8 24  1  0  0  0  0
  8 34  1  0  0  0  0
  9 17  1  0  0  0  0
  9 24  2  0  0  0  0
 10 24  1  0  0  0  0
 10 35  1  0  0  0  0
 10 36  1  0  0  0  0
 11 12  1  0  0  0  0
 11 26  1  0  0  0  0
 11 27  1  0  0  0  0
 12 18  2  0  0  0  0
 13 15  2  0  0  0  0
 13 16  1  0  0  0  0
 14 17  1  0  0  0  0
 14 22  1  0  0  0  0
 15 20  1  0  0  0  0
 15 28  1  0  0  0  0
 16 21  2  0  0  0  0
 16 29  1  0  0  0  0
 18 30  1  0  0  0  0
 19 20  2  0  0  0  0
 19 21  1  0  0  0  0
 19 25  1  0  0  0  0
 20 31  1  0  0  0  0
 21 32  1  0  0  0  0
 23 33  1  0  0  0  0
M  END
> <PUBCHEM_COMPOUND_CID>
135401060

> <PUBCHEM_CONFORMER_RMSD>
0.8

> <PUBCHEM_CONFORMER_DIVERSEORDER>
1
35
9
31
28
27
13
41
11
25
37
40
38
36
19
18
4
20
30
17
21
14
33
16
39
32
26
24
23
29
7
12
6
3
34
15
2
22
8
5
10

> <PUBCHEM_MMFF94_PARTIAL_CHARGES>
35
1 -0.57
10 -0.85
11 0.44
12 0.17
13 0.12
14 0.4
15 -0.15
16 -0.15
17 0.49
18 0.16
19 0.09
2 -0.57
20 -0.15
21 -0.15
22 0.54
23 0.57
24 0.56
25 0.63
28 0.15
29 0.15
3 -0.65
30 0.15
31 0.15
32 0.15
33 0.06
34 0.37
35 0.4
36 0.4
37 0.5
4 -0.57
5 -0.48
6 -0.62
7 -0.62
8 -0.49
9 -0.63

> <PUBCHEM_EFFECTIVE_ROTOR_COUNT>
5

> <PUBCHEM_PHARMACOPHORE_FEATURES>
12
1 1 acceptor
1 10 donor
1 2 acceptor
1 3 acceptor
1 4 acceptor
1 6 acceptor
1 8 donor
3 3 4 25 anion
3 7 9 17 cation
6 13 15 16 19 20 21 rings
6 6 7 12 14 17 18 rings
6 8 9 14 17 22 24 rings

> <PUBCHEM_HEAVY_ATOM_COUNT>
25

> <PUBCHEM_ATOM_DEF_STEREO_COUNT>
0

> <PUBCHEM_ATOM_UDEF_STEREO_COUNT>
0

> <PUBCHEM_BOND_DEF_STEREO_COUNT>
0

> <PUBCHEM_BOND_UDEF_STEREO_COUNT>
0

> <PUBCHEM_ISOTOPIC_ATOM_COUNT>
0

> <PUBCHEM_COMPONENT_COUNT>
1

> <PUBCHEM_CACTVS_TAUTO_COUNT>
-1

> <PUBCHEM_CONFORMER_ID>
08120E6400000001

> <PUBCHEM_MMFF94_ENERGY>
78.9926

> <PUBCHEM_FEATURE_SELFOVERLAP>
61.045

> <PUBCHEM_SHAPE_FINGERPRINT>
10498660 4 9367339340696343327
10928967 22 18339082579774057750
10937287 8 9367050156437446202
114674 6 18114744940233620674
11552529 35 17702928237565464686
11578080 2 17915151703004603993
12107183 9 18269010695672901761
12363563 72 18260829259171630122
12422481 6 17985298230184760409
12553582 1 18341617018441477476
12623949 98 16955373821284251915
12633257 1 16487249980541270563
13140716 1 18267585693853070724
13533116 47 18263936591233774507
14844126 61 17832132828255657306
14848160 33 18334569187435648319
14863182 85 17973167519631989348
15475509 35 17908714170019464027
15475509 8 16370722631082900575
17138139 8 16403354228079391239
17492 89 18411142458855152859
17859628 70 18265341774924182490
17974551 9 14975478447989697490
1813 80 18409738347761479741
20645477 70 18118664737936143653
20775530 9 18340480080627413450
21421861 104 18199763598899068977
238918 7 17118341905175413585
3421961 26 18336267937153422561
345986 75 18059306430400667643
3737641 26 18270404889280581078
392239 28 17344604141308753552
463206 1 18115312172079824475
5309563 4 18336547127250333955
56633871 153 18201159828522259711
59755656 520 17547854509191051092
613672 6 18265313054726313482
7097593 13 18202569479279121337
7970288 3 18334017146589383475

> <PUBCHEM_SHAPE_MULTIPOLES>
461.12
9.51
4.35
1.53
4.28
2.22
0.25
-10.71
-2.97
-4.72
-0.22
0.95
-0.48
-0.29

> <PUBCHEM_SHAPE_SELFOVERLAP>
1010.546

> <PUBCHEM_SHAPE_VOLUME>
246.8

> <PUBCHEM_COORDINATE_TYPE>
2
5
10

$$$$
