REMARK  Name = 135425312
REMARK  6 active torsions:
REMARK  status: ('A' for Active; 'I' for Inactive)
REMARK    1  A    between atoms: N_2  and  C_15
REMARK    2  A    between atoms: C_15  and  C_16
REMARK    3  A    between atoms: C_17  and  C_18
REMARK    4  A    between atoms: C_17  and  C_21
REMARK    5  A    between atoms: C_18  and  O_19
REMARK    6  A    between atoms: C_21  and  O_22
REMARK                            x       y       z     vdW  Elec       q    Type
REMARK                         _______ _______ _______ _____ _____    ______ ____
ROOT
ATOM      1  O   UNL     1       4.468  -0.231   0.613  0.00  0.00    -0.268 OA
ATOM      2  N   UNL     1       0.442   1.544  -0.415  0.00  0.00    -0.257 N 
ATOM      3  N   UNL     1       2.581   1.995   0.059  0.00  0.00    -0.240 NA
ATOM      4  N   UNL     1       0.460  -0.873  -0.287  0.00  0.00    -0.357 NA
ATOM      5  N   UNL     1       2.654  -1.660   0.264  0.00  0.00    -0.243 N 
ATOM      6  N   UNL     1       0.882  -3.174  -0.071  0.00  0.00    -0.321 N 
ATOM      7  C   UNL     1       1.050   0.340  -0.212  0.00  0.00    +0.210 C 
ATOM      8  C   UNL     1       2.357   0.650   0.076  0.00  0.00    +0.176 C 
ATOM      9  C   UNL     1       1.404   2.509  -0.241  0.00  0.00    +0.222 C 
ATOM     10  C   UNL     1       3.287  -0.411   0.347  0.00  0.00    +0.273 C 
ATOM     11  C   UNL     1       1.288  -1.865  -0.044  0.00  0.00    +0.239 C 
ATOM     12  H   UNL     1       3.205  -2.458   0.433  0.00  0.00    +0.159 HD
ATOM     13  H   UNL     1      -0.054  -3.395  -0.277  0.00  0.00    +0.146 HD
ATOM     14  H   UNL     1       1.528  -3.893   0.117  0.00  0.00    +0.146 HD
ENDROOT
BRANCH   2  15
ATOM     15  C   UNL     1      -1.004   1.788  -0.764  0.00  0.00    +0.121 C 
BRANCH  15  16
ATOM     16  C   UNL     1      -1.942   1.249   0.280  0.00  0.00    -0.008 C 
ATOM     17  C   UNL     1      -2.894   0.305   0.137  0.00  0.00    +0.011 C 
BRANCH  17  18
ATOM     18  C   UNL     1      -3.179  -0.434  -1.145  0.00  0.00    +0.161 C 
BRANCH  18  19
ATOM     19  O   UNL     1      -2.989  -1.829  -0.939  0.00  0.00    -0.377 OA
ATOM     20  H   UNL     1      -3.172  -2.306  -1.764  0.00  0.00    +0.211 HD
ENDBRANCH  18  19
ENDBRANCH  17  18
BRANCH  17  21
ATOM     21  C   UNL     1      -3.749  -0.078   1.321  0.00  0.00    +0.161 C 
BRANCH  21  22
ATOM     22  O   UNL     1      -5.117   0.173   1.023  0.00  0.00    -0.377 OA
ATOM     23  H   UNL     1      -5.664  -0.073   1.785  0.00  0.00    +0.211 HD
ENDBRANCH  21  22
ENDBRANCH  17  21
ENDBRANCH  15  16
ENDBRANCH   2  15
TORSDOF 6
