REMARK  Name = 135443603
REMARK  11 active torsions:
REMARK  status: ('A' for Active; 'I' for Inactive)
REMARK    1  A    between atoms: C_1  and  N_22
REMARK    2  A    between atoms: C_2  and  C_9
REMARK    3  A    between atoms: N_8  and  CA_11
REMARK    4  A    between atoms: CA_11  and  C_13
REMARK    5  A    between atoms: CA_11  and  CB_16
REMARK    6  A    between atoms: C_13  and  O_14
REMARK    7  A    between atoms: CB_16  and  CG_17
REMARK    8  A    between atoms: CG_17  and  CD_19
REMARK    9  A    between atoms: CD_19  and  OE1_20
REMARK   10  A    between atoms: N_22  and  C_24
REMARK   11  A    between atoms: C_24  and  C_29
REMARK                            x       y       z     vdW  Elec       q    Type
REMARK                         _______ _______ _______ _____ _____    ______ ____
ROOT
ATOM      1  C   UNL     1       0.409  -1.463  -0.211  0.00  0.00    +0.048 C 
ATOM      2  C   UNL     1      -1.885  -0.046   0.504  0.00  0.00    +0.053 C 
ATOM      3  C   UNL     1      -0.017  -1.451   1.117  0.00  0.00    +0.015 C 
ATOM      4  C   UNL     1      -0.311  -0.766  -1.181  0.00  0.00    +0.015 C 
ATOM      5  C   UNL     1      -1.164  -0.743   1.475  0.00  0.00    +0.006 C 
ATOM      6  C   UNL     1      -1.458  -0.058  -0.824  0.00  0.00    +0.006 C 
ENDROOT
BRANCH   2   9
ATOM      7  O   UNL     1      -3.203   1.156   2.026  0.00  0.00    -0.270 OA
ATOM      8  N   UNL     1      -4.053   0.871  -0.113  0.00  0.00    -0.293 N 
ATOM      9  C   ACE A   0      -3.080   0.693   0.878  0.00  0.00    +0.246 C 
ATOM     10  H   UNL     1      -3.891   0.477  -1.001  0.00  0.00    +0.150 HD
BRANCH   8  11
ATOM     11  CA  UNL     1      -5.282   1.601   0.096  0.00  0.00    +0.172 C 
BRANCH  11  13
ATOM     12  OXT UNL     1      -5.436   1.863  -2.321  0.00  0.00    -0.248 OA
ATOM     13  C   UNL     1      -5.616   2.315  -1.198  0.00  0.00    +0.332 C 
BRANCH  13  14
ATOM     14  O   UNL     1      -6.185   3.529  -0.974  0.00  0.00    -0.479 OA
ATOM     15  H   UNL     1      -6.304   3.837  -0.097  0.00  0.00    +0.295 HD
ENDBRANCH  13  14
ENDBRANCH  11  13
BRANCH  11  16
ATOM     16  CB  UNL     1      -6.420   0.719   0.625  0.00  0.00    +0.043 C 
BRANCH  16  17
ATOM     17  CG  UNL     1      -6.884  -0.405  -0.310  0.00  0.00    +0.112 C 
BRANCH  17  19
ATOM     18  OE2 UNL     1      -8.550  -1.068   1.339  0.00  0.00    -0.250 OA
ATOM     19  CD  UNL     1      -8.015  -1.238   0.252  0.00  0.00    +0.314 C 
BRANCH  19  20
ATOM     20  OE1 UNL     1      -8.356  -2.251  -0.587  0.00  0.00    -0.480 OA
ATOM     21  HE1 UNL     1      -7.919  -2.344  -1.411  0.00  0.00    +0.295 HD
ENDBRANCH  19  20
ENDBRANCH  17  19
ENDBRANCH  16  17
ENDBRANCH  11  16
ENDBRANCH   8  11
ENDBRANCH   2   9
BRANCH   1  22
ATOM     22  N   UNL     1       1.561  -2.174  -0.571  0.00  0.00    -0.302 N 
ATOM     23  C   UNL     1       1.780  -2.562  -1.964  0.00  0.00    +0.112 C 
BRANCH  22  24
ATOM     24  C   UNL     1       2.560  -2.535   0.411  0.00  0.00    +0.117 C 
BRANCH  24  29
ATOM     25  O   UNL     1       6.638  -0.727  -2.235  0.00  0.00    -0.274 OA
ATOM     26  N   UNL     1       6.386   1.645   1.083  0.00  0.00    -0.377 NA
ATOM     27  N   UNL     1       7.408   1.025  -0.944  0.00  0.00    -0.247 N 
ATOM     28  N   UNL     1       8.261   2.812   0.297  0.00  0.00    -0.321 N 
ATOM     29  C   UNL     1       3.567  -1.446   0.573  0.00  0.00    -0.006 C 
ATOM     30  C   UNL     1       4.555  -1.262  -0.391  0.00  0.00    -0.013 C 
ATOM     31  C   UNL     1       5.494  -0.238  -0.228  0.00  0.00    +0.151 C 
ATOM     32  C   UNL     1       3.517  -0.614   1.690  0.00  0.00    -0.001 C 
ATOM     33  C   UNL     1       5.457   0.607   0.889  0.00  0.00    +0.124 C 
ATOM     34  C   UNL     1       4.457   0.407   1.847  0.00  0.00    +0.028 C 
ATOM     35  C   UNL     1       6.551  -0.023  -1.236  0.00  0.00    +0.239 C 
ATOM     36  C   UNL     1       7.316   1.827   0.188  0.00  0.00    +0.237 C 
ATOM     37  H   UNL     1       8.134   1.215  -1.582  0.00  0.00    +0.158 HD
ATOM     38  H   UNL     1       8.254   3.417   1.074  0.00  0.00    +0.146 HD
ATOM     39  H   UNL     1       8.947   2.916  -0.402  0.00  0.00    +0.146 HD
ENDBRANCH  24  29
ENDBRANCH  22  24
ENDBRANCH   1  22
TORSDOF 11
