REMARK  Name = 135484543
REMARK  9 active torsions:
REMARK  status: ('A' for Active; 'I' for Inactive)
REMARK    1  A    between atoms: N_2  and  C_15
REMARK    2  A    between atoms: C_15  and  C_16
REMARK    3  A    between atoms: C_16  and  C_17
REMARK    4  A    between atoms: C_17  and  C_19
REMARK    5  A    between atoms: C_19  and  O_20
REMARK    6  A    between atoms: O_20  and  C_21
REMARK    7  A    between atoms: C_21  and  P_22
REMARK    8  A    between atoms: P_22  and  O_24
REMARK    9  A    between atoms: P_22  and  O_26
REMARK                            x       y       z     vdW  Elec       q    Type
REMARK                         _______ _______ _______ _____ _____    ______ ____
ROOT
ATOM      1  O   UNL     1       5.239  -1.194  -0.338  0.00  0.00    -0.268 OA
ATOM      2  N   UNL     1       1.650   1.425   0.481  0.00  0.00    -0.261 N 
ATOM      3  N   UNL     1       3.875   1.376   0.261  0.00  0.00    -0.240 NA
ATOM      4  N   UNL     1       1.115  -0.905   0.105  0.00  0.00    -0.357 NA
ATOM      5  N   UNL     1       3.113  -2.159  -0.313  0.00  0.00    -0.243 N 
ATOM      6  N   UNL     1       1.009  -3.216  -0.307  0.00  0.00    -0.321 N 
ATOM      7  C   UNL     1       1.978   0.129   0.213  0.00  0.00    +0.210 C 
ATOM      8  C   UNL     1       3.346   0.132   0.084  0.00  0.00    +0.176 C 
ATOM      9  C   UNL     1       2.825   2.137   0.500  0.00  0.00    +0.222 C 
ATOM     10  C   UNL     1       4.026  -1.100  -0.206  0.00  0.00    +0.273 C 
ATOM     11  C   UNL     1       1.711  -2.047  -0.160  0.00  0.00    +0.239 C 
ATOM     12  H   UNL     1       3.477  -3.052  -0.511  0.00  0.00    +0.159 HD
ATOM     13  H   UNL     1       0.029  -3.217  -0.214  0.00  0.00    +0.146 HD
ATOM     14  H   UNL     1       1.486  -4.054  -0.505  0.00  0.00    +0.146 HD
ENDROOT
BRANCH   2  15
ATOM     15  C   UNL     1       0.330   1.963   0.705  0.00  0.00    +0.099 C 
BRANCH  15  16
ATOM     16  C   UNL     1      -0.436   2.142  -0.610  0.00  0.00    +0.046 C 
BRANCH  16  17
ATOM     17  C   UNL     1      -1.812   2.736  -0.405  0.00  0.00    -0.013 C 
ATOM     18  C   UNL     1      -2.168   3.882  -1.007  0.00  0.00    -0.007 C 
BRANCH  17  19
ATOM     19  C   UNL     1      -2.773   1.998   0.487  0.00  0.00    +0.165 C 
BRANCH  19  20
ATOM     20  O   UNL     1      -3.007   0.697  -0.034  0.00  0.00    -0.338 OA
BRANCH  20  21
ATOM     21  C   UNL     1      -3.912  -0.036   0.781  0.00  0.00    +0.258 C 
BRANCH  21  22
ATOM     22  P   UNL     1      -4.049  -1.627  -0.008  0.00  0.00    +0.367 P 
ATOM     23  O   UNL     1      -4.592  -1.592  -1.405  0.00  0.00    -0.256 OA
BRANCH  22  24
ATOM     24  O   UNL     1      -4.910  -2.501   1.044  0.00  0.00    -0.322 OA
ATOM     25  H   UNL     1      -5.036  -3.397   0.693  0.00  0.00    +0.220 HD
ENDBRANCH  22  24
BRANCH  22  26
ATOM     26  O   UNL     1      -2.559  -2.237   0.133  0.00  0.00    -0.322 OA
ATOM     27  H   UNL     1      -2.531  -3.118  -0.274  0.00  0.00    +0.220 HD
ENDBRANCH  22  26
ENDBRANCH  21  22
ENDBRANCH  20  21
ENDBRANCH  19  20
ENDBRANCH  17  19
ENDBRANCH  16  17
ENDBRANCH  15  16
ENDBRANCH   2  15
TORSDOF 9
