REMARK  Name = 135403805
REMARK  4 active torsions:
REMARK  status: ('A' for Active; 'I' for Inactive)
REMARK    1  A    between atoms: C_7  and  C_14
REMARK    2  A    between atoms: N_13  and  C_14
REMARK    3  A    between atoms: N_13  and  N_16
REMARK    4  A    between atoms: C_17  and  O_19
REMARK                            x       y       z     vdW  Elec       q    Type
REMARK                         _______ _______ _______ _____ _____    ______ ____
ROOT
ATOM      1  O   UNL     1       0.922  -2.413  -0.001  0.00  0.00    -0.163 OA
ATOM      2  O   UNL     1       1.851   2.863  -0.001  0.00  0.00    -0.163 OA
ATOM      3  N   UNL     1       1.173  -1.157   0.000  0.00  0.00    -0.130 N 
ATOM      4  N   UNL     1       1.668   1.597   0.000  0.00  0.00    -0.126 N 
ATOM      5  C   UNL     1       2.485  -0.689   0.000  0.00  0.00    +0.121 C 
ATOM      6  C   UNL     1       2.735   0.703   0.000  0.00  0.00    +0.121 C 
ATOM      7  C   UNL     1       0.135  -0.253   0.000  0.00  0.00    +0.120 C 
ATOM      8  C   UNL     1       3.558  -1.589   0.000  0.00  0.00    +0.022 C 
ATOM      9  C   UNL     1       0.380   1.111   0.000  0.00  0.00    +0.139 C 
ATOM     10  C   UNL     1       4.053   1.173   0.001  0.00  0.00    +0.022 C 
ATOM     11  C   UNL     1       4.868  -1.108   0.000  0.00  0.00    +0.002 C 
ATOM     12  C   UNL     1       5.114   0.267   0.001  0.00  0.00    +0.002 C 
ENDROOT
BRANCH   7  13
ATOM     13  C   UNL     1      -1.231  -0.751   0.000  0.00  0.00    +0.160 C 
BRANCH  13  14
ATOM     14  N   UNL     1      -2.268   0.039   0.000  0.00  0.00    -0.122 NA
BRANCH  14  16
ATOM     15  O   UNL     1      -4.678   1.374   0.001  0.00  0.00    -0.225 OA
ATOM     16  N   UNL     1      -3.461  -0.597   0.001  0.00  0.00    -0.198 N 
ATOM     17  C   UNL     1      -4.619   0.148   0.001  0.00  0.00    +0.416 C 
ATOM     18  H   UNL     1      -3.501  -1.580   0.001  0.00  0.00    +0.174 HD
BRANCH  17  19
ATOM     19  O   UNL     1      -5.703  -0.682   0.000  0.00  0.00    -0.430 OA
ATOM     20  C   UNL     1      -6.982  -0.038  -0.001  0.00  0.00    +0.257 C 
ENDBRANCH  17  19
ENDBRANCH  14  16
ENDBRANCH  13  14
ENDBRANCH   7  13
TORSDOF 4
