REMARK  Name = 135413503
REMARK  8 active torsions:
REMARK  status: ('A' for Active; 'I' for Inactive)
REMARK    1  A    between atoms: C_1  and  N_2
REMARK    2  A    between atoms: C_1  and  C_13
REMARK    3  A    between atoms: N_3  and  C_10
REMARK    4  A    between atoms: N_4  and  C_9
REMARK    5  A    between atoms: C_10  and  C_11
REMARK    6  A    between atoms: C_13  and  S_14
REMARK    7  A    between atoms: S_14  and  C_15
REMARK    8  A    between atoms: C_15  and  C_18
REMARK                            x       y       z     vdW  Elec       q    Type
REMARK                         _______ _______ _______ _____ _____    ______ ____
ROOT
ATOM      1  C   UNL     1       0.952   2.089   0.696  0.00  0.00    +0.140 C 
ENDROOT
BRANCH   1   2
ATOM      2  N   UNL     1       1.658   0.844   0.954  0.00  0.00    -0.238 NA
ATOM      3  N   UNL     1       3.341  -0.692   0.384  0.00  0.00    -0.334 N 
ATOM      4  N   UNL     1       3.052   1.298  -0.942  0.00  0.00    -0.263 N 
ATOM      5  C   UNL     1       2.637   0.485   0.181  0.00  0.00    +0.208 C 
ATOM      6  H   UNL     1       4.073  -0.904  -0.239  0.00  0.00    +0.164 HD
ATOM      7  H   UNL     1       2.593   2.146  -1.140  0.00  0.00    +0.181 HD
BRANCH   4   9
ATOM      8  N   UNL     1       4.951   0.531  -2.381  0.00  0.00    -0.171 NA
ATOM      9  C   UNL     1       4.071   0.882  -1.711  0.00  0.00    +0.184 C 
ENDBRANCH   4   9
BRANCH   3  10
ATOM     10  C   UNL     1       3.069  -1.626   1.452  0.00  0.00    +0.179 C 
BRANCH  10  11
ATOM     11  C   UNL     1       2.061  -2.606   1.038  0.00  0.00    -0.053 C 
ATOM     12  C   UNL     1       1.236  -3.410   0.702  0.00  0.00    -0.012 C 
ENDBRANCH  10  11
ENDBRANCH   3  10
ENDBRANCH   1   2
BRANCH   1  13
ATOM     13  C   UNL     1      -0.159   2.241   1.722  0.00  0.00    +0.084 C 
BRANCH  13  14
ATOM     14  S   UNL     1      -1.339   0.868   1.599  0.00  0.00    -0.132 S 
BRANCH  14  15
ATOM     15  C   UNL     1      -2.258   1.438   0.151  0.00  0.00    +0.099 C 
BRANCH  15  18
ATOM     16  N   UNL     1      -4.539  -1.175  -0.983  0.00  0.00    -0.319 N 
ATOM     17  N   UNL     1      -4.664   0.778   0.068  0.00  0.00    -0.318 N 
ATOM     18  C   UNL     1      -3.357   0.487  -0.234  0.00  0.00    +0.043 C 
ATOM     19  C   UNL     1      -3.255  -0.719  -0.886  0.00  0.00    +0.033 C 
ATOM     20  C   UNL     1      -2.106  -1.471  -1.415  0.00  0.00    +0.048 C 
ATOM     21  C   UNL     1      -5.350  -0.243  -0.397  0.00  0.00    +0.181 C 
ATOM     22  H   UNL     1      -4.828  -2.019  -1.399  0.00  0.00    +0.148 HD
ATOM     23  H   UNL     1      -5.012   1.575   0.530  0.00  0.00    +0.148 HD
ENDBRANCH  15  18
ENDBRANCH  14  15
ENDBRANCH  13  14
ENDBRANCH   1  13
TORSDOF 8
