REMARK  Name = 135403630
REMARK  3 active torsions:
REMARK  status: ('A' for Active; 'I' for Inactive)
REMARK    1  A    between atoms: N_2  and  C_15
REMARK    2  A    between atoms: C_17  and  C_20
REMARK    3  A    between atoms: C_20  and  O_21
REMARK                            x       y       z     vdW  Elec       q    Type
REMARK                         _______ _______ _______ _____ _____    ______ ____
ROOT
ATOM      1  O   UNL     1       3.998   2.035   0.152  0.00  0.00    -0.268 OA
ATOM      2  N   UNL     1      -0.107   0.167  -0.114  0.00  0.00    -0.263 N 
ATOM      3  N   UNL     1       1.035   2.089  -0.045  0.00  0.00    -0.240 NA
ATOM      4  N   UNL     1       1.706  -1.432   0.012  0.00  0.00    -0.357 NA
ATOM      5  N   UNL     1       3.809  -0.293   0.148  0.00  0.00    -0.243 N 
ATOM      6  N   UNL     1       3.713  -2.645   0.150  0.00  0.00    -0.321 N 
ATOM      7  C   UNL     1       1.210  -0.175  -0.025  0.00  0.00    +0.210 C 
ATOM      8  C   UNL     1      -0.162   1.540  -0.123  0.00  0.00    +0.222 C 
ATOM      9  C   UNL     1       1.882   1.022   0.015  0.00  0.00    +0.176 C 
ATOM     10  C   UNL     1       3.316   1.019   0.110  0.00  0.00    +0.273 C 
ATOM     11  C   UNL     1       3.018  -1.465   0.099  0.00  0.00    +0.239 C 
ATOM     12  H   UNL     1       4.785  -0.408   0.213  0.00  0.00    +0.159 HD
ATOM     13  H   UNL     1       3.229  -3.503   0.121  0.00  0.00    +0.146 HD
ATOM     14  H   UNL     1       4.695  -2.636   0.216  0.00  0.00    +0.146 HD
ENDROOT
BRANCH   2  15
ATOM     15  C   UNL     1      -1.294  -0.771  -0.189  0.00  0.00    +0.077 C 
ATOM     16  C   UNL     1      -2.352  -0.604   0.922  0.00  0.00    +0.022 C 
ATOM     17  C   UNL     1      -3.551   0.121   0.283  0.00  0.00    +0.031 C 
ATOM     18  C   UNL     1      -2.105  -0.577  -1.436  0.00  0.00    +0.020 C 
ATOM     19  C   UNL     1      -3.328  -0.103  -1.180  0.00  0.00    +0.004 C 
BRANCH  17  20
ATOM     20  C   UNL     1      -4.884  -0.428   0.772  0.00  0.00    +0.137 C 
BRANCH  20  21
ATOM     21  O   UNL     1      -5.904   0.501   0.447  0.00  0.00    -0.382 OA
ATOM     22  H   UNL     1      -6.760   0.162   0.754  0.00  0.00    +0.210 HD
ENDBRANCH  20  21
ENDBRANCH  17  20
ENDBRANCH   2  15
TORSDOF 3
