135468175
  -OEChem-03292013293D

 50 52  0     1  0  0  0  0  0999 V2000
    3.4759   -3.6609    0.1008 S   0  0  0  0  0  0  0  0  0  0  0  0
   -6.2189   -1.4127    0.9725 O   0  0  0  0  0  0  0  0  0  0  0  0
   -4.3970   -0.9181    2.2319 O   0  0  0  0  0  0  0  0  0  0  0  0
   -2.6428   -2.0617   -2.2387 O   0  0  0  0  0  0  0  0  0  0  0  0
   -3.2795    4.0132    0.5318 O   0  0  0  0  0  0  0  0  0  0  0  0
   -4.4060    3.4249   -1.3476 O   0  0  0  0  0  0  0  0  0  0  0  0
    0.8878    1.4668    1.8385 O   0  0  0  0  0  0  0  0  0  0  0  0
   -2.8688   -1.2727   -0.0695 N   0  0  0  0  0  0  0  0  0  0  0  0
    2.8832   -0.2505    1.1559 N   0  0  0  0  0  0  0  0  0  0  0  0
    4.8071    0.6943   -0.6624 N   0  0  0  0  0  0  0  0  0  0  0  0
    1.7645    3.1155    0.4652 N   0  0  0  0  0  0  0  0  0  0  0  0
    3.7221    2.7670   -0.8010 N   0  0  0  0  0  0  0  0  0  0  0  0
    2.5959    4.8221   -0.9021 N   0  0  0  0  0  0  0  0  0  0  0  0
   -4.2296   -0.8160   -0.1957 C   0  0  2  0  0  0  0  0  0  0  0  0
   -4.3313    0.6315   -0.6913 C   0  0  0  0  0  0  0  0  0  0  0  0
   -3.7329    1.6986    0.2340 C   0  0  0  0  0  0  0  0  0  0  0  0
   -4.9176   -1.0557    1.1326 C   0  0  0  0  0  0  0  0  0  0  0  0
   -2.1796   -1.8662   -1.1182 C   0  0  0  0  0  0  0  0  0  0  0  0
   -0.7926   -2.3062   -0.8193 C   0  0  0  0  0  0  0  0  0  0  0  0
   -3.8697    3.1102   -0.2944 C   0  0  0  0  0  0  0  0  0  0  0  0
    0.1524   -2.3781   -1.8429 C   0  0  0  0  0  0  0  0  0  0  0  0
   -0.4349   -2.6474    0.4851 C   0  0  0  0  0  0  0  0  0  0  0  0
    1.8120   -3.1329   -0.2579 C   0  0  0  0  0  0  0  0  0  0  0  0
    1.4545   -2.7915   -1.5624 C   0  0  0  0  0  0  0  0  0  0  0  0
    0.8673   -3.0608    0.7658 C   0  0  0  0  0  0  0  0  0  0  0  0
    4.0089   -2.4093    1.3023 C   0  0  0  0  0  0  0  0  0  0  0  0
    3.9143   -1.0144    0.7485 C   0  0  0  0  0  0  0  0  0  0  0  0
    2.8427    0.9898    0.6318 C   0  0  0  0  0  0  0  0  0  0  0  0
    3.7792    1.4716   -0.2633 C   0  0  0  0  0  0  0  0  0  0  0  0
    4.8581   -0.5511   -0.1433 C   0  0  0  0  0  0  0  0  0  0  0  0
    1.7366    1.8582    1.0473 C   0  0  0  0  0  0  0  0  0  0  0  0
    2.7390    3.5428   -0.4337 C   0  0  0  0  0  0  0  0  0  0  0  0
   -4.7168   -1.4651   -0.9350 H   0  0  0  0  0  0  0  0  0  0  0  0
   -3.8490    0.7090   -1.6746 H   0  0  0  0  0  0  0  0  0  0  0  0
   -5.3908    0.8713   -0.8520 H   0  0  0  0  0  0  0  0  0  0  0  0
   -2.6650    1.5003    0.3781 H   0  0  0  0  0  0  0  0  0  0  0  0
   -4.2322    1.6676    1.2082 H   0  0  0  0  0  0  0  0  0  0  0  0
   -2.3963   -1.0794    0.8077 H   0  0  0  0  0  0  0  0  0  0  0  0
   -0.1061   -2.1113   -2.8643 H   0  0  0  0  0  0  0  0  0  0  0  0
   -1.1477   -2.6353    1.3044 H   0  0  0  0  0  0  0  0  0  0  0  0
    2.1780   -2.8393   -2.3725 H   0  0  0  0  0  0  0  0  0  0  0  0
    1.1196   -3.3350    1.7870 H   0  0  0  0  0  0  0  0  0  0  0  0
    5.0442   -2.6208    1.5921 H   0  0  0  0  0  0  0  0  0  0  0  0
    3.4076   -2.4958    2.2138 H   0  0  0  0  0  0  0  0  0  0  0  0
   -6.6683   -1.5507    1.8335 H   0  0  0  0  0  0  0  0  0  0  0  0
    5.6926   -1.1581   -0.4750 H   0  0  0  0  0  0  0  0  0  0  0  0
    1.0250    3.7671    0.7108 H   0  0  0  0  0  0  0  0  0  0  0  0
   -3.3499    4.9276    0.1836 H   0  0  0  0  0  0  0  0  0  0  0  0
    3.2584    5.2176   -1.5603 H   0  0  0  0  0  0  0  0  0  0  0  0
    1.8252    5.4109   -0.6057 H   0  0  0  0  0  0  0  0  0  0  0  0
  1 23  1  0  0  0  0
  1 26  1  0  0  0  0
  2 17  1  0  0  0  0
  2 45  1  0  0  0  0
  3 17  2  0  0  0  0
  4 18  2  0  0  0  0
  5 20  1  0  0  0  0
  5 48  1  0  0  0  0
  6 20  2  0  0  0  0
  7 31  2  0  0  0  0
  8 14  1  0  0  0  0
  8 18  1  0  0  0  0
  8 38  1  0  0  0  0
  9 27  1  0  0  0  0
  9 28  2  0  0  0  0
 10 29  2  0  0  0  0
 10 30  1  0  0  0  0
 11 31  1  0  0  0  0
 11 32  1  0  0  0  0
 11 47  1  0  0  0  0
 12 29  1  0  0  0  0
 12 32  2  0  0  0  0
 13 32  1  0  0  0  0
 13 49  1  0  0  0  0
 13 50  1  0  0  0  0
 14 15  1  0  0  0  0
 14 17  1  0  0  0  0
 14 33  1  0  0  0  0
 15 16  1  0  0  0  0
 15 34  1  0  0  0  0
 15 35  1  0  0  0  0
 16 20  1  0  0  0  0
 16 36  1  0  0  0  0
 16 37  1  0  0  0  0
 18 19  1  0  0  0  0
 19 21  2  0  0  0  0
 19 22  1  0  0  0  0
 21 24  1  0  0  0  0
 21 39  1  0  0  0  0
 22 25  2  0  0  0  0
 22 40  1  0  0  0  0
 23 24  2  0  0  0  0
 23 25  1  0  0  0  0
 24 41  1  0  0  0  0
 25 42  1  0  0  0  0
 26 27  1  0  0  0  0
 26 43  1  0  0  0  0
 26 44  1  0  0  0  0
 27 30  2  0  0  0  0
 28 29  1  0  0  0  0
 28 31  1  0  0  0  0
 30 46  1  0  0  0  0
M  END
> <PUBCHEM_COMPOUND_CID>
135468175

> <PUBCHEM_CONFORMER_RMSD>
1

> <PUBCHEM_CONFORMER_DIVERSEORDER>
4
90
143
243
110
72
119
114
177
157
7
31
260
33
218
124
77
140
161
111
125
79
91
153
194
43
93
23
235
144
28
206
146
241
164
145
115
211
1
56
169
123
46
203
175
190
223
83
187
14
234
189
82
179
216
55
133
86
130
250
135
92
13
163
188
251
17
18
170
27
258
5
98
256
48
75
10
197
173
29
210
141
63
166
249
127
196
47
104
257
42
88
131
151
165
16
45
212
109
147
244
122
61
253
148
217
22
25
81
62
181
89
6
248
60
96
132
159
156
255
15
2
239
85
167
139
226
116
39
213
171
182
121
21
103
34
40
232
3
99
129
107
209
80
134
225
185
238
150
172
117
49
237
73
113
233
87
12
26
247
59
236
68
160
202
36
184
158
112
205
174
69
149
8
214
32
64
101
78
176
35
95
259
11
138
254
128
52
74
222
118
246
67
152
192
9
65
97
154
136
137
41
228
105
242
94
106
191
208
30
162
53
221
180
58
252
71
126
100
245
76
240
178
220
38
19
142
231
168
204
20
24
108
50
219
155
57
215
200
44
120
230
70
102
207
84
227
224
37
193
51
183
199
198
195
186
229
54
201
66

> <PUBCHEM_MMFF94_PARTIAL_CHARGES>
42
1 -0.33
10 -0.62
11 -0.49
12 -0.63
13 -0.85
14 0.36
16 0.06
17 0.66
18 0.54
19 0.09
2 -0.65
20 0.66
21 -0.15
22 -0.15
23 0.1
24 -0.15
25 -0.15
26 0.37
27 0.17
28 0.4
29 0.49
3 -0.57
30 0.16
31 0.54
32 0.56
38 0.37
39 0.15
4 -0.57
40 0.15
41 0.15
42 0.15
45 0.5
46 0.15
47 0.37
48 0.5
49 0.4
5 -0.65
50 0.4
6 -0.57
7 -0.57
8 -0.73
9 -0.62

> <PUBCHEM_EFFECTIVE_ROTOR_COUNT>
10

> <PUBCHEM_PHARMACOPHORE_FEATURES>
16
1 11 donor
1 13 donor
1 2 acceptor
1 3 acceptor
1 4 acceptor
1 5 acceptor
1 6 acceptor
1 7 acceptor
1 8 donor
1 9 acceptor
3 10 12 29 cation
3 2 3 17 anion
3 5 6 20 anion
6 11 12 28 29 31 32 rings
6 19 21 22 23 24 25 rings
6 9 10 27 28 29 30 rings

> <PUBCHEM_HEAVY_ATOM_COUNT>
32

> <PUBCHEM_ATOM_DEF_STEREO_COUNT>
0

> <PUBCHEM_ATOM_UDEF_STEREO_COUNT>
1

> <PUBCHEM_BOND_DEF_STEREO_COUNT>
0

> <PUBCHEM_BOND_UDEF_STEREO_COUNT>
0

> <PUBCHEM_ISOTOPIC_ATOM_COUNT>
0

> <PUBCHEM_COMPONENT_COUNT>
1

> <PUBCHEM_CACTVS_TAUTO_COUNT>
-1

> <PUBCHEM_CONFORMER_ID>
0813148F00000004

> <PUBCHEM_MMFF94_ENERGY>
74.8367

> <PUBCHEM_FEATURE_SELFOVERLAP>
81.408

> <PUBCHEM_SHAPE_FINGERPRINT>
10074138 170 16171686514476511994
11059048 146 17977671136465076540
11513181 2 16698922281099724519
12422481 6 17983546669143848754
12925494 130 18265609884638472649
12978246 48 18342174458004761081
13583140 156 18189046496239838663
14117953 113 17693371140493727484
14251764 38 18338234843639424197
14705955 166 17677063446013172443
150020 26 18342167839243880393
151778 21 18265331888115318662
15475509 84 16964625751369138562
17921350 177 17536287281398384396
20465049 17 18268164204699911006
20764821 26 18050849922761901693
20775438 99 15599732612858054244
325973 47 18267018349948132893
3298306 158 18342172259108151345
338550 245 18411413973728610464
373842 8 18267020566456764381
4144715 1 18265340508031279867
463206 1 17908988707996081416
5081480 168 17129044697108985614
508706 21 18118113672420961429
550186 83 17754162099296350208
5776283 40 18120957233119307972

> <PUBCHEM_SHAPE_MULTIPOLES>
597.29
11.62
6.21
1.58
10.32
5.24
0.05
2.14
-1.85
-2.28
1.38
0.76
-0.67
-0.14

> <PUBCHEM_SHAPE_SELFOVERLAP>
1264.775

> <PUBCHEM_SHAPE_VOLUME>
334.1

> <PUBCHEM_COORDINATE_TYPE>
2
5
10

$$$$
