REMARK  Name = 135402037
REMARK  5 active torsions:
REMARK  status: ('A' for Active; 'I' for Inactive)
REMARK    1  A    between atoms: C2*_2  and  O2*_17
REMARK    2  A    between atoms: C1*_3  and  N9_7
REMARK    3  A    between atoms: C3*_4  and  O3*_19
REMARK    4  A    between atoms: C4*_5  and  C5*_21
REMARK    5  A    between atoms: C5*_21  and  O5*_22
REMARK                            x       y       z     vdW  Elec       q    Type
REMARK                         _______ _______ _______ _____ _____    ______ ____
ROOT
ATOM      1  O4* I   A   1      -1.951   0.781  -0.660  0.00  0.00    -0.333 OA
ATOM      2  C2* I   A   1      -1.586  -1.214   0.589  0.00  0.00    +0.187 C 
ATOM      3  C1* I   A   1      -0.985  -0.269  -0.447  0.00  0.00    +0.225 C 
ATOM      4  C3* I   A   1      -3.070  -1.034   0.352  0.00  0.00    +0.171 C 
ATOM      5  C4* I   A   1      -3.150   0.455   0.063  0.00  0.00    +0.175 C 
ENDROOT
BRANCH   3   7
ATOM      6  O6  I   A   1       4.717   1.187   0.727  0.00  0.00    -0.268 OA
ATOM      7  N9  I   A   1       0.343   0.309  -0.017  0.00  0.00    -0.247 N 
ATOM      8  N7  I   A   1       1.799   1.702   0.953  0.00  0.00    -0.241 NA
ATOM      9  N3  I   A   1       1.863  -1.294  -1.015  0.00  0.00    -0.232 NA
ATOM     10  N1  I   A   1       4.142  -0.692  -0.534  0.00  0.00    -0.279 N 
ATOM     11  C4  I   A   1       1.584  -0.183  -0.295  0.00  0.00    +0.154 C 
ATOM     12  C8  I   A   1       0.525   1.443   0.735  0.00  0.00    +0.223 C 
ATOM     13  C5  I   A   1       2.455   0.692   0.314  0.00  0.00    +0.162 C 
ATOM     14  C6  I   A   1       3.873   0.462   0.215  0.00  0.00    +0.267 C 
ATOM     15  C2  I   A   1       3.146  -1.496  -1.101  0.00  0.00    +0.220 C 
ATOM     16  H1  I   A   1       5.082  -0.951  -0.669  0.00  0.00    +0.152 HD
ENDBRANCH   3   7
BRANCH   2  17
ATOM     17  O2* I   A   1      -1.181  -2.550   0.350  0.00  0.00    -0.378 OA
ATOM     18  H2* I   A   1      -0.228  -2.633   0.510  0.00  0.00    +0.211 HD
ENDBRANCH   2  17
BRANCH   4  19
ATOM     19  O3* I   A   1      -3.815  -1.392   1.500  0.00  0.00    -0.379 OA
ATOM     20  H3* I   A   1      -3.738  -2.347   1.650  0.00  0.00    +0.211 HD
ENDBRANCH   4  19
BRANCH   5  21
ATOM     21  C5* I   A   1      -4.362   0.845  -0.763  0.00  0.00    +0.169 C 
BRANCH  21  22
ATOM     22  O5* I   A   1      -4.347   2.249  -0.966  0.00  0.00    -0.379 OA
ATOM     23  H5* I   A   1      -5.119   2.508  -1.493  0.00  0.00    +0.211 HD
ENDBRANCH  21  22
ENDBRANCH   5  21
TORSDOF 5
