REMARK  Name = 135409548
REMARK  6 active torsions:
REMARK  status: ('A' for Active; 'I' for Inactive)
REMARK    1  A    between atoms: N_2  and  C_5
REMARK    2  A    between atoms: C_3  and  C_15
REMARK    3  A    between atoms: C_8  and  C_12
REMARK    4  A    between atoms: C_12  and  O_13
REMARK    5  A    between atoms: C_15  and  C_16
REMARK    6  A    between atoms: C_16  and  N_18
REMARK                            x       y       z     vdW  Elec       q    Type
REMARK                         _______ _______ _______ _____ _____    ______ ____
ROOT
ATOM      1  O   UNL     1       0.376  -2.988  -1.266  0.00  0.00    -0.275 OA
ATOM      2  N   UNL     1       0.085  -1.716   0.688  0.00  0.00    -0.284 N 
ATOM      3  C   UNL     1       0.757  -2.570  -0.177  0.00  0.00    +0.228 C 
ATOM      4  H   UNL     1       0.540  -1.508   1.536  0.00  0.00    +0.155 HD
ENDROOT
BRANCH   2   5
ATOM      5  C   UNL     1      -1.178  -1.110   0.493  0.00  0.00    +0.050 C 
ATOM      6  C   UNL     1      -1.893  -1.349  -0.680  0.00  0.00    +0.015 C 
ATOM      7  C   UNL     1      -1.708  -0.271   1.474  0.00  0.00    +0.015 C 
ATOM      8  C   UNL     1      -3.668   0.088   0.108  0.00  0.00    +0.076 C 
ATOM      9  C   UNL     1      -3.138  -0.750  -0.873  0.00  0.00    +0.008 C 
ATOM     10  C   UNL     1      -2.953   0.328   1.281  0.00  0.00    +0.008 C 
BRANCH   8  12
ATOM     11  O   UNL     1      -5.681   0.571  -1.092  0.00  0.00    -0.245 OA
ATOM     12  C   UNL     1      -4.966   0.713  -0.095  0.00  0.00    +0.338 C 
BRANCH  12  13
ATOM     13  O   UNL     1      -5.335   1.497   0.955  0.00  0.00    -0.477 OA
ATOM     14  H   UNL     1      -4.770   1.584   1.697  0.00  0.00    +0.295 HD
ENDBRANCH  12  13
ENDBRANCH   8  12
ENDBRANCH   2   5
BRANCH   3  15
ATOM     15  C   UNL     1       2.096  -3.014   0.391  0.00  0.00    +0.107 C 
BRANCH  15  16
ATOM     16  C   UNL     1       3.223  -2.062  -0.011  0.00  0.00    +0.104 C 
BRANCH  16  18
ATOM     17  O   UNL     1       1.972   3.710   0.569  0.00  0.00    -0.268 OA
ATOM     18  N   UNL     1       2.985  -0.694   0.382  0.00  0.00    -0.271 N 
ATOM     19  N   UNL     1       2.857   1.109   1.701  0.00  0.00    -0.241 NA
ATOM     20  N   UNL     1       2.268   0.252  -1.731  0.00  0.00    -0.232 NA
ATOM     21  N   UNL     1       1.766   2.590  -1.469  0.00  0.00    -0.279 N 
ATOM     22  C   UNL     1       2.555   0.329  -0.411  0.00  0.00    +0.152 C 
ATOM     23  C   UNL     1       2.487   1.419   0.425  0.00  0.00    +0.162 C 
ATOM     24  C   UNL     1       3.152  -0.175   1.643  0.00  0.00    +0.221 C 
ATOM     25  C   UNL     1       2.059   2.689  -0.102  0.00  0.00    +0.267 C 
ATOM     26  C   UNL     1       1.882   1.403  -2.202  0.00  0.00    +0.220 C 
ATOM     27  H   UNL     1       1.463   3.400  -1.940  0.00  0.00    +0.152 HD
ENDBRANCH  16  18
ENDBRANCH  15  16
ENDBRANCH   3  15
TORSDOF 6
