REMARK  Name = 135423946
REMARK  5 active torsions:
REMARK  status: ('A' for Active; 'I' for Inactive)
REMARK    1  A    between atoms: N_2  and  C1*_17
REMARK    2  A    between atoms: C2*_18  and  O2*_21
REMARK    3  A    between atoms: C3*_19  and  O3*_23
REMARK    4  A    between atoms: C4*_20  and  C5*_25
REMARK    5  A    between atoms: C5*_25  and  O5*_26
REMARK                            x       y       z     vdW  Elec       q    Type
REMARK                         _______ _______ _______ _____ _____    ______ ____
ROOT
ATOM      1  O   UNL     1      -3.554   2.640  -0.390  0.00  0.00    -0.273 OA
ATOM      2  N   UNL     1       0.478   0.507   0.146  0.00  0.00    -0.247 N 
ATOM      3  N   UNL     1      -0.493   2.411  -0.173  0.00  0.00    -0.241 NA
ATOM      4  N   UNL     1      -1.493  -0.960   0.227  0.00  0.00    -0.360 NA
ATOM      5  N   UNL     1      -3.477   0.353  -0.073  0.00  0.00    -0.246 N 
ATOM      6  N   UNL     1      -3.608  -1.970   0.237  0.00  0.00    -0.268 N 
ATOM      7  C   UNL     1      -0.877   0.244   0.099  0.00  0.00    +0.189 C 
ATOM      8  C   UNL     1       0.695   1.817  -0.020  0.00  0.00    +0.173 C 
ATOM      9  C   UNL     1      -1.486   1.465  -0.105  0.00  0.00    +0.204 C 
ATOM     10  C   UNL     1      -2.891   1.621  -0.211  0.00  0.00    +0.252 C 
ATOM     11  C   UNL     1      -0.676   3.833  -0.380  0.00  0.00    +0.092 C 
ATOM     12  C   UNL     1      -2.799  -0.868   0.135  0.00  0.00    +0.245 C 
ATOM     13  C   UNL     1      -4.840  -1.912   0.992  0.00  0.00    +0.116 C 
ATOM     14  C   UNL     1      -3.137  -3.270  -0.186  0.00  0.00    +0.116 C 
ATOM     15  H   UNL     1      -4.459   0.310  -0.127  0.00  0.00    +0.159 HD
ENDROOT
BRANCH   2  17
ATOM     16  O4* UNL     1       2.688   0.035   1.067  0.00  0.00    -0.333 OA
ATOM     17  C1* UNL     1       1.564  -0.521   0.354  0.00  0.00    +0.225 C 
ATOM     18  C2* UNL     1       2.131  -1.062  -0.954  0.00  0.00    +0.187 C 
ATOM     19  C3* UNL     1       3.516  -1.513  -0.535  0.00  0.00    +0.171 C 
ATOM     20  C4* UNL     1       3.915  -0.436   0.466  0.00  0.00    +0.175 C 
BRANCH  18  21
ATOM     21  O2* UNL     1       1.353  -2.106  -1.504  0.00  0.00    -0.378 OA
ATOM     22  H2* UNL     1       0.481  -1.762  -1.754  0.00  0.00    +0.211 HD
ENDBRANCH  18  21
BRANCH  19  23
ATOM     23  O3* UNL     1       3.444  -2.756   0.162  0.00  0.00    -0.379 OA
ATOM     24  H3* UNL     1       3.191  -3.459  -0.456  0.00  0.00    +0.211 HD
ENDBRANCH  19  23
BRANCH  20  25
ATOM     25  C5* UNL     1       4.614   0.752  -0.183  0.00  0.00    +0.169 C 
BRANCH  25  26
ATOM     26  O5* UNL     1       4.932   1.696   0.825  0.00  0.00    -0.379 OA
ATOM     27  H5* UNL     1       5.378   2.458   0.424  0.00  0.00    +0.211 HD
ENDBRANCH  25  26
ENDBRANCH  20  25
ENDBRANCH   2  17
TORSDOF 5
