REMARK  Name = 135461190
REMARK  4 active torsions:
REMARK  status: ('A' for Active; 'I' for Inactive)
REMARK    1  A    between atoms: N_4  and  C1*_17
REMARK    2  A    between atoms: C3*_18  and  O3*_21
REMARK    3  A    between atoms: C4*_20  and  C5*_23
REMARK    4  A    between atoms: C5*_23  and  O5*_24
REMARK                            x       y       z     vdW  Elec       q    Type
REMARK                         _______ _______ _______ _____ _____    ______ ____
ROOT
ATOM      1  S   UNL     1      -1.354  -2.501   0.103  0.00  0.00    -0.040 S 
ATOM      2  O   UNL     1       1.279  -2.303  -0.142  0.00  0.00    -0.262 OA
ATOM      3  O   UNL     1      -4.393  -1.724   0.313  0.00  0.00    -0.273 OA
ATOM      4  N   UNL     1      -0.006  -0.318  -0.187  0.00  0.00    -0.204 N 
ATOM      5  N   UNL     1      -1.743   1.369  -0.167  0.00  0.00    -0.361 NA
ATOM      6  N   UNL     1      -3.949   0.544   0.092  0.00  0.00    -0.246 N 
ATOM      7  N   UNL     1      -3.566   2.844  -0.121  0.00  0.00    -0.321 N 
ATOM      8  C   UNL     1      -1.337   0.061  -0.100  0.00  0.00    +0.190 C 
ATOM      9  C   UNL     1       0.223  -1.692  -0.099  0.00  0.00    +0.284 C 
ATOM     10  C   UNL     1      -2.153  -0.987   0.054  0.00  0.00    +0.199 C 
ATOM     11  C   UNL     1      -3.603  -0.800   0.168  0.00  0.00    +0.247 C 
ATOM     12  C   UNL     1      -3.030   1.584  -0.070  0.00  0.00    +0.239 C 
ATOM     13  H   UNL     1      -4.903   0.778   0.157  0.00  0.00    +0.159 HD
ATOM     14  H   UNL     1      -2.978   3.626  -0.233  0.00  0.00    +0.146 HD
ATOM     15  H   UNL     1      -4.540   2.968  -0.044  0.00  0.00    +0.146 HD
ENDROOT
BRANCH   4  17
ATOM     16  O4* UNL     1       2.108   0.034  -1.126  0.00  0.00    -0.335 OA
ATOM     17  C1* UNL     1       1.056   0.631  -0.354  0.00  0.00    +0.203 C 
ATOM     18  C3* UNL     1       3.107   1.317   0.599  0.00  0.00    +0.144 C 
ATOM     19  C2* UNL     1       1.660   1.078   0.966  0.00  0.00    +0.083 C 
ATOM     20  C4* UNL     1       3.369   0.266  -0.470  0.00  0.00    +0.173 C 
BRANCH  18  21
ATOM     21  O3* UNL     1       3.252   2.622   0.043  0.00  0.00    -0.382 OA
ATOM     22  H3* UNL     1       3.084   3.286   0.729  0.00  0.00    +0.210 HD
ENDBRANCH  18  21
BRANCH  20  23
ATOM     23  C5* UNL     1       3.847  -1.061   0.107  0.00  0.00    +0.169 C 
BRANCH  23  24
ATOM     24  O5* UNL     1       5.233  -0.964   0.391  0.00  0.00    -0.379 OA
ATOM     25  H5* UNL     1       5.547  -1.805   0.759  0.00  0.00    +0.211 HD
ENDBRANCH  23  24
ENDBRANCH  20  23
ENDBRANCH   4  17
TORSDOF 4
