135409371
  -OEChem-03292013293D

 27 28  0     0  0  0  0  0  0999 V2000
    1.5844    0.5497   -0.8100 O   0  0  0  0  0  0  0  0  0  0  0  0
    6.1039   -0.6683    0.2412 O   0  0  0  0  0  0  0  0  0  0  0  0
   -4.0873    0.9846    0.6359 O   0  0  0  0  0  0  0  0  0  0  0  0
    0.2953    0.9085   -0.4609 N   0  0  0  0  0  0  0  0  0  0  0  0
   -1.4441    2.2132    0.0625 N   0  0  0  0  0  0  0  0  0  0  0  0
   -0.7405   -1.2767   -0.3530 N   0  0  0  0  0  0  0  0  0  0  0  0
   -3.0533   -1.0711    0.2377 N   0  0  0  0  0  0  0  0  0  0  0  0
   -2.0947   -3.1862   -0.1469 N   0  0  0  0  0  0  0  0  0  0  0  0
   -0.7613    0.0710   -0.2552 C   0  0  0  0  0  0  0  0  0  0  0  0
    2.4791    0.3034    0.2610 C   0  0  0  0  0  0  0  0  0  0  0  0
    3.8460   -0.0774   -0.2857 C   0  0  0  0  0  0  0  0  0  0  0  0
   -1.8099    0.8996    0.0633 C   0  0  0  0  0  0  0  0  0  0  0  0
   -0.1654    2.1865   -0.2582 C   0  0  0  0  0  0  0  0  0  0  0  0
   -3.0970    0.3261    0.3446 C   0  0  0  0  0  0  0  0  0  0  0  0
    4.8521   -0.3337    0.8241 C   0  0  0  0  0  0  0  0  0  0  0  0
   -1.9073   -1.8291   -0.1003 C   0  0  0  0  0  0  0  0  0  0  0  0
    2.5601    1.2059    0.8783 H   0  0  0  0  0  0  0  0  0  0  0  0
    2.0853   -0.5081    0.8842 H   0  0  0  0  0  0  0  0  0  0  0  0
    4.2155    0.7122   -0.9527 H   0  0  0  0  0  0  0  0  0  0  0  0
    3.7596   -0.9632   -0.9280 H   0  0  0  0  0  0  0  0  0  0  0  0
    0.4785    3.0491   -0.3597 H   0  0  0  0  0  0  0  0  0  0  0  0
    4.9851    0.5581    1.4447 H   0  0  0  0  0  0  0  0  0  0  0  0
    4.5299   -1.1651    1.4591 H   0  0  0  0  0  0  0  0  0  0  0  0
   -3.9144   -1.5796    0.4171 H   0  0  0  0  0  0  0  0  0  0  0  0
   -1.3328   -3.8137   -0.3800 H   0  0  0  0  0  0  0  0  0  0  0  0
   -2.9983   -3.6025    0.0497 H   0  0  0  0  0  0  0  0  0  0  0  0
    6.7256   -0.8265    0.9719 H   0  0  0  0  0  0  0  0  0  0  0  0
  1  4  1  0  0  0  0
  1 10  1  0  0  0  0
  2 15  1  0  0  0  0
  2 27  1  0  0  0  0
  3 14  2  0  0  0  0
  4  9  1  0  0  0  0
  4 13  1  0  0  0  0
  5 12  1  0  0  0  0
  5 13  2  0  0  0  0
  6  9  1  0  0  0  0
  6 16  2  0  0  0  0
  7 14  1  0  0  0  0
  7 16  1  0  0  0  0
  7 24  1  0  0  0  0
  8 16  1  0  0  0  0
  8 25  1  0  0  0  0
  8 26  1  0  0  0  0
  9 12  2  0  0  0  0
 10 11  1  0  0  0  0
 10 17  1  0  0  0  0
 10 18  1  0  0  0  0
 11 15  1  0  0  0  0
 11 19  1  0  0  0  0
 11 20  1  0  0  0  0
 12 14  1  0  0  0  0
 13 21  1  0  0  0  0
 15 22  1  0  0  0  0
 15 23  1  0  0  0  0
M  END
> <PUBCHEM_COMPOUND_CID>
135409371

> <PUBCHEM_CONFORMER_RMSD>
0.6

> <PUBCHEM_CONFORMER_DIVERSEORDER>
1
38
24
41
28
26
37
18
22
36
10
13
29
21
42
9
17
7
39
16
40
31
5
34
27
30
2
43
35
3
4
20
32
19
8
6
33
25
15
23
14
11
12

> <PUBCHEM_MMFF94_PARTIAL_CHARGES>
20
1 -0.42
10 0.28
12 0.14
13 0.04
14 0.72
15 0.28
16 0.56
2 -0.68
21 0.15
24 0.37
25 0.4
26 0.4
27 0.4
3 -0.57
4 0.44
5 -0.57
6 -0.58
7 -0.49
8 -0.85
9 -0.03

> <PUBCHEM_EFFECTIVE_ROTOR_COUNT>
4

> <PUBCHEM_PHARMACOPHORE_FEATURES>
8
1 2 acceptor
1 2 donor
1 3 acceptor
1 7 donor
1 8 donor
3 4 5 13 cation
5 4 5 9 12 13 rings
6 6 7 9 12 14 16 rings

> <PUBCHEM_HEAVY_ATOM_COUNT>
16

> <PUBCHEM_ATOM_DEF_STEREO_COUNT>
0

> <PUBCHEM_ATOM_UDEF_STEREO_COUNT>
0

> <PUBCHEM_BOND_DEF_STEREO_COUNT>
0

> <PUBCHEM_BOND_UDEF_STEREO_COUNT>
0

> <PUBCHEM_ISOTOPIC_ATOM_COUNT>
0

> <PUBCHEM_COMPONENT_COUNT>
1

> <PUBCHEM_CACTVS_TAUTO_COUNT>
-1

> <PUBCHEM_CONFORMER_ID>
08122EDB00000001

> <PUBCHEM_MMFF94_ENERGY>
26.3713

> <PUBCHEM_FEATURE_SELFOVERLAP>
40.775

> <PUBCHEM_SHAPE_FINGERPRINT>
10616163 171 18410011044448022986
11132069 177 18343027670147745788
12119455 92 17060335197576582876
12251169 10 18411699868395629668
13140716 1 18340210816010389465
13551218 46 18263924337286299786
13862211 1 18411138082600054063
15042514 8 18409454712812072291
15375462 189 18040431096906365968
16945 1 18341068383983545829
17804303 29 18341897411139377920
1813 80 17240773831061877286
200 152 15647053742449917148
20281475 54 18263926703770633516
20510252 161 18128819633782811544
21339142 126 18187078429953807564
21501502 16 18122915488554529965
21637258 2 16081376305856636873
21650355 55 18412261752754186320
22959321 94 18334571343910040770
2297311 6 18271255941408378900
232386 152 18336834202884724788
23366157 5 17899698148247833724
23402539 116 18271799108267785213
23559900 14 18341326769432539344
23728640 28 18411139155840945763
2748010 2 18053108603688065045
474 4 13542455489171750504
5104073 3 18341050821820029696
559249 180 17896591783475763234
58807428 26 18267318542639648547

> <PUBCHEM_SHAPE_MULTIPOLES>
286.76
8.78
2.34
0.73
15.32
0.99
-0.02
2.23
-2.2
-2.47
0.18
0.19
-0.04
-0.39

> <PUBCHEM_SHAPE_SELFOVERLAP>
605.098

> <PUBCHEM_SHAPE_VOLUME>
160.3

> <PUBCHEM_COORDINATE_TYPE>
2
5
10

$$$$
