REMARK  Name = 135459120
REMARK  7 active torsions:
REMARK  status: ('A' for Active; 'I' for Inactive)
REMARK    1  A    between atoms: N_2  and  N_13
REMARK    2  A    between atoms: C_3  and  C_5
REMARK    3  A    between atoms: C_6  and  O_11
REMARK    4  A    between atoms: N_13  and  C_14
REMARK    5  A    between atoms: C_14  and  C_15
REMARK    6  A    between atoms: C_16  and  O_21
REMARK    7  A    between atoms: C_19  and  O_23
REMARK                            x       y       z     vdW  Elec       q    Type
REMARK                         _______ _______ _______ _____ _____    ______ ____
ROOT
ATOM      1  O   UNL     1      -1.837  -1.881   0.423  0.00  0.00    -0.269 OA
ATOM      2  N   UNL     1      -0.885   0.190   0.020  0.00  0.00    -0.228 N 
ATOM      3  C   UNL     1      -1.945  -0.678   0.198  0.00  0.00    +0.263 C 
ATOM      4  H   UNL     1      -1.041   1.146  -0.158  0.00  0.00    +0.171 HD
ENDROOT
BRANCH   3   5
ATOM      5  C   UNL     1      -3.299  -0.069   0.127  0.00  0.00    +0.088 C 
ATOM      6  C   UNL     1      -4.393  -0.806  -0.323  0.00  0.00    +0.138 C 
ATOM      7  C   UNL     1      -3.466   1.260   0.519  0.00  0.00    +0.008 C 
ATOM      8  C   UNL     1      -5.656  -0.215  -0.383  0.00  0.00    +0.037 C 
ATOM      9  C   UNL     1      -4.728   1.850   0.461  0.00  0.00    +0.000 C 
ATOM     10  C   UNL     1      -5.823   1.113   0.009  0.00  0.00    +0.003 C 
BRANCH   6  11
ATOM     11  O   UNL     1      -4.250  -2.105  -0.711  0.00  0.00    -0.505 OA
ATOM     12  H   UNL     1      -3.408  -2.514  -0.676  0.00  0.00    +0.292 HD
ENDBRANCH   6  11
ENDBRANCH   3   5
BRANCH   2  13
ATOM     13  N   UNL     1       0.374  -0.304   0.094  0.00  0.00    -0.126 NA
BRANCH  13  14
ATOM     14  C   UNL     1       1.315   0.579  -0.086  0.00  0.00    +0.141 C 
BRANCH  14  15
ATOM     15  C   UNL     1       2.730   0.238  -0.042  0.00  0.00    +0.031 C 
ATOM     16  C   UNL     1       3.708   1.214  -0.238  0.00  0.00    +0.134 C 
ATOM     17  C   UNL     1       3.102  -1.083   0.203  0.00  0.00    +0.003 C 
ATOM     18  C   UNL     1       5.058   0.866  -0.192  0.00  0.00    +0.073 C 
ATOM     19  C   UNL     1       5.430  -0.456   0.052  0.00  0.00    +0.137 C 
ATOM     20  C   UNL     1       4.452  -1.431   0.249  0.00  0.00    +0.037 C 
BRANCH  16  21
ATOM     21  O   UNL     1       3.364   2.510  -0.478  0.00  0.00    -0.506 OA
ATOM     22  H   UNL     1       2.461   2.757  -0.512  0.00  0.00    +0.292 HD
ENDBRANCH  16  21
BRANCH  19  23
ATOM     23  O   UNL     1       6.748  -0.794   0.098  0.00  0.00    -0.505 OA
ATOM     24  H   UNL     1       7.405  -0.139  -0.034  0.00  0.00    +0.292 HD
ENDBRANCH  19  23
ENDBRANCH  14  15
ENDBRANCH  13  14
ENDBRANCH   2  13
TORSDOF 7
