REMARK  Name = 135494270
REMARK  8 active torsions:
REMARK  status: ('A' for Active; 'I' for Inactive)
REMARK    1  A    between atoms: C_3  and  C_10
REMARK    2  A    between atoms: C_4  and  C_19
REMARK    3  A    between atoms: C_5  and  C_21
REMARK    4  A    between atoms: C_6  and  S_22
REMARK    5  A    between atoms: C_15  and  O_16
REMARK    6  A    between atoms: S_22  and  C_23
REMARK    7  A    between atoms: C_23  and  C_24
REMARK    8  A    between atoms: C_24  and  O_25
REMARK                            x       y       z     vdW  Elec       q    Type
REMARK                         _______ _______ _______ _____ _____    ______ ____
ROOT
ATOM      1  N   UNL     1       2.204  -1.308   0.288  0.00  0.00    -0.384 NA
ATOM      2  N   UNL     1       1.415  -3.523   0.048  0.00  0.00    -0.335 N 
ATOM      3  C   UNL     1      -0.409  -0.334   0.103  0.00  0.00    +0.012 C 
ATOM      4  C   UNL     1       0.654   0.547   0.272  0.00  0.00    +0.101 C 
ATOM      5  C   UNL     1      -0.167  -1.700   0.026  0.00  0.00    +0.180 C 
ATOM      6  C   UNL     1       1.930   0.014   0.358  0.00  0.00    +0.168 C 
ATOM      7  C   UNL     1       1.146  -2.133   0.124  0.00  0.00    +0.173 C 
ATOM      8  H   UNL     1       2.341  -3.850   0.115  0.00  0.00    +0.144 HD
ATOM      9  H   UNL     1       0.675  -4.162  -0.072  0.00  0.00    +0.144 HD
ENDROOT
BRANCH   3  10
ATOM     10  C   UNL     1      -1.762   0.169   0.006  0.00  0.00    -0.002 C 
ATOM     11  C   UNL     1      -2.533   0.323   1.159  0.00  0.00    +0.003 C 
ATOM     12  C   UNL     1      -2.297   0.497  -1.240  0.00  0.00    +0.003 C 
ATOM     13  C   UNL     1      -3.838   0.805   1.065  0.00  0.00    +0.037 C 
ATOM     14  C   UNL     1      -3.603   0.979  -1.333  0.00  0.00    +0.037 C 
ATOM     15  C   UNL     1      -4.373   1.133  -0.181  0.00  0.00    +0.134 C 
BRANCH  15  16
ATOM     16  O   UNL     1      -5.647   1.603  -0.271  0.00  0.00    -0.506 OA
ATOM     17  H   UNL     1      -6.165   1.706   0.503  0.00  0.00    +0.292 HD
ENDBRANCH  15  16
ENDBRANCH   3  10
BRANCH   4  19
ATOM     18  N   UNL     1       0.240   3.106   0.419  0.00  0.00    -0.191 NA
ATOM     19  C   UNL     1       0.425   1.962   0.353  0.00  0.00    +0.103 C 
ENDBRANCH   4  19
BRANCH   5  21
ATOM     20  N   UNL     1      -2.107  -3.397  -0.289  0.00  0.00    -0.195 NA
ATOM     21  C   UNL     1      -1.240  -2.638  -0.148  0.00  0.00    +0.085 C 
ENDBRANCH   5  21
BRANCH   6  22
ATOM     22  S   UNL     1       3.378   1.048   0.576  0.00  0.00    -0.079 S 
BRANCH  22  23
ATOM     23  C   UNL     1       4.649   0.068  -0.266  0.00  0.00    +0.096 C 
BRANCH  23  24
ATOM     24  C   UNL     1       6.004   0.755  -0.215  0.00  0.00    +0.149 C 
BRANCH  24  25
ATOM     25  O   UNL     1       5.932   2.023  -0.854  0.00  0.00    -0.381 OA
ATOM     26  H   UNL     1       6.801   2.453  -0.817  0.00  0.00    +0.210 HD
ENDBRANCH  24  25
ENDBRANCH  23  24
ENDBRANCH  22  23
ENDBRANCH   6  22
TORSDOF 8
