135410268
  -OEChem-03292013293D

 31 33  0     1  0  0  0  0  0999 V2000
    1.6551   -0.2205   -1.0309 O   0  0  0  0  0  0  0  0  0  0  0  0
    1.2884    0.4787    1.8796 O   0  0  0  0  0  0  0  0  0  0  0  0
    4.0465    1.5960   -0.1494 O   0  0  0  0  0  0  0  0  0  0  0  0
    2.5067   -2.8551   -0.7342 O   0  0  0  0  0  0  0  0  0  0  0  0
   -4.7296    0.1025    0.1142 O   0  0  0  0  0  0  0  0  0  0  0  0
   -0.3367    1.0565   -0.3832 N   0  0  0  0  0  0  0  0  0  0  0  0
   -2.4115    1.8938   -0.3834 N   0  0  0  0  0  0  0  0  0  0  0  0
   -0.8017   -1.2765    0.0809 N   0  0  0  0  0  0  0  0  0  0  0  0
   -3.1701   -1.6226    0.3193 N   0  0  0  0  0  0  0  0  0  0  0  0
    1.9075    1.2199    0.8346 C   0  0  2  0  0  0  0  0  0  0  0  0
    1.1682    1.0205   -0.4882 C   0  0  1  0  0  0  0  0  0  0  0  0
    3.2621    0.6158    0.5263 C   0  0  1  0  0  0  0  0  0  0  0  0
    2.9343   -0.5232   -0.4391 C   0  0  1  0  0  0  0  0  0  0  0  0
    2.8217   -1.8790    0.2436 C   0  0  0  0  0  0  0  0  0  0  0  0
   -1.1706    0.0081   -0.1286 C   0  0  0  0  0  0  0  0  0  0  0  0
   -1.1299    2.1687   -0.5287 C   0  0  0  0  0  0  0  0  0  0  0  0
   -2.4344    0.5530   -0.1353 C   0  0  0  0  0  0  0  0  0  0  0  0
   -3.5722   -0.2973    0.1052 C   0  0  0  0  0  0  0  0  0  0  0  0
   -1.8341   -2.0394    0.2973 C   0  0  0  0  0  0  0  0  0  0  0  0
    1.9365    2.2757    1.1221 H   0  0  0  0  0  0  0  0  0  0  0  0
    1.4272    1.8067   -1.2088 H   0  0  0  0  0  0  0  0  0  0  0  0
    3.8137    0.2844    1.4115 H   0  0  0  0  0  0  0  0  0  0  0  0
    3.6546   -0.5845   -1.2630 H   0  0  0  0  0  0  0  0  0  0  0  0
    2.0224   -1.8912    0.9901 H   0  0  0  0  0  0  0  0  0  0  0  0
    3.7664   -2.1540    0.7228 H   0  0  0  0  0  0  0  0  0  0  0  0
    1.8300    0.5948    2.6789 H   0  0  0  0  0  0  0  0  0  0  0  0
    4.8948    1.1803   -0.3800 H   0  0  0  0  0  0  0  0  0  0  0  0
   -0.7164    3.1459   -0.7374 H   0  0  0  0  0  0  0  0  0  0  0  0
    2.4441   -3.7104   -0.2759 H   0  0  0  0  0  0  0  0  0  0  0  0
   -1.7221   -3.1181    0.4875 H   0  0  0  0  0  0  0  0  0  0  0  0
   -3.8900   -2.3165    0.4996 H   0  0  0  0  0  0  0  0  0  0  0  0
  1 11  1  0  0  0  0
  1 13  1  0  0  0  0
  2 10  1  0  0  0  0
  2 26  1  0  0  0  0
  3 12  1  0  0  0  0
  3 27  1  0  0  0  0
  4 14  1  0  0  0  0
  4 29  1  0  0  0  0
  5 18  2  0  0  0  0
  6 11  1  0  0  0  0
  6 15  1  0  0  0  0
  6 16  1  0  0  0  0
  7 16  2  0  0  0  0
  7 17  1  0  0  0  0
  8 15  1  0  0  0  0
  8 19  2  0  0  0  0
  9 18  1  0  0  0  0
  9 19  1  0  0  0  0
  9 31  1  0  0  0  0
 10 11  1  0  0  0  0
 10 12  1  0  0  0  0
 10 20  1  0  0  0  0
 11 21  1  0  0  0  0
 12 13  1  0  0  0  0
 12 22  1  0  0  0  0
 13 14  1  0  0  0  0
 13 23  1  0  0  0  0
 14 24  1  0  0  0  0
 14 25  1  0  0  0  0
 15 17  2  0  0  0  0
 16 28  1  0  0  0  0
 17 18  1  0  0  0  0
 19 30  1  0  0  0  0
M  END
> <PUBCHEM_COMPOUND_CID>
135410268

> <PUBCHEM_CONFORMER_RMSD>
0.6

> <PUBCHEM_CONFORMER_DIVERSEORDER>
1
7
9
16
15
5
13
14
6
3
10
2
8
12
11
4

> <PUBCHEM_MMFF94_PARTIAL_CHARGES>
25
1 -0.56
10 0.28
11 0.54
12 0.28
13 0.28
14 0.28
15 -0.03
16 0.04
17 0.14
18 0.72
19 0.45
2 -0.68
26 0.4
27 0.4
28 0.15
29 0.4
3 -0.68
30 0.06
31 0.37
4 -0.68
5 -0.57
6 0.05
7 -0.57
8 -0.58
9 -0.49

> <PUBCHEM_EFFECTIVE_ROTOR_COUNT>
3

> <PUBCHEM_PHARMACOPHORE_FEATURES>
13
1 1 acceptor
1 2 acceptor
1 2 donor
1 3 acceptor
1 3 donor
1 4 acceptor
1 4 donor
1 5 acceptor
1 9 donor
3 6 7 16 cation
5 1 10 11 12 13 rings
5 6 7 15 16 17 rings
6 8 9 15 17 18 19 rings

> <PUBCHEM_HEAVY_ATOM_COUNT>
19

> <PUBCHEM_ATOM_DEF_STEREO_COUNT>
4

> <PUBCHEM_ATOM_UDEF_STEREO_COUNT>
0

> <PUBCHEM_BOND_DEF_STEREO_COUNT>
0

> <PUBCHEM_BOND_UDEF_STEREO_COUNT>
0

> <PUBCHEM_ISOTOPIC_ATOM_COUNT>
0

> <PUBCHEM_COMPONENT_COUNT>
1

> <PUBCHEM_CACTVS_TAUTO_COUNT>
-1

> <PUBCHEM_CONFORMER_ID>
0812325C00000001

> <PUBCHEM_MMFF94_ENERGY>
45.7534

> <PUBCHEM_FEATURE_SELFOVERLAP>
66.12

> <PUBCHEM_SHAPE_FINGERPRINT>
10366900 7 18130219466703481009
10608611 8 18411133615264289100
10616163 171 18337112396559493278
10618630 7 18334295379001830951
10967382 1 18409449201957230591
11132069 177 18408039637136234953
11578080 2 13613113254135687810
13140716 1 18048879890051164417
13581323 91 18335697256185086796
14115302 16 15357698604077609760
14251745 187 18409729599124308930
14252887 29 18261964023869924913
14866123 147 16399444845947282034
15196674 1 18409167697401168879
15219456 202 18341889671508051276
15375358 24 18335979873659768121
15375462 6 18410855468987381772
15536298 74 18411982433782408487
16752209 62 18041827438319765317
16945 1 18336272322288710045
17804303 29 18266464191676078974
17834074 16 18411702071355032910
19049666 15 18271239405045797888
19591789 44 16395222712563996396
19784866 170 18338237192738823096
20510252 161 18412261701594672929
20645477 70 18272369750238686359
21501502 16 18412543176328108148
22802520 49 18410576145620351386
23402539 116 18114733962481593848
23463225 33 18335141998765804727
23559900 14 18410571765123072108
2748010 2 18263076618005001261
3286 77 17703781497169088297
34934 24 18336541720028179527
474 4 16662062541491450724
495365 180 17631997715669937273
5104073 3 18409450245892948521
69090 78 18271802441246711855
7364860 26 18412263926492584054
77492 1 13902190395610632276
81228 2 18259990366270554433
9709674 26 18410294687887157742

> <PUBCHEM_SHAPE_MULTIPOLES>
341.74
6.88
2.41
0.92
1.82
0.91
0.24
0.6
0.26
-0.56
-0.3
-0.48
-0.08
0.69

> <PUBCHEM_SHAPE_SELFOVERLAP>
744.354

> <PUBCHEM_SHAPE_VOLUME>
184

> <PUBCHEM_COORDINATE_TYPE>
2
5
10

$$$$
