REMARK  Name = 135401234
REMARK  11 active torsions:
REMARK  status: ('A' for Active; 'I' for Inactive)
REMARK    1  A    between atoms: N_1  and  C_2
REMARK    2  A    between atoms: N_1  and  N_15
REMARK    3  A    between atoms: C_2  and  C_3
REMARK    4  A    between atoms: C_4  and  O_9
REMARK    5  A    between atoms: C_5  and  O_11
REMARK    6  A    between atoms: C_6  and  O_13
REMARK    7  A    between atoms: N_15  and  C_16
REMARK    8  A    between atoms: C_16  and  C_17
REMARK    9  A    between atoms: C_18  and  O_23
REMARK   10  A    between atoms: C_19  and  O_25
REMARK   11  A    between atoms: C_20  and  O_27
REMARK                            x       y       z     vdW  Elec       q    Type
REMARK                         _______ _______ _______ _____ _____    ______ ____
ROOT
ATOM      1  N   UNL     1       0.633   0.284   0.001  0.00  0.00    -0.126 NA
ENDROOT
BRANCH   1   2
ATOM      2  C   UNL     1       1.563  -0.629   0.002  0.00  0.00    +0.136 C 
BRANCH   2   3
ATOM      3  C   UNL     1       2.982  -0.310   0.001  0.00  0.00    +0.003 C 
ATOM      4  C   UNL     1       4.757   1.329  -0.001  0.00  0.00    +0.175 C 
ATOM      5  C   UNL     1       5.288  -1.028   0.000  0.00  0.00    +0.175 C 
ATOM      6  C   UNL     1       5.703   0.304  -0.001  0.00  0.00    +0.202 C 
ATOM      7  C   UNL     1       3.396   1.022   0.000  0.00  0.00    +0.037 C 
ATOM      8  C   UNL     1       3.928  -1.335   0.001  0.00  0.00    +0.037 C 
BRANCH   4   9
ATOM      9  O   UNL     1       5.149   2.634  -0.001  0.00  0.00    -0.468 OA
ATOM     10  C   UNL     1       4.117   3.619  -0.001  0.00  0.00    +0.253 C 
ENDBRANCH   4   9
BRANCH   5  11
ATOM     11  O   UNL     1       6.202  -2.038   0.001  0.00  0.00    -0.468 OA
ATOM     12  C   UNL     1       5.694  -3.371   0.002  0.00  0.00    +0.253 C 
ENDBRANCH   5  11
BRANCH   6  13
ATOM     13  O   UNL     1       7.033   0.604  -0.004  0.00  0.00    -0.501 OA
ATOM     14  H   UNL     1       7.312   1.498  -0.005  0.00  0.00    +0.292 HD
ENDBRANCH   6  13
ENDBRANCH   2   3
ENDBRANCH   1   2
BRANCH   1  15
ATOM     15  N   UNL     1      -0.635  -0.286   0.001  0.00  0.00    -0.126 NA
BRANCH  15  16
ATOM     16  C   UNL     1      -1.546   0.631   0.001  0.00  0.00    +0.136 C 
BRANCH  16  17
ATOM     17  C   UNL     1      -2.983   0.309   0.001  0.00  0.00    +0.003 C 
ATOM     18  C   UNL     1      -4.759  -1.329  -0.001  0.00  0.00    +0.175 C 
ATOM     19  C   UNL     1      -5.289   1.028   0.000  0.00  0.00    +0.175 C 
ATOM     20  C   UNL     1      -5.705  -0.303  -0.001  0.00  0.00    +0.202 C 
ATOM     21  C   UNL     1      -3.398  -1.023   0.000  0.00  0.00    +0.037 C 
ATOM     22  C   UNL     1      -3.928   1.334   0.001  0.00  0.00    +0.037 C 
BRANCH  18  23
ATOM     23  O   UNL     1      -5.151  -2.634  -0.001  0.00  0.00    -0.468 OA
ATOM     24  C   UNL     1      -4.120  -3.620  -0.001  0.00  0.00    +0.253 C 
ENDBRANCH  18  23
BRANCH  19  25
ATOM     25  O   UNL     1      -6.203   2.039   0.001  0.00  0.00    -0.468 OA
ATOM     26  C   UNL     1      -5.694   3.372   0.002  0.00  0.00    +0.253 C 
ENDBRANCH  19  25
BRANCH  20  27
ATOM     27  O   UNL     1      -7.035  -0.603  -0.004  0.00  0.00    -0.501 OA
ATOM     28  H   UNL     1      -7.314  -1.497  -0.005  0.00  0.00    +0.292 HD
ENDBRANCH  20  27
ENDBRANCH  16  17
ENDBRANCH  15  16
ENDBRANCH   1  15
TORSDOF 11
