135430683
  -OEChem-03292013293D

 44 48  0     0  0  0  0  0  0999 V2000
    1.2323   -4.2645    0.0008 Cl  0  0  0  0  0  0  0  0  0  0  0  0
   -3.8192   -2.2077   -0.0012 O   0  0  0  0  0  0  0  0  0  0  0  0
    0.3074    3.8067   -0.0002 O   0  0  0  0  0  0  0  0  0  0  0  0
    3.5065   -2.6863    0.0004 O   0  0  0  0  0  0  0  0  0  0  0  0
   -2.1507    4.0326    0.0026 O   0  0  0  0  0  0  0  0  0  0  0  0
   -4.8636    0.2111   -0.0021 O   0  0  0  0  0  0  0  0  0  0  0  0
    2.8000    3.5775   -0.0023 O   0  0  0  0  0  0  0  0  0  0  0  0
   -1.3994   -2.5077    0.0001 C   0  0  0  0  0  0  0  0  0  0  0  0
   -0.0444   -1.7751   -0.0001 C   0  0  0  0  0  0  0  0  0  0  0  0
    0.0266   -0.3657    0.0000 C   0  0  0  0  0  0  0  0  0  0  0  0
   -1.1458    0.4281    0.0002 C   0  0  0  0  0  0  0  0  0  0  0  0
    1.3040    0.2681   -0.0001 C   0  0  0  0  0  0  0  0  0  0  0  0
   -2.5959   -1.5475   -0.0001 C   0  0  0  0  0  0  0  0  0  0  0  0
   -2.4819   -0.2043   -0.0001 C   0  0  0  0  0  0  0  0  0  0  0  0
   -1.0631    1.8362    0.0005 C   0  0  0  0  0  0  0  0  0  0  0  0
    2.4918   -0.4997    0.0000 C   0  0  0  0  0  0  0  0  0  0  0  0
    1.3585    1.6699   -0.0004 C   0  0  0  0  0  0  0  0  0  0  0  0
   -1.5846   -3.3535    1.2889 C   0  0  0  0  0  0  0  0  0  0  0  0
   -1.5839   -3.3540   -1.2886 C   0  0  0  0  0  0  0  0  0  0  0  0
    1.1497   -2.5165    0.0001 C   0  0  0  0  0  0  0  0  0  0  0  0
    0.1965    2.4440    0.0001 C   0  0  0  0  0  0  0  0  0  0  0  0
    2.3928   -1.8928    0.0001 C   0  0  0  0  0  0  0  0  0  0  0  0
   -3.7182    0.6482   -0.0005 C   0  0  0  0  0  0  0  0  0  0  0  0
    3.8129    0.1766    0.0001 C   0  0  0  0  0  0  0  0  0  0  0  0
   -2.2881    2.6563    0.0014 C   0  0  0  0  0  0  0  0  0  0  0  0
    2.6675    2.3598   -0.0013 C   0  0  0  0  0  0  0  0  0  0  0  0
   -3.5101    2.1124    0.0009 C   0  0  0  0  0  0  0  0  0  0  0  0
    3.8805    1.5162   -0.0005 C   0  0  0  0  0  0  0  0  0  0  0  0
    5.1220   -0.5683    0.0014 C   0  0  0  0  0  0  0  0  0  0  0  0
   -2.5792   -3.8128    1.3428 H   0  0  0  0  0  0  0  0  0  0  0  0
   -1.4611   -2.7321   -2.1846 H   0  0  0  0  0  0  0  0  0  0  0  0
   -0.8879   -4.1862   -1.3833 H   0  0  0  0  0  0  0  0  0  0  0  0
   -2.5784   -3.8136   -1.3426 H   0  0  0  0  0  0  0  0  0  0  0  0
   -0.8888   -4.1858    1.3841 H   0  0  0  0  0  0  0  0  0  0  0  0
   -1.4619   -2.7313    2.1848 H   0  0  0  0  0  0  0  0  0  0  0  0
   -4.4037    2.7289    0.0014 H   0  0  0  0  0  0  0  0  0  0  0  0
    4.8294    2.0439   -0.0005 H   0  0  0  0  0  0  0  0  0  0  0  0
   -4.5424   -1.5627   -0.0014 H   0  0  0  0  0  0  0  0  0  0  0  0
    5.2238   -1.1870   -0.8963 H   0  0  0  0  0  0  0  0  0  0  0  0
    5.2224   -1.1866    0.8995 H   0  0  0  0  0  0  0  0  0  0  0  0
    5.9843    0.1096    0.0019 H   0  0  0  0  0  0  0  0  0  0  0  0
    1.1426    4.0809    0.4090 H   0  0  0  0  0  0  0  0  0  0  0  0
    3.2381   -3.6203    0.0004 H   0  0  0  0  0  0  0  0  0  0  0  0
   -3.0368    4.4338    0.0031 H   0  0  0  0  0  0  0  0  0  0  0  0
  1 20  1  0  0  0  0
  2 13  1  0  0  0  0
  2 38  1  0  0  0  0
  3 21  1  0  0  0  0
  3 42  1  0  0  0  0
  4 22  1  0  0  0  0
  4 43  1  0  0  0  0
  5 25  1  0  0  0  0
  5 44  1  0  0  0  0
  6 23  2  0  0  0  0
  7 26  2  0  0  0  0
  8  9  1  0  0  0  0
  8 13  1  0  0  0  0
  8 18  1  0  0  0  0
  8 19  1  0  0  0  0
  9 10  2  0  0  0  0
  9 20  1  0  0  0  0
 10 11  1  0  0  0  0
 10 12  1  0  0  0  0
 11 14  1  0  0  0  0
 11 15  2  0  0  0  0
 12 16  2  0  0  0  0
 12 17  1  0  0  0  0
 13 14  2  0  0  0  0
 14 23  1  0  0  0  0
 15 21  1  0  0  0  0
 15 25  1  0  0  0  0
 16 22  1  0  0  0  0
 16 24  1  0  0  0  0
 17 21  2  0  0  0  0
 17 26  1  0  0  0  0
 18 30  1  0  0  0  0
 18 34  1  0  0  0  0
 18 35  1  0  0  0  0
 19 31  1  0  0  0  0
 19 32  1  0  0  0  0
 19 33  1  0  0  0  0
 20 22  2  0  0  0  0
 23 27  1  0  0  0  0
 24 28  2  0  0  0  0
 24 29  1  0  0  0  0
 25 27  2  0  0  0  0
 26 28  1  0  0  0  0
 27 36  1  0  0  0  0
 28 37  1  0  0  0  0
 29 39  1  0  0  0  0
 29 40  1  0  0  0  0
 29 41  1  0  0  0  0
M  END
> <PUBCHEM_COMPOUND_CID>
135430683

> <PUBCHEM_CONFORMER_RMSD>
0.6

> <PUBCHEM_CONFORMER_DIVERSEORDER>
1

> <PUBCHEM_MMFF94_PARTIAL_CHARGES>
31
1 -0.18
11 0.03
13 -0.06
14 -0.01
15 0.03
16 0.03
17 0.09
2 -0.53
20 0.18
21 0.08
22 0.08
23 0.54
24 -0.17
25 0.05
26 0.47
27 -0.14
28 -0.14
29 0.14
3 -0.53
36 0.15
37 0.15
38 0.45
4 -0.53
42 0.45
43 0.45
44 0.45
5 -0.53
6 -0.57
7 -0.57
8 0.28
9 -0.14

> <PUBCHEM_EFFECTIVE_ROTOR_COUNT>
0.2

> <PUBCHEM_PHARMACOPHORE_FEATURES>
12
1 2 donor
1 3 donor
1 4 donor
1 5 donor
1 6 acceptor
1 7 acceptor
3 8 18 19 hydrophobe
6 10 11 12 15 17 21 rings
6 11 14 15 23 25 27 rings
6 12 16 17 24 26 28 rings
6 8 9 10 11 13 14 rings
6 9 10 12 16 20 22 rings

> <PUBCHEM_HEAVY_ATOM_COUNT>
29

> <PUBCHEM_ATOM_DEF_STEREO_COUNT>
0

> <PUBCHEM_ATOM_UDEF_STEREO_COUNT>
0

> <PUBCHEM_BOND_DEF_STEREO_COUNT>
0

> <PUBCHEM_BOND_UDEF_STEREO_COUNT>
0

> <PUBCHEM_ISOTOPIC_ATOM_COUNT>
0

> <PUBCHEM_COMPONENT_COUNT>
1

> <PUBCHEM_CACTVS_TAUTO_COUNT>
-1

> <PUBCHEM_CONFORMER_ID>
0812821B00000001

> <PUBCHEM_MMFF94_ENERGY>
116.8678

> <PUBCHEM_FEATURE_SELFOVERLAP>
61.074

> <PUBCHEM_SHAPE_FINGERPRINT>
10411042 1 16537077971228574670
10616163 171 18338800116822064446
10675989 125 18264749044338074149
10967382 1 18410855425779011908
1100329 8 18410574015348214584
11513181 2 17986386702855730967
11578080 2 17058355118911006210
12539773 59 16477152319239371895
12553582 1 18410285951759712051
13122387 1 18338798888308294053
13140716 1 18265617752332263250
138480 1 17690279309300805154
14178342 30 18339061745139827728
14223421 5 18411420652297299620
14790565 3 17400091154039146045
15196674 1 18338797939115227396
16728300 4 16091207790824275938
16945 1 18410856555360659526
19591789 44 18411139168604066836
19930381 70 18193838128714862795
20028762 73 18272928366718007079
20775438 99 16473981319442305039
20905425 154 18341900709515824110
21197605 99 18267035023828684939
21267235 1 18410864247631255906
2334 1 17978229696550269448
23559900 14 18340481180128147416
238 59 16816543581432798669
2748010 2 18122626046054438158
335352 9 18410573980914571516
350125 39 18410015472274098308
352729 6 18410858806002936244
5104073 3 18338517572298115320
9709674 26 18411705412945409174

> <PUBCHEM_SHAPE_MULTIPOLES>
563.46
7.18
5.59
0.72
1.59
0.31
0
-1.12
0
-0.49
0
-0.18
0.43
0

> <PUBCHEM_SHAPE_SELFOVERLAP>
1293.656

> <PUBCHEM_SHAPE_VOLUME>
290.5

> <PUBCHEM_COORDINATE_TYPE>
2
5
10

$$$$
