135499879
  -OEChem-03292013293D

 51 53  0     0  0  0  0  0  0999 V2000
   -5.0728   -1.3571   -0.5124 S   0  0  0  0  0  0  0  0  0  0  0  0
   -0.5185    2.3703   -0.1127 O   0  0  0  0  0  0  0  0  0  0  0  0
    1.5970   -2.4496    2.6198 O   0  0  0  0  0  0  0  0  0  0  0  0
   -6.1406   -0.6930   -1.2467 O   0  0  0  0  0  0  0  0  0  0  0  0
   -4.5794   -2.6501   -0.9654 O   0  0  0  0  0  0  0  0  0  0  0  0
    3.7221   -1.8859    0.5222 N   0  0  0  0  0  0  0  0  0  0  0  0
    0.9423   -0.1862   -0.8176 N   0  0  0  0  0  0  0  0  0  0  0  0
    4.3371   -1.4174   -0.5869 N   0  0  0  0  0  0  0  0  0  0  0  0
    0.2093   -1.1907    1.2473 N   0  0  0  0  0  0  0  0  0  0  0  0
   -5.5311   -1.4890    1.1282 N   0  0  0  0  0  0  0  0  0  0  0  0
    2.1737   -0.7681   -0.5077 C   0  0  0  0  0  0  0  0  0  0  0  0
    3.3750   -0.7290   -1.2164 C   0  0  0  0  0  0  0  0  0  0  0  0
    2.4137   -1.5176    0.6104 C   0  0  0  0  0  0  0  0  0  0  0  0
    3.6675   -0.0565   -2.4922 C   0  0  0  0  0  0  0  0  0  0  0  0
    0.0170   -0.4324    0.0740 C   0  0  0  0  0  0  0  0  0  0  0  0
   -1.3502    0.1200   -0.1178 C   0  0  0  0  0  0  0  0  0  0  0  0
    4.4516    1.2598   -2.3116 C   0  0  0  0  0  0  0  0  0  0  0  0
    1.4216   -1.7903    1.6012 C   0  0  0  0  0  0  0  0  0  0  0  0
   -1.5603    1.4963   -0.2041 C   0  0  0  0  0  0  0  0  0  0  0  0
   -2.4303   -0.7576   -0.2123 C   0  0  0  0  0  0  0  0  0  0  0  0
   -3.7204   -0.2591   -0.3932 C   0  0  0  0  0  0  0  0  0  0  0  0
    4.4722   -2.6852    1.4614 C   0  0  0  0  0  0  0  0  0  0  0  0
   -2.8505    1.9949   -0.3849 C   0  0  0  0  0  0  0  0  0  0  0  0
    3.6852    2.2907   -1.4981 C   0  0  0  0  0  0  0  0  0  0  0  0
   -3.9305    1.1172   -0.4796 C   0  0  0  0  0  0  0  0  0  0  0  0
   -0.5609    3.3187    0.9514 C   0  0  0  0  0  0  0  0  0  0  0  0
    0.8632    3.6742    1.3503 C   0  0  0  0  0  0  0  0  0  0  0  0
    0.8970    4.6726    2.4933 C   0  0  0  0  0  0  0  0  0  0  0  0
    2.7373    0.1508   -3.0357 H   0  0  0  0  0  0  0  0  0  0  0  0
    4.2520   -0.7261   -3.1358 H   0  0  0  0  0  0  0  0  0  0  0  0
    5.4165    1.0630   -1.8292 H   0  0  0  0  0  0  0  0  0  0  0  0
    4.6669    1.6761   -3.3027 H   0  0  0  0  0  0  0  0  0  0  0  0
   -0.5736   -1.3150    1.8837 H   0  0  0  0  0  0  0  0  0  0  0  0
   -2.2591   -1.8290   -0.1426 H   0  0  0  0  0  0  0  0  0  0  0  0
    3.9910   -3.6627    1.5440 H   0  0  0  0  0  0  0  0  0  0  0  0
    5.4977   -2.8065    1.1028 H   0  0  0  0  0  0  0  0  0  0  0  0
    4.4754   -2.1714    2.4258 H   0  0  0  0  0  0  0  0  0  0  0  0
   -3.0294    3.0639   -0.4611 H   0  0  0  0  0  0  0  0  0  0  0  0
    2.6964    2.4784   -1.9289 H   0  0  0  0  0  0  0  0  0  0  0  0
    3.5563    1.9741   -0.4587 H   0  0  0  0  0  0  0  0  0  0  0  0
    4.2323    3.2390   -1.4860 H   0  0  0  0  0  0  0  0  0  0  0  0
   -4.9270    1.5278   -0.6157 H   0  0  0  0  0  0  0  0  0  0  0  0
   -1.0933    2.9061    1.8183 H   0  0  0  0  0  0  0  0  0  0  0  0
   -1.0916    4.2134    0.6065 H   0  0  0  0  0  0  0  0  0  0  0  0
    1.4030    2.7631    1.6357 H   0  0  0  0  0  0  0  0  0  0  0  0
    1.3976    4.0807    0.4832 H   0  0  0  0  0  0  0  0  0  0  0  0
    0.3940    5.6043    2.2153 H   0  0  0  0  0  0  0  0  0  0  0  0
    0.4041    4.2677    3.3829 H   0  0  0  0  0  0  0  0  0  0  0  0
    1.9319    4.9112    2.7577 H   0  0  0  0  0  0  0  0  0  0  0  0
   -6.4103   -1.0419    1.4152 H   0  0  0  0  0  0  0  0  0  0  0  0
   -5.3418   -2.3785    1.6062 H   0  0  0  0  0  0  0  0  0  0  0  0
  1  4  2  0  0  0  0
  1  5  2  0  0  0  0
  1 10  1  0  0  0  0
  1 21  1  0  0  0  0
  2 19  1  0  0  0  0
  2 26  1  0  0  0  0
  3 18  2  0  0  0  0
  6  8  1  0  0  0  0
  6 13  1  0  0  0  0
  6 22  1  0  0  0  0
  7 11  1  0  0  0  0
  7 15  2  0  0  0  0
  8 12  2  0  0  0  0
  9 15  1  0  0  0  0
  9 18  1  0  0  0  0
  9 33  1  0  0  0  0
 10 50  1  0  0  0  0
 10 51  1  0  0  0  0
 11 12  1  0  0  0  0
 11 13  2  0  0  0  0
 12 14  1  0  0  0  0
 13 18  1  0  0  0  0
 14 17  1  0  0  0  0
 14 29  1  0  0  0  0
 14 30  1  0  0  0  0
 15 16  1  0  0  0  0
 16 19  2  0  0  0  0
 16 20  1  0  0  0  0
 17 24  1  0  0  0  0
 17 31  1  0  0  0  0
 17 32  1  0  0  0  0
 19 23  1  0  0  0  0
 20 21  2  0  0  0  0
 20 34  1  0  0  0  0
 21 25  1  0  0  0  0
 22 35  1  0  0  0  0
 22 36  1  0  0  0  0
 22 37  1  0  0  0  0
 23 25  2  0  0  0  0
 23 38  1  0  0  0  0
 24 39  1  0  0  0  0
 24 40  1  0  0  0  0
 24 41  1  0  0  0  0
 25 42  1  0  0  0  0
 26 27  1  0  0  0  0
 26 43  1  0  0  0  0
 26 44  1  0  0  0  0
 27 28  1  0  0  0  0
 27 45  1  0  0  0  0
 27 46  1  0  0  0  0
 28 47  1  0  0  0  0
 28 48  1  0  0  0  0
 28 49  1  0  0  0  0
M  END
> <PUBCHEM_COMPOUND_CID>
135499879

> <PUBCHEM_CONFORMER_RMSD>
0.8

> <PUBCHEM_CONFORMER_DIVERSEORDER>
1
49
221
162
191
91
203
28
176
171
197
212
46
165
117
82
34
179
146
85
121
206
127
225
126
229
210
204
97
246
239
192
61
201
107
202
238
77
5
4
219
190
81
242
27
183
227
100
124
45
87
139
248
187
141
125
211
222
233
198
24
83
30
164
63
33
163
122
148
245
156
172
249
110
250
112
90
54
150
155
174
79
37
93
137
101
116
240
237
200
109
215
217
60
128
158
180
2
218
168
157
138
53
20
188
196
78
51
42
184
144
241
205
119
47
94
166
232
170
207
151
80
105
152
39
129
182
208
72
135
178
31
140
65
92
244
193
185
142
224
230
181
223
99
43
161
189
213
12
64
70
143
106
22
111
41
16
36
95
98
123
23
102
235
231
89
145
103
55
114
236
169
108
199
8
154
74
40
234
67
71
195
247
118
19
86
228
194
35
73
66
76
173
186
120
115
9
175
149
11
220
209
167
226
147
136
7
130
58
243
160
14
6
75
214
132
21
69
153
56
17
159
38
32
18
57
59
68
26
25
13
177
29
134
10
84
52
44
15
131
88
3
62
50
48
113
104
96
216
133

> <PUBCHEM_MMFF94_PARTIAL_CHARGES>
30
1 1.45
10 -0.98
11 0.12
12 0.11
13 -0.24
14 0.18
15 0.42
16 0.09
18 0.71
19 0.08
2 -0.36
20 -0.15
21 -0.01
22 0.26
23 -0.15
25 -0.15
26 0.28
3 -0.57
33 0.37
34 0.15
38 0.15
4 -0.65
42 0.15
5 -0.65
50 0.42
51 0.42
6 0.31
7 -0.57
8 -0.71
9 -0.49

> <PUBCHEM_EFFECTIVE_ROTOR_COUNT>
7

> <PUBCHEM_PHARMACOPHORE_FEATURES>
12
1 10 donor
1 2 acceptor
1 24 hydrophobe
1 28 hydrophobe
1 3 acceptor
1 4 acceptor
1 5 acceptor
1 8 acceptor
1 9 donor
5 6 8 11 12 13 rings
6 16 19 20 21 23 25 rings
6 7 9 11 13 15 18 rings

> <PUBCHEM_HEAVY_ATOM_COUNT>
28

> <PUBCHEM_ATOM_DEF_STEREO_COUNT>
0

> <PUBCHEM_ATOM_UDEF_STEREO_COUNT>
0

> <PUBCHEM_BOND_DEF_STEREO_COUNT>
0

> <PUBCHEM_BOND_UDEF_STEREO_COUNT>
0

> <PUBCHEM_ISOTOPIC_ATOM_COUNT>
0

> <PUBCHEM_COMPONENT_COUNT>
1

> <PUBCHEM_CACTVS_TAUTO_COUNT>
-1

> <PUBCHEM_CONFORMER_ID>
0813906700000001

> <PUBCHEM_MMFF94_ENERGY>
49.242

> <PUBCHEM_FEATURE_SELFOVERLAP>
61.03

> <PUBCHEM_SHAPE_FINGERPRINT>
10369192 42 15912459438662389304
10940486 97 17473830524300073630
11578080 2 17752169908649295333
11582403 64 14780108743526760476
12166972 35 17895749604834684562
12236239 1 18041558023289624391
12553582 1 18411129247973892327
12616971 3 17968947366286285391
12788726 201 18339370643160956691
13009979 54 17974275530757282410
13540713 4 18191845990731145709
13965767 371 16464181887905519752
14068700 675 18188760631842987746
14787075 74 18263655111176171317
14931854 50 18263944244675930396
1813 80 17775284963095347749
18222031 100 17989202668673120463
18681886 176 18187919531112418266
19319366 153 18040711510731658299
20600515 1 17846491487699209905
20775438 99 17763158634332768639
21033648 29 16558455389128329435
21133665 82 17622994017579830872
22182313 1 18117815885528037645
23557571 272 17630041547330331428
23559900 14 18189601770416093979
238918 7 17115507896610473001
474 4 17385736819695648134
495365 180 12973877091966018096
5895379 119 17839756868027246396
621550 5 16773526464490338472
6669772 16 17981882257267657580
67856867 119 18186799171580823486
7471813 234 18262510404113922134
9981440 41 17824836778753627272

> <PUBCHEM_SHAPE_MULTIPOLES>
531.69
10.79
4.39
2.15
9.52
5.53
-0.33
-7.39
4.76
-1.63
-3.53
-2.77
0.42
-1.82

> <PUBCHEM_SHAPE_SELFOVERLAP>
1121.018

> <PUBCHEM_SHAPE_VOLUME>
301.5

> <PUBCHEM_COORDINATE_TYPE>
2
5
10

$$$$
