REMARK  Name = 135426834
REMARK  4 active torsions:
REMARK  status: ('A' for Active; 'I' for Inactive)
REMARK    1  A    between atoms: C_9  and  C_24
REMARK    2  A    between atoms: C_13  and  O_19
REMARK    3  A    between atoms: C_17  and  O_21
REMARK    4  A    between atoms: C_24  and  O_25
REMARK                            x       y       z     vdW  Elec       q    Type
REMARK                         _______ _______ _______ _____ _____    ______ ____
ROOT
ATOM      1  O   UNL     1      -1.066  -3.310  -0.118  0.00  0.00    -0.289 OA
ATOM      2  O   UNL     1       0.612   3.737   0.012  0.00  0.00    -0.284 OA
ATOM      3  N   UNL     1       0.517  -1.014  -0.116  0.00  0.00    -0.320 N 
ATOM      4  N   UNL     1      -0.792   1.446   0.004  0.00  0.00    -0.399 NA
ATOM      5  C   UNL     1       1.312   0.106  -0.117  0.00  0.00    +0.085 C 
ATOM      6  C   UNL     1      -0.854  -0.941  -0.059  0.00  0.00    +0.185 C 
ATOM      7  C   UNL     1      -1.488   0.250  -0.001  0.00  0.00    +0.140 C 
ATOM      8  C   UNL     1       0.506   1.379  -0.050  0.00  0.00    +0.183 C 
ATOM      9  C   UNL     1       2.651   0.215  -0.168  0.00  0.00    +0.091 C 
ATOM     10  C   UNL     1      -2.957   0.316   0.059  0.00  0.00    +0.098 C 
ATOM     11  C   UNL     1      -1.622  -2.218  -0.065  0.00  0.00    +0.201 C 
ATOM     12  C   UNL     1       1.244   2.693  -0.043  0.00  0.00    +0.226 C 
ATOM     13  C   UNL     1      -3.717  -0.939   0.054  0.00  0.00    +0.142 C 
ATOM     14  C   UNL     1       3.339   1.487  -0.161  0.00  0.00    +0.011 C 
ATOM     15  C   UNL     1      -3.102  -2.129  -0.004  0.00  0.00    +0.076 C 
ATOM     16  C   UNL     1       2.714   2.666  -0.103  0.00  0.00    +0.045 C 
ATOM     17  C   UNL     1      -3.574   1.511   0.171  0.00  0.00    +0.173 C 
ATOM     18  H   UNL     1       0.944  -1.900  -0.158  0.00  0.00    +0.148 HD
ENDROOT
BRANCH  13  19
ATOM     19  O   UNL     1      -5.101  -0.907   0.068  0.00  0.00    -0.505 OA
ATOM     20  H   UNL     1      -5.550  -0.086   0.108  0.00  0.00    +0.292 HD
ENDBRANCH  13  19
BRANCH  17  21
ATOM     21  O   UNL     1      -4.921   1.679   0.234  0.00  0.00    -0.503 OA
ATOM     22  H   UNL     1      -5.283   2.539   0.312  0.00  0.00    +0.292 HD
ENDBRANCH  17  21
BRANCH   9  24
ATOM     23  O   UNL     1       3.386  -1.820  -1.135  0.00  0.00    -0.245 OA
ATOM     24  C   UNL     1       3.471  -1.006  -0.235  0.00  0.00    +0.343 C 
BRANCH  24  25
ATOM     25  O   UNL     1       4.287  -1.032   0.847  0.00  0.00    -0.441 OA
ATOM     26  C   UNL     1       5.154  -2.168   0.925  0.00  0.00    +0.256 C 
ENDBRANCH  24  25
ENDBRANCH   9  24
TORSDOF 4
