135410303
  -OEChem-03292013293D

 31 33  0     1  0  0  0  0  0999 V2000
   -4.8707    1.6074   -0.4906 S   0  0  0  0  0  0  0  0  0  0  0  0
    2.0631    0.5007    0.9786 O   0  0  0  0  0  0  0  0  0  0  0  0
    1.2273   -2.2587   -1.1817 O   0  0  0  0  0  0  0  0  0  0  0  0
    3.4723   -2.1190    0.4038 O   0  0  0  0  0  0  0  0  0  0  0  0
    3.7996    2.6098    0.3566 O   0  0  0  0  0  0  0  0  0  0  0  0
   -0.2256    0.2712    0.1619 N   0  0  0  0  0  0  0  0  0  0  0  0
   -0.2449    1.5762   -0.1813 N   0  0  0  0  0  0  0  0  0  0  0  0
   -1.8141   -1.5155    0.5264 N   0  0  0  0  0  0  0  0  0  0  0  0
   -4.1253   -0.9269    0.2230 N   0  0  0  0  0  0  0  0  0  0  0  0
    1.7330   -0.9854   -0.8335 C   0  0  1  0  0  0  0  0  0  0  0  0
    1.0935   -0.4147    0.4280 C   0  0  1  0  0  0  0  0  0  0  0  0
    3.2009   -1.0136   -0.4567 C   0  0  1  0  0  0  0  0  0  0  0  0
    3.3473    0.2643    0.3595 C   0  0  1  0  0  0  0  0  0  0  0  0
    3.6975    1.4784   -0.4899 C   0  0  0  0  0  0  0  0  0  0  0  0
   -1.4671   -0.2587    0.2206 C   0  0  0  0  0  0  0  0  0  0  0  0
   -2.3730    0.7208   -0.0944 C   0  0  0  0  0  0  0  0  0  0  0  0
   -1.5517    1.8429   -0.3351 C   0  0  0  0  0  0  0  0  0  0  0  0
   -3.7920    0.3912   -0.1005 C   0  0  0  0  0  0  0  0  0  0  0  0
   -3.1701   -1.7705    0.5054 C   0  0  0  0  0  0  0  0  0  0  0  0
    1.5748   -0.3090   -1.6824 H   0  0  0  0  0  0  0  0  0  0  0  0
    0.8789   -1.1830    1.1799 H   0  0  0  0  0  0  0  0  0  0  0  0
    3.8696   -1.0869   -1.3191 H   0  0  0  0  0  0  0  0  0  0  0  0
    4.0730    0.1603    1.1741 H   0  0  0  0  0  0  0  0  0  0  0  0
    2.9192    1.6890   -1.2301 H   0  0  0  0  0  0  0  0  0  0  0  0
    4.6541    1.3343   -1.0017 H   0  0  0  0  0  0  0  0  0  0  0  0
    1.7613   -2.5915   -1.9231 H   0  0  0  0  0  0  0  0  0  0  0  0
    4.4131   -2.0746    0.6461 H   0  0  0  0  0  0  0  0  0  0  0  0
   -1.8377    2.8465   -0.6164 H   0  0  0  0  0  0  0  0  0  0  0  0
   -1.1481   -2.2459    0.7556 H   0  0  0  0  0  0  0  0  0  0  0  0
    4.0275    3.3694   -0.2061 H   0  0  0  0  0  0  0  0  0  0  0  0
   -3.4095   -2.8143    0.7626 H   0  0  0  0  0  0  0  0  0  0  0  0
  1 18  2  0  0  0  0
  2 11  1  0  0  0  0
  2 13  1  0  0  0  0
  3 10  1  0  0  0  0
  3 26  1  0  0  0  0
  4 12  1  0  0  0  0
  4 27  1  0  0  0  0
  5 14  1  0  0  0  0
  5 30  1  0  0  0  0
  6  7  1  0  0  0  0
  6 11  1  0  0  0  0
  6 15  1  0  0  0  0
  7 17  2  0  0  0  0
  8 15  1  0  0  0  0
  8 19  1  0  0  0  0
  8 29  1  0  0  0  0
  9 18  1  0  0  0  0
  9 19  2  0  0  0  0
 10 11  1  0  0  0  0
 10 12  1  0  0  0  0
 10 20  1  0  0  0  0
 11 21  1  0  0  0  0
 12 13  1  0  0  0  0
 12 22  1  0  0  0  0
 13 14  1  0  0  0  0
 13 23  1  0  0  0  0
 14 24  1  0  0  0  0
 14 25  1  0  0  0  0
 15 16  2  0  0  0  0
 16 17  1  0  0  0  0
 16 18  1  0  0  0  0
 17 28  1  0  0  0  0
 19 31  1  0  0  0  0
M  END
> <PUBCHEM_COMPOUND_CID>
135410303

> <PUBCHEM_CONFORMER_RMSD>
0.6

> <PUBCHEM_CONFORMER_DIVERSEORDER>
1
10
14
5
2
15
3
16
4
6
11
9
8
12
7
13

> <PUBCHEM_MMFF94_PARTIAL_CHARGES>
25
1 -0.38
10 0.28
11 0.54
12 0.28
13 0.28
14 0.28
15 -0.07
16 -0.09
17 0.14
18 0.68
19 0.44
2 -0.56
26 0.4
27 0.4
28 0.15
29 0.4
3 -0.68
30 0.4
31 0.06
4 -0.68
5 -0.68
6 0.31
7 -0.71
8 -0.53
9 -0.66

> <PUBCHEM_EFFECTIVE_ROTOR_COUNT>
3

> <PUBCHEM_PHARMACOPHORE_FEATURES>
14
1 1 acceptor
1 2 acceptor
1 3 acceptor
1 3 donor
1 4 acceptor
1 4 donor
1 5 acceptor
1 5 donor
1 7 acceptor
1 8 donor
3 8 9 19 cation
5 2 10 11 12 13 rings
5 6 7 15 16 17 rings
6 8 9 15 16 18 19 rings

> <PUBCHEM_HEAVY_ATOM_COUNT>
19

> <PUBCHEM_ATOM_DEF_STEREO_COUNT>
4

> <PUBCHEM_ATOM_UDEF_STEREO_COUNT>
0

> <PUBCHEM_BOND_DEF_STEREO_COUNT>
0

> <PUBCHEM_BOND_UDEF_STEREO_COUNT>
0

> <PUBCHEM_ISOTOPIC_ATOM_COUNT>
0

> <PUBCHEM_COMPONENT_COUNT>
1

> <PUBCHEM_CACTVS_TAUTO_COUNT>
-1

> <PUBCHEM_CONFORMER_ID>
0812327F00000001

> <PUBCHEM_MMFF94_ENERGY>
51.7459

> <PUBCHEM_FEATURE_SELFOVERLAP>
71.167

> <PUBCHEM_SHAPE_FINGERPRINT>
10498660 4 18408606967539885213
10608611 8 18410009914232924444
10616163 171 18339645636895166367
11132069 177 18407757049415049441
11405975 8 18336264548492590249
11578080 2 16662021713394808060
12633257 1 18267870479885264826
13214271 11 18410852209175568021
13296908 3 18408605863880827219
13544592 145 18267592295180686903
13675066 3 17821737109050159377
15196674 1 18408885135734357347
15219456 202 18413108363843465635
15375358 24 18410854356743579455
15375462 6 18408888460086484798
15536298 74 18409732871757454348
16945 1 18124888862759982886
17834072 14 18408603673589755805
18175812 5 18411700976001196646
18186145 218 17530961363084520167
200 152 17346025676557017063
20279233 1 18342177726575151967
20510252 161 18411420592542538137
20645477 56 18187929443896560421
20645477 70 18201999880837554583
21501502 16 18341338790444347888
221490 88 18410019823223753218
23402539 116 18334850593598066799
23557571 272 18334869349720027517
23559900 14 18338514140962376650
296302 2 18413110576025916709
335352 9 18264205803472122111
34934 24 18408599284091039525
474 4 17095814342293566188
495365 180 17774703308279894801
5104073 3 18335422361419923969
58051976 378 18343584032017051924
633830 44 18267859485454990669
69090 78 18341325592321148575
7364860 26 18411418389324210376
77779 3 18409450288747480273
81228 2 18116730533827031449
9709674 26 18341335470440279719

> <PUBCHEM_SHAPE_MULTIPOLES>
351.46
8.8
2.39
0.84
2.61
0.16
0.08
1.96
0.23
-0.84
0.12
-0.25
-0.15
0.85

> <PUBCHEM_SHAPE_SELFOVERLAP>
749.214

> <PUBCHEM_SHAPE_VOLUME>
197.7

> <PUBCHEM_COORDINATE_TYPE>
2
5
10

$$$$
