REMARK  Name = 135400203
REMARK  13 active torsions:
REMARK  status: ('A' for Active; 'I' for Inactive)
REMARK    1  A    between atoms: C_1  and  N_22
REMARK    2  A    between atoms: C_2  and  C_9
REMARK    3  A    between atoms: N_8  and  CA_11
REMARK    4  A    between atoms: CA_11  and  C_13
REMARK    5  A    between atoms: CA_11  and  CB_16
REMARK    6  A    between atoms: C_13  and  O_14
REMARK    7  A    between atoms: CB_16  and  CG_17
REMARK    8  A    between atoms: CG_17  and  CD_19
REMARK    9  A    between atoms: CD_19  and  OE1_20
REMARK   10  A    between atoms: N_22  and  C_23
REMARK   11  A    between atoms: N_22  and  C_37
REMARK   12  A    between atoms: C_23  and  C_27
REMARK   13  A    between atoms: C_37  and  C_38
REMARK                            x       y       z     vdW  Elec       q    Type
REMARK                         _______ _______ _______ _____ _____    ______ ____
ROOT
ATOM      1  C   UNL     1      -1.544  -2.486  -0.124  0.00  0.00    +0.049 C 
ATOM      2  C   UNL     1       1.228  -2.218  -0.279  0.00  0.00    +0.053 C 
ATOM      3  C   UNL     1      -0.831  -1.972   0.959  0.00  0.00    +0.015 C 
ATOM      4  C   UNL     1      -0.871  -2.866  -1.285  0.00  0.00    +0.015 C 
ATOM      5  C   UNL     1       0.555  -1.838   0.881  0.00  0.00    +0.006 C 
ATOM      6  C   UNL     1       0.516  -2.733  -1.362  0.00  0.00    +0.006 C 
ENDROOT
BRANCH   2   9
ATOM      7  O   UNL     1       3.337  -2.806  -1.120  0.00  0.00    -0.270 OA
ATOM      8  N   UNL     1       3.260  -1.081   0.427  0.00  0.00    -0.293 N 
ATOM      9  C   ACE A   0       2.673  -2.077  -0.361  0.00  0.00    +0.246 C 
ATOM     10  H   UNL     1       2.675  -0.540   1.006  0.00  0.00    +0.150 HD
BRANCH   8  11
ATOM     11  CA  UNL     1       4.679  -0.802   0.439  0.00  0.00    +0.172 C 
BRANCH  11  13
ATOM     12  OXT UNL     1       4.266  -0.209   2.764  0.00  0.00    -0.248 OA
ATOM     13  C   UNL     1       5.056  -0.401   1.850  0.00  0.00    +0.332 C 
BRANCH  13  14
ATOM     14  O   UNL     1       6.403  -0.311   2.008  0.00  0.00    -0.479 OA
ATOM     15  H   UNL     1       6.972  -0.466   1.280  0.00  0.00    +0.295 HD
ENDBRANCH  13  14
ENDBRANCH  11  13
BRANCH  11  16
ATOM     16  CB  UNL     1       5.090   0.221  -0.627  0.00  0.00    +0.043 C 
BRANCH  16  17
ATOM     17  CG  UNL     1       4.478   1.620  -0.482  0.00  0.00    +0.112 C 
BRANCH  17  19
ATOM     18  OE2 UNL     1       5.657   2.327  -2.493  0.00  0.00    -0.250 OA
ATOM     19  CD  UNL     1       4.905   2.588  -1.564  0.00  0.00    +0.314 C 
BRANCH  19  20
ATOM     20  OE1 UNL     1       4.382   3.825  -1.364  0.00  0.00    -0.480 OA
ATOM     21  HE1 UNL     1       3.810   3.980  -0.638  0.00  0.00    +0.295 HD
ENDBRANCH  19  20
ENDBRANCH  17  19
ENDBRANCH  16  17
ENDBRANCH  11  16
ENDBRANCH   8  11
ENDBRANCH   2   9
BRANCH   1  22
ATOM     22  N   UNL     1      -2.936  -2.621  -0.045  0.00  0.00    -0.292 N 
BRANCH  22  23
ATOM     23  C   UNL     1      -3.732  -1.730   0.771  0.00  0.00    +0.118 C 
BRANCH  23  27
ATOM     24  O   UNL     1      -2.208   2.813   2.748  0.00  0.00    -0.270 OA
ATOM     25  N   UNL     1      -2.484   4.307   1.010  0.00  0.00    -0.259 N 
ATOM     26  N   UNL     1      -3.303   3.642  -1.105  0.00  0.00    -0.395 NA
ATOM     27  C   UNL     1      -3.615  -0.322   0.294  0.00  0.00    -0.006 C 
ATOM     28  C   UNL     1      -3.143   0.668   1.154  0.00  0.00    +0.004 C 
ATOM     29  C   UNL     1      -3.037   1.985   0.697  0.00  0.00    +0.079 C 
ATOM     30  C   UNL     1      -3.978   0.003  -1.013  0.00  0.00    -0.021 C 
ATOM     31  C   UNL     1      -3.398   2.326  -0.615  0.00  0.00    +0.119 C 
ATOM     32  C   UNL     1      -3.870   1.320  -1.464  0.00  0.00    +0.085 C 
ATOM     33  C   UNL     1      -2.538   3.051   1.592  0.00  0.00    +0.253 C 
ATOM     34  C   UNL     1      -2.861   4.551  -0.294  0.00  0.00    +0.163 C 
ATOM     35  C   UNL     1      -2.728   5.979  -0.733  0.00  0.00    +0.084 C 
ATOM     36  H   UNL     1      -2.160   5.062   1.553  0.00  0.00    +0.157 HD
ENDBRANCH  23  27
ENDBRANCH  22  23
BRANCH  22  37
ATOM     37  C   UNL     1      -3.616  -3.681  -0.788  0.00  0.00    +0.170 C 
BRANCH  37  38
ATOM     38  C   UNL     1      -3.104  -4.997  -0.396  0.00  0.00    -0.056 C 
ATOM     39  C   UNL     1      -2.688  -6.077  -0.078  0.00  0.00    -0.012 C 
ENDBRANCH  37  38
ENDBRANCH  22  37
ENDBRANCH   1  22
TORSDOF 13
