REMARK  Name = 135492073
REMARK  6 active torsions:
REMARK  status: ('A' for Active; 'I' for Inactive)
REMARK    1  A    between atoms: C_2  and  O_22
REMARK    2  A    between atoms: C_3  and  N_7
REMARK    3  A    between atoms: C_4  and  O_20
REMARK    4  A    between atoms: C_5  and  C_27
REMARK    5  A    between atoms: O_22  and  P_23
REMARK    6  A    between atoms: C_27  and  O_28
REMARK                            x       y       z     vdW  Elec       q    Type
REMARK                         _______ _______ _______ _____ _____    ______ ____
ROOT
ATOM      1  O   UNL     1       0.664   1.434   1.028  0.00  0.00    -0.333 OA
ATOM      2  C   UNL     1       1.634   0.034  -0.659  0.00  0.00    +0.202 C 
ATOM      3  C   UNL     1       0.879   0.055   0.672  0.00  0.00    +0.226 C 
ATOM      4  C   UNL     1       1.477   1.442  -1.195  0.00  0.00    +0.172 C 
ATOM      5  C   UNL     1       1.282   2.289   0.053  0.00  0.00    +0.175 C 
ENDROOT
BRANCH   3   7
ATOM      6  O   UNL     1      -4.731  -1.995   0.112  0.00  0.00    -0.268 OA
ATOM      7  N   UNL     1      -0.431  -0.701   0.614  0.00  0.00    -0.237 N 
ATOM      8  N   UNL     1      -1.867  -2.407   0.784  0.00  0.00    -0.240 NA
ATOM      9  N   UNL     1      -1.915   1.055  -0.143  0.00  0.00    -0.357 NA
ATOM     10  N   UNL     1      -4.149   0.217  -0.361  0.00  0.00    -0.243 N 
ATOM     11  N   UNL     1      -3.653   2.465  -0.858  0.00  0.00    -0.321 N 
ATOM     12  C   UNL     1      -1.649  -0.212   0.245  0.00  0.00    +0.211 C 
ATOM     13  C   UNL     1      -0.613  -2.025   0.930  0.00  0.00    +0.224 C 
ATOM     14  C   UNL     1      -2.506  -1.280   0.359  0.00  0.00    +0.176 C 
ATOM     15  C   UNL     1      -3.895  -1.102   0.039  0.00  0.00    +0.273 C 
ATOM     16  C   UNL     1      -3.181   1.246  -0.443  0.00  0.00    +0.239 C 
ATOM     17  H   UNL     1      -5.075   0.446  -0.604  0.00  0.00    +0.159 HD
ATOM     18  H   UNL     1      -3.038   3.229  -0.940  0.00  0.00    +0.146 HD
ATOM     19  H   UNL     1      -4.607   2.575  -1.075  0.00  0.00    +0.146 HD
ENDBRANCH   3   7
BRANCH   4  20
ATOM     20  O   UNL     1       0.287   1.518  -1.976  0.00  0.00    -0.379 OA
ATOM     21  H   UNL     1       0.392   0.982  -2.778  0.00  0.00    +0.211 HD
ENDBRANCH   4  20
BRANCH   2  22
ATOM     22  O   UNL     1       3.015  -0.222  -0.421  0.00  0.00    -0.266 OA
BRANCH  22  23
ATOM     23  P   UNL     1       3.528  -1.790  -0.319  0.00  0.00    +0.533 P 
ATOM     24  O   UNL     1       5.027  -1.663  -0.064  0.00  0.00    -0.115 OA
ATOM     25  O   UNL     1       3.180  -2.400  -1.674  0.00  0.00    -0.222 OA
ATOM     26  O   UNL     1       2.747  -2.377   0.853  0.00  0.00    -0.115 OA
ENDBRANCH  22  23
ENDBRANCH   2  22
BRANCH   5  27
ATOM     27  C   UNL     1       2.584   2.819   0.639  0.00  0.00    +0.169 C 
BRANCH  27  28
ATOM     28  O   UNL     1       2.288   3.600   1.785  0.00  0.00    -0.379 OA
ATOM     29  H   UNL     1       3.112   3.942   2.165  0.00  0.00    +0.211 HD
ENDBRANCH  27  28
ENDBRANCH   5  27
TORSDOF 6
