REMARK  Name = 135459833
REMARK  9 active torsions:
REMARK  status: ('A' for Active; 'I' for Inactive)
REMARK    1  A    between atoms: C_1  and  N_3
REMARK    2  A    between atoms: C_1  and  O_16
REMARK    3  A    between atoms: O_16  and  C_17
REMARK    4  A    between atoms: C_17  and  C_18
REMARK    5  A    between atoms: C_18  and  O_19
REMARK    6  A    between atoms: O_19  and  C_21
REMARK    7  A    between atoms: C_21  and  C_22
REMARK    8  A    between atoms: C_22  and  N_23
REMARK    9  A    between atoms: C_22  and  C_27
REMARK                            x       y       z     vdW  Elec       q    Type
REMARK                         _______ _______ _______ _____ _____    ______ ____
ROOT
ATOM      1  C   UNL     1       1.129  -2.614   0.728  0.00  0.00    +0.244 C 
ENDROOT
BRANCH   1   3
ATOM      2  O   UNL     1       4.854   1.739  -1.017  0.00  0.00    -0.268 OA
ATOM      3  N   UNL     1       2.209  -1.724   0.180  0.00  0.00    -0.235 N 
ATOM      4  N   UNL     1       4.086  -1.128  -0.881  0.00  0.00    -0.240 NA
ATOM      5  N   UNL     1       1.406   0.439   0.910  0.00  0.00    -0.357 NA
ATOM      6  N   UNL     1       2.909   2.166   0.203  0.00  0.00    -0.243 N 
ATOM      7  N   UNL     1       0.969   2.688   1.429  0.00  0.00    -0.321 N 
ATOM      8  C   UNL     1       2.292  -0.367   0.285  0.00  0.00    +0.211 C 
ATOM      9  C   UNL     1       3.451  -0.033  -0.374  0.00  0.00    +0.176 C 
ATOM     10  C   UNL     1       3.311  -2.135  -0.530  0.00  0.00    +0.224 C 
ATOM     11  C   UNL     1       3.841   1.348  -0.452  0.00  0.00    +0.273 C 
ATOM     12  C   UNL     1       1.738   1.711   0.855  0.00  0.00    +0.239 C 
ATOM     13  H   UNL     1       3.083   3.135   0.209  0.00  0.00    +0.159 HD
ATOM     14  H   UNL     1       0.139   2.448   1.901  0.00  0.00    +0.146 HD
ATOM     15  H   UNL     1       1.245   3.631   1.370  0.00  0.00    +0.146 HD
ENDBRANCH   1   3
BRANCH   1  16
ATOM     16  O   UNL     1      -0.113  -2.217   0.155  0.00  0.00    -0.330 OA
BRANCH  16  17
ATOM     17  C   UNL     1      -1.190  -3.011   0.640  0.00  0.00    +0.191 C 
BRANCH  17  18
ATOM     18  C   UNL     1      -2.480  -2.540  -0.004  0.00  0.00    +0.240 C 
BRANCH  18  19
ATOM     19  O   UNL     1      -2.707  -1.173   0.350  0.00  0.00    -0.447 OA
BRANCH  19  21
ATOM     20  O   UNL     1      -4.654  -1.180  -0.883  0.00  0.00    -0.252 OA
ATOM     21  C   UNL     1      -3.843  -0.611  -0.164  0.00  0.00    +0.296 C 
BRANCH  21  22
ATOM     22  C   UNL     1      -3.941   0.836   0.295  0.00  0.00    +0.036 C 
BRANCH  22  23
ATOM     23  N   UNL     1      -5.217   1.383  -0.170  0.00  0.00    +0.389 N 
ATOM     24  H   UNL     1      -5.299   2.354   0.129  0.00  0.00    -0.088 HD
ATOM     25  H   UNL     1      -5.984   0.839   0.226  0.00  0.00    -0.088 HD
ATOM     26  H   UNL     1      -5.256   1.335  -1.188  0.00  0.00    -0.088 HD
ENDBRANCH  22  23
BRANCH  22  27
ATOM     27  C   UNL     1      -2.723   1.670  -0.168  0.00  0.00    -0.010 C 
ATOM     28  C   UNL     1      -2.761   3.128   0.305  0.00  0.00    -0.002 C 
ATOM     29  C   UNL     1      -2.567   1.625  -1.692  0.00  0.00    -0.002 C 
ENDBRANCH  22  27
ENDBRANCH  21  22
ENDBRANCH  19  21
ENDBRANCH  18  19
ENDBRANCH  17  18
ENDBRANCH  16  17
ENDBRANCH   1  16
TORSDOF 9
