135484543
  -OEChem-03292013293D

 38 39  0     0  0  0  0  0  0999 V2000
   -4.0490   -1.6266   -0.0077 P   0  0  0  0  0  0  0  0  0  0  0  0
   -3.0072    0.6966   -0.0335 O   0  0  0  0  0  0  0  0  0  0  0  0
    5.2395   -1.1940   -0.3384 O   0  0  0  0  0  0  0  0  0  0  0  0
   -4.9097   -2.5013    1.0441 O   0  0  0  0  0  0  0  0  0  0  0  0
   -2.5591   -2.2373    0.1328 O   0  0  0  0  0  0  0  0  0  0  0  0
   -4.5918   -1.5920   -1.4053 O   0  0  0  0  0  0  0  0  0  0  0  0
    1.6502    1.4253    0.4811 N   0  0  0  0  0  0  0  0  0  0  0  0
    3.8753    1.3758    0.2608 N   0  0  0  0  0  0  0  0  0  0  0  0
    1.1150   -0.9053    0.1055 N   0  0  0  0  0  0  0  0  0  0  0  0
    3.1131   -2.1592   -0.3134 N   0  0  0  0  0  0  0  0  0  0  0  0
    1.0093   -3.2160   -0.3068 N   0  0  0  0  0  0  0  0  0  0  0  0
    0.3299    1.9628    0.7051 C   0  0  0  0  0  0  0  0  0  0  0  0
   -0.4361    2.1417   -0.6101 C   0  0  0  0  0  0  0  0  0  0  0  0
    1.9781    0.1290    0.2128 C   0  0  0  0  0  0  0  0  0  0  0  0
   -1.8117    2.7358   -0.4049 C   0  0  0  0  0  0  0  0  0  0  0  0
    3.3459    0.1318    0.0835 C   0  0  0  0  0  0  0  0  0  0  0  0
    2.8250    2.1367    0.4997 C   0  0  0  0  0  0  0  0  0  0  0  0
   -2.7733    1.9983    0.4871 C   0  0  0  0  0  0  0  0  0  0  0  0
    4.0258   -1.1003   -0.2063 C   0  0  0  0  0  0  0  0  0  0  0  0
    1.7109   -2.0475   -0.1599 C   0  0  0  0  0  0  0  0  0  0  0  0
   -2.1678    3.8819   -1.0071 C   0  0  0  0  0  0  0  0  0  0  0  0
   -3.9122   -0.0362    0.7808 C   0  0  0  0  0  0  0  0  0  0  0  0
   -0.1825    1.2724    1.3844 H   0  0  0  0  0  0  0  0  0  0  0  0
    0.4379    2.9209    1.2272 H   0  0  0  0  0  0  0  0  0  0  0  0
    0.1567    2.7691   -1.2891 H   0  0  0  0  0  0  0  0  0  0  0  0
   -0.5444    1.1752   -1.1184 H   0  0  0  0  0  0  0  0  0  0  0  0
    2.8524    3.2011    0.6904 H   0  0  0  0  0  0  0  0  0  0  0  0
   -3.7305    2.5308    0.5512 H   0  0  0  0  0  0  0  0  0  0  0  0
   -2.3692    1.9301    1.5034 H   0  0  0  0  0  0  0  0  0  0  0  0
   -3.1540    4.3122   -0.8675 H   0  0  0  0  0  0  0  0  0  0  0  0
   -1.4813    4.4178   -1.6541 H   0  0  0  0  0  0  0  0  0  0  0  0
    3.4895   -3.0805   -0.5176 H   0  0  0  0  0  0  0  0  0  0  0  0
   -3.5135   -0.1395    1.7951 H   0  0  0  0  0  0  0  0  0  0  0  0
   -4.8863    0.4616    0.8143 H   0  0  0  0  0  0  0  0  0  0  0  0
   -0.0003   -3.2370   -0.2140 H   0  0  0  0  0  0  0  0  0  0  0  0
    1.4774   -4.0920   -0.5114 H   0  0  0  0  0  0  0  0  0  0  0  0
   -5.1451   -3.4250    0.8130 H   0  0  0  0  0  0  0  0  0  0  0  0
   -2.3667   -3.1132   -0.2645 H   0  0  0  0  0  0  0  0  0  0  0  0
  1  4  1  0  0  0  0
  1  5  1  0  0  0  0
  1  6  2  0  0  0  0
  1 22  1  0  0  0  0
  2 18  1  0  0  0  0
  2 22  1  0  0  0  0
  3 19  2  0  0  0  0
  4 37  1  0  0  0  0
  5 38  1  0  0  0  0
  7 12  1  0  0  0  0
  7 14  1  0  0  0  0
  7 17  1  0  0  0  0
  8 16  1  0  0  0  0
  8 17  2  0  0  0  0
  9 14  1  0  0  0  0
  9 20  2  0  0  0  0
 10 19  1  0  0  0  0
 10 20  1  0  0  0  0
 10 32  1  0  0  0  0
 11 20  1  0  0  0  0
 11 35  1  0  0  0  0
 11 36  1  0  0  0  0
 12 13  1  0  0  0  0
 12 23  1  0  0  0  0
 12 24  1  0  0  0  0
 13 15  1  0  0  0  0
 13 25  1  0  0  0  0
 13 26  1  0  0  0  0
 14 16  2  0  0  0  0
 15 18  1  0  0  0  0
 15 21  2  0  0  0  0
 16 19  1  0  0  0  0
 17 27  1  0  0  0  0
 18 28  1  0  0  0  0
 18 29  1  0  0  0  0
 21 30  1  0  0  0  0
 21 31  1  0  0  0  0
 22 33  1  0  0  0  0
 22 34  1  0  0  0  0
M  END
> <PUBCHEM_COMPOUND_CID>
135484543

> <PUBCHEM_CONFORMER_RMSD>
0.8

> <PUBCHEM_CONFORMER_DIVERSEORDER>
1
19
81
186
226
161
77
28
191
12
82
217
106
96
107
16
147
156
70
72
40
110
65
142
114
22
212
84
133
58
140
158
13
233
98
43
71
119
80
118
3
165
49
163
44
219
214
168
79
211
78
127
196
131
103
53
89
164
34
125
94
66
228
57
150
224
227
88
166
208
29
146
170
109
173
104
180
51
20
231
18
54
153
159
6
87
160
47
74
203
11
92
167
15
136
25
232
23
67
169
179
137
8
216
149
76
201
218
26
14
152
112
182
223
197
190
5
187
207
181
210
86
38
85
27
175
194
35
45
9
183
185
130
24
206
75
83
198
135
52
222
39
108
124
64
42
215
123
234
144
195
129
100
220
111
177
30
21
4
59
120
37
91
101
113
172
93
32
126
200
192
99
154
46
116
33
184
171
2
62
55
102
69
117
105
178
229
151
189
122
139
134
155
176
199
221
174
157
143
225
162
36
213
31
50
230
63
145
141
132
41
48
209
202
97
56
7
115
73
60
68
121
205
95
188
17
193
148
90
138
61
10
128
204

> <PUBCHEM_MMFF94_PARTIAL_CHARGES>
30
1 1.24
10 -0.49
11 -0.85
12 0.26
13 0.14
14 -0.03
15 -0.28
16 0.14
17 0.04
18 0.42
19 0.72
2 -0.56
20 0.56
21 -0.3
22 0.28
27 0.15
3 -0.57
30 0.15
31 0.15
32 0.37
35 0.4
36 0.4
37 0.5
38 0.5
4 -0.77
5 -0.77
6 -0.7
7 0.05
8 -0.57
9 -0.58

> <PUBCHEM_EFFECTIVE_ROTOR_COUNT>
7

> <PUBCHEM_PHARMACOPHORE_FEATURES>
12
1 10 donor
1 11 donor
1 2 acceptor
1 21 hydrophobe
1 3 acceptor
1 4 acceptor
1 5 acceptor
1 6 acceptor
3 7 8 17 cation
4 1 4 5 6 anion
5 7 8 14 16 17 rings
6 9 10 14 16 19 20 rings

> <PUBCHEM_HEAVY_ATOM_COUNT>
22

> <PUBCHEM_ATOM_DEF_STEREO_COUNT>
0

> <PUBCHEM_ATOM_UDEF_STEREO_COUNT>
0

> <PUBCHEM_BOND_DEF_STEREO_COUNT>
0

> <PUBCHEM_BOND_UDEF_STEREO_COUNT>
0

> <PUBCHEM_ISOTOPIC_ATOM_COUNT>
0

> <PUBCHEM_COMPONENT_COUNT>
1

> <PUBCHEM_CACTVS_TAUTO_COUNT>
-1

> <PUBCHEM_CONFORMER_ID>
0813547F00000001

> <PUBCHEM_MMFF94_ENERGY>
3.5109

> <PUBCHEM_FEATURE_SELFOVERLAP>
61.111

> <PUBCHEM_SHAPE_FINGERPRINT>
10616163 171 18339362967985794319
10688039 33 18260548965458579999
1100329 8 17543343856783827034
11552529 35 18131631162751564465
12500047 106 17974285426246049845
12553582 1 18263095460348548253
12596599 1 17774181044767913427
12633257 1 18130518422597954801
13402501 40 18409731793963431683
138480 1 15671255827312523489
14617045 38 18194132828064949209
14790565 3 17617382126466966549
15196674 1 18412265060079120153
15352361 1 18337954588475591187
17357779 13 18335971056556165885
19141452 34 18339086982526654953
19591789 44 18413107256121652990
21673915 165 18341612663139040473
22113638 7 17978788240284197551
221490 88 18412265004497928184
23559900 14 18338789039938624937
2871803 45 18336256907883037201
350125 39 18411983585593279608
5309563 4 18337112388523622099
6433294 58 18194402182411952419
9709674 26 18267017259020716781

> <PUBCHEM_SHAPE_MULTIPOLES>
402.35
9.71
4.36
0.88
1.3
0.88
0.07
-5.67
-0.02
2.94
0.72
0.69
0.11
1.11

> <PUBCHEM_SHAPE_SELFOVERLAP>
825.868

> <PUBCHEM_SHAPE_VOLUME>
234.1

> <PUBCHEM_COORDINATE_TYPE>
2
5
10

$$$$
