REMARK  Name = 135422733
REMARK  3 active torsions:
REMARK  status: ('A' for Active; 'I' for Inactive)
REMARK    1  A    between atoms: C_10  and  N_17
REMARK    2  A    between atoms: N_17  and  N_18
REMARK    3  A    between atoms: N_18  and  C_19
REMARK                            x       y       z     vdW  Elec       q    Type
REMARK                         _______ _______ _______ _____ _____    ______ ____
ROOT
ATOM      1  O   UNL     1      -3.728  -2.555  -0.001  0.00  0.00    -0.273 OA
ATOM      2  N   UNL     1      -1.003  -1.242   0.000  0.00  0.00    -0.254 NA
ATOM      3  N   UNL     1      -4.549  -0.386   0.001  0.00  0.00    -0.246 N 
ATOM      4  N   UNL     1      -0.741   0.973  -0.001  0.00  0.00    -0.284 N 
ATOM      5  N   UNL     1      -3.147   1.562   0.000  0.00  0.00    -0.361 NA
ATOM      6  N   UNL     1      -5.479   1.762   0.002  0.00  0.00    -0.321 N 
ATOM      7  C   UNL     1      -2.259  -0.709  -0.001  0.00  0.00    +0.201 C 
ATOM      8  C   UNL     1      -2.073   0.654  -0.001  0.00  0.00    +0.185 C 
ATOM      9  C   UNL     1      -3.537  -1.344   0.000  0.00  0.00    +0.252 C 
ATOM     10  C   UNL     1      -0.123  -0.191  -0.001  0.00  0.00    +0.230 C 
ATOM     11  C   UNL     1      -4.336   1.004   0.001  0.00  0.00    +0.239 C 
ATOM     12  H   UNL     1      -0.772  -2.199   0.000  0.00  0.00    +0.127 HD
ATOM     13  H   UNL     1      -5.481  -0.705   0.001  0.00  0.00    +0.159 HD
ATOM     14  H   UNL     1      -0.336   1.870  -0.002  0.00  0.00    +0.151 HD
ATOM     15  H   UNL     1      -6.361   1.324   0.002  0.00  0.00    +0.146 HD
ATOM     16  H   UNL     1      -5.418   2.745   0.002  0.00  0.00    +0.146 HD
ENDROOT
BRANCH  10  17
ATOM     17  N   UNL     1       1.202  -0.457   0.000  0.00  0.00    -0.075 NA
BRANCH  17  18
ATOM     18  N   UNL     1       1.900   0.604  -0.001  0.00  0.00    -0.145 NA
BRANCH  18  19
ATOM     19  C   UNL     1       3.278   0.328   0.000  0.00  0.00    +0.085 C 
ATOM     20  C   UNL     1       3.724  -0.993   0.001  0.00  0.00    +0.018 C 
ATOM     21  C   UNL     1       4.199   1.375  -0.001  0.00  0.00    +0.018 C 
ATOM     22  C   UNL     1       5.092  -1.268   0.002  0.00  0.00    +0.001 C 
ATOM     23  C   UNL     1       5.567   1.101   0.000  0.00  0.00    +0.001 C 
ATOM     24  C   UNL     1       6.013  -0.220   0.001  0.00  0.00    +0.000 C 
ENDBRANCH  18  19
ENDBRANCH  17  18
ENDBRANCH  10  17
TORSDOF 3
