135449281
  -OEChem-03292013293D

 31 33  0     1  0  0  0  0  0999 V2000
   -1.7038   -0.4374    1.0653 O   0  0  0  0  0  0  0  0  0  0  0  0
   -2.1902    2.3938   -1.0824 O   0  0  0  0  0  0  0  0  0  0  0  0
   -4.2100    1.1061    0.2244 O   0  0  0  0  0  0  0  0  0  0  0  0
   -2.0538   -3.1331    0.3801 O   0  0  0  0  0  0  0  0  0  0  0  0
    4.7515    0.4612   -0.1617 O   0  0  0  0  0  0  0  0  0  0  0  0
    0.9512    2.0481    0.5518 N   0  0  0  0  0  0  0  0  0  0  0  0
    2.2851    1.9048    0.3827 N   0  0  0  0  0  0  0  0  0  0  0  0
    1.0172   -1.4234   -0.1383 N   0  0  0  0  0  0  0  0  0  0  0  0
    3.4188   -1.4338   -0.3944 N   0  0  0  0  0  0  0  0  0  0  0  0
   -2.0024    1.0273   -0.7735 C   0  0  1  0  0  0  0  0  0  0  0  0
   -1.2669    0.8364    0.5481 C   0  0  2  0  0  0  0  0  0  0  0  0
   -3.3070    0.2950   -0.5267 C   0  0  1  0  0  0  0  0  0  0  0  0
   -2.8616   -0.8856    0.3266 C   0  0  1  0  0  0  0  0  0  0  0  0
    0.2360    0.8899    0.3991 C   0  0  0  0  0  0  0  0  0  0  0  0
   -2.4599   -2.0996   -0.4999 C   0  0  0  0  0  0  0  0  0  0  0  0
    1.1774   -0.0576    0.1132 C   0  0  0  0  0  0  0  0  0  0  0  0
    2.4144    0.6037    0.1128 C   0  0  0  0  0  0  0  0  0  0  0  0
    3.6531   -0.0808   -0.1526 C   0  0  0  0  0  0  0  0  0  0  0  0
    2.1509   -2.0149   -0.3746 C   0  0  0  0  0  0  0  0  0  0  0  0
   -1.4546    0.5537   -1.5977 H   0  0  0  0  0  0  0  0  0  0  0  0
   -1.5729    1.5996    1.2758 H   0  0  0  0  0  0  0  0  0  0  0  0
   -3.8161    0.0124   -1.4531 H   0  0  0  0  0  0  0  0  0  0  0  0
   -3.6154   -1.1729    1.0682 H   0  0  0  0  0  0  0  0  0  0  0  0
   -1.6202   -1.8769   -1.1648 H   0  0  0  0  0  0  0  0  0  0  0  0
   -3.3038   -2.4598   -1.0965 H   0  0  0  0  0  0  0  0  0  0  0  0
   -2.7564    2.4387   -1.8717 H   0  0  0  0  0  0  0  0  0  0  0  0
   -5.0062    0.5740    0.3932 H   0  0  0  0  0  0  0  0  0  0  0  0
    0.5960    2.9705    0.7704 H   0  0  0  0  0  0  0  0  0  0  0  0
   -1.8050   -3.8961   -0.1691 H   0  0  0  0  0  0  0  0  0  0  0  0
    2.1843   -3.0944   -0.5905 H   0  0  0  0  0  0  0  0  0  0  0  0
    4.2185   -2.0272   -0.5957 H   0  0  0  0  0  0  0  0  0  0  0  0
  1 11  1  0  0  0  0
  1 13  1  0  0  0  0
  2 10  1  0  0  0  0
  2 26  1  0  0  0  0
  3 12  1  0  0  0  0
  3 27  1  0  0  0  0
  4 15  1  0  0  0  0
  4 29  1  0  0  0  0
  5 18  2  0  0  0  0
  6  7  1  0  0  0  0
  6 14  1  0  0  0  0
  6 28  1  0  0  0  0
  7 17  2  0  0  0  0
  8 16  1  0  0  0  0
  8 19  2  0  0  0  0
  9 18  1  0  0  0  0
  9 19  1  0  0  0  0
  9 31  1  0  0  0  0
 10 11  1  0  0  0  0
 10 12  1  0  0  0  0
 10 20  1  0  0  0  0
 11 14  1  0  0  0  0
 11 21  1  0  0  0  0
 12 13  1  0  0  0  0
 12 22  1  0  0  0  0
 13 15  1  0  0  0  0
 13 23  1  0  0  0  0
 14 16  2  0  0  0  0
 15 24  1  0  0  0  0
 15 25  1  0  0  0  0
 16 17  1  0  0  0  0
 17 18  1  0  0  0  0
 19 30  1  0  0  0  0
M  END
> <PUBCHEM_COMPOUND_CID>
135449281

> <PUBCHEM_CONFORMER_RMSD>
0.6

> <PUBCHEM_CONFORMER_DIVERSEORDER>
1
8
9
16
5
11
10
4
15
2
12
13
6
3
14
7

> <PUBCHEM_MMFF94_PARTIAL_CHARGES>
25
1 -0.56
10 0.28
11 0.46
12 0.28
13 0.28
14 -0.33
15 0.28
16 0.12
17 0.2
18 0.72
19 0.45
2 -0.68
26 0.4
27 0.4
28 0.27
29 0.4
3 -0.68
30 0.06
31 0.37
4 -0.68
5 -0.57
6 0.3
7 -0.71
8 -0.57
9 -0.49

> <PUBCHEM_EFFECTIVE_ROTOR_COUNT>
3

> <PUBCHEM_PHARMACOPHORE_FEATURES>
14
1 1 acceptor
1 2 acceptor
1 2 donor
1 3 acceptor
1 3 donor
1 4 acceptor
1 4 donor
1 5 acceptor
1 6 donor
1 7 acceptor
1 9 donor
5 1 10 11 12 13 rings
5 6 7 14 16 17 rings
6 8 9 16 17 18 19 rings

> <PUBCHEM_HEAVY_ATOM_COUNT>
19

> <PUBCHEM_ATOM_DEF_STEREO_COUNT>
4

> <PUBCHEM_ATOM_UDEF_STEREO_COUNT>
0

> <PUBCHEM_BOND_DEF_STEREO_COUNT>
0

> <PUBCHEM_BOND_UDEF_STEREO_COUNT>
0

> <PUBCHEM_ISOTOPIC_ATOM_COUNT>
0

> <PUBCHEM_COMPONENT_COUNT>
1

> <PUBCHEM_CACTVS_TAUTO_COUNT>
-1

> <PUBCHEM_CONFORMER_ID>
0812CAC100000001

> <PUBCHEM_MMFF94_ENERGY>
42.827

> <PUBCHEM_FEATURE_SELFOVERLAP>
71.208

> <PUBCHEM_SHAPE_FINGERPRINT>
10608611 8 18410006650047340384
10616163 171 18340770445790768535
10967382 1 18340488850691967546
11132069 177 18413106190890752882
12500047 106 18409162203911098653
12969540 114 17969199198058076805
13140716 1 18341047544248169104
14115302 16 18335995198145479989
14251745 187 18337386136310562690
15196674 1 18412827984141788542
15219456 202 18410574011048056993
15375358 24 18342735187254231950
16945 1 18410566280027770409
17834074 16 18411139147055240975
19107657 46 18413390947011565430
200 152 17846493738367294765
20201158 50 18411419488139525467
20645477 56 18334292046281763245
20645477 70 18130786707350103006
21501502 16 18338514248125322059
221490 88 18267591380447669570
2334 1 18052255399232661842
23402539 116 17458339758199449020
23559900 14 18341611487209525418
238 59 16454279780274000269
2748010 2 18051970612836139960
2871803 45 18194111039690854799
3312278 4 18343304772889901744
34934 24 18412822465282672218
5104073 3 18412544331542540386
69090 78 18409726232207220743
74978 22 18342176669817908033
8809292 202 18409168830771550627
9709674 26 18413673521421094543

> <PUBCHEM_SHAPE_MULTIPOLES>
341.74
7.05
2.59
0.82
2.54
1.06
0.03
0.1
0.72
-0.97
0.14
-0.35
-0.12
0.66

> <PUBCHEM_SHAPE_SELFOVERLAP>
745.187

> <PUBCHEM_SHAPE_VOLUME>
183

> <PUBCHEM_COORDINATE_TYPE>
2
5
10

$$$$
