135494248
  -OEChem-03292013293D

 39 40  0     1  0  0  0  0  0999 V2000
   -4.6382   -0.3460    1.6695 O   0  0  0  0  0  0  0  0  0  0  0  0
   -4.7489    1.1921   -0.7120 O   0  0  0  0  0  0  0  0  0  0  0  0
   -0.8591    2.8269    0.1852 O   0  0  0  0  0  0  0  0  0  0  0  0
    3.3056    0.7539   -0.0249 N   0  0  0  0  0  0  0  0  0  0  0  0
   -2.1579    0.4398    0.2916 N   0  0  0  0  0  0  0  0  0  0  0  0
    1.1981    1.7636    0.0824 N   0  0  0  0  0  0  0  0  0  0  0  0
    1.3848   -0.5862    0.1038 N   0  0  0  0  0  0  0  0  0  0  0  0
   -0.5672   -1.8767    0.2334 N   0  0  0  0  0  0  0  0  0  0  0  0
    8.0166   -0.5317   -0.2795 N   0  0  0  0  0  0  0  0  0  0  0  0
   -4.1770   -0.8987    0.4248 C   0  0  1  0  0  0  0  0  0  0  0  0
   -4.9748   -0.2159   -0.7166 C   0  0  2  0  0  0  0  0  0  0  0  0
   -2.6942   -0.7942    0.3392 C   0  0  0  0  0  0  0  0  0  0  0  0
    4.2082   -0.3552   -0.0618 C   0  0  0  0  0  0  0  0  0  0  0  0
    5.6559    0.1206   -0.1622 C   0  0  0  0  0  0  0  0  0  0  0  0
   -0.8136    0.4813    0.2147 C   0  0  0  0  0  0  0  0  0  0  0  0
    1.9479    0.5902    0.0554 C   0  0  0  0  0  0  0  0  0  0  0  0
   -4.6234   -0.7513   -2.0976 C   0  0  0  0  0  0  0  0  0  0  0  0
   -0.0153   -0.6467    0.1848 C   0  0  0  0  0  0  0  0  0  0  0  0
   -1.9141   -1.9305    0.3107 C   0  0  0  0  0  0  0  0  0  0  0  0
    6.6515   -1.0403   -0.2015 C   0  0  0  0  0  0  0  0  0  0  0  0
   -0.1849    1.8049    0.1608 C   0  0  0  0  0  0  0  0  0  0  0  0
   -4.4698   -1.9560    0.4418 H   0  0  0  0  0  0  0  0  0  0  0  0
   -6.0450   -0.3607   -0.5261 H   0  0  0  0  0  0  0  0  0  0  0  0
    4.0897   -0.9622    0.8438 H   0  0  0  0  0  0  0  0  0  0  0  0
    3.9788   -0.9947   -0.9225 H   0  0  0  0  0  0  0  0  0  0  0  0
    5.8828    0.7719    0.6925 H   0  0  0  0  0  0  0  0  0  0  0  0
    5.7722    0.7385   -1.0626 H   0  0  0  0  0  0  0  0  0  0  0  0
   -3.5923   -0.5061   -2.3736 H   0  0  0  0  0  0  0  0  0  0  0  0
   -4.7558   -1.8362   -2.1481 H   0  0  0  0  0  0  0  0  0  0  0  0
   -5.2634   -0.2904   -2.8581 H   0  0  0  0  0  0  0  0  0  0  0  0
    3.6912    1.6931   -0.0592 H   0  0  0  0  0  0  0  0  0  0  0  0
   -2.3346   -2.9287    0.3483 H   0  0  0  0  0  0  0  0  0  0  0  0
    6.4510   -1.6810   -1.0671 H   0  0  0  0  0  0  0  0  0  0  0  0
    6.5492   -1.6536    0.7000 H   0  0  0  0  0  0  0  0  0  0  0  0
    1.6959    2.6481    0.0418 H   0  0  0  0  0  0  0  0  0  0  0  0
   -3.9915   -0.5697    2.3604 H   0  0  0  0  0  0  0  0  0  0  0  0
   -5.2998    1.5817   -1.4123 H   0  0  0  0  0  0  0  0  0  0  0  0
    8.1299    0.0181   -1.1302 H   0  0  0  0  0  0  0  0  0  0  0  0
    8.6645   -1.3145   -0.3569 H   0  0  0  0  0  0  0  0  0  0  0  0
  1 10  1  0  0  0  0
  1 36  1  0  0  0  0
  2 11  1  0  0  0  0
  2 37  1  0  0  0  0
  3 21  2  0  0  0  0
  4 13  1  0  0  0  0
  4 16  1  0  0  0  0
  4 31  1  0  0  0  0
  5 12  1  0  0  0  0
  5 15  2  0  0  0  0
  6 16  1  0  0  0  0
  6 21  1  0  0  0  0
  6 35  1  0  0  0  0
  7 16  2  0  0  0  0
  7 18  1  0  0  0  0
  8 18  2  0  0  0  0
  8 19  1  0  0  0  0
  9 20  1  0  0  0  0
  9 38  1  0  0  0  0
  9 39  1  0  0  0  0
 10 11  1  0  0  0  0
 10 12  1  0  0  0  0
 10 22  1  0  0  0  0
 11 17  1  0  0  0  0
 11 23  1  0  0  0  0
 12 19  2  0  0  0  0
 13 14  1  0  0  0  0
 13 24  1  0  0  0  0
 13 25  1  0  0  0  0
 14 20  1  0  0  0  0
 14 26  1  0  0  0  0
 14 27  1  0  0  0  0
 15 18  1  0  0  0  0
 15 21  1  0  0  0  0
 17 28  1  0  0  0  0
 17 29  1  0  0  0  0
 17 30  1  0  0  0  0
 19 32  1  0  0  0  0
 20 33  1  0  0  0  0
 20 34  1  0  0  0  0
M  END
> <PUBCHEM_COMPOUND_CID>
135494248

> <PUBCHEM_CONFORMER_RMSD>
0.8

> <PUBCHEM_CONFORMER_DIVERSEORDER>
1
86
99
60
121
97
114
76
79
71
98
15
131
134
128
129
52
116
91
105
49
133
23
102
104
51
34
124
3
46
33
117
45
58
125
56
53
40
115
20
75
65
126
95
132
108
63
123
57
48
13
54
130
80
107
113
32
25
50
110
136
103
55
101
42
37
61
9
89
112
109
84
12
38
41
64
14
47
22
66
88
118
26
111
74
7
77
106
35
44
67
11
92
82
69
4
72
127
87
70
96
10
120
81
43
29
39
78
16
83
17
122
8
2
59
21
36
31
18
85
90
73
5
28
19
24
6
100
119
27
135
93
68
30
94
62

> <PUBCHEM_MMFF94_PARTIAL_CHARGES>
26
1 -0.68
10 0.42
11 0.28
12 0.17
13 0.37
15 0.4
16 0.56
18 0.49
19 0.16
2 -0.68
20 0.27
21 0.54
3 -0.57
31 0.4
32 0.15
35 0.37
36 0.4
37 0.4
38 0.36
39 0.36
4 -0.82
5 -0.62
6 -0.49
7 -0.63
8 -0.62
9 -0.99

> <PUBCHEM_EFFECTIVE_ROTOR_COUNT>
6

> <PUBCHEM_PHARMACOPHORE_FEATURES>
13
1 1 acceptor
1 1 donor
1 2 acceptor
1 2 donor
1 3 acceptor
1 4 donor
1 5 acceptor
1 6 donor
1 9 cation
1 9 donor
3 7 8 18 cation
6 5 8 12 15 18 19 rings
6 6 7 15 16 18 21 rings

> <PUBCHEM_HEAVY_ATOM_COUNT>
21

> <PUBCHEM_ATOM_DEF_STEREO_COUNT>
2

> <PUBCHEM_ATOM_UDEF_STEREO_COUNT>
0

> <PUBCHEM_BOND_DEF_STEREO_COUNT>
0

> <PUBCHEM_BOND_UDEF_STEREO_COUNT>
0

> <PUBCHEM_ISOTOPIC_ATOM_COUNT>
0

> <PUBCHEM_COMPONENT_COUNT>
1

> <PUBCHEM_CACTVS_TAUTO_COUNT>
-1

> <PUBCHEM_CONFORMER_ID>
08137A6800000001

> <PUBCHEM_MMFF94_ENERGY>
39.7113

> <PUBCHEM_FEATURE_SELFOVERLAP>
66.073

> <PUBCHEM_SHAPE_FINGERPRINT>
10968037 39 18408045130557772462
11315181 36 17418374713916501770
12011746 2 18410288107838562902
12091667 2 18413109454680782290
12555020 224 18411412951363318687
12596602 18 14045745902889059814
12670543 26 18333726897315194366
12760667 363 18343585131623534152
12788726 201 18334572396208768392
13288520 33 18411703188194119000
13533116 47 18262228925322669258
13583140 156 14189575204571170011
13862211 1 18412825802403728278
13964095 4 17894628132764746158
14251731 8 18113616798290343914
14251752 14 17385715881835607110
14508225 48 18408598171705858876
15048467 5 13840259277915693438
15099037 51 18409166636185576671
15183329 4 17821721720076855710
17492 89 17838330040535774135
17834072 8 18186796989215340511
18006028 8 18273214201571416528
19141452 34 17988647432180606918
19489759 90 15913332390027134043
200 152 17917990598686490183
21236236 1 18342178817222857000
21267235 1 18336273417468434370
21279426 13 18192149304487480287
21792961 116 17894347757294524779
22224240 67 16989120960277548606
2297311 6 18341623598990770356
23198884 109 14779547881222668380
23402539 116 18272367576953196021
23536379 177 15719387330985890450
23559900 14 18337950216373405528
266924 87 18265609875362196871
3004659 81 18113616807544838780
335352 9 18410012143600389781
5104073 3 18198633317977703802
59755656 215 18408604726252966798
6138700 20 18410855455918064774
7226269 152 18334859411260702104

> <PUBCHEM_SHAPE_MULTIPOLES>
384.68
14.93
1.87
1.01
26.09
0.85
-0.28
-4.73
-3.29
-0.61
0.13
-1.8
-0.21
0.16

> <PUBCHEM_SHAPE_SELFOVERLAP>
801.202

> <PUBCHEM_SHAPE_VOLUME>
217.6

> <PUBCHEM_COORDINATE_TYPE>
2
5
10

$$$$
