REMARK  Name = 135449518
REMARK  5 active torsions:
REMARK  status: ('A' for Active; 'I' for Inactive)
REMARK    1  A    between atoms: C_1  and  C_6
REMARK    2  A    between atoms: C_1  and  N_14
REMARK    3  A    between atoms: C_15  and  C_22
REMARK    4  A    between atoms: C_16  and  O_20
REMARK    5  A    between atoms: C_22  and  O_23
REMARK                            x       y       z     vdW  Elec       q    Type
REMARK                         _______ _______ _______ _____ _____    ______ ____
ROOT
ATOM      1  C   UNL     1       0.412  -1.175  -1.188  0.00  0.00    -0.047 C 
ENDROOT
BRANCH   1   6
ATOM      2  O   UNL     1      -4.960   0.194   1.336  0.00  0.00    -0.273 OA
ATOM      3  N   UNL     1      -2.567  -1.601   0.966  0.00  0.00    -0.322 N 
ATOM      4  N   UNL     1      -1.803   1.093  -1.231  0.00  0.00    -0.251 NA
ATOM      5  N   UNL     1      -3.927   1.588  -0.203  0.00  0.00    -0.282 N 
ATOM      6  C   UNL     1      -0.880  -1.101  -0.419  0.00  0.00    -0.014 C 
ATOM      7  C   UNL     1      -1.843  -0.078  -0.460  0.00  0.00    +0.078 C 
ATOM      8  C   UNL     1      -1.356  -2.038   0.478  0.00  0.00    +0.053 C 
ATOM      9  C   UNL     1      -2.873  -0.396   0.393  0.00  0.00    +0.187 C 
ATOM     10  C   UNL     1      -4.022   0.441   0.586  0.00  0.00    +0.248 C 
ATOM     11  C   UNL     1      -2.849   1.843  -1.048  0.00  0.00    +0.218 C 
ATOM     12  H   UNL     1      -3.124  -2.079   1.622  0.00  0.00    +0.148 HD
ATOM     13  H   UNL     1      -4.657   2.247  -0.162  0.00  0.00    +0.151 HD
ENDBRANCH   1   6
BRANCH   1  14
ATOM     14  N   UNL     1       1.560  -0.861  -0.351  0.00  0.00    +0.391 N 
ATOM     15  C   UNL     1       3.124   0.617   0.474  0.00  0.00    +0.033 C 
ATOM     16  C   UNL     1       3.896  -0.466  -0.285  0.00  0.00    +0.090 C 
ATOM     17  C   UNL     1       1.743   0.579  -0.166  0.00  0.00    -0.072 C 
ATOM     18  C   UNL     1       2.822  -1.355  -0.916  0.00  0.00    -0.047 C 
ATOM     19  H   UNL     1       1.351  -1.321   0.535  0.00  0.00    -0.079 HD
BRANCH  16  20
ATOM     20  O   UNL     1       4.700  -1.201   0.625  0.00  0.00    -0.387 OA
ATOM     21  H   UNL     1       5.371  -0.616   1.009  0.00  0.00    +0.210 HD
ENDBRANCH  16  20
BRANCH  15  22
ATOM     22  C   UNL     1       3.777   1.989   0.391  0.00  0.00    +0.137 C 
BRANCH  22  23
ATOM     23  O   UNL     1       5.046   1.928   1.019  0.00  0.00    -0.382 OA
ATOM     24  H   UNL     1       5.473   2.798   0.972  0.00  0.00    +0.210 HD
ENDBRANCH  22  23
ENDBRANCH  15  22
ENDBRANCH   1  14
TORSDOF 5
