REMARK  Name = 135465084
REMARK  8 active torsions:
REMARK  status: ('A' for Active; 'I' for Inactive)
REMARK    1  A    between atoms: C_2  and  O_20
REMARK    2  A    between atoms: C_3  and  O_24
REMARK    3  A    between atoms: C_4  and  N_7
REMARK    4  A    between atoms: C_5  and  C_28
REMARK    5  A    between atoms: O_20  and  C_22
REMARK    6  A    between atoms: O_24  and  C_26
REMARK    7  A    between atoms: C_28  and  O_29
REMARK    8  A    between atoms: O_29  and  C_31
REMARK                            x       y       z     vdW  Elec       q    Type
REMARK                         _______ _______ _______ _____ _____    ______ ____
ROOT
ATOM      1  O   UNL     1       1.171   0.700   1.179  0.00  0.00    -0.329 OA
ATOM      2  C   UNL     1       0.631  -0.893  -0.486  0.00  0.00    +0.257 C 
ATOM      3  C   UNL     1       2.072  -1.111  -0.068  0.00  0.00    +0.243 C 
ATOM      4  C   UNL     1       0.075  -0.104   0.695  0.00  0.00    +0.241 C 
ATOM      5  C   UNL     1       2.409   0.205   0.622  0.00  0.00    +0.204 C 
ENDROOT
BRANCH   4   7
ATOM      6  O   UNL     1      -5.240   2.419  -0.461  0.00  0.00    -0.268 OA
ATOM      7  N   UNL     1      -1.116   0.748   0.327  0.00  0.00    -0.236 N 
ATOM      8  N   UNL     1      -2.272   2.522  -0.394  0.00  0.00    -0.240 NA
ATOM      9  N   UNL     1      -2.922  -0.777   0.846  0.00  0.00    -0.357 NA
ATOM     10  N   UNL     1      -5.036   0.249   0.377  0.00  0.00    -0.243 N 
ATOM     11  N   UNL     1      -4.925  -1.946   1.221  0.00  0.00    -0.321 N 
ATOM     12  C   UNL     1      -2.433   0.405   0.411  0.00  0.00    +0.211 C 
ATOM     13  C   UNL     1      -1.070   2.031  -0.163  0.00  0.00    +0.224 C 
ATOM     14  C   UNL     1      -3.114   1.511  -0.037  0.00  0.00    +0.176 C 
ATOM     15  C   UNL     1      -4.550   1.483  -0.077  0.00  0.00    +0.273 C 
ATOM     16  C   UNL     1      -4.236  -0.831   0.820  0.00  0.00    +0.239 C 
ATOM     17  H   UNL     1      -6.013   0.124   0.390  0.00  0.00    +0.159 HD
ATOM     18  H   UNL     1      -4.436  -2.738   1.542  0.00  0.00    +0.146 HD
ATOM     19  H   UNL     1      -5.909  -1.955   1.189  0.00  0.00    +0.146 HD
ENDBRANCH   4   7
BRANCH   2  20
ATOM     20  O   UNL     1      -0.065  -2.100  -0.721  0.00  0.00    -0.444 OA
BRANCH  20  22
ATOM     21  O   UNL     1       0.519  -2.034  -2.955  0.00  0.00    -0.250 OA
ATOM     22  C   UNL     1      -0.044  -2.569  -2.009  0.00  0.00    +0.318 C 
ATOM     23  C   UNL     1      -0.819  -3.848  -2.108  0.00  0.00    +0.121 C 
ENDBRANCH  20  22
ENDBRANCH   2  20
BRANCH   3  24
ATOM     24  O   UNL     1       2.155  -2.152   0.904  0.00  0.00    -0.446 OA
BRANCH  24  26
ATOM     25  O   UNL     1       4.337  -2.579   0.278  0.00  0.00    -0.250 OA
ATOM     26  C   UNL     1       3.352  -2.805   0.968  0.00  0.00    +0.318 C 
ATOM     27  C   UNL     1       3.293  -3.864   2.026  0.00  0.00    +0.121 C 
ENDBRANCH  24  26
ENDBRANCH   3  24
BRANCH   5  28
ATOM     28  C   UNL     1       2.956   1.256  -0.333  0.00  0.00    +0.242 C 
BRANCH  28  29
ATOM     29  O   UNL     1       3.225   2.438   0.400  0.00  0.00    -0.446 OA
BRANCH  29  31
ATOM     30  O   UNL     1       3.958   3.491  -1.522  0.00  0.00    -0.250 OA
ATOM     31  C   UNL     1       3.728   3.490  -0.320  0.00  0.00    +0.318 C 
ATOM     32  C   UNL     1       3.963   4.664   0.581  0.00  0.00    +0.121 C 
ENDBRANCH  29  31
ENDBRANCH  28  29
ENDBRANCH   5  28
TORSDOF 8
