135416507
  -OEChem-03292013293D

 33 35  0     1  0  0  0  0  0999 V2000
    2.1663    0.3238    0.9855 O   0  0  0  0  0  0  0  0  0  0  0  0
    2.1237   -1.9464   -1.2977 O   0  0  0  0  0  0  0  0  0  0  0  0
    2.5395    1.5917   -1.7404 O   0  0  0  0  0  0  0  0  0  0  0  0
    4.6942   -0.3648    2.0030 O   0  0  0  0  0  0  0  0  0  0  0  0
   -1.2254   -2.3544    0.1067 O   0  0  0  0  0  0  0  0  0  0  0  0
   -0.1323    0.4719    0.1973 N   0  0  0  0  0  0  0  0  0  0  0  0
   -1.4567    2.2659    0.1972 N   0  0  0  0  0  0  0  0  0  0  0  0
   -3.3022   -1.3301    0.0723 N   0  0  0  0  0  0  0  0  0  0  0  0
   -3.6136    1.0496    0.1128 N   0  0  0  0  0  0  0  0  0  0  0  0
   -5.4501   -0.4001    0.0321 N   0  0  0  0  0  0  0  0  0  0  0  0
    1.7098   -0.5878   -1.1845 C   0  0  1  0  0  0  0  0  0  0  0  0
    1.1452   -0.3397    0.2167 C   0  0  1  0  0  0  0  0  0  0  0  0
    2.9280    0.3083   -1.2563 C   0  0  2  0  0  0  0  0  0  0  0  0
    3.3590    0.4583    0.1954 C   0  0  2  0  0  0  0  0  0  0  0  0
    4.3535   -0.6035    0.6471 C   0  0  0  0  0  0  0  0  0  0  0  0
   -1.4120    0.0017    0.1517 C   0  0  0  0  0  0  0  0  0  0  0  0
   -0.2108    1.8400    0.2237 C   0  0  0  0  0  0  0  0  0  0  0  0
   -2.2095    1.1222    0.1528 C   0  0  0  0  0  0  0  0  0  0  0  0
   -1.9086   -1.3360    0.1101 C   0  0  0  0  0  0  0  0  0  0  0  0
   -4.0982   -0.1707    0.0745 C   0  0  0  0  0  0  0  0  0  0  0  0
    0.8970   -1.2620    0.7503 H   0  0  0  0  0  0  0  0  0  0  0  0
    0.9832   -0.3935   -1.9804 H   0  0  0  0  0  0  0  0  0  0  0  0
    3.7312   -0.0699   -1.8964 H   0  0  0  0  0  0  0  0  0  0  0  0
    3.7650    1.4547    0.4043 H   0  0  0  0  0  0  0  0  0  0  0  0
    5.2667   -0.5639    0.0453 H   0  0  0  0  0  0  0  0  0  0  0  0
    3.9269   -1.6092    0.5914 H   0  0  0  0  0  0  0  0  0  0  0  0
    1.3305   -2.5005   -1.1995 H   0  0  0  0  0  0  0  0  0  0  0  0
    2.2258    1.4753   -2.6534 H   0  0  0  0  0  0  0  0  0  0  0  0
    0.6645    2.4737    0.2620 H   0  0  0  0  0  0  0  0  0  0  0  0
    5.3332   -1.0501    2.2628 H   0  0  0  0  0  0  0  0  0  0  0  0
   -3.7756   -2.2283    0.0405 H   0  0  0  0  0  0  0  0  0  0  0  0
   -6.1127    0.3677    0.0295 H   0  0  0  0  0  0  0  0  0  0  0  0
   -5.8264   -1.3413    0.0021 H   0  0  0  0  0  0  0  0  0  0  0  0
  1 12  1  0  0  0  0
  1 14  1  0  0  0  0
  2 11  1  0  0  0  0
  2 27  1  0  0  0  0
  3 13  1  0  0  0  0
  3 28  1  0  0  0  0
  4 15  1  0  0  0  0
  4 30  1  0  0  0  0
  5 19  2  0  0  0  0
  6 12  1  0  0  0  0
  6 16  1  0  0  0  0
  6 17  1  0  0  0  0
  7 17  2  0  0  0  0
  7 18  1  0  0  0  0
  8 19  1  0  0  0  0
  8 20  1  0  0  0  0
  8 31  1  0  0  0  0
  9 18  1  0  0  0  0
  9 20  2  0  0  0  0
 10 20  1  0  0  0  0
 10 32  1  0  0  0  0
 10 33  1  0  0  0  0
 11 12  1  0  0  0  0
 11 13  1  0  0  0  0
 11 22  1  0  0  0  0
 12 21  1  0  0  0  0
 13 14  1  0  0  0  0
 13 23  1  0  0  0  0
 14 15  1  0  0  0  0
 14 24  1  0  0  0  0
 15 25  1  0  0  0  0
 15 26  1  0  0  0  0
 16 18  2  0  0  0  0
 16 19  1  0  0  0  0
 17 29  1  0  0  0  0
M  END
> <PUBCHEM_COMPOUND_CID>
135416507

> <PUBCHEM_CONFORMER_RMSD>
0.6

> <PUBCHEM_CONFORMER_DIVERSEORDER>
2
96
78
55
12
23
37
38
99
80
11
98
49
92
81
89
9
95
5
32
66
34
68
42
24
14
83
21
82
26
73
77
87
44
62
41
74
65
64
63
19
52
8
97
50
75
20
91
59
1
51
94
30
93
15
28
16
58
85
35
86
7
48
3
84
70
90
25
4
36
18
60
6
17
10
61
39
79
72
29
13
47
88
31
56
46
40
53
71
69
33
43
54
67
45
22
76
27
57

> <PUBCHEM_MMFF94_PARTIAL_CHARGES>
27
1 -0.56
10 -0.85
11 0.28
12 0.54
13 0.28
14 0.28
15 0.28
16 -0.24
17 0.04
18 0.35
19 0.71
2 -0.68
20 0.56
27 0.4
28 0.4
29 0.15
3 -0.68
30 0.4
31 0.37
32 0.4
33 0.4
4 -0.68
5 -0.57
6 0.05
7 -0.57
8 -0.49
9 -0.57

> <PUBCHEM_EFFECTIVE_ROTOR_COUNT>
3

> <PUBCHEM_PHARMACOPHORE_FEATURES>
14
1 1 acceptor
1 10 donor
1 2 acceptor
1 2 donor
1 3 acceptor
1 3 donor
1 4 acceptor
1 4 donor
1 5 acceptor
1 8 donor
3 6 7 17 cation
5 1 11 12 13 14 rings
5 6 7 16 17 18 rings
6 8 9 16 18 19 20 rings

> <PUBCHEM_HEAVY_ATOM_COUNT>
20

> <PUBCHEM_ATOM_DEF_STEREO_COUNT>
0

> <PUBCHEM_ATOM_UDEF_STEREO_COUNT>
4

> <PUBCHEM_BOND_DEF_STEREO_COUNT>
0

> <PUBCHEM_BOND_UDEF_STEREO_COUNT>
0

> <PUBCHEM_ISOTOPIC_ATOM_COUNT>
0

> <PUBCHEM_COMPONENT_COUNT>
1

> <PUBCHEM_CACTVS_TAUTO_COUNT>
-1

> <PUBCHEM_CONFORMER_ID>
08124ABB00000002

> <PUBCHEM_MMFF94_ENERGY>
47.7729

> <PUBCHEM_FEATURE_SELFOVERLAP>
71.224

> <PUBCHEM_SHAPE_FINGERPRINT>
10759866 29 17969513769609645350
11132069 177 18343305846948243157
12236239 1 17748543736131981840
12553582 1 18269572652945181101
13134695 92 15791730798221022902
13140716 1 18198057191159290491
13581323 91 18410007715536508704
13862211 1 18410851105923250563
14115302 16 18040719198669519315
14178342 30 18198346147953700032
14252887 29 16415487042750320388
15219456 202 17917429774578408582
15342168 16 15194707060990934712
15375358 24 18131630097177291979
16752209 62 18408882911020601289
16945 1 18270696332132457025
17349148 13 18409725162222378542
1813 80 16733827446783304634
18186145 218 18195820574107893485
19141452 34 17846499266544294359
19784866 240 16950559939780205882
200 152 16443061686167852593
20279233 1 17989490727138389111
204376 136 16343409705158994418
20510252 161 18129665192927025777
20645477 70 15068618263083826010
21069387 34 16950284001026622794
21267235 1 18336273387551388723
22854114 59 17275381019211172186
23175994 123 14201398253036145382
23366157 5 17827637268496523173
23402539 116 18340756092210083647
23557571 272 18130232562327895644
23558518 356 18122920728377512961
23559900 14 18199196104996615582
2748010 2 18197227948812001191
3286 77 16443063893791469020
4340502 62 15697996374979980223
474 4 16952550219183223436
5104073 3 18337396053653800369
5374978 207 18411136952490665112
537710 114 18409456907519177109
57005193 9 18410568487794077791
67856867 119 18042686277139407556
69090 78 17918272060973763887
7364860 26 18055920037524602417
77492 1 17749114387120072212
81228 2 18268446671355131273
9709674 26 18271252637724271863
9981440 41 17102572086998268400

> <PUBCHEM_SHAPE_MULTIPOLES>
357.34
8.67
1.87
1.18
2.16
0
0.08
-1.26
-1.71
0.69
0.23
-1.86
-0.01
-0.27

> <PUBCHEM_SHAPE_SELFOVERLAP>
775.282

> <PUBCHEM_SHAPE_VOLUME>
194.2

> <PUBCHEM_COORDINATE_TYPE>
2
5
10

$$$$
