135408529
  -OEChem-03292013293D

 36 37  0     0  0  0  0  0  0999 V2000
   -5.5812   -2.3699   -0.0036 O   0  0  0  0  0  0  0  0  0  0  0  0
    5.5806   -2.3699    0.0076 O   0  0  0  0  0  0  0  0  0  0  0  0
   -0.0004    1.6423   -0.0046 O   0  0  0  0  0  0  0  0  0  0  0  0
   -2.3553    0.2339   -0.0031 N   0  0  0  0  0  0  0  0  0  0  0  0
    2.3553    0.2344   -0.0070 N   0  0  0  0  0  0  0  0  0  0  0  0
    1.1468   -0.3714   -0.0076 N   0  0  0  0  0  0  0  0  0  0  0  0
   -1.1467   -0.3719   -0.0057 N   0  0  0  0  0  0  0  0  0  0  0  0
   -4.7504   -0.1196    0.0014 C   0  0  0  0  0  0  0  0  0  0  0  0
    4.7505   -0.1193   -0.0018 C   0  0  0  0  0  0  0  0  0  0  0  0
    5.8100   -1.0264    0.0036 C   0  0  0  0  0  0  0  0  0  0  0  0
   -5.8102   -1.0263    0.0014 C   0  0  0  0  0  0  0  0  0  0  0  0
    5.0064    1.2518   -0.0032 C   0  0  0  0  0  0  0  0  0  0  0  0
   -5.0058    1.2517    0.0040 C   0  0  0  0  0  0  0  0  0  0  0  0
    7.1254   -0.5624    0.0078 C   0  0  0  0  0  0  0  0  0  0  0  0
   -7.1255   -0.5619    0.0039 C   0  0  0  0  0  0  0  0  0  0  0  0
    6.3218    1.7160    0.0010 C   0  0  0  0  0  0  0  0  0  0  0  0
   -6.3212    1.7162    0.0065 C   0  0  0  0  0  0  0  0  0  0  0  0
    7.3814    0.8088    0.0065 C   0  0  0  0  0  0  0  0  0  0  0  0
   -7.3811    0.8093    0.0064 C   0  0  0  0  0  0  0  0  0  0  0  0
   -3.3536   -0.5886   -0.0028 C   0  0  0  0  0  0  0  0  0  0  0  0
    3.3535   -0.5880   -0.0047 C   0  0  0  0  0  0  0  0  0  0  0  0
   -0.0001    0.4113   -0.0062 C   0  0  0  0  0  0  0  0  0  0  0  0
   -4.2024    1.9833    0.0038 H   0  0  0  0  0  0  0  0  0  0  0  0
    4.2031    1.9836   -0.0072 H   0  0  0  0  0  0  0  0  0  0  0  0
    7.9607   -1.2576    0.0125 H   0  0  0  0  0  0  0  0  0  0  0  0
   -7.9610   -1.2569    0.0035 H   0  0  0  0  0  0  0  0  0  0  0  0
    6.5214    2.7836    0.0001 H   0  0  0  0  0  0  0  0  0  0  0  0
   -6.5205    2.7838    0.0084 H   0  0  0  0  0  0  0  0  0  0  0  0
    8.4055    1.1703    0.0098 H   0  0  0  0  0  0  0  0  0  0  0  0
   -8.4051    1.1711    0.0083 H   0  0  0  0  0  0  0  0  0  0  0  0
   -3.1937   -1.6824   -0.0052 H   0  0  0  0  0  0  0  0  0  0  0  0
    3.1936   -1.6818   -0.0041 H   0  0  0  0  0  0  0  0  0  0  0  0
    1.1070   -1.3855   -0.0078 H   0  0  0  0  0  0  0  0  0  0  0  0
   -1.1068   -1.3860   -0.0071 H   0  0  0  0  0  0  0  0  0  0  0  0
   -6.4340   -2.8376   -0.0034 H   0  0  0  0  0  0  0  0  0  0  0  0
    6.4332   -2.8378    0.0118 H   0  0  0  0  0  0  0  0  0  0  0  0
  1 11  1  0  0  0  0
  1 35  1  0  0  0  0
  2 10  1  0  0  0  0
  2 36  1  0  0  0  0
  3 22  2  0  0  0  0
  4  7  1  0  0  0  0
  4 20  2  0  0  0  0
  5  6  1  0  0  0  0
  5 21  2  0  0  0  0
  6 22  1  0  0  0  0
  6 33  1  0  0  0  0
  7 22  1  0  0  0  0
  7 34  1  0  0  0  0
  8 11  1  0  0  0  0
  8 13  2  0  0  0  0
  8 20  1  0  0  0  0
  9 10  1  0  0  0  0
  9 12  2  0  0  0  0
  9 21  1  0  0  0  0
 10 14  2  0  0  0  0
 11 15  2  0  0  0  0
 12 16  1  0  0  0  0
 12 24  1  0  0  0  0
 13 17  1  0  0  0  0
 13 23  1  0  0  0  0
 14 18  1  0  0  0  0
 14 25  1  0  0  0  0
 15 19  1  0  0  0  0
 15 26  1  0  0  0  0
 16 18  2  0  0  0  0
 16 27  1  0  0  0  0
 17 19  2  0  0  0  0
 17 28  1  0  0  0  0
 18 29  1  0  0  0  0
 19 30  1  0  0  0  0
 20 31  1  0  0  0  0
 21 32  1  0  0  0  0
M  END
> <PUBCHEM_COMPOUND_CID>
135408529

> <PUBCHEM_CONFORMER_RMSD>
0.8

> <PUBCHEM_CONFORMER_DIVERSEORDER>
1
17
23
5
22
6
13
15
2
20
8
21
4
10
11
14
18
7
3
19
9
16
12

> <PUBCHEM_MMFF94_PARTIAL_CHARGES>
36
1 -0.53
10 0.08
11 0.08
12 -0.15
13 -0.15
14 -0.15
15 -0.15
16 -0.15
17 -0.15
18 -0.15
19 -0.15
2 -0.53
20 0.3
21 0.3
22 0.69
23 0.15
24 0.15
25 0.15
26 0.15
27 0.15
28 0.15
29 0.15
3 -0.57
30 0.15
31 0.06
32 0.06
33 0.37
34 0.37
35 0.45
36 0.45
4 -0.51
5 -0.51
6 -0.37
7 -0.37
8 0.09
9 0.09

> <PUBCHEM_EFFECTIVE_ROTOR_COUNT>
6

> <PUBCHEM_PHARMACOPHORE_FEATURES>
9
1 1 donor
1 2 donor
1 3 acceptor
1 4 acceptor
1 5 acceptor
1 6 donor
1 7 donor
6 8 11 13 15 17 19 rings
6 9 10 12 14 16 18 rings

> <PUBCHEM_HEAVY_ATOM_COUNT>
22

> <PUBCHEM_ATOM_DEF_STEREO_COUNT>
0

> <PUBCHEM_ATOM_UDEF_STEREO_COUNT>
0

> <PUBCHEM_BOND_DEF_STEREO_COUNT>
2

> <PUBCHEM_BOND_UDEF_STEREO_COUNT>
0

> <PUBCHEM_ISOTOPIC_ATOM_COUNT>
0

> <PUBCHEM_COMPONENT_COUNT>
1

> <PUBCHEM_CACTVS_TAUTO_COUNT>
-1

> <PUBCHEM_CONFORMER_ID>
08122B9100000001

> <PUBCHEM_MMFF94_ENERGY>
55.1321

> <PUBCHEM_FEATURE_SELFOVERLAP>
45.735

> <PUBCHEM_SHAPE_FINGERPRINT>
10050765 1 18050286968539561664
100830 39 18338797810773533153
10299344 5 18410575084663124386
10319688 140 14548196285522408652
11315181 36 18201721756837187377
11524674 6 16702018695255041903
11719270 70 17917711275610364318
12091667 2 18408324398090007227
12236239 1 18410856559639789575
12516196 113 18342175574654274336
13533116 47 17313375679134329930
13885169 127 18409166589310207949
14251764 18 18342176674265933989
14251764 46 18410573989446437929
14933364 13 18410856563934990720
15183329 4 18413108338026170081
15461852 350 17632569466982234141
15716309 27 18342737420974972543
15849732 13 18341894108198699597
17093844 174 18260829307070365753
18006028 8 17632576045869967353
20157964 124 18410857655806093810
20281389 69 18333731299472439509
21315763 28 18410855460128291717
22224240 67 17167861976022499970
23536379 177 18410575076162828273
23559900 14 18341043129818653137
4073 2 18113904913392353570
4325135 7 18412826889473514068
444735 82 18336829801214172572
4463277 17 18410855464423369444
5758199 1 17748827418716705642
67123 10 18411136957233843199
8209 1 18410855464423148588

> <PUBCHEM_SHAPE_MULTIPOLES>
415.22
26.89
1.79
0.59
0
0.3
0
-0.7
-0.08
0
0
0
-0.02
-0.01

> <PUBCHEM_SHAPE_SELFOVERLAP>
882.752

> <PUBCHEM_SHAPE_VOLUME>
228.9

> <PUBCHEM_COORDINATE_TYPE>
2
5
10

$$$$
