135413503
  -OEChem-03292013293D

 35 35  0     0  0  0  0  0  0999 V2000
   -1.3388    0.8681    1.5994 S   0  0  0  0  0  0  0  0  0  0  0  0
   -4.5392   -1.1746   -0.9829 N   0  0  0  0  0  0  0  0  0  0  0  0
   -4.6644    0.7778    0.0677 N   0  0  0  0  0  0  0  0  0  0  0  0
    1.6576    0.8435    0.9542 N   0  0  0  0  0  0  0  0  0  0  0  0
    3.3415   -0.6917    0.3837 N   0  0  0  0  0  0  0  0  0  0  0  0
    3.0521    1.2979   -0.9420 N   0  0  0  0  0  0  0  0  0  0  0  0
    4.9509    0.5309   -2.3806 N   0  0  0  0  0  0  0  0  0  0  0  0
   -3.3574    0.4872   -0.2338 C   0  0  0  0  0  0  0  0  0  0  0  0
   -2.2581    1.4385    0.1513 C   0  0  0  0  0  0  0  0  0  0  0  0
   -3.2546   -0.7190   -0.8857 C   0  0  0  0  0  0  0  0  0  0  0  0
   -0.1594    2.2415    1.7220 C   0  0  0  0  0  0  0  0  0  0  0  0
    0.9523    2.0887    0.6959 C   0  0  0  0  0  0  0  0  0  0  0  0
   -2.1063   -1.4712   -1.4148 C   0  0  0  0  0  0  0  0  0  0  0  0
   -5.3501   -0.2429   -0.3968 C   0  0  0  0  0  0  0  0  0  0  0  0
    2.6370    0.4850    0.1814 C   0  0  0  0  0  0  0  0  0  0  0  0
    3.0689   -1.6261    1.4519 C   0  0  0  0  0  0  0  0  0  0  0  0
    2.0612   -2.6055    1.0377 C   0  0  0  0  0  0  0  0  0  0  0  0
    4.0710    0.8823   -1.7108 C   0  0  0  0  0  0  0  0  0  0  0  0
    1.2360   -3.4103    0.7020 C   0  0  0  0  0  0  0  0  0  0  0  0
   -1.5849    1.5555   -0.7031 H   0  0  0  0  0  0  0  0  0  0  0  0
   -2.6956    2.4186    0.3700 H   0  0  0  0  0  0  0  0  0  0  0  0
    0.2615    2.2246    2.7332 H   0  0  0  0  0  0  0  0  0  0  0  0
   -0.6794    3.1968    1.5999 H   0  0  0  0  0  0  0  0  0  0  0  0
    1.6373    2.9377    0.8107 H   0  0  0  0  0  0  0  0  0  0  0  0
    0.5463    2.1181   -0.3210 H   0  0  0  0  0  0  0  0  0  0  0  0
   -4.8385   -2.0418   -1.4090 H   0  0  0  0  0  0  0  0  0  0  0  0
   -1.7438   -2.1871   -0.6703 H   0  0  0  0  0  0  0  0  0  0  0  0
   -2.3771   -2.0266   -2.3187 H   0  0  0  0  0  0  0  0  0  0  0  0
   -1.2790   -0.8028   -1.6735 H   0  0  0  0  0  0  0  0  0  0  0  0
   -6.4221   -0.3677   -0.3420 H   0  0  0  0  0  0  0  0  0  0  0  0
    4.0835   -0.9619   -0.2544 H   0  0  0  0  0  0  0  0  0  0  0  0
    3.9993   -2.1488    1.7008 H   0  0  0  0  0  0  0  0  0  0  0  0
    2.7558   -1.1042    2.3630 H   0  0  0  0  0  0  0  0  0  0  0  0
    2.5710    2.1716   -1.1240 H   0  0  0  0  0  0  0  0  0  0  0  0
    0.5026   -4.1225    0.4034 H   0  0  0  0  0  0  0  0  0  0  0  0
  1  9  1  0  0  0  0
  1 11  1  0  0  0  0
  2 10  1  0  0  0  0
  2 14  1  0  0  0  0
  2 26  1  0  0  0  0
  3  8  1  0  0  0  0
  3 14  2  0  0  0  0
  4 12  1  0  0  0  0
  4 15  2  0  0  0  0
  5 15  1  0  0  0  0
  5 16  1  0  0  0  0
  5 31  1  0  0  0  0
  6 15  1  0  0  0  0
  6 18  1  0  0  0  0
  6 34  1  0  0  0  0
  7 18  3  0  0  0  0
  8  9  1  0  0  0  0
  8 10  2  0  0  0  0
  9 20  1  0  0  0  0
  9 21  1  0  0  0  0
 10 13  1  0  0  0  0
 11 12  1  0  0  0  0
 11 22  1  0  0  0  0
 11 23  1  0  0  0  0
 12 24  1  0  0  0  0
 12 25  1  0  0  0  0
 13 27  1  0  0  0  0
 13 28  1  0  0  0  0
 13 29  1  0  0  0  0
 14 30  1  0  0  0  0
 16 17  1  0  0  0  0
 16 32  1  0  0  0  0
 16 33  1  0  0  0  0
 17 19  3  0  0  0  0
 19 35  1  0  0  0  0
M  END
> <PUBCHEM_COMPOUND_CID>
135413503

> <PUBCHEM_CONFORMER_RMSD>
1.2

> <PUBCHEM_CONFORMER_DIVERSEORDER>
1
49
33
38
12
56
76
66
42
7
64
4
77
28
5
39
18
68
17
70
45
40
62
23
15
75
73
53
16
19
31
65
74
46
58
30
35
13
69
34
36
50
26
3
59
32
41
8
43
37
27
44
63
6
67
14
57
61
47
29
20
60
52
51
71
25
9
11
55
22
54
48
10
21
72
2
24

> <PUBCHEM_MMFF94_PARTIAL_CHARGES>
24
1 -0.46
10 -0.33
11 0.23
12 0.25
13 0.18
14 0.04
15 0.55
16 0.57
17 -0.2
18 0.62
19 -0.18
2 0.03
26 0.27
3 -0.57
30 0.15
31 0.4
34 0.4
35 0.18
4 -0.7
5 -0.82
6 -0.51
7 -0.56
8 0.05
9 0.41

> <PUBCHEM_EFFECTIVE_ROTOR_COUNT>
8

> <PUBCHEM_PHARMACOPHORE_FEATURES>
8
1 19 hydrophobe
1 2 donor
1 5 donor
1 6 donor
1 7 acceptor
3 2 3 14 cation
4 4 5 6 15 cation
5 2 3 8 10 14 rings

> <PUBCHEM_HEAVY_ATOM_COUNT>
19

> <PUBCHEM_ATOM_DEF_STEREO_COUNT>
0

> <PUBCHEM_ATOM_UDEF_STEREO_COUNT>
0

> <PUBCHEM_BOND_DEF_STEREO_COUNT>
0

> <PUBCHEM_BOND_UDEF_STEREO_COUNT>
0

> <PUBCHEM_ISOTOPIC_ATOM_COUNT>
0

> <PUBCHEM_COMPONENT_COUNT>
1

> <PUBCHEM_CACTVS_TAUTO_COUNT>
-1

> <PUBCHEM_CONFORMER_ID>
08123EFF00000001

> <PUBCHEM_MMFF94_ENERGY>
32.1226

> <PUBCHEM_FEATURE_SELFOVERLAP>
40.626

> <PUBCHEM_SHAPE_FINGERPRINT>
10759866 29 18336830788269660316
12553582 1 18060419105934660113
12596599 1 17489308658637239659
12616999 72 18186799192649542992
12670545 2 18130497570526217199
12788726 201 17987809505636266569
13257819 101 15575293098382487406
15537594 2 18341902883112141195
20291156 8 18199453394780347803
20645477 70 17749115456746271008
235170 7 17240479208852487639
23532345 88 18115584816793021778
23598291 2 18194132819364244976
238 59 18187649132433662850
239999 70 17846492686359160248
314173 41 18059291067049812073
53917941 68 17826532234342190372

> <PUBCHEM_SHAPE_MULTIPOLES>
364.97
10.18
2.92
1.87
5.41
1.94
-0.49
0.72
-5.55
-1.76
1.3
-2.02
-0.25
-2.43

> <PUBCHEM_SHAPE_SELFOVERLAP>
713.215

> <PUBCHEM_SHAPE_VOLUME>
218.5

> <PUBCHEM_COORDINATE_TYPE>
2
5
10

$$$$
