REMARK  Name = 135409360
REMARK  10 active torsions:
REMARK  status: ('A' for Active; 'I' for Inactive)
REMARK    1  A    between atoms: C_1  and  C_2
REMARK    2  A    between atoms: C_1  and  C_12
REMARK    3  A    between atoms: C_2  and  C_3
REMARK    4  A    between atoms: C_3  and  N_4
REMARK    5  A    between atoms: C_3  and  C_9
REMARK    6  A    between atoms: C_9  and  O_10
REMARK    7  A    between atoms: C_12  and  N_13
REMARK    8  A    between atoms: N_13  and  C_16
REMARK    9  A    between atoms: N_14  and  C_20
REMARK   10  A    between atoms: C_20  and  C_21
REMARK                            x       y       z     vdW  Elec       q    Type
REMARK                         _______ _______ _______ _____ _____    ______ ____
ROOT
ATOM      1  C   UNK     1      -1.146  -1.408  -0.084  0.00  0.00    +0.025 C 
ENDROOT
BRANCH   1   2
ATOM      2  C   UNK     1      -1.449  -0.308   0.945  0.00  0.00    -0.009 C 
BRANCH   2   3
ATOM      3  C   UNK     1      -2.898   0.191   0.849  0.00  0.00    +0.036 C 
BRANCH   3   4
ATOM      4  N   UNK     1      -3.821  -0.928   1.022  0.00  0.00    +0.389 N 
ATOM      5  H   UNK     1      -3.653  -1.370   1.925  0.00  0.00    -0.088 HD
ATOM      6  H   UNK     1      -3.674  -1.608   0.277  0.00  0.00    -0.088 HD
ATOM      7  H   UNK     1      -4.781  -0.585   0.984  0.00  0.00    -0.088 HD
ENDBRANCH   3   4
BRANCH   3   9
ATOM      8  O   UNK     1      -4.065   0.367  -1.283  0.00  0.00    -0.253 OA
ATOM      9  C   UNK     1      -3.214   0.788  -0.510  0.00  0.00    +0.293 C 
BRANCH   9  10
ATOM     10  O   UNK     1      -2.454   1.883  -0.777  0.00  0.00    -0.482 OA
ATOM     11  H   UNK     1      -1.813   2.171  -0.157  0.00  0.00    +0.295 HD
ENDBRANCH   9  10
ENDBRANCH   3   9
ENDBRANCH   2   3
ENDBRANCH   1   2
BRANCH   1  12
ATOM     12  C   UNK     1       0.287  -1.922   0.020  0.00  0.00    +0.129 C 
BRANCH  12  13
ATOM     13  N   UNK     1       1.228  -0.833  -0.245  0.00  0.00    -0.240 NA
BRANCH  13  16
ATOM     14  N   UNK     1       3.468  -0.177  -0.473  0.00  0.00    -0.342 N 
ATOM     15  N   UNK     1       3.053  -2.368  -0.004  0.00  0.00    -0.370 N 
ATOM     16  C   UNK     1       2.491  -1.129  -0.236  0.00  0.00    +0.192 C 
ATOM     17  H   UNK     1       4.407  -0.471  -0.452  0.00  0.00    +0.164 HD
ATOM     18  H   UNK     1       2.476  -3.143   0.180  0.00  0.00    +0.159 HD
ATOM     19  H   UNK     1       4.031  -2.475  -0.023  0.00  0.00    +0.159 HD
BRANCH  14  20
ATOM     20  C   UNK     1       3.209   1.216  -0.750  0.00  0.00    +0.127 C 
BRANCH  20  21
ATOM     21  C   UNK     1       3.185   1.968   0.541  0.00  0.00    -0.002 C 
ATOM     22  C   UNK     1       2.127   2.657   0.985  0.00  0.00    -0.003 C 
ENDBRANCH  20  21
ENDBRANCH  14  20
ENDBRANCH  13  16
ENDBRANCH  12  13
ENDBRANCH   1  12
TORSDOF 10
