REMARK  Name = 135492908
REMARK  6 active torsions:
REMARK  status: ('A' for Active; 'I' for Inactive)
REMARK    1  A    between atoms: C_3  and  N_21
REMARK    2  A    between atoms: C_4  and  S_11
REMARK    3  A    between atoms: C_7  and  O_19
REMARK    4  A    between atoms: C_8  and  S_15
REMARK    5  A    between atoms: N_21  and  N_22
REMARK    6  A    between atoms: N_22  and  C_28
REMARK                            x       y       z     vdW  Elec       q    Type
REMARK                         _______ _______ _______ _____ _____    ______ ____
ROOT
ATOM      1  C   UNL     1       2.791  -0.477  -0.041  0.00  0.00    +0.004 C 
ATOM      2  C   UNL     1       1.609   0.271  -0.257  0.00  0.00    +0.020 C 
ATOM      3  C   UNL     1       0.378  -0.400  -0.337  0.00  0.00    +0.124 C 
ATOM      4  C   UNL     1       1.475  -2.522   0.008  0.00  0.00    +0.147 C 
ATOM      5  C   UNL     1       2.707  -1.873   0.090  0.00  0.00    +0.022 C 
ATOM      6  C   UNL     1       4.023   0.193   0.039  0.00  0.00    +0.019 C 
ATOM      7  C   UNL     1       0.313  -1.787  -0.205  0.00  0.00    +0.168 C 
ATOM      8  C   UNL     1       4.088   1.580  -0.093  0.00  0.00    +0.112 C 
ATOM      9  C   UNL     1       1.694   1.666  -0.388  0.00  0.00    +0.003 C 
ATOM     10  C   UNL     1       2.926   2.316  -0.306  0.00  0.00    +0.019 C 
ENDROOT
BRANCH   4  11
ATOM     11  S   UNL     1       1.421  -4.263   0.178  0.00  0.00    +0.045 S 
ATOM     12  O   UNL     1       1.048  -4.824  -1.310  0.00  0.00    -0.065 OA
ATOM     13  O   UNL     1       2.766  -4.723   0.483  0.00  0.00    -0.065 OA
ATOM     14  O   UNL     1       0.311  -4.564   1.068  0.00  0.00    -0.065 OA
ENDBRANCH   4  11
BRANCH   8  15
ATOM     15  S   UNL     1       5.630   2.395   0.010  0.00  0.00    +0.042 S 
ATOM     16  O   UNL     1       5.822   2.751   1.594  0.00  0.00    -0.065 OA
ATOM     17  O   UNL     1       6.669   1.437  -0.339  0.00  0.00    -0.065 OA
ATOM     18  O   UNL     1       5.498   3.645  -0.722  0.00  0.00    -0.065 OA
ENDBRANCH   8  15
BRANCH   7  19
ATOM     19  O   UNL     1      -0.893  -2.422  -0.286  0.00  0.00    -0.503 OA
ATOM     20  H   UNL     1      -1.675  -1.926  -0.430  0.00  0.00    +0.292 HD
ENDBRANCH   7  19
BRANCH   3  21
ATOM     21  N   UNL     1      -0.817   0.310  -0.552  0.00  0.00    -0.123 NA
BRANCH  21  22
ATOM     22  N   UNL     1      -1.315   0.640   0.547  0.00  0.00    -0.107 NA
BRANCH  22  28
ATOM     23 CL   UNL     1      -8.240   0.167  -0.236  0.00  0.00    -0.082 Cl
ATOM     24  N   UNL     1      -3.833   2.949   0.007  0.00  0.00    -0.274 N 
ATOM     25  N   UNL     1      -2.530   2.677   0.193  0.00  0.00    -0.154 NA
ATOM     26  C   UNL     1      -3.791   0.768   0.236  0.00  0.00    +0.054 A 
ATOM     27  C   UNL     1      -4.643   1.846   0.022  0.00  0.00    +0.078 A 
ATOM     28  C   UNL     1      -2.509   1.350   0.331  0.00  0.00    +0.190 A 
ATOM     29  C   UNL     1      -4.326  -0.529   0.304  0.00  0.00    +0.005 C 
ATOM     30  C   UNL     1      -6.024   1.706  -0.130  0.00  0.00    +0.030 C 
ATOM     31  C   UNL     1      -5.709  -0.691   0.153  0.00  0.00    +0.012 C 
ATOM     32  C   UNL     1      -6.542   0.408  -0.060  0.00  0.00    +0.059 C 
ATOM     33  H   UNL     1      -4.175   3.862  -0.128  0.00  0.00    +0.189 HD
ENDBRANCH  22  28
ENDBRANCH  21  22
ENDBRANCH   3  21
TORSDOF 6
