REMARK  Name = 135434940
REMARK  4 active torsions:
REMARK  status: ('A' for Active; 'I' for Inactive)
REMARK    1  A    between atoms: N_2  and  C_17
REMARK    2  A    between atoms: C_18  and  O_21
REMARK    3  A    between atoms: C_20  and  C_23
REMARK    4  A    between atoms: C_23  and  O_24
REMARK                            x       y       z     vdW  Elec       q    Type
REMARK                         _______ _______ _______ _____ _____    ______ ____
ROOT
ATOM      1  O   UNL     1       4.571   0.601  -0.137  0.00  0.00    -0.268 OA
ATOM      2  N   UNL     1       0.134   1.285   0.373  0.00  0.00    -0.236 N 
ATOM      3  N   UNL     1       2.145   2.260   0.298  0.00  0.00    -0.240 NA
ATOM      4  N   UNL     1       0.750  -1.031   0.032  0.00  0.00    -0.357 NA
ATOM      5  N   UNL     1       3.124  -1.230  -0.221  0.00  0.00    -0.243 N 
ATOM      6  N   UNL     1       1.741  -3.133  -0.318  0.00  0.00    -0.321 N 
ATOM      7  C   UNL     1       1.036   0.283   0.164  0.00  0.00    +0.211 C 
ATOM      8  C   UNL     1       0.850   2.455   0.446  0.00  0.00    +0.224 C 
ATOM      9  C   UNL     1       2.257   0.912   0.123  0.00  0.00    +0.176 C 
ATOM     10  C   UNL     1       3.443   0.129  -0.086  0.00  0.00    +0.273 C 
ATOM     11  C   UNL     1       1.819  -1.773  -0.161  0.00  0.00    +0.239 C 
ATOM     12  H   UNL     1       3.869  -1.857  -0.369  0.00  0.00    +0.159 HD
ATOM     13  H   UNL     1       0.866  -3.582  -0.289  0.00  0.00    +0.146 HD
ATOM     14  H   UNL     1       2.560  -3.660  -0.461  0.00  0.00    +0.146 HD
ENDROOT
BRANCH   2  17
ATOM     15  F   UNL     1      -1.400   0.575  -1.792  0.00  0.00    -0.230 F 
ATOM     16  O   UNL     1      -1.753  -0.090   1.115  0.00  0.00    -0.333 OA
ATOM     17  C   UNL     1      -1.363   1.152   0.501  0.00  0.00    +0.231 C 
ATOM     18  C   UNL     1      -3.367   0.449  -0.553  0.00  0.00    +0.177 C 
ATOM     19  C   UNL     1      -2.103   1.227  -0.828  0.00  0.00    +0.236 C 
ATOM     20  C   UNL     1      -2.917  -0.613   0.444  0.00  0.00    +0.176 C 
BRANCH  18  21
ATOM     21  O   UNL     1      -4.341   1.303   0.038  0.00  0.00    -0.379 OA
ATOM     22  H   UNL     1      -4.618   1.972  -0.607  0.00  0.00    +0.211 HD
ENDBRANCH  18  21
BRANCH  20  23
ATOM     23  C   UNL     1      -2.519  -1.923  -0.221  0.00  0.00    +0.169 C 
BRANCH  23  24
ATOM     24  O   UNL     1      -2.108  -2.835   0.783  0.00  0.00    -0.379 OA
ATOM     25  H   UNL     1      -1.851  -3.675   0.371  0.00  0.00    +0.211 HD
ENDBRANCH  23  24
ENDBRANCH  20  23
ENDBRANCH   2  17
TORSDOF 4
