REMARK  Name = 135448195
REMARK  7 active torsions:
REMARK  status: ('A' for Active; 'I' for Inactive)
REMARK    1  A    between atoms: C_2  and  C_11
REMARK    2  A    between atoms: C_3  and  C_22
REMARK    3  A    between atoms: C_4  and  O_8
REMARK    4  A    between atoms: N_10  and  C_11
REMARK    5  A    between atoms: N_10  and  N_13
REMARK    6  A    between atoms: C_14  and  C_17
REMARK    7  A    between atoms: C_22  and  O_23
REMARK                            x       y       z     vdW  Elec       q    Type
REMARK                         _______ _______ _______ _____ _____    ______ ____
ROOT
ATOM      1  N   UNL     1      -2.819   1.875   1.021  0.00  0.00    -0.245 NA
ATOM      2  C   UNL     1      -2.006  -0.456  -0.291  0.00  0.00    +0.032 C 
ATOM      3  C   UNL     1      -2.219  -0.467   1.083  0.00  0.00    +0.026 C 
ATOM      4  C   UNL     1      -2.198   0.719  -1.010  0.00  0.00    +0.144 C 
ATOM      5  C   UNL     1      -2.601   1.847  -0.313  0.00  0.00    +0.093 C 
ATOM      6  C   UNL     1      -2.621   0.714   1.686  0.00  0.00    +0.096 C 
ATOM      7  C   UNL     1      -2.823   3.135  -1.036  0.00  0.00    +0.055 C 
ENDROOT
BRANCH   4   8
ATOM      8  O   UNL     1      -1.998   0.762  -2.354  0.00  0.00    -0.505 OA
ATOM      9  H   UNL     1      -1.725  -0.009  -2.812  0.00  0.00    +0.292 HD
ENDBRANCH   4   8
BRANCH   2  10
ATOM     10  C   UNL     1      -1.577  -1.682  -0.986  0.00  0.00    +0.141 C 
BRANCH  10  11
ATOM     11  N   UNL     1      -0.328  -1.979  -1.144  0.00  0.00    -0.126 NA
BRANCH  11  13
ATOM     12  O   UNL     1       2.389  -2.268  -1.283  0.00  0.00    -0.269 OA
ATOM     13  N   UNL     1       0.524  -1.068  -0.617  0.00  0.00    -0.228 N 
ATOM     14  C   UNL     1       1.902  -1.270  -0.719  0.00  0.00    +0.260 C 
ATOM     15  H   UNL     1       0.174  -0.267  -0.164  0.00  0.00    +0.171 HD
BRANCH  14  17
ATOM     16  N   UNL     1       4.417   1.724   0.944  0.00  0.00    -0.242 NA
ATOM     17  C   UNL     1       2.763  -0.246  -0.152  0.00  0.00    +0.058 C 
ATOM     18  C   UNL     1       4.036  -0.575   0.301  0.00  0.00    +0.025 C 
ATOM     19  C   UNL     1       2.316   1.068  -0.057  0.00  0.00    +0.025 C 
ATOM     20  C   UNL     1       4.817   0.437   0.835  0.00  0.00    +0.099 C 
ATOM     21  C   UNL     1       3.174   2.006   0.494  0.00  0.00    +0.099 C 
ENDBRANCH  14  17
ENDBRANCH  11  13
ENDBRANCH  10  11
ENDBRANCH   2  10
BRANCH   3  22
ATOM     22  C   UNL     1      -2.029  -1.694   1.906  0.00  0.00    +0.165 C 
BRANCH  22  23
ATOM     23  O   UNL     1      -3.119  -2.583   1.690  0.00  0.00    -0.377 OA
ATOM     24  H   UNL     1      -2.995  -3.382   2.226  0.00  0.00    +0.211 HD
ENDBRANCH  22  23
ENDBRANCH   3  22
TORSDOF 7
