135440049
  -OEChem-03292013293D

 51 54  0     1  0  0  0  0  0999 V2000
    3.0679   -0.2188    2.2445 O   0  0  0  0  0  0  0  0  0  0  0  0
    2.9366   -1.8906   -1.0071 O   0  0  0  0  0  0  0  0  0  0  0  0
    2.7948    2.0750    0.7478 O   0  0  0  0  0  0  0  0  0  0  0  0
    0.9470   -2.1714    2.0227 O   0  0  0  0  0  0  0  0  0  0  0  0
   -1.7707   -2.6276    0.7365 O   0  0  0  0  0  0  0  0  0  0  0  0
   -2.9689    2.4371   -0.6141 O   0  0  0  0  0  0  0  0  0  0  0  0
    3.1225   -4.1696   -0.6783 O   0  0  0  0  0  0  0  0  0  0  0  0
    3.6841    2.8796   -1.2267 O   0  0  0  0  0  0  0  0  0  0  0  0
   -5.4935    1.9002   -0.6421 O   0  0  0  0  0  0  0  0  0  0  0  0
    0.0796    2.7502   -0.5283 N   0  3  0  0  0  0  0  0  0  0  0  0
    0.2086    3.8535   -0.8152 N   0  5  0  0  0  0  0  0  0  0  0  0
    3.2509   -0.3241    0.8261 C   0  0  1  0  0  0  0  0  0  0  0  0
    2.6882   -1.7025    0.3864 C   0  0  1  0  0  0  0  0  0  0  0  0
    2.4945    0.8332    0.1177 C   0  0  1  0  0  0  0  0  0  0  0  0
    1.1660   -1.8449    0.6522 C   0  0  2  0  0  0  0  0  0  0  0  0
    1.0308    0.5830    0.1020 C   0  0  0  0  0  0  0  0  0  0  0  0
    0.4174   -0.5838    0.3505 C   0  0  0  0  0  0  0  0  0  0  0  0
   -1.0138   -0.4412    0.2287 C   0  0  0  0  0  0  0  0  0  0  0  0
    4.7578   -0.2242    0.5554 C   0  0  0  0  0  0  0  0  0  0  0  0
   -0.0672    1.4905   -0.2004 C   0  0  0  0  0  0  0  0  0  0  0  0
   -1.3506    0.8074   -0.1047 C   0  0  0  0  0  0  0  0  0  0  0  0
   -2.0467   -1.4763    0.4263 C   0  0  0  0  0  0  0  0  0  0  0  0
   -2.7192    1.2797   -0.3086 C   0  0  0  0  0  0  0  0  0  0  0  0
   -3.4577   -1.0545    0.2307 C   0  0  0  0  0  0  0  0  0  0  0  0
   -3.7803    0.2650   -0.1211 C   0  0  0  0  0  0  0  0  0  0  0  0
    3.1371   -3.1819   -1.4004 C   0  0  0  0  0  0  0  0  0  0  0  0
    3.3919    3.0133   -0.0461 C   0  0  0  0  0  0  0  0  0  0  0  0
   -5.1179    0.6352   -0.2998 C   0  0  0  0  0  0  0  0  0  0  0  0
   -4.4795   -1.9957    0.4024 C   0  0  0  0  0  0  0  0  0  0  0  0
    3.3845   -3.2260   -2.8778 C   0  0  0  0  0  0  0  0  0  0  0  0
    3.6473    4.2598    0.7457 C   0  0  0  0  0  0  0  0  0  0  0  0
   -6.1298   -0.3093   -0.1274 C   0  0  0  0  0  0  0  0  0  0  0  0
   -5.8117   -1.6205    0.2229 C   0  0  0  0  0  0  0  0  0  0  0  0
    3.2160   -2.4668    0.9748 H   0  0  0  0  0  0  0  0  0  0  0  0
    2.8014    0.8309   -0.9368 H   0  0  0  0  0  0  0  0  0  0  0  0
    0.7622   -2.6603    0.0412 H   0  0  0  0  0  0  0  0  0  0  0  0
    4.9840   -0.2421   -0.5154 H   0  0  0  0  0  0  0  0  0  0  0  0
    5.1726    0.6960    0.9818 H   0  0  0  0  0  0  0  0  0  0  0  0
    5.2940   -1.0518    1.0340 H   0  0  0  0  0  0  0  0  0  0  0  0
    3.5563   -0.9462    2.6664 H   0  0  0  0  0  0  0  0  0  0  0  0
    1.3832   -3.0234    2.1940 H   0  0  0  0  0  0  0  0  0  0  0  0
   -4.2603   -3.0245    0.6750 H   0  0  0  0  0  0  0  0  0  0  0  0
    2.5144   -2.8344   -3.4107 H   0  0  0  0  0  0  0  0  0  0  0  0
    3.5460   -4.2623   -3.1879 H   0  0  0  0  0  0  0  0  0  0  0  0
    4.2785   -2.6463   -3.1210 H   0  0  0  0  0  0  0  0  0  0  0  0
    2.7059    4.6467    1.1436 H   0  0  0  0  0  0  0  0  0  0  0  0
    4.0867    5.0200    0.0937 H   0  0  0  0  0  0  0  0  0  0  0  0
    4.3485    4.0453    1.5560 H   0  0  0  0  0  0  0  0  0  0  0  0
   -7.1713   -0.0303   -0.2644 H   0  0  0  0  0  0  0  0  0  0  0  0
   -6.6030   -2.3526    0.3564 H   0  0  0  0  0  0  0  0  0  0  0  0
   -4.7207    2.4764   -0.7377 H   0  0  0  0  0  0  0  0  0  0  0  0
  1 12  1  0  0  0  0
  1 40  1  0  0  0  0
  2 13  1  0  0  0  0
  2 26  1  0  0  0  0
  3 14  1  0  0  0  0
  3 27  1  0  0  0  0
  4 15  1  0  0  0  0
  4 41  1  0  0  0  0
  5 22  2  0  0  0  0
  6 23  2  0  0  0  0
  7 26  2  0  0  0  0
  8 27  2  0  0  0  0
  9 28  1  0  0  0  0
  9 51  1  0  0  0  0
 10 11  2  0  0  0  0
 10 20  2  0  0  0  0
 12 13  1  0  0  0  0
 12 14  1  0  0  0  0
 12 19  1  0  0  0  0
 13 15  1  0  0  0  0
 13 34  1  0  0  0  0
 14 16  1  0  0  0  0
 14 35  1  0  0  0  0
 15 17  1  0  0  0  0
 15 36  1  0  0  0  0
 16 17  2  0  0  0  0
 16 20  1  0  0  0  0
 17 18  1  0  0  0  0
 18 21  2  0  0  0  0
 18 22  1  0  0  0  0
 19 37  1  0  0  0  0
 19 38  1  0  0  0  0
 19 39  1  0  0  0  0
 20 21  1  0  0  0  0
 21 23  1  0  0  0  0
 22 24  1  0  0  0  0
 23 25  1  0  0  0  0
 24 25  2  0  0  0  0
 24 29  1  0  0  0  0
 25 28  1  0  0  0  0
 26 30  1  0  0  0  0
 27 31  1  0  0  0  0
 28 32  2  0  0  0  0
 29 33  2  0  0  0  0
 29 42  1  0  0  0  0
 30 43  1  0  0  0  0
 30 44  1  0  0  0  0
 30 45  1  0  0  0  0
 31 46  1  0  0  0  0
 31 47  1  0  0  0  0
 31 48  1  0  0  0  0
 32 33  1  0  0  0  0
 32 49  1  0  0  0  0
 33 50  1  0  0  0  0
M  CHG  2  10   1  11  -1
M  END
> <PUBCHEM_COMPOUND_CID>
135440049

> <PUBCHEM_CONFORMER_RMSD>
0.8

> <PUBCHEM_CONFORMER_DIVERSEORDER>
1
2
3

> <PUBCHEM_MMFF94_PARTIAL_CHARGES>
38
1 -0.68
10 0.36
11 -0.37
12 0.28
13 0.28
14 0.42
15 0.42
16 -0.12
17 -0.14
18 0.01
2 -0.43
20 -0.02
21 0.03
22 0.47
23 0.47
24 0.09
25 0.09
26 0.66
27 0.66
28 0.08
29 -0.15
3 -0.43
30 0.06
31 0.06
32 -0.15
33 -0.15
4 -0.68
40 0.4
41 0.4
42 0.15
49 0.15
5 -0.57
50 0.15
51 0.45
6 -0.57
7 -0.57
8 -0.57
9 -0.53

> <PUBCHEM_EFFECTIVE_ROTOR_COUNT>
4.8

> <PUBCHEM_PHARMACOPHORE_FEATURES>
14
1 1 acceptor
1 1 donor
1 10 acceptor
1 4 acceptor
1 4 donor
1 5 acceptor
1 6 acceptor
1 7 acceptor
1 8 acceptor
1 9 donor
5 16 17 18 20 21 rings
6 12 13 14 15 16 17 rings
6 18 21 22 23 24 25 rings
6 24 25 28 29 32 33 rings

> <PUBCHEM_HEAVY_ATOM_COUNT>
33

> <PUBCHEM_ATOM_DEF_STEREO_COUNT>
4

> <PUBCHEM_ATOM_UDEF_STEREO_COUNT>
0

> <PUBCHEM_BOND_DEF_STEREO_COUNT>
0

> <PUBCHEM_BOND_UDEF_STEREO_COUNT>
1

> <PUBCHEM_ISOTOPIC_ATOM_COUNT>
0

> <PUBCHEM_COMPONENT_COUNT>
1

> <PUBCHEM_CACTVS_TAUTO_COUNT>
-1

> <PUBCHEM_CONFORMER_ID>
0812A6B100000001

> <PUBCHEM_MMFF94_ENERGY>
88.5794

> <PUBCHEM_FEATURE_SELFOVERLAP>
71.21

> <PUBCHEM_SHAPE_FINGERPRINT>
10906281 52 17897456213952609905
11513181 2 18343021142378140615
11578080 2 16806980252352847973
131258 43 17702401567690929508
13140716 1 18261660554445124656
13583140 156 16772935026261741219
13757389 114 17330283182519412932
14790565 3 18261955253768622545
15081414 286 18336838584178887721
15196674 1 18334289916273156233
15219462 58 17131847498282661179
15420108 30 17909532189120907272
15664445 248 18408606954939702906
15927050 60 17041483284961751660
17909252 39 18342751688750704902
18681886 176 18341043116917628264
1979834 28 18271802470963161064
20028762 73 17836649995669157815
21033648 29 17916565601916158147
21133410 32 16666048176890702330
21197605 99 18120938562405861395
21267235 1 18334859420024866059
22149856 69 18265629839409490883
22182313 1 18338507543845143871
22393880 68 18189049794710820951
23559900 14 18341329989961601055
239999 70 18409727361441059762
335352 9 18334288760784379493
3411729 13 18189047767243917528
350125 39 18261386789145778048
376196 1 18193267714340513480
38695281 34 18053385688896800372
46194498 28 18341619217422989630
5081480 168 18053138126697230182
5104073 3 18260826034068247865
59755656 215 18335423495565647980
6669772 16 17986966339558690444
6823239 73 18268427936670973034
70251023 43 18266750086216445779
9709674 26 18410575072211245947

> <PUBCHEM_SHAPE_MULTIPOLES>
616.34
11.26
4.82
1.38
13.79
1.1
0.31
-0.42
0.79
-6.34
1.74
-1.77
-1.11
2.26

> <PUBCHEM_SHAPE_SELFOVERLAP>
1371.718

> <PUBCHEM_SHAPE_VOLUME>
323.9

> <PUBCHEM_COORDINATE_TYPE>
2
5
10

$$$$
