REMARK  Name = 135408529
REMARK  8 active torsions:
REMARK  status: ('A' for Active; 'I' for Inactive)
REMARK    1  A    between atoms: N_2  and  N_17
REMARK    2  A    between atoms: N_3  and  N_7
REMARK    3  A    between atoms: N_7  and  C_8
REMARK    4  A    between atoms: C_8  and  C_9
REMARK    5  A    between atoms: C_10  and  O_15
REMARK    6  A    between atoms: N_17  and  C_18
REMARK    7  A    between atoms: C_18  and  C_19
REMARK    8  A    between atoms: C_20  and  O_25
REMARK                            x       y       z     vdW  Elec       q    Type
REMARK                         _______ _______ _______ _____ _____    ______ ____
ROOT
ATOM      1  O   UNL     1       0.000   1.642  -0.005  0.00  0.00    -0.250 OA
ATOM      2  N   UNL     1       1.147  -0.371  -0.008  0.00  0.00    -0.215 N 
ATOM      3  N   UNL     1      -1.147  -0.372  -0.006  0.00  0.00    -0.215 N 
ATOM      4  C   UNL     1       0.000   0.411  -0.006  0.00  0.00    +0.330 C 
ATOM      5  H   UNL     1       1.081  -1.354  -0.009  0.00  0.00    +0.172 HD
ATOM      6  H   UNL     1      -1.080  -1.354  -0.007  0.00  0.00    +0.172 HD
ENDROOT
BRANCH   3   7
ATOM      7  N   UNL     1      -2.355   0.234  -0.003  0.00  0.00    -0.125 NA
BRANCH   7   8
ATOM      8  C   UNL     1      -3.354  -0.589  -0.003  0.00  0.00    +0.141 C 
BRANCH   8   9
ATOM      9  C   UNL     1      -4.750  -0.120   0.001  0.00  0.00    +0.031 C 
ATOM     10  C   UNL     1      -5.810  -1.026   0.001  0.00  0.00    +0.131 C 
ATOM     11  C   UNL     1      -5.006   1.252   0.004  0.00  0.00    +0.000 C 
ATOM     12  C   UNL     1      -7.125  -0.562   0.004  0.00  0.00    +0.036 C 
ATOM     13  C   UNL     1      -6.321   1.716   0.006  0.00  0.00    -0.000 C 
ATOM     14  C   UNL     1      -7.381   0.809   0.006  0.00  0.00    +0.003 C 
BRANCH  10  15
ATOM     15  O   UNL     1      -5.581  -2.370  -0.004  0.00  0.00    -0.506 OA
ATOM     16  H   UNL     1      -4.703  -2.695  -0.005  0.00  0.00    +0.292 HD
ENDBRANCH  10  15
ENDBRANCH   8   9
ENDBRANCH   7   8
ENDBRANCH   3   7
BRANCH   2  17
ATOM     17  N   UNL     1       2.355   0.234  -0.007  0.00  0.00    -0.125 NA
BRANCH  17  18
ATOM     18  C   UNL     1       3.353  -0.588  -0.005  0.00  0.00    +0.141 C 
BRANCH  18  19
ATOM     19  C   UNL     1       4.750  -0.119  -0.002  0.00  0.00    +0.031 C 
ATOM     20  C   UNL     1       5.810  -1.026   0.004  0.00  0.00    +0.131 C 
ATOM     21  C   UNL     1       5.006   1.252  -0.003  0.00  0.00    +0.000 C 
ATOM     22  C   UNL     1       7.125  -0.562   0.008  0.00  0.00    +0.036 C 
ATOM     23  C   UNL     1       6.322   1.716   0.001  0.00  0.00    -0.000 C 
ATOM     24  C   UNL     1       7.381   0.809   0.006  0.00  0.00    +0.003 C 
BRANCH  20  25
ATOM     25  O   UNL     1       5.581  -2.370   0.008  0.00  0.00    -0.506 OA
ATOM     26  H   UNL     1       4.702  -2.695   0.005  0.00  0.00    +0.292 HD
ENDBRANCH  20  25
ENDBRANCH  18  19
ENDBRANCH  17  18
ENDBRANCH   2  17
TORSDOF 8
