REMARK  Name = 135433653
REMARK  3 active torsions:
REMARK  status: ('A' for Active; 'I' for Inactive)
REMARK    1  A    between atoms: N_2  and  C_16
REMARK    2  A    between atoms: C_19  and  C_20
REMARK    3  A    between atoms: C_20  and  O_21
REMARK                            x       y       z     vdW  Elec       q    Type
REMARK                         _______ _______ _______ _____ _____    ______ ____
ROOT
ATOM      1  O   UNL     1       5.032   0.882  -0.225  0.00  0.00    -0.268 OA
ATOM      2  N   UNL     1       0.558   1.270   0.278  0.00  0.00    -0.239 N 
ATOM      3  N   UNL     1       2.498   2.379   0.180  0.00  0.00    -0.240 NA
ATOM      4  N   UNL     1       1.332  -1.004  -0.018  0.00  0.00    -0.357 NA
ATOM      5  N   UNL     1       3.714  -1.045  -0.270  0.00  0.00    -0.243 N 
ATOM      6  N   UNL     1       2.465  -3.039  -0.327  0.00  0.00    -0.321 N 
ATOM      7  C   UNL     1       1.527   0.329   0.088  0.00  0.00    +0.211 C 
ATOM      8  C   UNL     1       1.192   2.488   0.327  0.00  0.00    +0.224 C 
ATOM      9  C   UNL     1       2.701   1.039   0.033  0.00  0.00    +0.176 C 
ATOM     10  C   UNL     1       3.939   0.335  -0.163  0.00  0.00    +0.273 C 
ATOM     11  C   UNL     1       2.449  -1.675  -0.197  0.00  0.00    +0.239 C 
ATOM     12  H   UNL     1       4.500  -1.622  -0.406  0.00  0.00    +0.159 HD
ATOM     13  H   UNL     1       1.622  -3.547  -0.287  0.00  0.00    +0.146 HD
ATOM     14  H   UNL     1       3.318  -3.512  -0.460  0.00  0.00    +0.146 HD
ENDROOT
BRANCH   2  16
ATOM     15  O   UNL     1      -1.215  -0.225   1.037  0.00  0.00    -0.337 OA
ATOM     16  C   UNL     1      -0.926   1.038   0.411  0.00  0.00    +0.195 C 
ATOM     17  C   UNL     1      -2.869   0.181  -0.632  0.00  0.00    +0.037 C 
ATOM     18  C   UNL     1      -1.653   1.027  -0.928  0.00  0.00    +0.054 C 
ATOM     19  C   UNL     1      -2.348  -0.829   0.383  0.00  0.00    +0.146 C 
BRANCH  19  20
ATOM     20  C   UNL     1      -1.880  -2.123  -0.270  0.00  0.00    +0.167 C 
BRANCH  20  21
ATOM     21  O   UNL     1      -1.404  -2.994   0.742  0.00  0.00    -0.379 OA
ATOM     22  H   UNL     1      -1.103  -3.823   0.339  0.00  0.00    +0.211 HD
ENDBRANCH  20  21
ENDBRANCH  19  20
ENDBRANCH   2  16
TORSDOF 3
REMARK  Name = 135433653
REMARK  3 active torsions:
REMARK  status: ('A' for Active; 'I' for Inactive)
REMARK    1  A    between atoms: N_2  and  C_16
REMARK    2  A    between atoms: C_19  and  C_20
REMARK    3  A    between atoms: C_20  and  O_21
REMARK                            x       y       z     vdW  Elec       q    Type
REMARK                         _______ _______ _______ _____ _____    ______ ____
ROOT
ATOM      1  N   UNL     1      -5.068   0.643  -0.156  0.00  0.00    +0.000 NA
ATOM      2  N   UNL     1      -6.149   0.307  -0.295  0.00  0.00    +0.000 NA
ENDROOT
TORSDOF 0
