REMARK  Name = 135435112
REMARK  5 active torsions:
REMARK  status: ('A' for Active; 'I' for Inactive)
REMARK    1  A    between atoms: N_3  and  C1*_18
REMARK    2  A    between atoms: C2*_19  and  O2*_22
REMARK    3  A    between atoms: C3*_20  and  O3*_24
REMARK    4  A    between atoms: C4*_21  and  C5*_26
REMARK    5  A    between atoms: C5*_26  and  O5*_27
REMARK                            x       y       z     vdW  Elec       q    Type
REMARK                         _______ _______ _______ _____ _____    ______ ____
ROOT
ATOM      1  S   UNL     1       0.790  -3.758  -0.364  0.00  0.00    -0.018 S 
ATOM      2  O   UNL     1       4.339   0.776   0.343  0.00  0.00    -0.272 OA
ATOM      3  N   UNL     1       0.177  -1.040  -0.306  0.00  0.00    -0.222 N 
ATOM      4  N   UNL     1       2.383  -1.492  -0.036  0.00  0.00    -0.276 N 
ATOM      5  N   UNL     1       0.307   1.393  -0.163  0.00  0.00    -0.360 NA
ATOM      6  N   UNL     1       2.513   2.197   0.171  0.00  0.00    -0.246 N 
ATOM      7  N   UNL     1       0.719   3.697   0.009  0.00  0.00    -0.321 N 
ATOM      8  C   UNL     1       0.871   0.149  -0.153  0.00  0.00    +0.197 C 
ATOM      9  C   UNL     1       1.112  -2.127  -0.238  0.00  0.00    +0.146 C 
ATOM     10  C   UNL     1       2.170  -0.134   0.005  0.00  0.00    +0.219 C 
ATOM     11  C   UNL     1       3.137   0.953   0.191  0.00  0.00    +0.255 C 
ATOM     12  C   UNL     1       3.683  -2.121   0.104  0.00  0.00    +0.115 C 
ATOM     13  C   UNL     1       1.137   2.392  -0.002  0.00  0.00    +0.239 C 
ATOM     14  H   UNL     1       3.078   2.995   0.287  0.00  0.00    +0.159 HD
ATOM     15  H   UNL     1      -0.236   3.909  -0.107  0.00  0.00    +0.146 HD
ATOM     16  H   UNL     1       1.372   4.423   0.134  0.00  0.00    +0.146 HD
ENDROOT
BRANCH   3  18
ATOM     17  O4* UNL     1      -1.663   0.069  -1.227  0.00  0.00    -0.333 OA
ATOM     18  C1* UNL     1      -1.244  -1.096  -0.497  0.00  0.00    +0.229 C 
ATOM     19  C2* UNL     1      -2.007  -1.082   0.816  0.00  0.00    +0.187 C 
ATOM     20  C3* UNL     1      -3.300  -0.400   0.420  0.00  0.00    +0.171 C 
ATOM     21  C4* UNL     1      -2.817   0.645  -0.576  0.00  0.00    +0.175 C 
BRANCH  19  22
ATOM     22  O2* UNL     1      -2.222  -2.380   1.333  0.00  0.00    -0.378 OA
ATOM     23  H2* UNL     1      -1.370  -2.777   1.572  0.00  0.00    +0.211 HD
ENDBRANCH  19  22
BRANCH  20  24
ATOM     24  O3* UNL     1      -4.149  -1.312  -0.276  0.00  0.00    -0.379 OA
ATOM     25  H3* UNL     1      -4.470  -1.989   0.340  0.00  0.00    +0.211 HD
ENDBRANCH  20  24
BRANCH  21  26
ATOM     26  C5* UNL     1      -2.389   1.951   0.081  0.00  0.00    +0.169 C 
BRANCH  26  27
ATOM     27  O5* UNL     1      -3.546   2.718   0.363  0.00  0.00    -0.379 OA
ATOM     28  H5* UNL     1      -3.286   3.553   0.782  0.00  0.00    +0.211 HD
ENDBRANCH  26  27
ENDBRANCH  21  26
ENDBRANCH   3  18
TORSDOF 5
