135450599
  -OEChem-03292013293D

 54 57  0     1  0  0  0  0  0999 V2000
    4.3406    2.3794    0.4482 O   0  0  0  0  0  0  0  0  0  0  0  0
   -3.9832   -1.0257   -1.9660 O   0  0  0  0  0  0  0  0  0  0  0  0
   -5.5819    2.7089    1.0115 O   0  5  0  0  0  0  0  0  0  0  0  0
   -6.2256    3.0596   -1.1529 O   0  0  0  0  0  0  0  0  0  0  0  0
  -10.0062   -0.7191    0.8048 O   0  0  0  0  0  0  0  0  0  0  0  0
   -8.2047   -1.6991    1.7806 O   0  0  0  0  0  0  0  0  0  0  0  0
    4.1199   -0.5023    0.3096 N   0  3  0  0  0  0  0  0  0  0  0  0
    1.9840   -1.0591    0.0885 N   0  0  0  0  0  0  0  0  0  0  0  0
    6.4189   -1.8778    0.0544 N   0  0  0  0  0  0  0  0  0  0  0  0
    7.7130    0.1501    0.0956 N   0  0  0  0  0  0  0  0  0  0  0  0
    6.6109    2.2177    0.1875 N   0  0  0  0  0  0  0  0  0  0  0  0
   -4.1290    0.5999   -0.3188 N   0  0  0  0  0  0  0  0  0  0  0  0
    8.9370    2.1457    0.0476 N   0  0  0  0  0  0  0  0  0  0  0  0
    4.0945   -1.9399    0.6567 C   0  0  1  0  0  0  0  0  0  0  0  0
    2.6544   -2.3550    0.3201 C   0  0  0  0  0  0  0  0  0  0  0  0
    5.1925   -2.6332   -0.1296 C   0  0  0  0  0  0  0  0  0  0  0  0
    2.8908   -0.0957    0.0628 C   0  0  0  0  0  0  0  0  0  0  0  0
    5.3118    0.2012    0.2448 C   0  0  0  0  0  0  0  0  0  0  0  0
    6.4838   -0.4832    0.1435 C   0  0  0  0  0  0  0  0  0  0  0  0
    0.6809   -0.8874   -0.1929 C   0  0  0  0  0  0  0  0  0  0  0  0
    5.3414    1.6887    0.2939 C   0  0  0  0  0  0  0  0  0  0  0  0
    0.0661    0.3373    0.0679 C   0  0  0  0  0  0  0  0  0  0  0  0
   -0.0568   -1.9345   -0.7453 C   0  0  0  0  0  0  0  0  0  0  0  0
    7.7583    1.4505    0.1077 C   0  0  0  0  0  0  0  0  0  0  0  0
   -1.2863    0.5148   -0.2236 C   0  0  0  0  0  0  0  0  0  0  0  0
   -1.4092   -1.7569   -1.0367 C   0  0  0  0  0  0  0  0  0  0  0  0
   -2.0240   -0.5324   -0.7757 C   0  0  0  0  0  0  0  0  0  0  0  0
   -5.5370    0.8811   -0.4847 C   0  0  1  0  0  0  0  0  0  0  0  0
   -3.4341   -0.3474   -1.0797 C   0  0  0  0  0  0  0  0  0  0  0  0
   -6.3639   -0.0768    0.3802 C   0  0  0  0  0  0  0  0  0  0  0  0
   -7.8700    0.0984    0.1721 C   0  0  0  0  0  0  0  0  0  0  0  0
   -5.8152    2.3634   -0.1825 C   0  0  0  0  0  0  0  0  0  0  0  0
   -8.6716   -0.8715    1.0103 C   0  0  0  0  0  0  0  0  0  0  0  0
    4.2694   -2.0270    1.7371 H   0  0  0  0  0  0  0  0  0  0  0  0
    2.6161   -2.9655   -0.5879 H   0  0  0  0  0  0  0  0  0  0  0  0
    2.1833   -2.8850    1.1541 H   0  0  0  0  0  0  0  0  0  0  0  0
    5.3258   -3.6644    0.2120 H   0  0  0  0  0  0  0  0  0  0  0  0
    4.9538   -2.6599   -1.1990 H   0  0  0  0  0  0  0  0  0  0  0  0
    2.6551    0.9174   -0.2080 H   0  0  0  0  0  0  0  0  0  0  0  0
    7.3074   -2.3545   -0.0593 H   0  0  0  0  0  0  0  0  0  0  0  0
    0.6056    1.1674    0.5147 H   0  0  0  0  0  0  0  0  0  0  0  0
    0.3917   -2.8985   -0.9647 H   0  0  0  0  0  0  0  0  0  0  0  0
    6.7092    3.2285    0.2045 H   0  0  0  0  0  0  0  0  0  0  0  0
   -1.7188    1.4917   -0.0286 H   0  0  0  0  0  0  0  0  0  0  0  0
   -1.9673   -2.5862   -1.4636 H   0  0  0  0  0  0  0  0  0  0  0  0
   -5.7884    0.6951   -1.5371 H   0  0  0  0  0  0  0  0  0  0  0  0
   -6.0864   -1.1140    0.1496 H   0  0  0  0  0  0  0  0  0  0  0  0
   -6.1217    0.0678    1.4416 H   0  0  0  0  0  0  0  0  0  0  0  0
   -3.6635    1.0654    0.4533 H   0  0  0  0  0  0  0  0  0  0  0  0
    9.8280    1.6646   -0.0109 H   0  0  0  0  0  0  0  0  0  0  0  0
    8.9546    3.1596    0.0598 H   0  0  0  0  0  0  0  0  0  0  0  0
   -8.1778    1.1113    0.4523 H   0  0  0  0  0  0  0  0  0  0  0  0
   -8.1201   -0.0744   -0.8805 H   0  0  0  0  0  0  0  0  0  0  0  0
  -10.5329   -1.3463    1.3448 H   0  0  0  0  0  0  0  0  0  0  0  0
  1 21  2  0  0  0  0
  2 29  2  0  0  0  0
  3 32  1  0  0  0  0
  4 32  2  0  0  0  0
  5 33  1  0  0  0  0
  5 54  1  0  0  0  0
  6 33  2  0  0  0  0
  7 14  1  0  0  0  0
  7 17  2  0  0  0  0
  7 18  1  0  0  0  0
  8 15  1  0  0  0  0
  8 17  1  0  0  0  0
  8 20  1  0  0  0  0
  9 16  1  0  0  0  0
  9 19  1  0  0  0  0
  9 40  1  0  0  0  0
 10 19  1  0  0  0  0
 10 24  2  0  0  0  0
 11 21  1  0  0  0  0
 11 24  1  0  0  0  0
 11 43  1  0  0  0  0
 12 28  1  0  0  0  0
 12 29  1  0  0  0  0
 12 49  1  0  0  0  0
 13 24  1  0  0  0  0
 13 50  1  0  0  0  0
 13 51  1  0  0  0  0
 14 15  1  0  0  0  0
 14 16  1  0  0  0  0
 14 34  1  0  0  0  0
 15 35  1  0  0  0  0
 15 36  1  0  0  0  0
 16 37  1  0  0  0  0
 16 38  1  0  0  0  0
 17 39  1  0  0  0  0
 18 19  2  0  0  0  0
 18 21  1  0  0  0  0
 20 22  2  0  0  0  0
 20 23  1  0  0  0  0
 22 25  1  0  0  0  0
 22 41  1  0  0  0  0
 23 26  2  0  0  0  0
 23 42  1  0  0  0  0
 25 27  2  0  0  0  0
 25 44  1  0  0  0  0
 26 27  1  0  0  0  0
 26 45  1  0  0  0  0
 27 29  1  0  0  0  0
 28 30  1  0  0  0  0
 28 32  1  0  0  0  0
 28 46  1  0  0  0  0
 30 31  1  0  0  0  0
 30 47  1  0  0  0  0
 30 48  1  0  0  0  0
 31 33  1  0  0  0  0
 31 52  1  0  0  0  0
 31 53  1  0  0  0  0
M  CHG  2   3  -1   7   1
M  END
> <PUBCHEM_COMPOUND_CID>
135450599

> <PUBCHEM_CONFORMER_RMSD>
1

> <PUBCHEM_CONFORMER_DIVERSEORDER>
1
36
6
13
38
33
34
30
39
2
23
17
41
25
4
35
37
29
3
5
12
19
21
10
15
7
40
18
24
8
32
16
31
42
9
26
14
28
11
20
27
22

> <PUBCHEM_MMFF94_PARTIAL_CHARGES>
43
1 -0.57
10 -0.62
11 -0.49
12 -0.73
13 -0.85
14 0.49
15 0.49
16 0.37
17 0.56
18 0.36
19 0.27
2 -0.57
20 0.35
21 0.62
22 -0.15
23 -0.15
24 0.56
25 -0.15
26 -0.15
27 0.09
28 0.19
29 0.54
3 -0.9
31 0.06
32 0.91
33 0.66
39 0.15
4 -0.9
40 0.4
41 0.15
42 0.15
43 0.37
44 0.15
45 0.15
49 0.37
5 -0.65
50 0.4
51 0.4
54 0.5
6 -0.57
7 -0.68
8 -0.69
9 -0.87

> <PUBCHEM_EFFECTIVE_ROTOR_COUNT>
8.8

> <PUBCHEM_PHARMACOPHORE_FEATURES>
18
1 1 acceptor
1 11 donor
1 12 donor
1 13 donor
1 2 acceptor
1 3 acceptor
1 4 acceptor
1 5 acceptor
1 6 acceptor
1 9 cation
1 9 donor
3 3 4 32 anion
3 5 6 33 anion
3 7 8 17 cation
5 7 8 14 15 17 rings
6 10 11 18 19 21 24 rings
6 20 22 23 25 26 27 rings
6 7 9 14 16 18 19 rings

> <PUBCHEM_HEAVY_ATOM_COUNT>
33

> <PUBCHEM_ATOM_DEF_STEREO_COUNT>
2

> <PUBCHEM_ATOM_UDEF_STEREO_COUNT>
0

> <PUBCHEM_BOND_DEF_STEREO_COUNT>
0

> <PUBCHEM_BOND_UDEF_STEREO_COUNT>
0

> <PUBCHEM_ISOTOPIC_ATOM_COUNT>
0

> <PUBCHEM_COMPONENT_COUNT>
1

> <PUBCHEM_CACTVS_TAUTO_COUNT>
-1

> <PUBCHEM_CONFORMER_ID>
0812CFE700000001

> <PUBCHEM_MMFF94_ENERGY>
106.3543

> <PUBCHEM_FEATURE_SELFOVERLAP>
91.644

> <PUBCHEM_SHAPE_FINGERPRINT>
10 15 18413109464109655767
10411042 1 17906448824380437106
106641 1 18260268568808947291
11456790 92 18335409142138243344
14251764 18 18131627894428982847
14849402 71 18342458170849882881
14933364 13 18410009918506545996
15183329 4 17632290164140772573
15276724 80 18265605499065407524
1577012 14 18201710769725398822
17686467 74 18113337518865088357
18603816 31 13262683686369678915
18608769 82 18339924913650624211
19611394 137 18262526996041838617
21130935 74 17968938574620749427
21298829 104 18410852184044632964
21781055 127 16415208836497598562
22224240 67 17022902350015780083
335507 130 18410009961698961711
3418910 222 18336277790452790029
3663271 9 18187645748469146355
3711267 37 17346602976033455993
397830 11 18041287637839136563
4073 2 18260267469107941986
4149490 64 18260544503410443210
4169191 19 18341609274795277789
437795 51 18334012800197790531
4403749 210 18261388920066475567
5104073 3 18114173138542714138
59682541 35 17967816071926925331
6328613 192 18343297041922713308
9663363 56 18040998459109927083
9953998 17 18261117340884221577

> <PUBCHEM_SHAPE_MULTIPOLES>
609.04
30.09
2.85
1.03
22.88
1
0.09
8.98
-8.23
-1.66
-0.03
2.03
-0.25
1.11

> <PUBCHEM_SHAPE_SELFOVERLAP>
1324.028

> <PUBCHEM_SHAPE_VOLUME>
327.8

> <PUBCHEM_COORDINATE_TYPE>
2
5
10

$$$$
