REMARK  Name = 135450599
REMARK  8 active torsions:
REMARK  status: ('A' for Active; 'I' for Inactive)
REMARK    1  A    between atoms: C_1  and  N_9
REMARK    2  A    between atoms: C_6  and  C_28
REMARK    3  A    between atoms: N_27  and  CA_30
REMARK    4  A    between atoms: CA_30  and  C_33
REMARK    5  A    between atoms: CA_30  and  CB_34
REMARK    6  A    between atoms: CB_34  and  CG_35
REMARK    7  A    between atoms: CG_35  and  CD_37
REMARK    8  A    between atoms: CD_37  and  OE1_38
REMARK                            x       y       z     vdW  Elec       q    Type
REMARK                         _______ _______ _______ _____ _____    ______ ____
ROOT
ATOM      1  C   UNL     1       0.681  -0.887  -0.193  0.00  0.00    +0.049 C 
ATOM      2  C   UNL     1       0.066   0.337   0.068  0.00  0.00    +0.015 C 
ATOM      3  C   UNL     1      -0.057  -1.935  -0.745  0.00  0.00    +0.015 C 
ATOM      4  C   UNL     1      -1.286   0.515  -0.224  0.00  0.00    +0.006 C 
ATOM      5  C   UNL     1      -1.409  -1.757  -1.037  0.00  0.00    +0.006 C 
ATOM      6  C   UNL     1      -2.024  -0.532  -0.776  0.00  0.00    +0.053 C 
ENDROOT
BRANCH   1   9
ATOM      7  O   UNL     1       4.341   2.379   0.448  0.00  0.00    -0.273 OA
ATOM      8  N   UNL     1       4.120  -0.502   0.310  0.00  0.00    -0.241 NA
ATOM      9  N   UNL     1       1.984  -1.059   0.088  0.00  0.00    -0.292 N 
ATOM     10  N   UNL     1       6.419  -1.878   0.054  0.00  0.00    -0.309 N 
ATOM     11  N   UNL     1       7.713   0.150   0.096  0.00  0.00    -0.361 NA
ATOM     12  N   UNL     1       6.611   2.218   0.188  0.00  0.00    -0.246 N 
ATOM     13  N   UNL     1       8.937   2.146   0.048  0.00  0.00    -0.321 N 
ATOM     14  C   UNL     1       4.095  -1.940   0.657  0.00  0.00    +0.099 C 
ATOM     15  C   UNL     1       2.654  -2.355   0.320  0.00  0.00    +0.110 C 
ATOM     16  C   UNL     1       5.192  -2.633  -0.130  0.00  0.00    +0.107 C 
ATOM     17  C   UNL     1       2.891  -0.096   0.063  0.00  0.00    +0.170 C 
ATOM     18  C   UNL     1       5.312   0.201   0.245  0.00  0.00    +0.204 C 
ATOM     19  C   UNL     1       6.484  -0.483   0.143  0.00  0.00    +0.184 C 
ATOM     20  C   UNL     1       5.341   1.689   0.294  0.00  0.00    +0.252 C 
ATOM     21  C   UNL     1       7.758   1.450   0.108  0.00  0.00    +0.239 C 
ATOM     22  H   UNL     1       7.262  -2.381   0.121  0.00  0.00    +0.149 HD
ATOM     23  H   UNL     1       6.705   3.197   0.167  0.00  0.00    +0.159 HD
ATOM     24  H   UNL     1       9.792   1.661  -0.011  0.00  0.00    +0.146 HD
ATOM     25  H   UNL     1       8.929   3.130   0.063  0.00  0.00    +0.146 HD
ENDBRANCH   1   9
BRANCH   6  28
ATOM     26  O   UNL     1      -3.983  -1.026  -1.966  0.00  0.00    -0.270 OA
ATOM     27  N   UNL     1      -4.129   0.600  -0.319  0.00  0.00    -0.293 N 
ATOM     28  C   ACE A   0      -3.434  -0.347  -1.080  0.00  0.00    +0.246 C 
ATOM     29  H   UNL     1      -3.632   1.102   0.367  0.00  0.00    +0.150 HD
BRANCH  27  30
ATOM     30  CA  UNL     1      -5.537   0.881  -0.485  0.00  0.00    +0.177 C 
BRANCH  30  33
ATOM     31  O   UNL     1      -5.582   2.709   1.012  0.00  0.00    -0.244 OA
ATOM     32  OXT UNL     1      -6.226   3.060  -1.153  0.00  0.00    -0.244 OA
ATOM     33  C   UNL     1      -5.815   2.363  -0.182  0.00  0.00    +0.382 C 
ENDBRANCH  30  33
BRANCH  30  34
ATOM     34  CB  UNL     1      -6.364  -0.077   0.380  0.00  0.00    +0.043 C 
BRANCH  34  35
ATOM     35  CG  UNL     1      -7.870   0.098   0.172  0.00  0.00    +0.112 C 
BRANCH  35  37
ATOM     36  OE2 UNL     1      -8.205  -1.699   1.781  0.00  0.00    -0.250 OA
ATOM     37  CD  UNL     1      -8.672  -0.872   1.010  0.00  0.00    +0.314 C 
BRANCH  37  38
ATOM     38  OE1 UNL     1     -10.006  -0.719   0.805  0.00  0.00    -0.480 OA
ATOM     39  HE1 UNL     1     -10.317  -0.071   0.204  0.00  0.00    +0.295 HD
ENDBRANCH  37  38
ENDBRANCH  35  37
ENDBRANCH  34  35
ENDBRANCH  30  34
ENDBRANCH  27  30
ENDBRANCH   6  28
TORSDOF 8
