REMARK  Name = 135493712
REMARK  5 active torsions:
REMARK  status: ('A' for Active; 'I' for Inactive)
REMARK    1  A    between atoms: N_2  and  C_19
REMARK    2  A    between atoms: C_16  and  C_24
REMARK    3  A    between atoms: C_17  and  O_20
REMARK    4  A    between atoms: C_18  and  O_22
REMARK    5  A    between atoms: C_24  and  O_26
REMARK                            x       y       z     vdW  Elec       q    Type
REMARK                         _______ _______ _______ _____ _____    ______ ____
ROOT
ATOM      1  O   UNL     1      -4.340   2.178  -0.424  0.00  0.00    -0.268 OA
ATOM      2  N   UNL     1      -0.312   0.216   0.155  0.00  0.00    -0.237 N 
ATOM      3  N   UNL     1      -1.373   2.130  -0.307  0.00  0.00    -0.240 NA
ATOM      4  N   UNL     1      -2.195  -1.282   0.420  0.00  0.00    -0.357 NA
ATOM      5  N   UNL     1      -4.251  -0.099   0.085  0.00  0.00    -0.243 N 
ATOM      6  N   UNL     1      -4.255  -2.398   0.594  0.00  0.00    -0.321 N 
ATOM      7  C   UNL     1      -1.645  -0.073   0.172  0.00  0.00    +0.211 C 
ATOM      8  C   UNL     1      -0.199   1.553  -0.138  0.00  0.00    +0.224 C 
ATOM      9  C   UNL     1      -2.266   1.118  -0.115  0.00  0.00    +0.176 C 
ATOM     10  C   UNL     1      -3.701   1.164  -0.176  0.00  0.00    +0.273 C 
ATOM     11  C   UNL     1      -3.509  -1.270   0.371  0.00  0.00    +0.239 C 
ATOM     12  H   UNL     1      -5.232  -0.178   0.067  0.00  0.00    +0.159 HD
ATOM     13  H   UNL     1      -3.808  -3.251   0.799  0.00  0.00    +0.146 HD
ATOM     14  H   UNL     1      -5.237  -2.355   0.549  0.00  0.00    +0.146 HD
ENDROOT
BRANCH   2  19
ATOM     15  O   UNL     1       1.938  -0.064   1.044  0.00  0.00    -0.333 OA
ATOM     16  C   UNL     1       3.146  -0.376   0.331  0.00  0.00    +0.173 C 
ATOM     17  C   UNL     1       2.713  -0.696  -1.093  0.00  0.00    +0.171 C 
ATOM     18  C   UNL     1       1.374  -1.375  -0.881  0.00  0.00    +0.187 C 
ATOM     19  C   UNL     1       0.835  -0.739   0.407  0.00  0.00    +0.226 C 
BRANCH  17  20
ATOM     20  O   UNL     1       2.527   0.499  -1.841  0.00  0.00    -0.379 OA
ATOM     21  H   UNL     1       3.384   0.933  -1.976  0.00  0.00    +0.211 HD
ENDBRANCH  17  20
BRANCH  18  22
ATOM     22  O   UNL     1       1.562  -2.774  -0.679  0.00  0.00    -0.378 OA
ATOM     23  H   UNL     1       1.903  -3.175  -1.494  0.00  0.00    +0.211 HD
ENDBRANCH  18  22
BRANCH  16  24
ATOM     24  C   UNL     1       4.123   0.777   0.472  0.00  0.00    +0.140 C 
ATOM     25  C   UNL     1       5.435   0.506  -0.251  0.00  0.00    +0.034 C 
BRANCH  24  26
ATOM     26  O   UNL     1       4.392   1.003   1.854  0.00  0.00    -0.382 OA
ATOM     27  H   UNL     1       3.560   1.177   2.321  0.00  0.00    +0.210 HD
ENDBRANCH  24  26
ENDBRANCH  16  24
ENDBRANCH   2  19
TORSDOF 5
