135434160
  -OEChem-03292013293D

 32 34  0     1  0  0  0  0  0999 V2000
   -2.5636    0.0898   -1.0291 O   0  0  0  0  0  0  0  0  0  0  0  0
   -4.4523   -1.6195    0.2046 O   0  0  0  0  0  0  0  0  0  0  0  0
    4.3289   -0.5469    0.2137 O   0  0  0  0  0  0  0  0  0  0  0  0
    0.2719    1.5513    0.0001 N   0  0  0  0  0  0  0  0  0  0  0  0
    0.2080   -0.8418   -0.1632 N   0  0  0  0  0  0  0  0  0  0  0  0
    2.3885   -1.8104   -0.0383 N   0  0  0  0  0  0  0  0  0  0  0  0
    0.4880   -3.1702   -0.2924 N   0  0  0  0  0  0  0  0  0  0  0  0
   -1.2176    1.8115   -0.1108 C   0  0  2  0  0  0  0  0  0  0  0  0
   -2.0054    1.1275    1.0056 C   0  0  0  0  0  0  0  0  0  0  0  0
   -3.0856    0.3385    0.2810 C   0  0  2  0  0  0  0  0  0  0  0  0
   -1.8339    1.2651   -1.3986 C   0  0  0  0  0  0  0  0  0  0  0  0
   -3.4334   -0.9754    0.9532 C   0  0  0  0  0  0  0  0  0  0  0  0
    0.8803    0.3266   -0.0278 C   0  0  0  0  0  0  0  0  0  0  0  0
    1.2275    2.5279    0.1468 C   0  0  0  0  0  0  0  0  0  0  0  0
    2.2381    0.5284    0.1033 C   0  0  0  0  0  0  0  0  0  0  0  0
    2.4634    1.9172    0.2142 C   0  0  0  0  0  0  0  0  0  0  0  0
    3.1108   -0.6198    0.1032 C   0  0  0  0  0  0  0  0  0  0  0  0
    0.9864   -1.8997   -0.1655 C   0  0  0  0  0  0  0  0  0  0  0  0
   -1.3129    2.9028   -0.0708 H   0  0  0  0  0  0  0  0  0  0  0  0
   -1.3793    0.4799    1.6292 H   0  0  0  0  0  0  0  0  0  0  0  0
   -2.4583    1.8602    1.6830 H   0  0  0  0  0  0  0  0  0  0  0  0
   -3.9908    0.9466    0.1556 H   0  0  0  0  0  0  0  0  0  0  0  0
   -2.5497    1.9827   -1.8159 H   0  0  0  0  0  0  0  0  0  0  0  0
   -1.1050    1.0156   -2.1753 H   0  0  0  0  0  0  0  0  0  0  0  0
   -3.7956   -0.8112    1.9727 H   0  0  0  0  0  0  0  0  0  0  0  0
   -2.5678   -1.6454    0.9788 H   0  0  0  0  0  0  0  0  0  0  0  0
    0.9543    3.5735    0.1919 H   0  0  0  0  0  0  0  0  0  0  0  0
    3.4111    2.4242    0.3297 H   0  0  0  0  0  0  0  0  0  0  0  0
   -4.6548   -2.4558    0.6575 H   0  0  0  0  0  0  0  0  0  0  0  0
    2.9165   -2.6783   -0.0498 H   0  0  0  0  0  0  0  0  0  0  0  0
   -0.5080   -3.3358   -0.3887 H   0  0  0  0  0  0  0  0  0  0  0  0
    1.0980   -3.9803   -0.2930 H   0  0  0  0  0  0  0  0  0  0  0  0
  1 10  1  0  0  0  0
  1 11  1  0  0  0  0
  2 12  1  0  0  0  0
  2 29  1  0  0  0  0
  3 17  2  0  0  0  0
  4  8  1  0  0  0  0
  4 13  1  0  0  0  0
  4 14  1  0  0  0  0
  5 13  1  0  0  0  0
  5 18  2  0  0  0  0
  6 17  1  0  0  0  0
  6 18  1  0  0  0  0
  6 30  1  0  0  0  0
  7 18  1  0  0  0  0
  7 31  1  0  0  0  0
  7 32  1  0  0  0  0
  8  9  1  0  0  0  0
  8 11  1  0  0  0  0
  8 19  1  0  0  0  0
  9 10  1  0  0  0  0
  9 20  1  0  0  0  0
  9 21  1  0  0  0  0
 10 12  1  0  0  0  0
 10 22  1  0  0  0  0
 11 23  1  0  0  0  0
 11 24  1  0  0  0  0
 12 25  1  0  0  0  0
 12 26  1  0  0  0  0
 13 15  2  0  0  0  0
 14 16  2  0  0  0  0
 14 27  1  0  0  0  0
 15 16  1  0  0  0  0
 15 17  1  0  0  0  0
 16 28  1  0  0  0  0
M  END
> <PUBCHEM_COMPOUND_CID>
135434160

> <PUBCHEM_CONFORMER_RMSD>
0.6

> <PUBCHEM_CONFORMER_DIVERSEORDER>
1
3
7
15
12
18
5
17
2
16
6
14
10
13
4
8
9
11

> <PUBCHEM_MMFF94_PARTIAL_CHARGES>
23
1 -0.56
10 0.28
11 0.28
12 0.28
13 -0.03
14 -0.3
15 -0.09
16 -0.15
17 0.72
18 0.56
2 -0.68
27 0.15
28 0.15
29 0.4
3 -0.57
30 0.37
31 0.4
32 0.4
4 0.05
5 -0.58
6 -0.49
7 -0.85
8 0.26

> <PUBCHEM_EFFECTIVE_ROTOR_COUNT>
3

> <PUBCHEM_PHARMACOPHORE_FEATURES>
10
1 1 acceptor
1 2 acceptor
1 2 donor
1 3 acceptor
1 4 cation
1 6 donor
1 7 donor
5 1 8 9 10 11 rings
5 4 13 14 15 16 rings
6 5 6 13 15 17 18 rings

> <PUBCHEM_HEAVY_ATOM_COUNT>
18

> <PUBCHEM_ATOM_DEF_STEREO_COUNT>
2

> <PUBCHEM_ATOM_UDEF_STEREO_COUNT>
0

> <PUBCHEM_BOND_DEF_STEREO_COUNT>
0

> <PUBCHEM_BOND_UDEF_STEREO_COUNT>
0

> <PUBCHEM_ISOTOPIC_ATOM_COUNT>
0

> <PUBCHEM_COMPONENT_COUNT>
1

> <PUBCHEM_CACTVS_TAUTO_COUNT>
-1

> <PUBCHEM_CONFORMER_ID>
08128FB000000001

> <PUBCHEM_MMFF94_ENERGY>
39.5533

> <PUBCHEM_FEATURE_SELFOVERLAP>
50.91

> <PUBCHEM_SHAPE_FINGERPRINT>
108231 29 18341894078392462512
10967382 1 18266741470453683082
11471102 22 18410020926507777809
12032990 46 18339928113047344510
12553582 1 17475799749340395110
12596599 1 17774178906069736415
13140716 1 18123464144956945658
13583140 156 16880438667571427392
14178342 30 18197214754646341312
14251705 54 18338239267076190795
14251717 144 18339924939066707635
15209289 33 18272656748680170946
16945 1 18267300920246466268
19107657 46 18337393738328706339
193761 8 18051125101907087932
19591789 44 18411422791592199582
200 152 18201990028636017661
20028762 73 18059009613416758183
20201158 50 18335419011318922025
20645477 70 18335695096538944079
221490 88 18408609158062649498
22445834 79 18200879474352112785
22721475 48 18334304145093476513
2334 1 18051407667399322958
2748010 2 18337377288794224172
2871803 45 18261105296909751939
3286 77 18409732897627484857
33824 294 18265895937717491971
5493415 88 18336823096136382760
81228 2 17185299384436049184
8809292 202 18187369809167086483

> <PUBCHEM_SHAPE_MULTIPOLES>
332.9
6.21
2.81
0.89
2.02
0.85
-0.11
2.05
0.92
-0.75
-0.11
0.64
-0.18
0.43

> <PUBCHEM_SHAPE_SELFOVERLAP>
722.463

> <PUBCHEM_SHAPE_VOLUME>
183.2

> <PUBCHEM_COORDINATE_TYPE>
2
5
10

$$$$
