REMARK  Name = 135413509
REMARK  15 active torsions:
REMARK  status: ('A' for Active; 'I' for Inactive)
REMARK    1  A    between atoms: N_2  and  CA_22
REMARK    2  A    between atoms: C_3  and  O_5
REMARK    3  A    between atoms: O_5  and  C_6
REMARK    4  A    between atoms: C_6  and  C_7
REMARK    5  A    between atoms: C_7  and  C_8
REMARK    6  A    between atoms: C_8  and  C_9
REMARK    7  A    between atoms: C_9  and  C_10
REMARK    8  A    between atoms: C_10  and  N_12
REMARK    9  A    between atoms: CA_22  and  C_24
REMARK   10  A    between atoms: CA_22  and  CB_27
REMARK   11  A    between atoms: C_24  and  O_25
REMARK   12  A    between atoms: CB_27  and  CG_28
REMARK   13  A    between atoms: CG_28  and  CD_29
REMARK   14  A    between atoms: CD_29  and  NE_30
REMARK   15  A    between atoms: NE_30  and  CZ_33
REMARK                            x       y       z     vdW  Elec       q    Type
REMARK                         _______ _______ _______ _____ _____    ______ ____
ROOT
ATOM      1  O   UNL     1       3.734   1.716   1.544  0.00  0.00    -0.226 OA
ATOM      2  N   UNL     1       3.270   0.392  -0.304  0.00  0.00    -0.262 N 
ATOM      3  C   ACE A   0       3.260   1.566   0.423  0.00  0.00    +0.402 C 
ATOM      4  H   UNL     1       2.856   0.396  -1.197  0.00  0.00    +0.153 HD
ENDROOT
BRANCH   3   5
ATOM      5  O   UNL     1       2.638   2.549  -0.294  0.00  0.00    -0.435 OA
BRANCH   5   6
ATOM      6  C   UNL     1       2.555   3.829   0.343  0.00  0.00    +0.210 C 
BRANCH   6   7
ATOM      7  C   UNL     1       1.269   3.924   1.155  0.00  0.00    +0.048 C 
BRANCH   7   8
ATOM      8  C   UNL     1       0.020   3.763   0.282  0.00  0.00    +0.006 C 
BRANCH   8   9
ATOM      9  C   UNL     1      -1.258   3.888   1.118  0.00  0.00    +0.022 C 
BRANCH   9  10
ATOM     10  C   UNL     1      -2.536   3.736   0.286  0.00  0.00    +0.094 C 
BRANCH  10  12
ATOM     11  O   UNL     1      -3.099  -1.836  -1.863  0.00  0.00    -0.268 OA
ATOM     12  N   UNL     1      -2.607   2.446  -0.492  0.00  0.00    -0.272 N 
ATOM     13  N   UNL     1      -2.490   1.049  -2.235  0.00  0.00    -0.241 NA
ATOM     14  N   UNL     1      -3.269   0.910   1.262  0.00  0.00    -0.232 NA
ATOM     15  N   UNL     1      -3.489  -1.317   0.380  0.00  0.00    -0.279 N 
ATOM     16  C   UNL     1      -2.938   1.213  -0.014  0.00  0.00    +0.152 C 
ATOM     17  C   UNL     1      -2.346   2.296  -1.832  0.00  0.00    +0.221 C 
ATOM     18  C   UNL     1      -2.856   0.378  -1.106  0.00  0.00    +0.162 C 
ATOM     19  C   UNL     1      -3.149  -1.023  -0.948  0.00  0.00    +0.267 C 
ATOM     20  C   UNL     1      -3.532  -0.358   1.398  0.00  0.00    +0.220 C 
ATOM     21  H   UNL     1      -3.710  -2.248   0.608  0.00  0.00    +0.152 HD
ENDBRANCH  10  12
ENDBRANCH   9  10
ENDBRANCH   8   9
ENDBRANCH   7   8
ENDBRANCH   6   7
ENDBRANCH   5   6
ENDBRANCH   3   5
BRANCH   2  22
ATOM     22  CA  UNL     1       3.851  -0.840   0.168  0.00  0.00    +0.174 C 
BRANCH  22  24
ATOM     23  OXT UNL     1       5.114  -2.594  -0.958  0.00  0.00    -0.248 OA
ATOM     24  C   UNL     1       4.445  -1.570  -1.021  0.00  0.00    +0.332 C 
BRANCH  24  25
ATOM     25  O   UNL     1       4.118  -0.975  -2.198  0.00  0.00    -0.479 OA
ATOM     26  H   UNL     1       3.604  -0.191  -2.200  0.00  0.00    +0.295 HD
ENDBRANCH  24  25
ENDBRANCH  22  24
BRANCH  22  27
ATOM     27  CB  UNL     1       2.849  -1.702   0.941  0.00  0.00    +0.033 C 
BRANCH  27  28
ATOM     28  CG  UNL     1       1.628  -2.135   0.121  0.00  0.00    +0.029 C 
BRANCH  28  29
ATOM     29  CD  UNL     1       0.658  -2.952   0.968  0.00  0.00    +0.129 C 
BRANCH  29  30
ATOM     30  NE  UNL     1      -0.489  -3.335   0.143  0.00  0.00    -0.240 NA
BRANCH  30  33
ATOM     31  NH1 UNL     1      -1.434  -4.509   2.014  0.00  0.00    -0.370 N 
ATOM     32  NH2 UNL     1      -2.514  -4.456   0.007  0.00  0.00    -0.370 N 
ATOM     33  CZ  UNL     1      -1.404  -4.055   0.714  0.00  0.00    +0.189 C 
ATOM     34 HH11 UNL     1      -0.696  -4.290   2.628  0.00  0.00    +0.159 HD
ATOM     35 HH12 UNL     1      -2.192  -5.051   2.329  0.00  0.00    +0.159 HD
ATOM     36 HH21 UNL     1      -2.616  -4.197  -0.937  0.00  0.00    +0.159 HD
ATOM     37 HH22 UNL     1      -3.206  -5.002   0.446  0.00  0.00    +0.159 HD
ENDBRANCH  30  33
ENDBRANCH  29  30
ENDBRANCH  28  29
ENDBRANCH  27  28
ENDBRANCH  22  27
ENDBRANCH   2  22
TORSDOF 15
