135400921
  -OEChem-03292013293D

 33 35  0     1  0  0  0  0  0999 V2000
    1.9403    0.7383    1.3300 O   0  0  0  0  0  0  0  0  0  0  0  0
    2.6102   -2.1139    0.2940 O   0  0  0  0  0  0  0  0  0  0  0  0
    4.1513   -0.4643   -1.2420 O   0  0  0  0  0  0  0  0  0  0  0  0
   -4.5163    1.2026   -0.7604 O   0  0  0  0  0  0  0  0  0  0  0  0
   -0.2068    0.3213    0.2922 N   0  0  0  0  0  0  0  0  0  0  0  0
   -1.6207    1.8366   -0.5505 N   0  0  0  0  0  0  0  0  0  0  0  0
   -1.7412   -1.4896    0.7832 N   0  0  0  0  0  0  0  0  0  0  0  0
   -3.9836   -0.8707    0.1714 N   0  0  0  0  0  0  0  0  0  0  0  0
    1.9511   -0.9970   -0.3234 C   0  0  1  0  0  0  0  0  0  0  0  0
    1.0981   -0.2922    0.7507 C   0  0  1  0  0  0  0  0  0  0  0  0
    2.9713    0.0752   -0.6818 C   0  0  1  0  0  0  0  0  0  0  0  0
    3.2126    0.7456    0.6606 C   0  0  1  0  0  0  0  0  0  0  0  0
    1.2200   -1.5648   -1.5328 C   0  0  0  0  0  0  0  0  0  0  0  0
    3.7206    2.1726    0.5452 C   0  0  0  0  0  0  0  0  0  0  0  0
   -1.4439   -0.2512    0.3268 C   0  0  0  0  0  0  0  0  0  0  0  0
   -0.3649    1.5765   -0.2431 C   0  0  0  0  0  0  0  0  0  0  0  0
   -2.2882    0.7015   -0.1961 C   0  0  0  0  0  0  0  0  0  0  0  0
   -3.6959    0.4154   -0.3055 C   0  0  0  0  0  0  0  0  0  0  0  0
   -3.0142   -1.7420    0.6815 C   0  0  0  0  0  0  0  0  0  0  0  0
    0.8194   -0.9669    1.5687 H   0  0  0  0  0  0  0  0  0  0  0  0
    2.5344    0.7848   -1.3956 H   0  0  0  0  0  0  0  0  0  0  0  0
    3.9192    0.1664    1.2679 H   0  0  0  0  0  0  0  0  0  0  0  0
    0.4716   -2.3044   -1.2276 H   0  0  0  0  0  0  0  0  0  0  0  0
    1.9181   -2.0874   -2.1969 H   0  0  0  0  0  0  0  0  0  0  0  0
    0.7205   -0.7852   -2.1161 H   0  0  0  0  0  0  0  0  0  0  0  0
    3.0106    2.8004   -0.0038 H   0  0  0  0  0  0  0  0  0  0  0  0
    4.6893    2.2120    0.0388 H   0  0  0  0  0  0  0  0  0  0  0  0
    3.8270    2.6189    1.5398 H   0  0  0  0  0  0  0  0  0  0  0  0
    1.9258   -2.7424    0.5816 H   0  0  0  0  0  0  0  0  0  0  0  0
    4.7736    0.2696   -1.3803 H   0  0  0  0  0  0  0  0  0  0  0  0
    0.4653    2.2536   -0.3891 H   0  0  0  0  0  0  0  0  0  0  0  0
   -3.4373   -2.7055    1.0055 H   0  0  0  0  0  0  0  0  0  0  0  0
   -4.9494   -1.1848    0.1436 H   0  0  0  0  0  0  0  0  0  0  0  0
  1 10  1  0  0  0  0
  1 12  1  0  0  0  0
  2  9  1  0  0  0  0
  2 29  1  0  0  0  0
  3 11  1  0  0  0  0
  3 30  1  0  0  0  0
  4 18  2  0  0  0  0
  5 10  1  0  0  0  0
  5 15  1  0  0  0  0
  5 16  1  0  0  0  0
  6 16  2  0  0  0  0
  6 17  1  0  0  0  0
  7 15  1  0  0  0  0
  7 19  2  0  0  0  0
  8 18  1  0  0  0  0
  8 19  1  0  0  0  0
  8 33  1  0  0  0  0
  9 10  1  0  0  0  0
  9 11  1  0  0  0  0
  9 13  1  0  0  0  0
 10 20  1  0  0  0  0
 11 12  1  0  0  0  0
 11 21  1  0  0  0  0
 12 14  1  0  0  0  0
 12 22  1  0  0  0  0
 13 23  1  0  0  0  0
 13 24  1  0  0  0  0
 13 25  1  0  0  0  0
 14 26  1  0  0  0  0
 14 27  1  0  0  0  0
 14 28  1  0  0  0  0
 15 17  2  0  0  0  0
 16 31  1  0  0  0  0
 17 18  1  0  0  0  0
 19 32  1  0  0  0  0
M  END
> <PUBCHEM_COMPOUND_CID>
135400921

> <PUBCHEM_CONFORMER_RMSD>
0.6

> <PUBCHEM_CONFORMER_DIVERSEORDER>
1
8
4
6
7
2
3
5

> <PUBCHEM_MMFF94_PARTIAL_CHARGES>
22
1 -0.56
10 0.54
11 0.28
12 0.28
15 -0.03
16 0.04
17 0.14
18 0.72
19 0.45
2 -0.68
29 0.4
3 -0.68
30 0.4
31 0.15
32 0.06
33 0.37
4 -0.57
5 0.05
6 -0.57
7 -0.58
8 -0.49
9 0.28

> <PUBCHEM_EFFECTIVE_ROTOR_COUNT>
2

> <PUBCHEM_PHARMACOPHORE_FEATURES>
11
1 1 acceptor
1 2 acceptor
1 2 donor
1 3 acceptor
1 3 donor
1 4 acceptor
1 8 donor
3 5 6 16 cation
5 1 9 10 11 12 rings
5 5 6 15 16 17 rings
6 7 8 15 17 18 19 rings

> <PUBCHEM_HEAVY_ATOM_COUNT>
19

> <PUBCHEM_ATOM_DEF_STEREO_COUNT>
4

> <PUBCHEM_ATOM_UDEF_STEREO_COUNT>
0

> <PUBCHEM_BOND_DEF_STEREO_COUNT>
0

> <PUBCHEM_BOND_UDEF_STEREO_COUNT>
0

> <PUBCHEM_ISOTOPIC_ATOM_COUNT>
0

> <PUBCHEM_COMPONENT_COUNT>
1

> <PUBCHEM_CACTVS_TAUTO_COUNT>
-1

> <PUBCHEM_CONFORMER_ID>
08120DD900000001

> <PUBCHEM_MMFF94_ENERGY>
50.0135

> <PUBCHEM_FEATURE_SELFOVERLAP>
55.974

> <PUBCHEM_SHAPE_FINGERPRINT>
10498660 4 18260546723232697285
10608611 8 18410570678048089617
107287 299 18060138768981572186
11132069 177 18334573585419089849
11615757 297 17132116848671520315
12173636 292 18114453454041356317
12236239 1 16515401876137138072
13214271 11 18337382863492618381
13296908 3 18411138052086669243
15219456 202 18341612637348014289
15309172 13 17275107240710601327
15375358 24 18410005550888822193
16945 1 18334013908235873448
17980427 23 17531804800404543116
18175812 5 18412828005637308436
18186145 218 18340488868066892225
19422 9 14764353738348785166
200 152 17203607060497411991
20279233 1 18411134744792922987
20510252 161 18410571761034132137
20645476 183 16950290602597461867
20645477 56 18187081733326996437
20645477 70 17989486307643324790
20871999 31 18114467833586705071
21501502 16 18197222451238076904
23402539 116 18113612400454757982
23557571 272 18261689141668078407
23559900 14 18335700507960542118
2748010 2 18409457994056329547
296302 2 18412543240852902857
3060560 45 17917711275757388342
34934 24 18335411396410503961
495365 180 17845636089169561649
5104073 3 18335138687361903057
7364860 26 18263917748901257426
77492 1 14908185265256887819
81228 2 18114190692005370209
8272917 22 17131564838326778255
9709674 26 18410575084853255887

> <PUBCHEM_SHAPE_MULTIPOLES>
347.61
7.71
2.04
1.08
2.06
0.01
-0.12
-1.04
-0.61
-0.47
-0.03
-0.47
0.2
1.31

> <PUBCHEM_SHAPE_SELFOVERLAP>
755.671

> <PUBCHEM_SHAPE_VOLUME>
187.5

> <PUBCHEM_COORDINATE_TYPE>
2
5
10

$$$$
