135409279
  -OEChem-03292013293D

 33 35  0     0  0  0  0  0  0999 V2000
    2.4191    2.4641   -0.8714 O   0  0  0  0  0  0  0  0  0  0  0  0
    3.1854    0.0895    0.7126 N   0  0  0  0  0  0  0  0  0  0  0  0
   -2.9868   -0.7480   -0.5747 N   0  0  0  0  0  0  0  0  0  0  0  0
    4.5029   -1.8181    0.0547 N   0  0  0  0  0  0  0  0  0  0  0  0
   -5.0517   -0.8793    0.6608 N   0  0  0  0  0  0  0  0  0  0  0  0
    5.2694   -0.3357    1.7036 N   0  0  0  0  0  0  0  0  0  0  0  0
   -4.6279   -2.3287   -1.1347 N   0  0  0  0  0  0  0  0  0  0  0  0
    1.0839    0.5621   -0.2580 C   0  0  0  0  0  0  0  0  0  0  0  0
   -1.3086    0.8272   -0.0513 C   0  0  0  0  0  0  0  0  0  0  0  0
   -0.1722    0.0212    0.0159 C   0  0  0  0  0  0  0  0  0  0  0  0
    1.2037    1.9093   -0.5990 C   0  0  0  0  0  0  0  0  0  0  0  0
   -1.1887    2.1745   -0.3924 C   0  0  0  0  0  0  0  0  0  0  0  0
    2.2521   -0.2925   -0.1836 C   0  0  0  0  0  0  0  0  0  0  0  0
   -2.6120    0.2667    0.2316 C   0  0  0  0  0  0  0  0  0  0  0  0
    0.0673    2.7156   -0.6662 C   0  0  0  0  0  0  0  0  0  0  0  0
    2.3711   -1.4092   -0.9856 C   0  0  0  0  0  0  0  0  0  0  0  0
   -3.3913    0.7572    1.2595 C   0  0  0  0  0  0  0  0  0  0  0  0
    3.5292   -2.1416   -0.8216 C   0  0  0  0  0  0  0  0  0  0  0  0
    4.2694   -0.7069    0.7788 C   0  0  0  0  0  0  0  0  0  0  0  0
   -4.6137    0.1395    1.4292 C   0  0  0  0  0  0  0  0  0  0  0  0
   -4.2006   -1.2670   -0.3082 C   0  0  0  0  0  0  0  0  0  0  0  0
   -0.2684   -1.0279    0.2920 H   0  0  0  0  0  0  0  0  0  0  0  0
   -2.0625    2.8189   -0.4559 H   0  0  0  0  0  0  0  0  0  0  0  0
    0.1451    3.7665   -0.9318 H   0  0  0  0  0  0  0  0  0  0  0  0
    1.6187   -1.7055   -1.7061 H   0  0  0  0  0  0  0  0  0  0  0  0
   -3.0801    1.5695    1.9047 H   0  0  0  0  0  0  0  0  0  0  0  0
    3.7122   -3.0352   -1.4087 H   0  0  0  0  0  0  0  0  0  0  0  0
   -5.2947    0.4555    2.2122 H   0  0  0  0  0  0  0  0  0  0  0  0
    2.2992    3.4049   -1.0869 H   0  0  0  0  0  0  0  0  0  0  0  0
    6.1024   -0.9016    1.7889 H   0  0  0  0  0  0  0  0  0  0  0  0
    5.1405    0.4917    2.2695 H   0  0  0  0  0  0  0  0  0  0  0  0
   -5.5323   -2.7504   -0.9745 H   0  0  0  0  0  0  0  0  0  0  0  0
   -4.0243   -2.6547   -1.8768 H   0  0  0  0  0  0  0  0  0  0  0  0
  1 11  1  0  0  0  0
  1 29  1  0  0  0  0
  2 13  2  0  0  0  0
  2 19  1  0  0  0  0
  3 14  2  0  0  0  0
  3 21  1  0  0  0  0
  4 18  1  0  0  0  0
  4 19  2  0  0  0  0
  5 20  1  0  0  0  0
  5 21  2  0  0  0  0
  6 19  1  0  0  0  0
  6 30  1  0  0  0  0
  6 31  1  0  0  0  0
  7 21  1  0  0  0  0
  7 32  1  0  0  0  0
  7 33  1  0  0  0  0
  8 10  1  0  0  0  0
  8 11  2  0  0  0  0
  8 13  1  0  0  0  0
  9 10  2  0  0  0  0
  9 12  1  0  0  0  0
  9 14  1  0  0  0  0
 10 22  1  0  0  0  0
 11 15  1  0  0  0  0
 12 15  2  0  0  0  0
 12 23  1  0  0  0  0
 13 16  1  0  0  0  0
 14 17  1  0  0  0  0
 15 24  1  0  0  0  0
 16 18  2  0  0  0  0
 16 25  1  0  0  0  0
 17 20  2  0  0  0  0
 17 26  1  0  0  0  0
 18 27  1  0  0  0  0
 20 28  1  0  0  0  0
M  END
> <PUBCHEM_COMPOUND_CID>
135409279

> <PUBCHEM_CONFORMER_RMSD>
0.6

> <PUBCHEM_CONFORMER_DIVERSEORDER>
4
34
19
30
16
15
35
5
6
14
29
13
26
21
10
7
8
36
25
22
9
20
3
33
1
27
24
18
12
31
2
28
23
17
11
32

> <PUBCHEM_MMFF94_PARTIAL_CHARGES>
31
1 -0.53
10 -0.15
11 0.08
12 -0.15
13 0.31
14 0.31
15 -0.15
16 -0.15
17 -0.15
18 0.16
19 0.72
2 -0.62
20 0.16
21 0.72
22 0.15
23 0.15
24 0.15
25 0.15
26 0.15
27 0.15
28 0.15
29 0.45
3 -0.62
30 0.4
31 0.4
32 0.4
33 0.4
4 -0.62
5 -0.62
6 -0.9
7 -0.9

> <PUBCHEM_EFFECTIVE_ROTOR_COUNT>
2

> <PUBCHEM_PHARMACOPHORE_FEATURES>
10
1 1 donor
1 2 acceptor
1 3 acceptor
1 6 donor
1 7 donor
4 2 4 6 19 cation
4 3 5 7 21 cation
6 2 4 13 16 18 19 rings
6 3 5 14 17 20 21 rings
6 8 9 10 11 12 15 rings

> <PUBCHEM_HEAVY_ATOM_COUNT>
21

> <PUBCHEM_ATOM_DEF_STEREO_COUNT>
0

> <PUBCHEM_ATOM_UDEF_STEREO_COUNT>
0

> <PUBCHEM_BOND_DEF_STEREO_COUNT>
0

> <PUBCHEM_BOND_UDEF_STEREO_COUNT>
0

> <PUBCHEM_ISOTOPIC_ATOM_COUNT>
0

> <PUBCHEM_COMPONENT_COUNT>
1

> <PUBCHEM_CACTVS_TAUTO_COUNT>
-1

> <PUBCHEM_CONFORMER_ID>
08122E7F00000004

> <PUBCHEM_MMFF94_ENERGY>
74.7619

> <PUBCHEM_FEATURE_SELFOVERLAP>
50.746

> <PUBCHEM_SHAPE_FINGERPRINT>
10042902 136 18201450176626721038
10447042 23 17530677702460274466
11370993 144 17344915113519504658
11578080 2 18129923677329468505
11796584 16 16588021299263531315
12363563 72 18186529782146256888
12553582 1 18335150760293600639
12596602 18 16702019794350119610
12714826 92 17677053438881627965
12892183 10 17489869310629715594
12895836 83 12534761929995273290
13083527 12 18336819879480451124
13533116 47 18269560601873675147
13544653 18 18410291389346707176
13583140 156 16629392541608888816
13899415 180 18040710381349730397
14178342 30 18197785388354283448
1420 369 18409732850287944587
14252887 29 18340208501376386394
14341114 328 16200428078753019962
1454969 45 18339637953947513396
14787075 74 18334013913221898304
15885798 251 18334303032718286185
16126227 98 17698990002391611320
1741750 31 9943512003741648628
17492 89 18267593583982663895
1813 80 18114473283298797861
18186145 218 16805605901926617441
18222031 100 18409448077071463926
19141452 34 18271529689474984777
193927 3 18113911445963237795
200 152 17458344113195872096
20281475 54 18342181085192033333
204376 136 11600002141841841597
20645477 70 18187644768968429271
21065199 12 17703509887458099434
21673915 165 18202559587922245399
21756936 100 15266190684516361666
2255824 54 18049452731457219573
23402539 116 18261668190653980754
23503953 91 18201447960697635993
312423 11 18115043947224784469
314173 85 18408887300065662641
4990 188 12107790700688129938
5104073 3 18339657736593448121
58779409 54 18042956580637260221
5924683 9 17560795546654258063
67856867 119 18198902689789580977
7064713 232 17775291547285747103
7808743 9 11383528115249180970
7970288 3 18260831470943586467
9981440 41 17403452374386644473

> <PUBCHEM_SHAPE_MULTIPOLES>
396.41
10.72
2.57
1.2
1.72
0.83
-0.31
-7.37
-3.47
-0.36
1.17
-0.1
-0.11
-0.71

> <PUBCHEM_SHAPE_SELFOVERLAP>
880.194

> <PUBCHEM_SHAPE_VOLUME>
210

> <PUBCHEM_COORDINATE_TYPE>
2
5
10

$$$$
