135400916
  -OEChem-03292013293D

 29 30  0     1  0  0  0  0  0999 V2000
    1.7396   -0.2455   -0.3906 O   0  0  0  0  0  0  0  0  0  0  0  0
    3.0248    3.1160   -0.6755 O   0  0  0  0  0  0  0  0  0  0  0  0
    1.4173   -2.8827   -0.5935 O   0  0  0  0  0  0  0  0  0  0  0  0
   -4.5327    1.0713    0.3977 O   0  0  0  0  0  0  0  0  0  0  0  0
    4.2726   -0.8249    0.3063 O   0  0  0  0  0  0  0  0  0  0  0  0
   -0.2549   -0.3157    0.8811 N   0  0  0  0  0  0  0  0  0  0  0  0
   -1.9913    0.6750    1.8858 N   0  0  0  0  0  0  0  0  0  0  0  0
   -1.2017   -0.7540   -1.3068 N   0  0  0  0  0  0  0  0  0  0  0  0
   -3.4712    0.0368   -1.4061 N   0  0  0  0  0  0  0  0  0  0  0  0
    1.0701   -0.8598    0.7071 C   0  0  1  0  0  0  0  0  0  0  0  0
   -1.2591   -0.2800   -0.0408 C   0  0  0  0  0  0  0  0  0  0  0  0
    2.5491    0.8564    0.0010 C   0  0  2  0  0  0  0  0  0  0  0  0
   -2.3088    0.3327    0.6044 C   0  0  0  0  0  0  0  0  0  0  0  0
   -0.7437    0.2701    2.0235 C   0  0  0  0  0  0  0  0  0  0  0  0
    2.6366    1.8375   -1.1574 C   0  0  0  0  0  0  0  0  0  0  0  0
    1.0008   -2.3482    0.4294 C   0  0  0  0  0  0  0  0  0  0  0  0
   -3.5504    0.5334   -0.0979 C   0  0  0  0  0  0  0  0  0  0  0  0
    3.9291    0.3514    0.3683 C   0  0  0  0  0  0  0  0  0  0  0  0
   -2.3263   -0.5696   -1.9359 C   0  0  0  0  0  0  0  0  0  0  0  0
    1.6327   -0.7431    1.6419 H   0  0  0  0  0  0  0  0  0  0  0  0
    2.1323    1.3624    0.8810 H   0  0  0  0  0  0  0  0  0  0  0  0
   -0.1469    0.3737    2.9197 H   0  0  0  0  0  0  0  0  0  0  0  0
    1.6632    1.9391   -1.6497 H   0  0  0  0  0  0  0  0  0  0  0  0
    3.3615    1.5080   -1.9100 H   0  0  0  0  0  0  0  0  0  0  0  0
    0.5514   -2.9573    1.2336 H   0  0  0  0  0  0  0  0  0  0  0  0
   -4.2910    0.1236   -1.9998 H   0  0  0  0  0  0  0  0  0  0  0  0
    4.6356    1.1226    0.7212 H   0  0  0  0  0  0  0  0  0  0  0  0
   -2.4614   -0.8936   -2.9795 H   0  0  0  0  0  0  0  0  0  0  0  0
    3.0630    3.7112   -1.4436 H   0  0  0  0  0  0  0  0  0  0  0  0
  1 10  1  0  0  0  0
  1 12  1  0  0  0  0
  2 15  1  0  0  0  0
  2 29  1  0  0  0  0
  3 16  2  0  0  0  0
  4 17  2  0  0  0  0
  5 18  2  0  0  0  0
  6 10  1  0  0  0  0
  6 11  1  0  0  0  0
  6 14  1  0  0  0  0
  7 13  1  0  0  0  0
  7 14  2  0  0  0  0
  8 11  1  0  0  0  0
  8 19  2  0  0  0  0
  9 17  1  0  0  0  0
  9 19  1  0  0  0  0
  9 26  1  0  0  0  0
 10 16  1  0  0  0  0
 10 20  1  0  0  0  0
 11 13  2  0  0  0  0
 12 15  1  0  0  0  0
 12 18  1  0  0  0  0
 12 21  1  0  0  0  0
 13 17  1  0  0  0  0
 14 22  1  0  0  0  0
 15 23  1  0  0  0  0
 15 24  1  0  0  0  0
 16 25  1  0  0  0  0
 18 27  1  0  0  0  0
 19 28  1  0  0  0  0
M  END
> <PUBCHEM_COMPOUND_CID>
135400916

> <PUBCHEM_CONFORMER_RMSD>
0.8

> <PUBCHEM_CONFORMER_DIVERSEORDER>
1
10
25
20
12
28
6
22
27
11
8
9
24
19
7
23
26
16
14
21
17
15
4
18
13
5
3
2

> <PUBCHEM_MMFF94_PARTIAL_CHARGES>
25
1 -0.56
10 0.6
11 -0.03
12 0.34
13 0.14
14 0.04
15 0.28
16 0.45
17 0.72
18 0.45
19 0.45
2 -0.68
22 0.15
25 0.06
26 0.37
27 0.06
28 0.06
29 0.4
3 -0.57
4 -0.57
5 -0.57
6 0.05
7 -0.57
8 -0.58
9 -0.49

> <PUBCHEM_EFFECTIVE_ROTOR_COUNT>
6

> <PUBCHEM_PHARMACOPHORE_FEATURES>
10
1 1 acceptor
1 2 acceptor
1 2 donor
1 3 acceptor
1 4 acceptor
1 5 acceptor
1 9 donor
3 6 7 14 cation
5 6 7 11 13 14 rings
6 8 9 11 13 17 19 rings

> <PUBCHEM_HEAVY_ATOM_COUNT>
19

> <PUBCHEM_ATOM_DEF_STEREO_COUNT>
2

> <PUBCHEM_ATOM_UDEF_STEREO_COUNT>
0

> <PUBCHEM_BOND_DEF_STEREO_COUNT>
0

> <PUBCHEM_BOND_UDEF_STEREO_COUNT>
0

> <PUBCHEM_ISOTOPIC_ATOM_COUNT>
0

> <PUBCHEM_COMPONENT_COUNT>
1

> <PUBCHEM_CACTVS_TAUTO_COUNT>
-1

> <PUBCHEM_CONFORMER_ID>
08120DD400000001

> <PUBCHEM_MMFF94_ENERGY>
31.4329

> <PUBCHEM_FEATURE_SELFOVERLAP>
50.904

> <PUBCHEM_SHAPE_FINGERPRINT>
11640471 11 18201727249066559204
11725454 13 16589958673201192167
12236239 1 18059852835623242410
13134695 92 18041269968828762746
13538477 17 17632284641018499815
14115302 16 17918268753405645662
15295992 7 17531247279073687544
15342168 16 18042977655667124805
15375462 175 16271929272947443879
16752209 62 16557903404178669257
16945 1 18266200364656508698
1813 80 17695637247013040894
18186145 218 18408602595574128452
192875 21 18413106165226821040
19765921 60 18272087252996137171
19786989 88 18259697904661726155
19862831 5 17846776308280954616
20645476 183 18131345294118060815
21639500 275 18334573568502756788
23175994 123 17749956549087670946
23402539 116 16845279536825552076
23419403 2 16232244883566236675
23557571 272 16153713107233933763
23598291 2 17698177157300457882
4340502 62 18336837424759426667
474 4 18410577292598081000
77492 1 18059855030346288410
9981440 41 17411316017360833296

> <PUBCHEM_SHAPE_MULTIPOLES>
341.74
7.06
2.16
1.61
0.21
0.14
-0.1
-2.96
0.8
2.54
0.57
-1.21
-0.08
-0.89

> <PUBCHEM_SHAPE_SELFOVERLAP>
726.936

> <PUBCHEM_SHAPE_VOLUME>
186.2

> <PUBCHEM_COORDINATE_TYPE>
2
5
10

$$$$
