135408972
  -OEChem-03292013293D

 31 33  0     0  0  0  0  0  0999 V2000
   -3.9972    1.1937    1.2993 O   0  0  0  0  0  0  0  0  0  0  0  0
    0.0073    0.6634   -0.7251 N   0  0  0  0  0  0  0  0  0  0  0  0
   -1.3206    2.0891    0.3730 N   0  0  0  0  0  0  0  0  0  0  0  0
   -1.3914   -1.3120   -0.7558 N   0  0  0  0  0  0  0  0  0  0  0  0
   -3.4709   -0.8744    0.3508 N   0  0  0  0  0  0  0  0  0  0  0  0
    0.8437    2.8349   -0.3690 N   0  0  0  0  0  0  0  0  0  0  0  0
   -3.0245   -2.9916   -0.5776 N   0  0  0  0  0  0  0  0  0  0  0  0
    1.1573    0.1464   -1.4321 C   0  0  0  0  0  0  0  0  0  0  0  0
   -1.1339   -0.0248   -0.4349 C   0  0  0  0  0  0  0  0  0  0  0  0
   -1.9258    0.8748    0.2370 C   0  0  0  0  0  0  0  0  0  0  0  0
   -0.1530    1.9301   -0.2188 C   0  0  0  0  0  0  0  0  0  0  0  0
    2.3061   -0.2132   -0.5228 C   0  0  0  0  0  0  0  0  0  0  0  0
   -3.2241    0.4624    0.6937 C   0  0  0  0  0  0  0  0  0  0  0  0
    3.5572    0.3731   -0.7140 C   0  0  0  0  0  0  0  0  0  0  0  0
    2.1169   -1.1321    0.5094 C   0  0  0  0  0  0  0  0  0  0  0  0
   -2.5752   -1.7169   -0.3493 C   0  0  0  0  0  0  0  0  0  0  0  0
    4.6193    0.0404    0.1269 C   0  0  0  0  0  0  0  0  0  0  0  0
    3.1788   -1.4647    1.3503 C   0  0  0  0  0  0  0  0  0  0  0  0
    4.4300   -0.8786    1.1591 C   0  0  0  0  0  0  0  0  0  0  0  0
    1.4485    0.8914   -2.1821 H   0  0  0  0  0  0  0  0  0  0  0  0
    0.8544   -0.7444   -1.9954 H   0  0  0  0  0  0  0  0  0  0  0  0
    3.7194    1.0900   -1.5143 H   0  0  0  0  0  0  0  0  0  0  0  0
    1.1545   -1.6085    0.6702 H   0  0  0  0  0  0  0  0  0  0  0  0
   -4.3651   -1.2694    0.6276 H   0  0  0  0  0  0  0  0  0  0  0  0
    0.7525    3.7777   -0.0040 H   0  0  0  0  0  0  0  0  0  0  0  0
    1.7187    2.6373   -0.8422 H   0  0  0  0  0  0  0  0  0  0  0  0
    5.5935    0.4966   -0.0221 H   0  0  0  0  0  0  0  0  0  0  0  0
    3.0323   -2.1820    2.1526 H   0  0  0  0  0  0  0  0  0  0  0  0
    5.2570   -1.1381    1.8135 H   0  0  0  0  0  0  0  0  0  0  0  0
   -2.4535   -3.6689   -1.0715 H   0  0  0  0  0  0  0  0  0  0  0  0
   -3.9386   -3.2951   -0.2602 H   0  0  0  0  0  0  0  0  0  0  0  0
  1 13  2  0  0  0  0
  2  8  1  0  0  0  0
  2  9  1  0  0  0  0
  2 11  1  0  0  0  0
  3 10  1  0  0  0  0
  3 11  2  0  0  0  0
  4  9  1  0  0  0  0
  4 16  2  0  0  0  0
  5 13  1  0  0  0  0
  5 16  1  0  0  0  0
  5 24  1  0  0  0  0
  6 11  1  0  0  0  0
  6 25  1  0  0  0  0
  6 26  1  0  0  0  0
  7 16  1  0  0  0  0
  7 30  1  0  0  0  0
  7 31  1  0  0  0  0
  8 12  1  0  0  0  0
  8 20  1  0  0  0  0
  8 21  1  0  0  0  0
  9 10  2  0  0  0  0
 10 13  1  0  0  0  0
 12 14  2  0  0  0  0
 12 15  1  0  0  0  0
 14 17  1  0  0  0  0
 14 22  1  0  0  0  0
 15 18  2  0  0  0  0
 15 23  1  0  0  0  0
 17 19  2  0  0  0  0
 17 27  1  0  0  0  0
 18 19  1  0  0  0  0
 18 28  1  0  0  0  0
 19 29  1  0  0  0  0
M  END
> <PUBCHEM_COMPOUND_CID>
135408972

> <PUBCHEM_CONFORMER_RMSD>
0.6

> <PUBCHEM_CONFORMER_DIVERSEORDER>
1
6
8
5
4
3
2
7

> <PUBCHEM_MMFF94_PARTIAL_CHARGES>
29
1 -0.57
10 0.14
11 0.27
12 -0.14
13 0.72
14 -0.15
15 -0.15
16 0.56
17 -0.15
18 -0.15
19 -0.15
2 0.05
22 0.15
23 0.15
24 0.37
25 0.4
26 0.4
27 0.15
28 0.15
29 0.15
3 -0.57
30 0.4
31 0.4
4 -0.58
5 -0.49
6 -0.88
7 -0.85
8 0.4
9 -0.03

> <PUBCHEM_EFFECTIVE_ROTOR_COUNT>
2

> <PUBCHEM_PHARMACOPHORE_FEATURES>
8
1 1 acceptor
1 5 donor
1 6 donor
1 7 donor
4 2 3 6 11 cation
5 2 3 9 10 11 rings
6 12 14 15 17 18 19 rings
6 4 5 9 10 13 16 rings

> <PUBCHEM_HEAVY_ATOM_COUNT>
19

> <PUBCHEM_ATOM_DEF_STEREO_COUNT>
0

> <PUBCHEM_ATOM_UDEF_STEREO_COUNT>
0

> <PUBCHEM_BOND_DEF_STEREO_COUNT>
0

> <PUBCHEM_BOND_UDEF_STEREO_COUNT>
0

> <PUBCHEM_ISOTOPIC_ATOM_COUNT>
0

> <PUBCHEM_COMPONENT_COUNT>
1

> <PUBCHEM_CACTVS_TAUTO_COUNT>
-1

> <PUBCHEM_CONFORMER_ID>
08122D4C00000001

> <PUBCHEM_MMFF94_ENERGY>
43.9301

> <PUBCHEM_FEATURE_SELFOVERLAP>
40.775

> <PUBCHEM_SHAPE_FINGERPRINT>
10062212 137 18334296487267137939
10366900 7 17560790005455005384
11132069 177 18342741784292337182
11552529 35 17846771940458119878
11578080 2 17969480753774808492
12251169 10 18341895160576527752
12382932 28 18341897350746039806
12553582 1 18408608062745768814
12633257 1 18059287673983028472
12670545 47 17203601597140788552
12824470 246 18188203333581432359
13140716 1 18270406104408029713
13764800 53 17203325572646323202
14081887 123 18272642424969436026
14178342 30 18201729444101043151
14341114 328 18410013260750997936
14787075 74 18191026910033749164
15375462 189 18259990391855280672
16945 1 18341908354916534445
17349148 13 18131625708322141485
17780758 139 17757805881295101722
1813 80 17531821147224183934
19050596 39 18335419058827345522
200 152 17603862291394689450
20291156 8 18333447638604957146
20442098 301 18263077722038644330
20510252 161 17914904136198161009
20600515 1 18201732733835086236
21033648 29 16343705417319633267
212916 134 17915746375485480401
21421861 104 18051710024834379875
21452121 71 18263364857344134862
21501502 16 18196664105743109901
21650355 55 18413100650066520721
22112679 90 18410580612333552924
231179 274 14333408913596835712
23184049 29 18197217160054743551
232386 152 18336836363184806846
23366157 5 18045786955226474445
23402539 116 18410567401552447766
23419403 2 17554847248471363093
23557571 272 17703522059332177751
23559900 14 17987533536854582486
25147074 1 18198072567580267733
26918003 58 17385445397284581240
2838139 119 14332008045572984081
34934 24 18335421240222566173
392239 28 18336251432364394032
4072396 5 18192719951739857033
58807428 26 18197513830947663467
5902787 121 18340208595390815708
633830 44 12031523123930116716
7097593 13 18119239559432573386
90316 7 18337673014192886924

> <PUBCHEM_SHAPE_MULTIPOLES>
355.26
7.95
2.41
1.15
3.62
0.07
0.07
-2.59
2.56
-1.68
-0.14
0.28
-0.13
-1.49

> <PUBCHEM_SHAPE_SELFOVERLAP>
786.273

> <PUBCHEM_SHAPE_VOLUME>
186.6

> <PUBCHEM_COORDINATE_TYPE>
2
5
10

$$$$
