REMARK  Name = 135457441
REMARK  8 active torsions:
REMARK  status: ('A' for Active; 'I' for Inactive)
REMARK    1  A    between atoms: C_2  and  O_18
REMARK    2  A    between atoms: C_3  and  O_20
REMARK    3  A    between atoms: C_4  and  N_8
REMARK    4  A    between atoms: C_5  and  C_22
REMARK    5  A    between atoms: C_22  and  O_23
REMARK    6  A    between atoms: O_23  and  P_24
REMARK    7  A    between atoms: P_24  and  O_26
REMARK    8  A    between atoms: P_24  and  O_28
REMARK                            x       y       z     vdW  Elec       q    Type
REMARK                         _______ _______ _______ _____ _____    ______ ____
ROOT
ATOM      1  O   UNL     1       1.228  -0.804   1.063  0.00  0.00    -0.333 OA
ATOM      2  C   UNL     1       0.368  -1.866  -0.869  0.00  0.00    +0.187 C 
ATOM      3  C   UNL     1       1.637  -2.585  -0.456  0.00  0.00    +0.171 C 
ATOM      4  C   UNL     1      -0.017  -1.140   0.416  0.00  0.00    +0.226 C 
ATOM      5  C   UNL     1       2.299  -1.565   0.462  0.00  0.00    +0.176 C 
ENDROOT
BRANCH   4   8
ATOM      6 CL   UNL     1      -5.555  -1.647   0.531  0.00  0.00    -0.032 Cl
ATOM      7  O   UNL     1      -4.210   3.067  -0.426  0.00  0.00    -0.268 OA
ATOM      8  N   UNL     1      -0.862   0.087   0.170  0.00  0.00    -0.237 N 
ATOM      9  N   UNL     1      -1.366   2.224  -0.260  0.00  0.00    -0.240 NA
ATOM     10  N   UNL     1      -3.083  -0.860   0.366  0.00  0.00    -0.359 NA
ATOM     11  N   UNL     1      -4.746   0.840   0.025  0.00  0.00    -0.245 N 
ATOM     12  C   UNL     1      -2.223   0.163   0.158  0.00  0.00    +0.211 C 
ATOM     13  C   UNL     1      -0.392   1.352  -0.086  0.00  0.00    +0.224 C 
ATOM     14  C   UNL     1      -2.501   1.483  -0.109  0.00  0.00    +0.176 C 
ATOM     15  C   UNL     1      -3.872   1.913  -0.193  0.00  0.00    +0.273 C 
ATOM     16  C   UNL     1      -4.327  -0.472   0.290  0.00  0.00    +0.249 C 
ATOM     17  H   UNL     1      -5.714   1.018  -0.009  0.00  0.00    +0.158 HD
ENDBRANCH   4   8
BRANCH   2  18
ATOM     18  O   UNL     1      -0.639  -2.745  -1.330  0.00  0.00    -0.378 OA
ATOM     19  H   UNL     1      -0.343  -3.177  -2.146  0.00  0.00    +0.211 HD
ENDBRANCH   2  18
BRANCH   3  20
ATOM     20  O   UNL     1       1.324  -3.740   0.322  0.00  0.00    -0.379 OA
ATOM     21  H   UNL     1       0.901  -4.405  -0.243  0.00  0.00    +0.211 HD
ENDBRANCH   3  20
BRANCH   5  22
ATOM     22  C   UNL     1       3.213  -0.599  -0.279  0.00  0.00    +0.186 C 
BRANCH  22  23
ATOM     23  O   UNL     1       3.767   0.309   0.656  0.00  0.00    -0.271 OA
BRANCH  23  24
ATOM     24  P   UNL     1       4.782   1.450   0.118  0.00  0.00    +0.473 P 
ATOM     25  O   UNL     1       5.322   2.368   1.175  0.00  0.00    -0.227 OA
BRANCH  24  26
ATOM     26  O   UNL     1       5.899   0.593  -0.677  0.00  0.00    -0.303 OA
ATOM     27  H   UNL     1       5.466   0.030  -1.337  0.00  0.00    +0.222 HD
ENDBRANCH  24  26
BRANCH  24  28
ATOM     28  O   UNL     1       3.954   2.172  -1.068  0.00  0.00    -0.303 OA
ATOM     29  H   UNL     1       3.646   1.504  -1.701  0.00  0.00    +0.222 HD
ENDBRANCH  24  28
ENDBRANCH  23  24
ENDBRANCH  22  23
ENDBRANCH   5  22
TORSDOF 8
