REMARK  Name = 135483971
REMARK  4 active torsions:
REMARK  status: ('A' for Active; 'I' for Inactive)
REMARK    1  A    between atoms: C_9  and  O_17
REMARK    2  A    between atoms: C_12  and  O_19
REMARK    3  A    between atoms: C_15  and  O_21
REMARK    4  A    between atoms: C_16  and  O_23
REMARK                            x       y       z     vdW  Elec       q    Type
REMARK                         _______ _______ _______ _____ _____    ______ ____
ROOT
ATOM      1  O   UNL     1       0.758  -2.374   0.001  0.00  0.00    -0.418 OA
ATOM      2  O   UNL     1       1.553   1.254   0.001  0.00  0.00    -0.418 OA
ATOM      3  O   UNL     1      -1.190  -3.509   0.002  0.00  0.00    -0.244 OA
ATOM      4  O   UNL     1      -4.665   0.062  -0.003  0.00  0.00    -0.283 OA
ATOM      5  C   UNL     1      -0.577   0.143   0.001  0.00  0.00    +0.081 A 
ATOM      6  C   UNL     1       0.773   0.092   0.000  0.00  0.00    +0.186 A 
ATOM      7  C   UNL     1      -1.303  -1.125   0.000  0.00  0.00    +0.085 A 
ATOM      8  C   UNL     1       1.494  -1.169   0.000  0.00  0.00    +0.186 A 
ATOM      9  C   UNL     1      -1.353   1.392   0.001  0.00  0.00    +0.174 C 
ATOM     10  C   UNL     1      -2.645  -1.160  -0.001  0.00  0.00    +0.052 C 
ATOM     11  C   UNL     1      -0.603  -2.433   0.001  0.00  0.00    +0.346 A 
ATOM     12  C   UNL     1      -2.696   1.383   0.000  0.00  0.00    +0.207 C 
ATOM     13  C   UNL     1       2.833  -1.218  -0.001  0.00  0.00    +0.084 C 
ATOM     14  C   UNL     1      -3.438   0.095  -0.002  0.00  0.00    +0.232 C 
ATOM     15  C   UNL     1       3.587   0.008  -0.002  0.00  0.00    +0.210 C 
ATOM     16  C   UNL     1       2.943   1.187  -0.001  0.00  0.00    +0.329 C 
ENDROOT
BRANCH   9  17
ATOM     17  O   UNL     1      -0.644   2.578   0.003  0.00  0.00    -0.503 OA
ATOM     18  H   UNL     1       0.293   2.563   0.004  0.00  0.00    +0.292 HD
ENDBRANCH   9  17
BRANCH  12  19
ATOM     19  O   UNL     1      -3.424   2.555   0.000  0.00  0.00    -0.501 OA
ATOM     20  H   UNL     1      -2.982   3.381   0.001  0.00  0.00    +0.292 HD
ENDBRANCH  12  19
BRANCH  15  21
ATOM     21  O   UNL     1       4.953  -0.133  -0.001  0.00  0.00    -0.501 OA
ATOM     22  H   UNL     1       5.336  -0.988  -0.002  0.00  0.00    +0.292 HD
ENDBRANCH  15  21
BRANCH  16  23
ATOM     23  O   UNL     1       3.644   2.374   0.001  0.00  0.00    -0.477 OA
ATOM     24  H   UNL     1       3.184   3.190   0.001  0.00  0.00    +0.295 HD
ENDBRANCH  16  23
TORSDOF 4
