REMARK  Name = 135492480
REMARK  8 active torsions:
REMARK  status: ('A' for Active; 'I' for Inactive)
REMARK    1  A    between atoms: N_2  and  C_15
REMARK    2  A    between atoms: C_15  and  C_16
REMARK    3  A    between atoms: C_16  and  C_17
REMARK    4  A    between atoms: C_17  and  C_20
REMARK    5  A    between atoms: C_20  and  C_21
REMARK    6  A    between atoms: C_21  and  P_22
REMARK    7  A    between atoms: P_22  and  O_24
REMARK    8  A    between atoms: P_22  and  O_26
REMARK                            x       y       z     vdW  Elec       q    Type
REMARK                         _______ _______ _______ _____ _____    ______ ____
ROOT
ATOM      1  O   UNL     1       5.412  -0.222   0.500  0.00  0.00    -0.268 OA
ATOM      2  N   UNL     1       1.274   1.317  -0.460  0.00  0.00    -0.261 N 
ATOM      3  N   UNL     1       3.400   1.889  -0.062  0.00  0.00    -0.240 NA
ATOM      4  N   UNL     1       1.418  -1.091  -0.263  0.00  0.00    -0.357 NA
ATOM      5  N   UNL     1       3.664  -1.750   0.246  0.00  0.00    -0.243 N 
ATOM      6  N   UNL     1       1.963  -3.360   0.008  0.00  0.00    -0.321 N 
ATOM      7  C   UNL     1       1.948   0.152  -0.240  0.00  0.00    +0.210 C 
ATOM      8  C   UNL     1       2.190   2.334  -0.342  0.00  0.00    +0.222 C 
ATOM      9  C   UNL     1       3.245   0.536   0.000  0.00  0.00    +0.176 C 
ATOM     10  C   UNL     1       4.234  -0.469   0.274  0.00  0.00    +0.273 C 
ATOM     11  C   UNL     1       2.302  -2.032  -0.015  0.00  0.00    +0.239 C 
ATOM     12  H   UNL     1       4.259  -2.514   0.422  0.00  0.00    +0.159 HD
ATOM     13  H   UNL     1       1.033  -3.634  -0.164  0.00  0.00    +0.146 HD
ATOM     14  H   UNL     1       2.649  -4.040   0.197  0.00  0.00    +0.146 HD
ENDROOT
BRANCH   2  15
ATOM     15  C   UNL     1      -0.194   1.478  -0.773  0.00  0.00    +0.095 C 
BRANCH  15  16
ATOM     16  C   UNL     1      -0.982   1.940   0.462  0.00  0.00    +0.022 C 
BRANCH  16  17
ATOM     17  C   UNL     1      -2.514   2.108   0.262  0.00  0.00    +0.002 C 
ATOM     18  C   UNL     1      -3.193   2.518   1.582  0.00  0.00    +0.000 C 
ATOM     19  C   UNL     1      -2.808   3.195  -0.794  0.00  0.00    +0.000 C 
BRANCH  17  20
ATOM     20  C   UNL     1      -3.130   0.778  -0.265  0.00  0.00    +0.013 C 
BRANCH  20  21
ATOM     21  C   UNL     1      -3.014  -0.432   0.659  0.00  0.00    +0.116 C 
BRANCH  21  22
ATOM     22  P   UNL     1      -3.778  -1.905  -0.071  0.00  0.00    +0.337 P 
ATOM     23  O   UNL     1      -5.226  -1.738  -0.358  0.00  0.00    -0.258 OA
BRANCH  22  24
ATOM     24  O   UNL     1      -2.826  -2.192  -1.335  0.00  0.00    -0.324 OA
ATOM     25  H   UNL     1      -3.146  -2.975  -1.810  0.00  0.00    +0.220 HD
ENDBRANCH  22  24
BRANCH  22  26
ATOM     26  O   UNL     1      -3.385  -3.052   0.985  0.00  0.00    -0.324 OA
ATOM     27  H   UNL     1      -3.749  -3.902   0.691  0.00  0.00    +0.220 HD
ENDBRANCH  22  26
ENDBRANCH  21  22
ENDBRANCH  20  21
ENDBRANCH  17  20
ENDBRANCH  16  17
ENDBRANCH  15  16
ENDBRANCH   2  15
TORSDOF 8
