135492361
  -OEChem-03292013293D

 30 32  0     1  0  0  0  0  0999 V2000
    2.0249    0.4996    0.9802 O   0  0  0  0  0  0  0  0  0  0  0  0
    1.2233   -2.2797   -1.1674 O   0  0  0  0  0  0  0  0  0  0  0  0
    3.4681   -2.1034    0.4145 O   0  0  0  0  0  0  0  0  0  0  0  0
    3.7325    2.6290    0.3470 O   0  0  0  0  0  0  0  0  0  0  0  0
   -4.5578    1.4189   -0.4353 O   0  0  0  0  0  0  0  0  0  0  0  0
   -0.2615    0.2363    0.1675 N   0  0  0  0  0  0  0  0  0  0  0  0
   -0.3177    1.5392   -0.1839 N   0  0  0  0  0  0  0  0  0  0  0  0
   -1.6016    1.8602   -0.3555 N   0  0  0  0  0  0  0  0  0  0  0  0
   -1.8338   -1.5765    0.5451 N   0  0  0  0  0  0  0  0  0  0  0  0
   -4.0775   -0.7826    0.1829 N   0  0  0  0  0  0  0  0  0  0  0  0
    1.7124   -0.9983   -0.8252 C   0  0  2  0  0  0  0  0  0  0  0  0
    3.1810   -1.0054   -0.4503 C   0  0  1  0  0  0  0  0  0  0  0  0
    1.0669   -0.4308    0.4347 C   0  0  1  0  0  0  0  0  0  0  0  0
    3.3114    0.2778    0.3604 C   0  0  1  0  0  0  0  0  0  0  0  0
    3.6444    1.4928   -0.4946 C   0  0  0  0  0  0  0  0  0  0  0  0
   -1.5072   -0.3040    0.2277 C   0  0  0  0  0  0  0  0  0  0  0  0
   -2.3309    0.7421   -0.1064 C   0  0  0  0  0  0  0  0  0  0  0  0
   -3.7539    0.5412   -0.1478 C   0  0  0  0  0  0  0  0  0  0  0  0
   -3.1231   -1.7562    0.5064 C   0  0  0  0  0  0  0  0  0  0  0  0
    1.5440   -0.3276   -1.6767 H   0  0  0  0  0  0  0  0  0  0  0  0
    3.8495   -1.0735   -1.3132 H   0  0  0  0  0  0  0  0  0  0  0  0
    0.8584   -1.2001    1.1878 H   0  0  0  0  0  0  0  0  0  0  0  0
    4.0395    0.1868    1.1745 H   0  0  0  0  0  0  0  0  0  0  0  0
    2.8623    1.6899   -1.2346 H   0  0  0  0  0  0  0  0  0  0  0  0
    4.6021    1.3593   -1.0070 H   0  0  0  0  0  0  0  0  0  0  0  0
    1.7607   -2.6085   -1.9080 H   0  0  0  0  0  0  0  0  0  0  0  0
    4.4086   -2.0456    0.6554 H   0  0  0  0  0  0  0  0  0  0  0  0
    3.9497    3.3892   -0.2191 H   0  0  0  0  0  0  0  0  0  0  0  0
   -3.5751   -2.7335    0.7365 H   0  0  0  0  0  0  0  0  0  0  0  0
   -5.0584   -1.0471    0.1876 H   0  0  0  0  0  0  0  0  0  0  0  0
  1 13  1  0  0  0  0
  1 14  1  0  0  0  0
  2 11  1  0  0  0  0
  2 26  1  0  0  0  0
  3 12  1  0  0  0  0
  3 27  1  0  0  0  0
  4 15  1  0  0  0  0
  4 28  1  0  0  0  0
  5 18  2  0  0  0  0
  6  7  1  0  0  0  0
  6 13  1  0  0  0  0
  6 16  1  0  0  0  0
  7  8  2  0  0  0  0
  8 17  1  0  0  0  0
  9 16  1  0  0  0  0
  9 19  2  0  0  0  0
 10 18  1  0  0  0  0
 10 19  1  0  0  0  0
 10 30  1  0  0  0  0
 11 12  1  0  0  0  0
 11 13  1  0  0  0  0
 11 20  1  0  0  0  0
 12 14  1  0  0  0  0
 12 21  1  0  0  0  0
 13 22  1  0  0  0  0
 14 15  1  0  0  0  0
 14 23  1  0  0  0  0
 15 24  1  0  0  0  0
 15 25  1  0  0  0  0
 16 17  2  0  0  0  0
 17 18  1  0  0  0  0
 19 29  1  0  0  0  0
M  END
> <PUBCHEM_COMPOUND_CID>
135492361

> <PUBCHEM_CONFORMER_RMSD>
0.6

> <PUBCHEM_CONFORMER_DIVERSEORDER>
1
11
14
6
7
3
15
2
12
5
13
10
4
9
8

> <PUBCHEM_MMFF94_PARTIAL_CHARGES>
24
1 -0.56
10 -0.49
11 0.28
12 0.28
13 0.54
14 0.28
15 0.28
16 -0.03
17 0.14
18 0.72
19 0.45
2 -0.68
26 0.4
27 0.4
28 0.4
29 0.06
3 -0.68
30 0.37
4 -0.68
5 -0.57
6 0.31
7 -0.42
8 -0.23
9 -0.58

> <PUBCHEM_EFFECTIVE_ROTOR_COUNT>
3

> <PUBCHEM_PHARMACOPHORE_FEATURES>
12
1 1 acceptor
1 10 donor
1 2 acceptor
1 2 donor
1 3 acceptor
1 3 donor
1 4 acceptor
1 4 donor
1 5 acceptor
5 1 11 12 13 14 rings
5 6 7 8 16 17 rings
6 9 10 16 17 18 19 rings

> <PUBCHEM_HEAVY_ATOM_COUNT>
19

> <PUBCHEM_ATOM_DEF_STEREO_COUNT>
4

> <PUBCHEM_ATOM_UDEF_STEREO_COUNT>
0

> <PUBCHEM_BOND_DEF_STEREO_COUNT>
0

> <PUBCHEM_BOND_UDEF_STEREO_COUNT>
0

> <PUBCHEM_ISOTOPIC_ATOM_COUNT>
0

> <PUBCHEM_COMPONENT_COUNT>
1

> <PUBCHEM_CACTVS_TAUTO_COUNT>
-1

> <PUBCHEM_CONFORMER_ID>
0813730900000001

> <PUBCHEM_MMFF94_ENERGY>
45.5679

> <PUBCHEM_FEATURE_SELFOVERLAP>
61.049

> <PUBCHEM_SHAPE_FINGERPRINT>
10608611 8 18410291393525707884
10616163 171 18339927111840280463
107287 299 17988929985046058414
11132069 177 18335698364386869553
11405975 8 18336547127202075475
11578080 2 16662021717695030612
12633257 1 18267871579407455098
13214271 11 18338513148677017469
13296908 3 18408042918211862699
13675066 3 17748833994802070521
15196674 1 18408886239530422411
15219456 202 18412546517649192635
15375358 24 18410572890304088319
15375462 6 18408888464376190334
15536298 74 18409451401107346516
16945 1 18124328116029936342
18175812 5 18411419501066697006
18186145 218 17530679892355381943
200 152 17418084374333052735
20201158 50 18200314312263810575
20279233 1 18341897359631477327
20510252 161 18411421696380716785
20645477 56 18259988141735776165
20645477 70 18272651212230261743
21501502 16 18341338794712908944
221490 88 18409738352547304122
23402539 116 18334849489770392222
23557571 272 18262812863788936654
23559900 14 18338513041487711138
296302 2 18413110580278659989
474 4 17023475277594980932
495365 180 17774421833287353385
5104073 3 18407479959736949481
58051976 378 18343302565677768100
633830 44 18267860589224597477
69090 78 18340762650920803519
7364860 26 18411418389313615392
8809292 202 18335988575311378987
9709674 26 18341055107849601159

> <PUBCHEM_SHAPE_MULTIPOLES>
336.76
8.18
2.32
0.82
2.09
0.1
0.05
1.48
0.01
-1.1
0.15
-0.28
-0.17
0.72

> <PUBCHEM_SHAPE_SELFOVERLAP>
728.817

> <PUBCHEM_SHAPE_VOLUME>
181

> <PUBCHEM_COORDINATE_TYPE>
2
5
10

$$$$
