135432358
  -OEChem-03292013293D

 31 33  0     1  0  0  0  0  0999 V2000
   -1.9397    0.7817   -0.6547 O   0  0  0  0  0  0  0  0  0  0  0  0
   -1.1463   -2.5499    0.3351 O   0  0  0  0  0  0  0  0  0  0  0  0
   -3.7948   -1.4216    1.4818 O   0  0  0  0  0  0  0  0  0  0  0  0
   -4.3460    2.2318   -0.9608 O   0  0  0  0  0  0  0  0  0  0  0  0
    4.7509    1.1797    0.7277 O   0  0  0  0  0  0  0  0  0  0  0  0
    0.3554    0.3240   -0.0046 N   0  0  0  0  0  0  0  0  0  0  0  0
    0.3684    1.4457    0.7450 N   0  0  0  0  0  0  0  0  0  0  0  0
    1.8694   -1.2638   -1.0101 N   0  0  0  0  0  0  0  0  0  0  0  0
    4.1530   -0.6837   -0.5398 N   0  0  0  0  0  0  0  0  0  0  0  0
   -1.5640   -1.2186    0.5823 C   0  0  2  0  0  0  0  0  0  0  0  0
   -3.0477   -1.0490    0.3397 C   0  0  2  0  0  0  0  0  0  0  0  0
   -0.9654   -0.2612   -0.4439 C   0  0  1  0  0  0  0  0  0  0  0  0
   -3.1388    0.4409    0.0605 C   0  0  2  0  0  0  0  0  0  0  0  0
   -4.3508    0.8266   -0.7685 C   0  0  0  0  0  0  0  0  0  0  0  0
    1.5996   -0.1557   -0.2796 C   0  0  0  0  0  0  0  0  0  0  0  0
    2.4792    0.7089    0.3302 C   0  0  0  0  0  0  0  0  0  0  0  0
    1.6723    1.6750    0.9461 C   0  0  0  0  0  0  0  0  0  0  0  0
    3.8955    0.4653    0.2191 C   0  0  0  0  0  0  0  0  0  0  0  0
    3.1496   -1.4761   -1.1055 C   0  0  0  0  0  0  0  0  0  0  0  0
   -1.2863   -0.9611    1.6108 H   0  0  0  0  0  0  0  0  0  0  0  0
   -0.7660   -0.7365   -1.4115 H   0  0  0  0  0  0  0  0  0  0  0  0
   -3.3856   -1.6545   -0.5091 H   0  0  0  0  0  0  0  0  0  0  0  0
   -3.1348    1.0261    0.9891 H   0  0  0  0  0  0  0  0  0  0  0  0
   -5.2795    0.5432   -0.2638 H   0  0  0  0  0  0  0  0  0  0  0  0
   -4.3155    0.3560   -1.7565 H   0  0  0  0  0  0  0  0  0  0  0  0
   -1.3919   -2.7842   -0.5760 H   0  0  0  0  0  0  0  0  0  0  0  0
   -3.5023   -0.8760    2.2315 H   0  0  0  0  0  0  0  0  0  0  0  0
    1.9665    2.5345    1.5311 H   0  0  0  0  0  0  0  0  0  0  0  0
   -5.1300    2.4506   -1.4929 H   0  0  0  0  0  0  0  0  0  0  0  0
    3.5504   -2.3354   -1.6651 H   0  0  0  0  0  0  0  0  0  0  0  0
    5.1219   -0.9531   -0.6847 H   0  0  0  0  0  0  0  0  0  0  0  0
  1 12  1  0  0  0  0
  1 13  1  0  0  0  0
  2 10  1  0  0  0  0
  2 26  1  0  0  0  0
  3 11  1  0  0  0  0
  3 27  1  0  0  0  0
  4 14  1  0  0  0  0
  4 29  1  0  0  0  0
  5 18  2  0  0  0  0
  6  7  1  0  0  0  0
  6 12  1  0  0  0  0
  6 15  1  0  0  0  0
  7 17  2  0  0  0  0
  8 15  1  0  0  0  0
  8 19  2  0  0  0  0
  9 18  1  0  0  0  0
  9 19  1  0  0  0  0
  9 31  1  0  0  0  0
 10 11  1  0  0  0  0
 10 12  1  0  0  0  0
 10 20  1  0  0  0  0
 11 13  1  0  0  0  0
 11 22  1  0  0  0  0
 12 21  1  0  0  0  0
 13 14  1  0  0  0  0
 13 23  1  0  0  0  0
 14 24  1  0  0  0  0
 14 25  1  0  0  0  0
 15 16  2  0  0  0  0
 16 17  1  0  0  0  0
 16 18  1  0  0  0  0
 17 28  1  0  0  0  0
 19 30  1  0  0  0  0
M  END
> <PUBCHEM_COMPOUND_CID>
135432358

> <PUBCHEM_CONFORMER_RMSD>
0.6

> <PUBCHEM_CONFORMER_DIVERSEORDER>
1
120
38
106
89
66
97
131
17
132
42
125
113
56
31
96
50
98
110
52
8
123
53
128
139
86
87
57
100
51
95
18
59
124
33
109
26
13
78
104
94
134
39
76
130
54
11
36
127
105
24
37
91
63
27
67
119
65
85
19
30
118
32
45
23
2
4
25
69
107
108
21
14
135
101
73
29
81
12
9
79
117
28
75
90
136
41
60
5
112
111
72
93
40
116
126
74
77
47
6
35
64
7
115
22
122
80
88
3
20
15
16
10
121
137
82
46
83
84
44
129
58
71
138
102
133
61
68
103
55
49
92
62
114
34
70
43
48
99

> <PUBCHEM_MMFF94_PARTIAL_CHARGES>
25
1 -0.56
10 0.28
11 0.28
12 0.54
13 0.28
14 0.28
15 -0.03
16 -0.09
17 0.14
18 0.72
19 0.45
2 -0.68
26 0.4
27 0.4
28 0.15
29 0.4
3 -0.68
30 0.06
31 0.37
4 -0.68
5 -0.57
6 0.31
7 -0.71
8 -0.58
9 -0.49

> <PUBCHEM_EFFECTIVE_ROTOR_COUNT>
3

> <PUBCHEM_PHARMACOPHORE_FEATURES>
13
1 1 acceptor
1 2 acceptor
1 2 donor
1 3 acceptor
1 3 donor
1 4 acceptor
1 4 donor
1 5 acceptor
1 7 acceptor
1 9 donor
5 1 10 11 12 13 rings
5 6 7 15 16 17 rings
6 8 9 15 16 18 19 rings

> <PUBCHEM_HEAVY_ATOM_COUNT>
19

> <PUBCHEM_ATOM_DEF_STEREO_COUNT>
0

> <PUBCHEM_ATOM_UDEF_STEREO_COUNT>
4

> <PUBCHEM_BOND_DEF_STEREO_COUNT>
0

> <PUBCHEM_BOND_UDEF_STEREO_COUNT>
0

> <PUBCHEM_ISOTOPIC_ATOM_COUNT>
0

> <PUBCHEM_COMPONENT_COUNT>
1

> <PUBCHEM_CACTVS_TAUTO_COUNT>
-1

> <PUBCHEM_CONFORMER_ID>
081288A600000001

> <PUBCHEM_MMFF94_ENERGY>
43.7302

> <PUBCHEM_FEATURE_SELFOVERLAP>
66.103

> <PUBCHEM_SHAPE_FINGERPRINT>
10608611 8 18339920519128713105
11471102 20 18059852861820327084
11796584 16 17968659311773729122
12236239 1 15646770098314021653
124424 183 18343018882671057828
12500047 106 18409724088501705287
13134695 92 17561360664985980168
13296908 3 18341900688041175670
13464514 151 18051975818980321277
13544592 145 18337958874504955670
13675066 3 18410577313793310184
14115302 16 18334023782655603740
14386348 63 18412829087911116086
15219456 202 18341614832224086462
15375358 24 18342172271871519580
15653759 3 18261395584821594643
16945 1 17988647436512153016
18186145 218 18340212894890371235
19049666 15 18339647750103290139
19422 9 16153431679006095059
200 152 17203603800896867765
20201158 50 18344149189414936150
20279233 1 18413109471881763550
20645477 56 18408039636967702673
20645477 70 17845934035298373582
221357 26 18130213862504896037
23402539 116 18336533980307370628
23402655 69 17989198218638900997
23526113 38 18200589185790969001
23557571 272 18187368761079274860
23559900 14 18410577241496557334
25 1 18266454317962762917
296302 2 18273214226982342216
34934 24 18272923938885792486
4072396 5 18129081382696827002
474 4 15624792038022919042
495365 180 17703490160831512592
5104073 3 18410856551282042442
6049 1 18337680809990734121
69090 78 18272651294272639455
77492 1 15769780151798892511
8809292 202 18410862096211681202
9709674 26 18341333391454503790

> <PUBCHEM_SHAPE_MULTIPOLES>
341.74
8.85
1.99
1.05
0.3
0.23
0.04
-1.8
-0.67
0.67
0.1
0.36
0.08
2.04

> <PUBCHEM_SHAPE_SELFOVERLAP>
741.221

> <PUBCHEM_SHAPE_VOLUME>
184.7

> <PUBCHEM_COORDINATE_TYPE>
2
5
10

$$$$
