REMARK  Name = 135410347
REMARK  5 active torsions:
REMARK  status: ('A' for Active; 'I' for Inactive)
REMARK    1  A    between atoms: N_3  and  C1*_15
REMARK    2  A    between atoms: C2*_14  and  O2*_18
REMARK    3  A    between atoms: C3*_16  and  O3*_20
REMARK    4  A    between atoms: C4*_17  and  C5*_22
REMARK    5  A    between atoms: C5*_22  and  O5*_23
REMARK                            x       y       z     vdW  Elec       q    Type
REMARK                         _______ _______ _______ _____ _____    ______ ____
ROOT
ATOM      1 CL   UNL     1      -0.314  -3.513   0.643  0.00  0.00    -0.032 Cl
ATOM      2  O   UNL     1      -4.673  -0.011  -0.273  0.00  0.00    -0.267 OA
ATOM      3  N   UNL     1      -0.268  -0.852   0.310  0.00  0.00    -0.211 N 
ATOM      4  N   UNL     1      -2.313  -1.753   0.203  0.00  0.00    -0.368 NA
ATOM      5  N   UNL     1      -0.795   1.487  -0.044  0.00  0.00    -0.231 NA
ATOM      6  N   UNL     1      -3.166   1.771  -0.336  0.00  0.00    -0.278 N 
ATOM      7  C   UNL     1      -1.128   0.182   0.086  0.00  0.00    +0.171 C 
ATOM      8  C   UNL     1      -1.028  -1.995   0.373  0.00  0.00    +0.251 C 
ATOM      9  C   UNL     1      -2.373  -0.402   0.025  0.00  0.00    +0.218 C 
ATOM     10  C   UNL     1      -3.530   0.424  -0.205  0.00  0.00    +0.280 C 
ATOM     11  C   UNL     1      -1.845   2.228  -0.251  0.00  0.00    +0.220 C 
ATOM     12  H   UNL     1      -3.877   2.432  -0.497  0.00  0.00    +0.152 HD
ENDROOT
BRANCH   3  15
ATOM     13  O4* UNL     1       1.613   0.516   1.052  0.00  0.00    -0.333 OA
ATOM     14  C2* UNL     1       1.968  -0.811  -0.876  0.00  0.00    +0.187 C 
ATOM     15  C1* UNL     1       1.232  -0.743   0.458  0.00  0.00    +0.230 C 
ATOM     16  C3* UNL     1       3.254  -0.073  -0.563  0.00  0.00    +0.171 C 
ATOM     17  C4* UNL     1       2.771   1.037   0.362  0.00  0.00    +0.175 C 
BRANCH  14  18
ATOM     18  O2* UNL     1       2.184  -2.135  -1.320  0.00  0.00    -0.378 OA
ATOM     19  H2* UNL     1       1.331  -2.558  -1.505  0.00  0.00    +0.211 HD
ENDBRANCH  14  18
BRANCH  16  20
ATOM     20  O3* UNL     1       4.140  -0.910   0.180  0.00  0.00    -0.379 OA
ATOM     21  H3* UNL     1       4.462  -1.626  -0.390  0.00  0.00    +0.211 HD
ENDBRANCH  16  20
BRANCH  17  22
ATOM     22  C5* UNL     1       2.354   2.297  -0.384  0.00  0.00    +0.169 C 
BRANCH  22  23
ATOM     23  O5* UNL     1       1.913   3.257   0.559  0.00  0.00    -0.379 OA
ATOM     24  H5* UNL     1       1.645   4.066   0.095  0.00  0.00    +0.211 HD
ENDBRANCH  22  23
ENDBRANCH  17  22
ENDBRANCH   3  15
TORSDOF 5
