REMARK  Name = 135406970
REMARK  2 active torsions:
REMARK  status: ('A' for Active; 'I' for Inactive)
REMARK    1  A    between atoms: N_6  and  C_9
REMARK    2  A    between atoms: N_6  and  C_16
REMARK                            x       y       z     vdW  Elec       q    Type
REMARK                         _______ _______ _______ _____ _____    ______ ____
ROOT
ATOM      1 CL   UNL     1       4.082  -3.135   0.013  0.00  0.00    -0.075 Cl
ATOM      2  S   UNL     1       1.597   2.065   0.112  0.00  0.00    +0.069 S 
ATOM      3  S   UNL     1       3.505  -0.220   0.126  0.00  0.00    -0.054 S 
ATOM      4  O   UNL     1       1.998   2.485   1.438  0.00  0.00    -0.152 OA
ATOM      5  O   UNL     1       2.173   2.618  -1.095  0.00  0.00    -0.152 OA
ATOM      6  N   UNL     1      -0.105   2.053  -0.006  0.00  0.00    -0.147 NA
ATOM      7  N   UNL     1      -0.356  -0.388  -0.155  0.00  0.00    -0.305 N 
ATOM      8  C   UNL     1      -0.936   0.877  -0.129  0.00  0.00    +0.226 C 
ATOM      9  C   UNL     1       0.978  -0.631  -0.074  0.00  0.00    +0.073 C 
ATOM     10  C   UNL     1       1.919   0.354   0.044  0.00  0.00    +0.165 C 
ATOM     11  C   UNL     1       1.579  -1.920  -0.100  0.00  0.00    +0.034 C 
ATOM     12  C   UNL     1       2.955  -1.844   0.001  0.00  0.00    +0.089 C 
ATOM     13  H   UNL     1      -0.562   2.925   0.010  0.00  0.00    +0.152 HD
ATOM     14  H   UNL     1      -0.957  -1.163  -0.239  0.00  0.00    +0.149 HD
ENDROOT
BRANCH   8  15
ATOM     15  N   UNL     1      -2.219   1.061  -0.209  0.00  0.00    -0.187 NA
BRANCH  15  16
ATOM     16  C   UNL     1      -2.970  -0.179  -0.328  0.00  0.00    +0.062 C 
ATOM     17  C   UNL     1      -4.418   0.011   0.194  0.00  0.00    +0.016 C 
ATOM     18  C   UNL     1      -2.724  -1.093   0.901  0.00  0.00    +0.016 C 
ATOM     19  C   UNL     1      -4.249  -1.313   0.967  0.00  0.00    +0.003 C 
ATOM     20  C   UNL     1      -2.807  -0.800  -1.701  0.00  0.00    +0.018 C 
ENDBRANCH  15  16
ENDBRANCH   8  15
TORSDOF 2
