135464206
  -OEChem-03292013293D

 34 38  0     0  0  0  0  0  0999 V2000
   -2.0023   -1.8103    0.0005 O   0  0  0  0  0  0  0  0  0  0  0  0
    2.0022    1.8104    0.0008 O   0  0  0  0  0  0  0  0  0  0  0  0
    0.7355   -2.6458    0.0003 O   0  0  0  0  0  0  0  0  0  0  0  0
   -0.7354    2.6458    0.0003 O   0  0  0  0  0  0  0  0  0  0  0  0
    6.1516   -1.7472   -0.0013 O   0  0  0  0  0  0  0  0  0  0  0  0
   -6.1519    1.7466   -0.0010 O   0  0  0  0  0  0  0  0  0  0  0  0
   -6.7463   -0.9537    0.0003 O   0  0  0  0  0  0  0  0  0  0  0  0
    6.7465    0.9535   -0.0006 O   0  0  0  0  0  0  0  0  0  0  0  0
    1.3608   -0.3601    0.0005 C   0  0  0  0  0  0  0  0  0  0  0  0
   -1.3609    0.3602    0.0000 C   0  0  0  0  0  0  0  0  0  0  0  0
    0.9428    0.9633    0.0005 C   0  0  0  0  0  0  0  0  0  0  0  0
   -0.9428   -0.9632    0.0004 C   0  0  0  0  0  0  0  0  0  0  0  0
   -2.7807    0.3228   -0.0004 C   0  0  0  0  0  0  0  0  0  0  0  0
    2.7807   -0.3227    0.0004 C   0  0  0  0  0  0  0  0  0  0  0  0
   -0.4106    1.4660    0.0002 C   0  0  0  0  0  0  0  0  0  0  0  0
    0.4106   -1.4659    0.0004 C   0  0  0  0  0  0  0  0  0  0  0  0
    3.1220    1.0299    0.0007 C   0  0  0  0  0  0  0  0  0  0  0  0
   -3.1219   -1.0299   -0.0001 C   0  0  0  0  0  0  0  0  0  0  0  0
    3.8184   -1.2729    0.0000 C   0  0  0  0  0  0  0  0  0  0  0  0
   -3.8183    1.2729   -0.0008 C   0  0  0  0  0  0  0  0  0  0  0  0
    4.4334    1.5033    0.0006 C   0  0  0  0  0  0  0  0  0  0  0  0
   -4.4334   -1.5034    0.0002 C   0  0  0  0  0  0  0  0  0  0  0  0
    5.1461   -0.8244   -0.0007 C   0  0  0  0  0  0  0  0  0  0  0  0
   -5.1461    0.8244   -0.0006 C   0  0  0  0  0  0  0  0  0  0  0  0
    5.4456    0.5395   -0.0005 C   0  0  0  0  0  0  0  0  0  0  0  0
   -5.4456   -0.5395   -0.0001 C   0  0  0  0  0  0  0  0  0  0  0  0
   -3.5899    2.3348   -0.0011 H   0  0  0  0  0  0  0  0  0  0  0  0
    3.5899   -2.3348   -0.0001 H   0  0  0  0  0  0  0  0  0  0  0  0
   -4.6467   -2.5663    0.0007 H   0  0  0  0  0  0  0  0  0  0  0  0
    4.6468    2.5662    0.0009 H   0  0  0  0  0  0  0  0  0  0  0  0
   -5.7645    2.6388   -0.0013 H   0  0  0  0  0  0  0  0  0  0  0  0
    5.7639   -2.6392   -0.0015 H   0  0  0  0  0  0  0  0  0  0  0  0
   -6.7693   -1.9261    0.0006 H   0  0  0  0  0  0  0  0  0  0  0  0
    6.7695    1.9259    0.0000 H   0  0  0  0  0  0  0  0  0  0  0  0
  1 12  1  0  0  0  0
  1 18  1  0  0  0  0
  2 11  1  0  0  0  0
  2 17  1  0  0  0  0
  3 16  2  0  0  0  0
  4 15  2  0  0  0  0
  5 23  1  0  0  0  0
  5 32  1  0  0  0  0
  6 24  1  0  0  0  0
  6 31  1  0  0  0  0
  7 26  1  0  0  0  0
  7 33  1  0  0  0  0
  8 25  1  0  0  0  0
  8 34  1  0  0  0  0
  9 11  2  0  0  0  0
  9 14  1  0  0  0  0
  9 16  1  0  0  0  0
 10 12  2  0  0  0  0
 10 13  1  0  0  0  0
 10 15  1  0  0  0  0
 11 15  1  0  0  0  0
 12 16  1  0  0  0  0
 13 18  1  0  0  0  0
 13 20  2  0  0  0  0
 14 17  1  0  0  0  0
 14 19  2  0  0  0  0
 17 21  2  0  0  0  0
 18 22  2  0  0  0  0
 19 23  1  0  0  0  0
 19 28  1  0  0  0  0
 20 24  1  0  0  0  0
 20 27  1  0  0  0  0
 21 25  1  0  0  0  0
 21 30  1  0  0  0  0
 22 26  1  0  0  0  0
 22 29  1  0  0  0  0
 23 25  2  0  0  0  0
 24 26  2  0  0  0  0
M  END
> <PUBCHEM_COMPOUND_CID>
135464206

> <PUBCHEM_CONFORMER_RMSD>
0.6

> <PUBCHEM_CONFORMER_DIVERSEORDER>
1

> <PUBCHEM_MMFF94_PARTIAL_CHARGES>
32
1 -0.28
10 -0.09
11 0.05
12 0.05
15 0.74
16 0.74
17 0.14
18 0.14
19 -0.15
2 -0.28
20 -0.15
21 -0.15
22 -0.15
23 0.08
24 0.08
25 0.08
26 0.08
27 0.15
28 0.15
29 0.15
3 -0.57
30 0.15
31 0.45
32 0.45
33 0.45
34 0.45
4 -0.57
5 -0.53
6 -0.53
7 -0.53
8 -0.53
9 -0.09

> <PUBCHEM_EFFECTIVE_ROTOR_COUNT>
0

> <PUBCHEM_PHARMACOPHORE_FEATURES>
13
1 1 acceptor
1 2 acceptor
1 3 acceptor
1 4 acceptor
1 5 donor
1 6 donor
1 7 donor
1 8 donor
5 1 10 12 13 18 rings
5 2 9 11 14 17 rings
6 13 18 20 22 24 26 rings
6 14 17 19 21 23 25 rings
6 9 10 11 12 15 16 rings

> <PUBCHEM_HEAVY_ATOM_COUNT>
26

> <PUBCHEM_ATOM_DEF_STEREO_COUNT>
0

> <PUBCHEM_ATOM_UDEF_STEREO_COUNT>
0

> <PUBCHEM_BOND_DEF_STEREO_COUNT>
0

> <PUBCHEM_BOND_UDEF_STEREO_COUNT>
0

> <PUBCHEM_ISOTOPIC_ATOM_COUNT>
0

> <PUBCHEM_COMPONENT_COUNT>
1

> <PUBCHEM_CACTVS_TAUTO_COUNT>
-1

> <PUBCHEM_CONFORMER_ID>
0813050E00000001

> <PUBCHEM_MMFF94_ENERGY>
49.121

> <PUBCHEM_FEATURE_SELFOVERLAP>
66.403

> <PUBCHEM_SHAPE_FINGERPRINT>
10 15 18337381756414832784
10411042 1 17834114144247381490
10906281 52 18337692852619907698
11524674 6 16774077379729346895
11578080 2 16735501968036421463
12107183 9 17762338011434976000
12166972 35 18335142015809108485
12236239 1 18410855455833194561
12403259 415 18411125961537875345
12516196 113 18202844370160631728
12788726 201 17774729675152982920
12838862 33 18338779191667701192
13140716 1 18410855503077835025
13402501 40 18410856563934756903
13533116 47 17704073967652862894
13685833 64 18408045130352037867
13862211 1 18410854356385149583
14251764 18 18410856576819658770
14341114 176 18408890641449816707
14790565 3 18410296921159316765
15183329 4 18410573976561516560
15196674 1 18410573998036353031
1813 80 17240199941568186316
18681886 176 18341325694883360233
200 152 18131349713058970985
20028762 73 18272930522739147374
21033648 29 18130495439805785776
21130935 74 18343865502493612746
21236236 1 18341050735899882785
21267235 1 18410017645643516699
21279426 13 18338517421905674687
21421861 104 17897720964289584915
21709351 56 18335132107820184301
21792934 111 18340473492368933008
23402539 116 18272083920096208351
23522609 53 18193587560144499029
23536379 177 18410855460128162016
23559900 14 18342450482473229728
23569943 247 17242441725286497210
3004659 81 18333452032783645454
335352 9 18410573963676615093
34797466 226 16630251402013987240
34934 24 18411133607054097623
350125 39 18410292506402532324
3545911 37 18412263960308996888
38695281 34 18202563960483919687
4073 2 17968944214065426058
4214541 1 18410575089469911521
4463277 17 18410293609691656000
5104073 3 18410855468718097313
59755656 215 18410015399228278894
59755656 520 17385439938265597507
6138700 20 18409168770979761410
9996256 80 18412544344870838855

> <PUBCHEM_SHAPE_MULTIPOLES>
488.11
15.23
2.22
0.59
0
0
0
0
0
0
0
0
0
0

> <PUBCHEM_SHAPE_SELFOVERLAP>
1145.148

> <PUBCHEM_SHAPE_VOLUME>
245.7

> <PUBCHEM_COORDINATE_TYPE>
2
5
10

$$$$
