135492321
  -OEChem-03292013293D

 23 25  0     0  0  0  0  0  0999 V2000
   -1.1347    2.2830   -0.0125 S   0  0  0  0  0  0  0  0  0  0  0  0
    4.5790    1.0511    0.0346 S   0  0  0  0  0  0  0  0  0  0  0  0
   -1.5805   -2.7963   -0.0742 O   0  0  0  0  0  0  0  0  0  0  0  0
   -1.3807   -0.4761   -0.0052 N   0  0  0  0  0  0  0  0  0  0  0  0
    1.8597    1.2715   -0.0034 N   0  0  0  0  0  0  0  0  0  0  0  0
    2.6256   -0.8441    0.0246 N   0  0  0  0  0  0  0  0  0  0  0  0
    0.5384   -1.9907    0.0019 N   0  0  0  0  0  0  0  0  0  0  0  0
   -2.8394   -0.3703   -0.0707 C   0  0  0  0  0  0  0  0  0  0  0  0
   -3.4367    0.9216    0.4567 C   0  0  0  0  0  0  0  0  0  0  0  0
   -0.5444    0.6499   -0.0210 C   0  0  0  0  0  0  0  0  0  0  0  0
   -2.8967    2.1009   -0.3188 C   0  0  0  0  0  0  0  0  0  0  0  0
    0.7738    0.4503   -0.0099 C   0  0  0  0  0  0  0  0  0  0  0  0
    1.2557   -0.9290    0.0059 C   0  0  0  0  0  0  0  0  0  0  0  0
   -0.8400   -1.8105   -0.0265 C   0  0  0  0  0  0  0  0  0  0  0  0
    3.0212    0.4888    0.0185 C   0  0  0  0  0  0  0  0  0  0  0  0
   -3.2799   -1.2039    0.4894 H   0  0  0  0  0  0  0  0  0  0  0  0
   -3.1202   -0.5212   -1.1211 H   0  0  0  0  0  0  0  0  0  0  0  0
   -4.5263    0.8825    0.3403 H   0  0  0  0  0  0  0  0  0  0  0  0
   -3.2376    1.0298    1.5304 H   0  0  0  0  0  0  0  0  0  0  0  0
   -3.0690    1.9793   -1.3936 H   0  0  0  0  0  0  0  0  0  0  0  0
   -3.4002    3.0211   -0.0063 H   0  0  0  0  0  0  0  0  0  0  0  0
    1.8184    2.2832   -0.0105 H   0  0  0  0  0  0  0  0  0  0  0  0
    3.2583   -1.6356    0.0389 H   0  0  0  0  0  0  0  0  0  0  0  0
  1 10  1  0  0  0  0
  1 11  1  0  0  0  0
  2 15  2  0  0  0  0
  3 14  2  0  0  0  0
  4  8  1  0  0  0  0
  4 10  1  0  0  0  0
  4 14  1  0  0  0  0
  5 12  1  0  0  0  0
  5 15  1  0  0  0  0
  5 22  1  0  0  0  0
  6 13  1  0  0  0  0
  6 15  1  0  0  0  0
  6 23  1  0  0  0  0
  7 13  2  0  0  0  0
  7 14  1  0  0  0  0
  8  9  1  0  0  0  0
  8 16  1  0  0  0  0
  8 17  1  0  0  0  0
  9 11  1  0  0  0  0
  9 18  1  0  0  0  0
  9 19  1  0  0  0  0
 10 12  2  0  0  0  0
 11 20  1  0  0  0  0
 11 21  1  0  0  0  0
 12 13  1  0  0  0  0
M  END
> <PUBCHEM_COMPOUND_CID>
135492321

> <PUBCHEM_CONFORMER_RMSD>
0.4

> <PUBCHEM_CONFORMER_DIVERSEORDER>
1

> <PUBCHEM_MMFF94_PARTIAL_CHARGES>
16
1 -0.33
10 0.21
11 0.23
12 0.12
13 0.5
14 0.84
15 0.5
2 -0.38
22 0.37
23 0.37
3 -0.57
4 -0.47
5 -0.54
6 -0.49
7 -0.66
8 0.3

> <PUBCHEM_EFFECTIVE_ROTOR_COUNT>
0.8

> <PUBCHEM_PHARMACOPHORE_FEATURES>
8
1 2 acceptor
1 3 acceptor
1 5 donor
1 6 donor
1 7 donor
5 5 6 12 13 15 rings
6 1 4 8 9 10 11 rings
6 4 7 10 12 13 14 rings

> <PUBCHEM_HEAVY_ATOM_COUNT>
15

> <PUBCHEM_ATOM_DEF_STEREO_COUNT>
0

> <PUBCHEM_ATOM_UDEF_STEREO_COUNT>
0

> <PUBCHEM_BOND_DEF_STEREO_COUNT>
0

> <PUBCHEM_BOND_UDEF_STEREO_COUNT>
0

> <PUBCHEM_ISOTOPIC_ATOM_COUNT>
0

> <PUBCHEM_COMPONENT_COUNT>
1

> <PUBCHEM_CACTVS_TAUTO_COUNT>
-1

> <PUBCHEM_CONFORMER_ID>
081372E100000001

> <PUBCHEM_MMFF94_ENERGY>
40.4851

> <PUBCHEM_FEATURE_SELFOVERLAP>
40.841

> <PUBCHEM_SHAPE_FINGERPRINT>
10411042 1 17762056944639231754
10493431 412 18341903969818508161
10608611 8 18265050228260251229
10967382 1 18410856516769400289
11132069 177 18412261765955482480
11543360 7 15625927772851357360
12346645 44 18410293571111037312
12390115 104 18200050450848137536
13140716 1 18122068868695500441
13380535 76 18412824664137090182
13583140 156 16805593776717261969
13897977 150 18121216481254859909
14325111 11 18338234868903053088
14648413 74 17544476358387297129
14897335 6 18410852144745796628
15196674 1 18410575041919290185
15309172 13 18338806602375759897
15775835 57 18341335513247274297
16945 1 18410007753864147198
18186145 218 18200038326292097540
193761 8 17834396000942522089
20510252 161 18343586217939413833
20645477 56 18411421730671954384
20871998 184 18200317752616952503
21160774 45 18336538395929266445
21501502 16 18338791217491506610
21524375 3 18341046337320322843
2334 1 17834114530002146997
23402539 116 18270954760773593703
23402655 69 18270387279909535845
23463225 33 18190458260099160530
23557571 272 18199764702910963878
23559900 14 18272936021214449556
2748010 2 18193280684856735085
3071541 12 17836369246119705783
5104073 3 18337674118014975912
528886 8 18411414020625019792
53812653 166 18342735208935076336
54173680 148 18265334104134054458
58051976 378 18340484465472602716
6333449 129 18411416232617787445
69090 78 18412259532334884225
7364860 26 17908985404986492543
81228 2 18194108853520365507
9709674 26 18343305877150476462

> <PUBCHEM_SHAPE_MULTIPOLES>
290.6
6.14
2.59
0.62
4.43
0.82
-0.01
-2.98
-0.22
-1.45
0.11
-0.06
-0.08
0.03

> <PUBCHEM_SHAPE_SELFOVERLAP>
612.334

> <PUBCHEM_SHAPE_VOLUME>
164.9

> <PUBCHEM_COORDINATE_TYPE>
2
5
10

$$$$
