REMARK  Name = 135408506
REMARK  5 active torsions:
REMARK  status: ('A' for Active; 'I' for Inactive)
REMARK    1  A    between atoms: N_2  and  C1*_18
REMARK    2  A    between atoms: C2*_16  and  O2*_20
REMARK    3  A    between atoms: C3*_17  and  O3*_22
REMARK    4  A    between atoms: C4*_19  and  C5*_24
REMARK    5  A    between atoms: C5*_24  and  O5*_25
REMARK                            x       y       z     vdW  Elec       q    Type
REMARK                         _______ _______ _______ _____ _____    ______ ____
ROOT
ATOM      1  O   UNL     1       4.340   1.831   0.742  0.00  0.00    -0.268 OA
ATOM      2  N   UNL     1       0.142   0.421  -0.012  0.00  0.00    -0.147 N 
ATOM      3  N   UNL     1       0.101   1.656   0.531  0.00  0.00    -0.040 NA
ATOM      4  N   UNL     1       1.359   2.049   0.744  0.00  0.00    -0.135 NA
ATOM      5  N   UNL     1       1.840  -1.183  -0.666  0.00  0.00    -0.355 NA
ATOM      6  N   UNL     1       4.014  -0.283  -0.199  0.00  0.00    -0.243 N 
ATOM      7  N   UNL     1       3.776  -2.425  -1.151  0.00  0.00    -0.321 N 
ATOM      8  C   UNL     1       1.425  -0.003  -0.159  0.00  0.00    +0.231 C 
ATOM      9  C   UNL     1       2.168   1.042   0.326  0.00  0.00    +0.201 C 
ATOM     10  C   UNL     1       3.599   0.948   0.330  0.00  0.00    +0.276 C 
ATOM     11  C   UNL     1       3.151  -1.301  -0.676  0.00  0.00    +0.239 C 
ATOM     12  H   UNL     1       4.982  -0.454  -0.243  0.00  0.00    +0.159 HD
ATOM     13  H   UNL     1       3.243  -3.175  -1.499  0.00  0.00    +0.146 HD
ATOM     14  H   UNL     1       4.759  -2.481  -1.144  0.00  0.00    +0.146 HD
ENDROOT
BRANCH   2  18
ATOM     15  O4* UNL     1      -2.152   0.634  -0.783  0.00  0.00    -0.332 OA
ATOM     16  C2* UNL     1      -1.716  -1.099   0.792  0.00  0.00    +0.188 C 
ATOM     17  C3* UNL     1      -3.198  -1.054   0.491  0.00  0.00    +0.171 C 
ATOM     18  C1* UNL     1      -1.134  -0.302  -0.372  0.00  0.00    +0.244 C 
ATOM     19  C4* UNL     1      -3.354   0.358  -0.046  0.00  0.00    +0.176 C 
BRANCH  16  20
ATOM     20  O2* UNL     1      -1.226  -2.428   0.791  0.00  0.00    -0.378 OA
ATOM     21  H2* UNL     1      -1.608  -2.915   1.538  0.00  0.00    +0.211 HD
ENDBRANCH  16  20
BRANCH  17  22
ATOM     22  O3* UNL     1      -3.961  -1.263   1.664  0.00  0.00    -0.379 OA
ATOM     23  H3* UNL     1      -3.835  -2.174   1.974  0.00  0.00    +0.211 HD
ENDBRANCH  17  22
BRANCH  19  24
ATOM     24  C5* UNL     1      -4.557   0.528  -0.957  0.00  0.00    +0.169 C 
BRANCH  24  25
ATOM     25  O5* UNL     1      -4.616   1.877  -1.391  0.00  0.00    -0.379 OA
ATOM     26  H5* UNL     1      -5.382   1.995  -1.974  0.00  0.00    +0.211 HD
ENDBRANCH  24  25
ENDBRANCH  19  24
ENDBRANCH   2  18
TORSDOF 5
