REMARK  Name = 135409474
REMARK  5 active torsions:
REMARK  status: ('A' for Active; 'I' for Inactive)
REMARK    1  A    between atoms: N_4  and  C1*_18
REMARK    2  A    between atoms: C2*_17  and  O2*_21
REMARK    3  A    between atoms: C3*_19  and  O3*_23
REMARK    4  A    between atoms: C4*_20  and  C5*_25
REMARK    5  A    between atoms: C5*_25  and  O5*_26
REMARK                            x       y       z     vdW  Elec       q    Type
REMARK                         _______ _______ _______ _____ _____    ______ ____
ROOT
ATOM      1  S   UNL     1       1.468  -2.571  -0.218  0.00  0.00    -0.040 S 
ATOM      2  O   UNL     1      -1.167  -2.452   0.050  0.00  0.00    -0.262 OA
ATOM      3  O   UNL     1       4.488  -1.712  -0.388  0.00  0.00    -0.273 OA
ATOM      4  N   UNL     1       0.061  -0.435   0.223  0.00  0.00    -0.202 N 
ATOM      5  N   UNL     1       1.770   1.280   0.305  0.00  0.00    -0.361 NA
ATOM      6  N   UNL     1       3.993   0.526  -0.016  0.00  0.00    -0.246 N 
ATOM      7  N   UNL     1       3.558   2.797   0.349  0.00  0.00    -0.321 N 
ATOM      8  C   UNL     1       1.394  -0.030   0.154  0.00  0.00    +0.190 C 
ATOM      9  C   UNL     1      -0.125  -1.815   0.042  0.00  0.00    +0.284 C 
ATOM     10  C   UNL     1       2.232  -1.046  -0.072  0.00  0.00    +0.199 C 
ATOM     11  C   UNL     1       3.677  -0.818  -0.179  0.00  0.00    +0.247 C 
ATOM     12  C   UNL     1       3.051   1.532   0.218  0.00  0.00    +0.239 C 
ATOM     13  H   UNL     1       4.941   0.786  -0.069  0.00  0.00    +0.159 HD
ATOM     14  H   UNL     1       2.953   3.556   0.515  0.00  0.00    +0.146 HD
ATOM     15  H   UNL     1       4.528   2.949   0.277  0.00  0.00    +0.146 HD
ENDROOT
BRANCH   4  18
ATOM     16  O4* UNL     1      -2.052  -0.202   1.194  0.00  0.00    -0.333 OA
ATOM     17  C2* UNL     1      -1.662   0.961  -0.833  0.00  0.00    +0.187 C 
ATOM     18  C1* UNL     1      -1.022   0.477   0.457  0.00  0.00    +0.230 C 
ATOM     19  C3* UNL     1      -3.092   1.206  -0.402  0.00  0.00    +0.171 C 
ATOM     20  C4* UNL     1      -3.331   0.064   0.577  0.00  0.00    +0.175 C 
BRANCH  17  21
ATOM     21  O2* UNL     1      -1.047   2.128  -1.339  0.00  0.00    -0.378 OA
ATOM     22  H2* UNL     1      -0.136   1.926  -1.602  0.00  0.00    +0.211 HD
ENDBRANCH  17  21
BRANCH  19  23
ATOM     23  O3* UNL     1      -3.188   2.432   0.323  0.00  0.00    -0.379 OA
ATOM     24  H3* UNL     1      -3.040   3.177  -0.281  0.00  0.00    +0.211 HD
ENDBRANCH  19  23
BRANCH  20  25
ATOM     25  C5* UNL     1      -3.807  -1.216  -0.097  0.00  0.00    +0.169 C 
BRANCH  25  26
ATOM     26  O5* UNL     1      -5.197  -1.107  -0.347  0.00  0.00    -0.379 OA
ATOM     27  H5* UNL     1      -5.514  -1.917  -0.776  0.00  0.00    +0.211 HD
ENDBRANCH  25  26
ENDBRANCH  20  25
ENDBRANCH   4  18
TORSDOF 5
