135412761
  -OEChem-03292013293D

 35 37  0     1  0  0  0  0  0999 V2000
    3.2778    0.4276    1.4047 O   0  0  0  0  0  0  0  0  0  0  0  0
    1.9597   -2.2211   -1.2713 O   0  0  0  0  0  0  0  0  0  0  0  0
    5.8249    0.0305    0.2848 O   0  0  0  0  0  0  0  0  0  0  0  0
   -4.5812    1.5205   -0.5620 O   0  0  0  0  0  0  0  0  0  0  0  0
   -0.2066    0.6383    0.1452 N   0  0  0  0  0  0  0  0  0  0  0  0
   -1.6939    2.2063   -0.4303 N   0  0  0  0  0  0  0  0  0  0  0  0
   -1.6711   -1.2582    0.4878 N   0  0  0  0  0  0  0  0  0  0  0  0
   -3.9476   -0.6345    0.0764 N   0  0  0  0  0  0  0  0  0  0  0  0
   -3.3997   -2.8331    0.7165 N   0  0  0  0  0  0  0  0  0  0  0  0
    2.1721    0.0793   -0.6602 C   0  0  1  0  0  0  0  0  0  0  0  0
    1.1298    0.0100    0.4555 C   0  0  1  0  0  0  0  0  0  0  0  0
    3.4525   -0.2022    0.1238 C   0  0  1  0  0  0  0  0  0  0  0  0
    1.8768    0.6659    1.6144 C   0  0  0  0  0  0  0  0  0  0  0  0
    1.9273   -0.9047   -1.7953 C   0  0  0  0  0  0  0  0  0  0  0  0
    4.7088    0.3406   -0.5337 C   0  0  0  0  0  0  0  0  0  0  0  0
   -1.4285    0.0333    0.1727 C   0  0  0  0  0  0  0  0  0  0  0  0
   -0.4182    1.9446   -0.2231 C   0  0  0  0  0  0  0  0  0  0  0  0
   -2.3170    1.0188   -0.1839 C   0  0  0  0  0  0  0  0  0  0  0  0
   -3.7182    0.7085   -0.2538 C   0  0  0  0  0  0  0  0  0  0  0  0
   -2.9477   -1.5706    0.4321 C   0  0  0  0  0  0  0  0  0  0  0  0
    2.2023    1.0958   -1.0742 H   0  0  0  0  0  0  0  0  0  0  0  0
    0.9139   -1.0322    0.7217 H   0  0  0  0  0  0  0  0  0  0  0  0
    3.5835   -1.2700    0.3367 H   0  0  0  0  0  0  0  0  0  0  0  0
    1.7295    1.7499    1.6571 H   0  0  0  0  0  0  0  0  0  0  0  0
    1.5804    0.2463    2.5808 H   0  0  0  0  0  0  0  0  0  0  0  0
    2.7025   -0.8156   -2.5626 H   0  0  0  0  0  0  0  0  0  0  0  0
    0.9516   -0.7331   -2.2607 H   0  0  0  0  0  0  0  0  0  0  0  0
    4.8645   -0.1041   -1.5209 H   0  0  0  0  0  0  0  0  0  0  0  0
    4.6604    1.4302   -0.6295 H   0  0  0  0  0  0  0  0  0  0  0  0
    0.3899    2.6563   -0.3236 H   0  0  0  0  0  0  0  0  0  0  0  0
    1.8011   -2.8287   -2.0136 H   0  0  0  0  0  0  0  0  0  0  0  0
    6.6129    0.3898   -0.1575 H   0  0  0  0  0  0  0  0  0  0  0  0
   -4.9093   -0.9614    0.0585 H   0  0  0  0  0  0  0  0  0  0  0  0
   -2.7585   -3.5729    0.9814 H   0  0  0  0  0  0  0  0  0  0  0  0
   -4.3860   -3.0646    0.6708 H   0  0  0  0  0  0  0  0  0  0  0  0
  1 12  1  0  0  0  0
  1 13  1  0  0  0  0
  2 14  1  0  0  0  0
  2 31  1  0  0  0  0
  3 15  1  0  0  0  0
  3 32  1  0  0  0  0
  4 19  2  0  0  0  0
  5 11  1  0  0  0  0
  5 16  1  0  0  0  0
  5 17  1  0  0  0  0
  6 17  2  0  0  0  0
  6 18  1  0  0  0  0
  7 16  1  0  0  0  0
  7 20  2  0  0  0  0
  8 19  1  0  0  0  0
  8 20  1  0  0  0  0
  8 33  1  0  0  0  0
  9 20  1  0  0  0  0
  9 34  1  0  0  0  0
  9 35  1  0  0  0  0
 10 11  1  0  0  0  0
 10 12  1  0  0  0  0
 10 14  1  0  0  0  0
 10 21  1  0  0  0  0
 11 13  1  0  0  0  0
 11 22  1  0  0  0  0
 12 15  1  0  0  0  0
 12 23  1  0  0  0  0
 13 24  1  0  0  0  0
 13 25  1  0  0  0  0
 14 26  1  0  0  0  0
 14 27  1  0  0  0  0
 15 28  1  0  0  0  0
 15 29  1  0  0  0  0
 16 18  2  0  0  0  0
 17 30  1  0  0  0  0
 18 19  1  0  0  0  0
M  END
> <PUBCHEM_COMPOUND_CID>
135412761

> <PUBCHEM_CONFORMER_RMSD>
0.6

> <PUBCHEM_CONFORMER_DIVERSEORDER>
1
21
25
40
46
22
9
18
8
15
26
24
39
4
5
44
13
36
33
37
10
6
14
45
38
17
27
28
43
32
11
16
3
30
23
2
35
42
31
29
12
41
20
7
34
19

> <PUBCHEM_MMFF94_PARTIAL_CHARGES>
25
1 -0.56
11 0.26
12 0.28
13 0.28
14 0.28
15 0.28
16 -0.03
17 0.04
18 0.14
19 0.72
2 -0.68
20 0.56
3 -0.68
30 0.15
31 0.4
32 0.4
33 0.37
34 0.4
35 0.4
4 -0.57
5 0.05
6 -0.57
7 -0.58
8 -0.49
9 -0.85

> <PUBCHEM_EFFECTIVE_ROTOR_COUNT>
4

> <PUBCHEM_PHARMACOPHORE_FEATURES>
12
1 1 acceptor
1 2 acceptor
1 2 donor
1 3 acceptor
1 3 donor
1 4 acceptor
1 8 donor
1 9 donor
3 5 6 17 cation
5 1 10 11 12 13 rings
5 5 6 16 17 18 rings
6 7 8 16 18 19 20 rings

> <PUBCHEM_HEAVY_ATOM_COUNT>
20

> <PUBCHEM_ATOM_DEF_STEREO_COUNT>
3

> <PUBCHEM_ATOM_UDEF_STEREO_COUNT>
0

> <PUBCHEM_BOND_DEF_STEREO_COUNT>
0

> <PUBCHEM_BOND_UDEF_STEREO_COUNT>
0

> <PUBCHEM_ISOTOPIC_ATOM_COUNT>
0

> <PUBCHEM_COMPONENT_COUNT>
1

> <PUBCHEM_CACTVS_TAUTO_COUNT>
-1

> <PUBCHEM_CONFORMER_ID>
08123C1900000001

> <PUBCHEM_MMFF94_ENERGY>
46.8603

> <PUBCHEM_FEATURE_SELFOVERLAP>
61.079

> <PUBCHEM_SHAPE_FINGERPRINT>
10366900 7 17989199326502963001
10616163 171 18408041827053072050
11615757 297 15841546379450252208
11796584 16 18337110073504757082
12236239 1 17167580479681696280
13214271 11 18341610438461895997
13544592 145 18198913513275504247
13760787 19 17967526861481902266
14386348 63 18272656739858160367
15099037 37 18410293652747025438
15375358 24 18342735204555465997
16945 1 18334012762065226193
19049666 15 17986393291282398793
200 152 16558744598855752281
20279233 1 18272374156916998415
20645476 183 17095527288275364819
20645477 56 18336265657132625109
20645477 70 17203045166910858324
20681677 155 18186519886805572137
20871999 31 18187644743045709595
21267235 1 18260272988129796091
21682296 61 17130157395272998838
23402539 116 18259982686889621606
23526113 38 17916868993620492450
23557571 272 18410299124434925833
23559900 14 18338802213172319598
2748010 2 18341903986950826447
474 4 14547299208514127058
58051976 378 18412265004397617156
67856867 119 17968381268649896412
77492 1 17022901250456341409
81228 2 18337965480370729353
9709674 26 18341899541174248655

> <PUBCHEM_SHAPE_MULTIPOLES>
363.21
9.18
2.05
1.18
4.44
0.73
0.03
0.45
-0.06
-2.32
0.16
0.93
0.2
1.33

> <PUBCHEM_SHAPE_SELFOVERLAP>
782.804

> <PUBCHEM_SHAPE_VOLUME>
200.2

> <PUBCHEM_COORDINATE_TYPE>
2
5
10

$$$$
