REMARK  Name = 135464201
REMARK  4 active torsions:
REMARK  status: ('A' for Active; 'I' for Inactive)
REMARK    1  A    between atoms: C_10  and  O_23
REMARK    2  A    between atoms: C_11  and  O_25
REMARK    3  A    between atoms: C_14  and  O_27
REMARK    4  A    between atoms: C_19  and  O_29
REMARK                            x       y       z     vdW  Elec       q    Type
REMARK                         _______ _______ _______ _____ _____    ______ ____
ROOT
ATOM      1  O   UNL     1       5.174   0.628   0.593  0.00  0.00    -0.295 OA
ATOM      2  O   UNL     1      -4.737  -1.934   0.386  0.00  0.00    -0.286 OA
ATOM      3  C   UNL     1       0.400  -0.264  -0.056  0.00  0.00    -0.002 C 
ATOM      4  C   UNL     1       0.121   1.197  -0.159  0.00  0.00    +0.036 C 
ATOM      5  C   UNL     1       1.794  -0.727  -0.132  0.00  0.00    -0.004 C 
ATOM      6  C   UNL     1      -0.773  -0.904   0.147  0.00  0.00    -0.000 C 
ATOM      7  C   UNL     1      -1.826   0.105   0.019  0.00  0.00    +0.006 C 
ATOM      8  C   UNL     1      -1.328   1.388  -0.199  0.00  0.00    +0.003 C 
ATOM      9  C   UNL     1       2.840   0.291   0.128  0.00  0.00    +0.137 C 
ATOM     10  C   UNL     1       1.142   2.075  -0.091  0.00  0.00    +0.164 C 
ATOM     11  C   UNL     1       2.185  -1.943  -0.576  0.00  0.00    +0.130 C 
ATOM     12  C   UNL     1      -3.175  -0.188   0.086  0.00  0.00    +0.073 C 
ATOM     13  C   UNL     1       3.631  -2.359  -0.647  0.00  0.00    +0.041 C 
ATOM     14  C   UNL     1       2.519   1.607   0.118  0.00  0.00    +0.155 C 
ATOM     15  C   UNL     1       4.498  -1.644   0.376  0.00  0.00    +0.068 C 
ATOM     16  C   UNL     1       4.256  -0.155   0.362  0.00  0.00    +0.161 C 
ATOM     17  C   UNL     1      -1.157  -2.258   0.451  0.00  0.00    +0.003 C 
ATOM     18  C   UNL     1      -2.216   2.432  -0.373  0.00  0.00    +0.003 C 
ATOM     19  C   UNL     1      -4.079   0.855  -0.083  0.00  0.00    +0.137 C 
ATOM     20  C   UNL     1      -3.561  -1.596   0.336  0.00  0.00    +0.199 C 
ATOM     21  C   UNL     1      -2.457  -2.595   0.540  0.00  0.00    +0.042 C 
ATOM     22  C   UNL     1      -3.595   2.157  -0.314  0.00  0.00    +0.037 C 
ENDROOT
BRANCH  10  23
ATOM     23  O   UNL     1       1.010   3.444  -0.123  0.00  0.00    -0.503 OA
ATOM     24  H   UNL     1       0.166   3.831  -0.252  0.00  0.00    +0.292 HD
ENDBRANCH  10  23
BRANCH  11  25
ATOM     25  O   UNL     1       1.296  -2.870  -1.078  0.00  0.00    -0.380 OA
ATOM     26  H   UNL     1       0.376  -2.689  -1.071  0.00  0.00    +0.211 HD
ENDBRANCH  11  25
BRANCH  14  27
ATOM     27  O   UNL     1       3.464   2.597   0.320  0.00  0.00    -0.506 OA
ATOM     28  H   UNL     1       4.361   2.367   0.459  0.00  0.00    +0.292 HD
ENDBRANCH  14  27
BRANCH  19  29
ATOM     29  O   UNL     1      -5.426   0.662  -0.033  0.00  0.00    -0.505 OA
ATOM     30  H   UNL     1      -5.771  -0.196   0.119  0.00  0.00    +0.292 HD
ENDBRANCH  19  29
TORSDOF 4
