REMARK  Name = 135429737
REMARK  8 active torsions:
REMARK  status: ('A' for Active; 'I' for Inactive)
REMARK    1  A    between atoms: O_1  and  C_7
REMARK    2  A    between atoms: O_1  and  C_16
REMARK    3  A    between atoms: C_2  and  C_8
REMARK    4  A    between atoms: C_8  and  N_9
REMARK    5  A    between atoms: C_16  and  C_17
REMARK    6  A    between atoms: C_17  and  C_18
REMARK    7  A    between atoms: C_18  and  N_24
REMARK    8  A    between atoms: N_24  and  C_27
REMARK                            x       y       z     vdW  Elec       q    Type
REMARK                         _______ _______ _______ _____ _____    ______ ____
ROOT
ATOM      1  O   UNL     1      -0.280   3.297   0.288  0.00  0.00    -0.475 OA
ENDROOT
BRANCH   1   7
ATOM      2  C   UNL     1       3.430   1.435   0.261  0.00  0.00    -0.043 C 
ATOM      3  C   UNL     1       3.054   2.257  -0.802  0.00  0.00    -0.003 C 
ATOM      4  C   UNL     1       2.559   1.238   1.332  0.00  0.00    -0.003 C 
ATOM      5  C   UNL     1       1.808   2.883  -0.792  0.00  0.00    +0.037 C 
ATOM      6  C   UNL     1       1.312   1.864   1.342  0.00  0.00    +0.037 C 
ATOM      7  C   UNL     1       0.937   2.687   0.280  0.00  0.00    +0.139 C 
BRANCH   2   8
ATOM      8  C   UNL     1       4.775   0.759   0.251  0.00  0.00    -0.050 C 
BRANCH   8   9
ATOM      9  N   UNL     1       4.654  -0.697   0.328  0.00  0.00    +0.390 N 
ATOM     10  C   UNL     1       5.915  -1.294   0.788  0.00  0.00    -0.077 C 
ATOM     11  C   UNL     1       4.248  -1.248  -0.973  0.00  0.00    -0.077 C 
ATOM     12  C   UNL     1       4.069  -2.765  -0.898  0.00  0.00    -0.023 C 
ATOM     13  C   UNL     1       5.790  -2.813   0.921  0.00  0.00    -0.023 C 
ATOM     14  C   UNL     1       5.333  -3.448  -0.387  0.00  0.00    -0.004 C 
ATOM     15  H   UNL     1       3.929  -0.929   1.007  0.00  0.00    -0.079 HD
ENDBRANCH   8   9
ENDBRANCH   2   8
ENDBRANCH   1   7
BRANCH   1  16
ATOM     16  C   UNL     1      -0.888   3.550  -0.977  0.00  0.00    +0.207 C 
BRANCH  16  17
ATOM     17  C   UNL     1      -2.402   3.525  -0.807  0.00  0.00    +0.066 C 
BRANCH  17  18
ATOM     18  C   UNL     1      -2.914   2.194  -0.276  0.00  0.00    +0.094 C 
BRANCH  18  19
ATOM     19  N   UNL     1      -2.583   1.123  -1.217  0.00  0.00    -0.198 NA
BRANCH  19  27
ATOM     20  S   UNL     1      -3.571  -2.631  -0.808  0.00  0.00    +0.062 S 
ATOM     21  S   UNL     1      -5.077  -0.503   2.524  0.00  0.00    -0.085 S 
ATOM     22  O   UNL     1      -4.763  -3.071  -1.496  0.00  0.00    -0.153 OA
ATOM     23  O   UNL     1      -2.579  -3.507  -0.230  0.00  0.00    -0.153 OA
ATOM     24  N   UNL     1      -2.842  -1.269  -1.595  0.00  0.00    -0.161 NA
ATOM     25  C   UNL     1      -4.141  -1.687   0.501  0.00  0.00    +0.128 C 
ATOM     26  C   UNL     1      -3.767  -0.328   0.325  0.00  0.00    +0.036 C 
ATOM     27  C   UNL     1      -3.012  -0.035  -0.877  0.00  0.00    +0.173 C 
ATOM     28  C   UNL     1      -4.851  -1.963   1.629  0.00  0.00    +0.055 C 
ATOM     29  C   UNL     1      -4.214   0.448   1.364  0.00  0.00    +0.035 C 
ATOM     30  H   UNL     1      -2.360  -1.334  -2.451  0.00  0.00    +0.151 HD
ENDBRANCH  19  27
ENDBRANCH  18  19
ENDBRANCH  17  18
ENDBRANCH  16  17
ENDBRANCH   1  16
TORSDOF 8
