REMARK  Name = 135433410
REMARK  5 active torsions:
REMARK  status: ('A' for Active; 'I' for Inactive)
REMARK    1  A    between atoms: N_2  and  C_15
REMARK    2  A    between atoms: C_15  and  C_16
REMARK    3  A    between atoms: C_16  and  C_17
REMARK    4  A    between atoms: C_17  and  C_18
REMARK    5  A    between atoms: C_18  and  O_19
REMARK                            x       y       z     vdW  Elec       q    Type
REMARK                         _______ _______ _______ _____ _____    ______ ____
ROOT
ATOM      1  O   UNL     1      -4.113   0.800   0.774  0.00  0.00    -0.268 OA
ATOM      2  N   UNL     1       0.213   1.028  -0.509  0.00  0.00    -0.261 N 
ATOM      3  N   UNL     1      -1.575   2.205   0.137  0.00  0.00    -0.240 NA
ATOM      4  N   UNL     1      -0.686  -1.218  -0.440  0.00  0.00    -0.357 NA
ATOM      5  N   UNL     1      -2.978  -1.174   0.255  0.00  0.00    -0.243 N 
ATOM      6  N   UNL     1      -1.914  -3.213  -0.251  0.00  0.00    -0.321 N 
ATOM      7  C   UNL     1      -0.782   0.121  -0.291  0.00  0.00    +0.210 C 
ATOM      8  C   UNL     1      -1.862   0.873   0.103  0.00  0.00    +0.176 C 
ATOM      9  C   UNL     1      -0.312   2.268  -0.238  0.00  0.00    +0.222 C 
ATOM     10  C   UNL     1      -3.099   0.213   0.416  0.00  0.00    +0.273 C 
ATOM     11  C   UNL     1      -1.806  -1.849  -0.160  0.00  0.00    +0.239 C 
ATOM     12  H   UNL     1      -3.773  -1.723   0.445  0.00  0.00    +0.159 HD
ATOM     13  H   UNL     1      -1.139  -3.750  -0.533  0.00  0.00    +0.146 HD
ATOM     14  H   UNL     1      -2.767  -3.654  -0.034  0.00  0.00    +0.146 HD
ENDROOT
BRANCH   2  15
ATOM     15  C   UNL     1       1.563   0.755  -0.941  0.00  0.00    +0.095 C 
BRANCH  15  16
ATOM     16  C   UNL     1       2.482   0.251   0.178  0.00  0.00    +0.024 C 
BRANCH  16  17
ATOM     17  C   UNL     1       3.929   0.059  -0.276  0.00  0.00    +0.034 C 
BRANCH  17  18
ATOM     18  C   UNL     1       4.802  -0.479   0.851  0.00  0.00    +0.137 C 
BRANCH  18  19
ATOM     19  O   UNL     1       6.138  -0.639   0.392  0.00  0.00    -0.382 OA
ATOM     20  H   UNL     1       6.689  -0.982   1.112  0.00  0.00    +0.210 HD
ENDBRANCH  18  19
ENDBRANCH  17  18
ENDBRANCH  16  17
ENDBRANCH  15  16
ENDBRANCH   2  15
TORSDOF 5
