135440068
  -OEChem-03292013293D

 32 34  0     1  0  0  0  0  0999 V2000
    2.3839    0.0880    0.8457 O   0  0  0  0  0  0  0  0  0  0  0  0
    2.0812   -2.6997   -0.7451 O   0  0  0  0  0  0  0  0  0  0  0  0
    4.8560    1.3225    1.4083 O   0  0  0  0  0  0  0  0  0  0  0  0
   -3.9959    2.0875   -0.4580 O   0  0  0  0  0  0  0  0  0  0  0  0
    0.1039    0.2546    0.0386 N   0  0  0  0  0  0  0  0  0  0  0  0
   -1.0256    2.1182   -0.4641 N   0  0  0  0  0  0  0  0  0  0  0  0
   -1.7256   -1.2761    0.4498 N   0  0  0  0  0  0  0  0  0  0  0  0
   -3.8248   -0.1613    0.1481 N   0  0  0  0  0  0  0  0  0  0  0  0
   -3.7466   -2.4335    0.7599 N   0  0  0  0  0  0  0  0  0  0  0  0
    1.2839   -0.6582    0.2848 C   0  0  1  0  0  0  0  0  0  0  0  0
    1.7961   -1.3244   -0.9942 C   0  0  1  0  0  0  0  0  0  0  0  0
    3.0758   -0.5791   -1.3057 C   0  0  0  0  0  0  0  0  0  0  0  0
    3.5645   -0.1840    0.0773 C   0  0  1  0  0  0  0  0  0  0  0  0
    4.4673    1.0346    0.0743 C   0  0  0  0  0  0  0  0  0  0  0  0
   -1.2188   -0.0664    0.1242 C   0  0  0  0  0  0  0  0  0  0  0  0
    0.1691    1.5794   -0.3183 C   0  0  0  0  0  0  0  0  0  0  0  0
   -1.8834    1.0946   -0.1889 C   0  0  0  0  0  0  0  0  0  0  0  0
   -3.3201    1.1017   -0.1919 C   0  0  0  0  0  0  0  0  0  0  0  0
   -3.0408   -1.2986    0.4550 C   0  0  0  0  0  0  0  0  0  0  0  0
    0.9449   -1.3765    1.0398 H   0  0  0  0  0  0  0  0  0  0  0  0
    1.0865   -1.2871   -1.8268 H   0  0  0  0  0  0  0  0  0  0  0  0
    3.8174   -1.1746   -1.8462 H   0  0  0  0  0  0  0  0  0  0  0  0
    2.8407    0.3153   -1.8948 H   0  0  0  0  0  0  0  0  0  0  0  0
    4.0700   -1.0257    0.5672 H   0  0  0  0  0  0  0  0  0  0  0  0
    3.9397    1.9125   -0.3128 H   0  0  0  0  0  0  0  0  0  0  0  0
    5.3653    0.8571   -0.5254 H   0  0  0  0  0  0  0  0  0  0  0  0
    1.1085    2.0958   -0.4609 H   0  0  0  0  0  0  0  0  0  0  0  0
    1.2424   -3.1306   -0.5070 H   0  0  0  0  0  0  0  0  0  0  0  0
    5.4319    2.1053    1.3758 H   0  0  0  0  0  0  0  0  0  0  0  0
   -4.8348   -0.2678    0.1761 H   0  0  0  0  0  0  0  0  0  0  0  0
   -3.2730   -3.2994    0.9933 H   0  0  0  0  0  0  0  0  0  0  0  0
   -4.7607   -2.4414    0.7613 H   0  0  0  0  0  0  0  0  0  0  0  0
  1 10  1  0  0  0  0
  1 13  1  0  0  0  0
  2 11  1  0  0  0  0
  2 28  1  0  0  0  0
  3 14  1  0  0  0  0
  3 29  1  0  0  0  0
  4 18  2  0  0  0  0
  5 10  1  0  0  0  0
  5 15  1  0  0  0  0
  5 16  1  0  0  0  0
  6 16  2  0  0  0  0
  6 17  1  0  0  0  0
  7 15  1  0  0  0  0
  7 19  2  0  0  0  0
  8 18  1  0  0  0  0
  8 19  1  0  0  0  0
  8 30  1  0  0  0  0
  9 19  1  0  0  0  0
  9 31  1  0  0  0  0
  9 32  1  0  0  0  0
 10 11  1  0  0  0  0
 10 20  1  0  0  0  0
 11 12  1  0  0  0  0
 11 21  1  0  0  0  0
 12 13  1  0  0  0  0
 12 22  1  0  0  0  0
 12 23  1  0  0  0  0
 13 14  1  0  0  0  0
 13 24  1  0  0  0  0
 14 25  1  0  0  0  0
 14 26  1  0  0  0  0
 15 17  2  0  0  0  0
 16 27  1  0  0  0  0
 17 18  1  0  0  0  0
M  END
> <PUBCHEM_COMPOUND_CID>
135440068

> <PUBCHEM_CONFORMER_RMSD>
0.6

> <PUBCHEM_CONFORMER_DIVERSEORDER>
1
10
13
12
3
4
6
16
9
11
5
7
2
15
14
8

> <PUBCHEM_MMFF94_PARTIAL_CHARGES>
24
1 -0.56
10 0.54
11 0.28
13 0.28
14 0.28
15 -0.03
16 0.04
17 0.14
18 0.72
19 0.56
2 -0.68
27 0.15
28 0.4
29 0.4
3 -0.68
30 0.37
31 0.4
32 0.4
4 -0.57
5 0.05
6 -0.57
7 -0.58
8 -0.49
9 -0.85

> <PUBCHEM_EFFECTIVE_ROTOR_COUNT>
3

> <PUBCHEM_PHARMACOPHORE_FEATURES>
12
1 1 acceptor
1 2 acceptor
1 2 donor
1 3 acceptor
1 3 donor
1 4 acceptor
1 8 donor
1 9 donor
3 5 6 16 cation
5 1 10 11 12 13 rings
5 5 6 15 16 17 rings
6 7 8 15 17 18 19 rings

> <PUBCHEM_HEAVY_ATOM_COUNT>
19

> <PUBCHEM_ATOM_DEF_STEREO_COUNT>
3

> <PUBCHEM_ATOM_UDEF_STEREO_COUNT>
0

> <PUBCHEM_BOND_DEF_STEREO_COUNT>
0

> <PUBCHEM_BOND_UDEF_STEREO_COUNT>
0

> <PUBCHEM_ISOTOPIC_ATOM_COUNT>
0

> <PUBCHEM_COMPONENT_COUNT>
1

> <PUBCHEM_CACTVS_TAUTO_COUNT>
-1

> <PUBCHEM_CONFORMER_ID>
0812A6C400000001

> <PUBCHEM_MMFF94_ENERGY>
40.7259

> <PUBCHEM_FEATURE_SELFOVERLAP>
61.079

> <PUBCHEM_SHAPE_FINGERPRINT>
10319926 262 18337091403460562016
10366900 7 17989194945778850065
10608611 8 18340486656069135404
107287 299 17846498110807539046
11132069 177 18334577931952328140
12173636 292 18117275844486964141
12236239 1 16949998136340147371
12403259 415 18202002170793555952
12553582 1 18119267270482698923
13214271 11 18411694408996227013
13296908 3 18340775866139534455
13544592 145 18124323705008781503
14178342 30 18333452019112799064
15099037 37 18335699489578519906
15219456 202 18343303643498216526
15375358 24 18411696565080345973
16945 1 18261676952767176573
17980427 23 17822013159414779444
19784866 170 18411982468490079108
20279233 1 18340770355611915663
20510252 161 18268711606718921929
20645477 56 18262242106054820437
20645477 70 17560518387475822750
20693207 138 18196948668664027014
21079973 296 18408887360094796072
221490 88 18269847441016963030
23402539 116 18187359943943718398
23557571 272 18337122223555118158
23559900 14 18337676291817053230
2748010 2 18339372872333801631
296302 2 18272930513969143197
3286 77 11386378023153932847
34934 24 18335696118398288645
495365 180 17701520836473926347
5104073 3 18411420570561053098
7364860 26 18194973073992142557
77492 1 16950287294955451530
81228 2 18115887212413402657
9709674 26 18340772516007183879

> <PUBCHEM_SHAPE_MULTIPOLES>
342.63
8.53
2.31
0.96
2.46
0.55
0.01
-1.15
-1.4
-1.23
0.18
0.79
0.08
1.62

> <PUBCHEM_SHAPE_SELFOVERLAP>
742.754

> <PUBCHEM_SHAPE_VOLUME>
186.4

> <PUBCHEM_COORDINATE_TYPE>
2
5
10

$$$$
