REMARK  Name = 135474412
REMARK  8 active torsions:
REMARK  status: ('A' for Active; 'I' for Inactive)
REMARK    1  A    between atoms: N_1  and  C_23
REMARK    2  A    between atoms: C_10  and  N_20
REMARK    3  A    between atoms: C_15  and  O_21
REMARK    4  A    between atoms: C_23  and  C_24
REMARK    5  A    between atoms: C_24  and  N_25
REMARK    6  A    between atoms: N_25  and  C_28
REMARK    7  A    between atoms: C_28  and  C_29
REMARK    8  A    between atoms: C_29  and  O_30
REMARK                            x       y       z     vdW  Elec       q    Type
REMARK                         _______ _______ _______ _____ _____    ______ ____
ROOT
ATOM      1  N   UNL     1      -1.396   0.093   0.845  0.00  0.00    -0.253 N 
ATOM      2  N   UNL     1       2.897   0.453  -0.308  0.00  0.00    -0.311 N 
ATOM      3  N   UNL     1      -0.795  -1.127   0.732  0.00  0.00    -0.169 NA
ATOM      4  C   UNL     1       0.628   0.565   0.291  0.00  0.00    +0.052 A 
ATOM      5  C   UNL     1      -0.571   1.158   0.585  0.00  0.00    +0.081 A 
ATOM      6  C   UNL     1       0.459  -0.821   0.388  0.00  0.00    +0.105 A 
ATOM      7  C   UNL     1       1.790   1.254  -0.043  0.00  0.00    +0.074 C 
ATOM      8  C   UNL     1       1.620  -1.662   0.111  0.00  0.00    +0.036 C 
ATOM      9  C   UNL     1       2.843  -0.981  -0.238  0.00  0.00    +0.050 C 
ATOM     10  C   UNL     1       1.692   2.640  -0.074  0.00  0.00    +0.156 C 
ATOM     11  C   UNL     1      -0.701   2.544   0.566  0.00  0.00    +0.021 C 
ATOM     12  C   UNL     1       0.465   3.268   0.228  0.00  0.00    +0.027 C 
ATOM     13  C   UNL     1       1.575  -3.053   0.174  0.00  0.00    +0.039 C 
ATOM     14  C   UNL     1       3.983  -1.739  -0.514  0.00  0.00    +0.018 C 
ATOM     15  C   UNL     1       2.731  -3.783  -0.106  0.00  0.00    +0.134 C 
ATOM     16  C   UNL     1       3.923  -3.133  -0.447  0.00  0.00    +0.038 C 
ATOM     17  H   UNL     1       3.747   0.884  -0.553  0.00  0.00    +0.152 HD
ENDROOT
BRANCH  10  20
ATOM     18  O   UNL     1       3.579   3.828   0.514  0.00  0.00    -0.126 OA
ATOM     19  O   UNL     1       3.016   3.743  -1.606  0.00  0.00    -0.126 OA
ATOM     20  N   UNL     1       2.818   3.443  -0.405  0.00  0.00    +0.059 N 
ENDBRANCH  10  20
BRANCH  15  21
ATOM     21  O   UNL     1       2.700  -5.144  -0.047  0.00  0.00    -0.506 OA
ATOM     22  H   UNL     1       1.905  -5.585   0.181  0.00  0.00    +0.292 HD
ENDBRANCH  15  21
BRANCH   1  23
ATOM     23  C   UNL     1      -2.791   0.159   1.213  0.00  0.00    +0.104 C 
BRANCH  23  24
ATOM     24  C   UNL     1      -3.699  -0.177   0.031  0.00  0.00    -0.055 C 
BRANCH  24  25
ATOM     25  N   UNL     1      -5.099  -0.113   0.435  0.00  0.00    +0.387 N 
ATOM     26  H   UNL     1      -5.310   0.831   0.760  0.00  0.00    -0.084 HD
ATOM     27  H   UNL     1      -5.254  -0.789   1.183  0.00  0.00    -0.084 HD
BRANCH  25  28
ATOM     28  C   UNL     1      -5.977  -0.442  -0.678  0.00  0.00    -0.049 C 
BRANCH  28  29
ATOM     29  C   UNL     1      -7.435  -0.331  -0.263  0.00  0.00    +0.114 C 
BRANCH  29  30
ATOM     30  O   UNL     1      -8.254  -0.642  -1.383  0.00  0.00    -0.384 OA
ATOM     31  H   UNL     1      -9.188  -0.575  -1.129  0.00  0.00    +0.210 HD
ENDBRANCH  29  30
ENDBRANCH  28  29
ENDBRANCH  25  28
ENDBRANCH  24  25
ENDBRANCH  23  24
ENDBRANCH   1  23
TORSDOF 8
