REMARK  Name = 135402011
REMARK  4 active torsions:
REMARK  status: ('A' for Active; 'I' for Inactive)
REMARK    1  A    between atoms: C_7  and  C_17
REMARK    2  A    between atoms: C_17  and  O_18
REMARK    3  A    between atoms: C_17  and  C_20
REMARK    4  A    between atoms: C_20  and  O_22
REMARK                            x       y       z     vdW  Elec       q    Type
REMARK                         _______ _______ _______ _____ _____    ______ ____
ROOT
ATOM      1  O   UNL     1       1.205   2.554  -0.265  0.00  0.00    -0.267 OA
ATOM      2  N   UNL     1       0.563  -2.101  -0.034  0.00  0.00    -0.300 N 
ATOM      3  N   UNL     1      -0.527   0.425  -0.345  0.00  0.00    -0.398 NA
ATOM      4  N   UNL     1       2.762  -1.160   0.188  0.00  0.00    -0.356 NA
ATOM      5  N   UNL     1       3.013   1.168   0.064  0.00  0.00    -0.242 N 
ATOM      6  N   UNL     1       4.881  -0.185   0.397  0.00  0.00    -0.321 N 
ATOM      7  C   UNL     1      -1.314  -0.607  -0.377  0.00  0.00    +0.136 C 
ATOM      8  C   UNL     1      -0.862  -2.041  -0.223  0.00  0.00    +0.147 C 
ATOM      9  C   UNL     1       1.401  -1.001   0.001  0.00  0.00    +0.218 C 
ATOM     10  C   UNL     1       0.817   0.211  -0.157  0.00  0.00    +0.227 C 
ATOM     11  C   UNL     1       1.674   1.428  -0.128  0.00  0.00    +0.286 C 
ATOM     12  C   UNL     1       3.526  -0.107   0.216  0.00  0.00    +0.239 C 
ATOM     13  H   UNL     1       0.971  -2.990   0.079  0.00  0.00    +0.150 HD
ATOM     14  H   UNL     1       3.637   1.929   0.093  0.00  0.00    +0.159 HD
ATOM     15  H   UNL     1       5.313  -1.062   0.512  0.00  0.00    +0.146 HD
ATOM     16  H   UNL     1       5.424   0.637   0.412  0.00  0.00    +0.146 HD
ENDROOT
BRANCH   7  17
ATOM     17  C   UNL     1      -2.789  -0.375  -0.584  0.00  0.00    +0.187 C 
BRANCH  17  18
ATOM     18  O   UNL     1      -2.896   0.764  -1.420  0.00  0.00    -0.376 OA
ATOM     19  H   UNL     1      -2.430   0.598  -2.254  0.00  0.00    +0.211 HD
ENDBRANCH  17  18
BRANCH  17  20
ATOM     20  C   UNL     1      -3.521  -0.117   0.728  0.00  0.00    +0.144 C 
ATOM     21  C   UNL     1      -5.006   0.156   0.531  0.00  0.00    +0.035 C 
BRANCH  20  22
ATOM     22  O   UNL     1      -2.926   0.988   1.408  0.00  0.00    -0.382 OA
ATOM     23  H   UNL     1      -1.980   0.817   1.535  0.00  0.00    +0.210 HD
ENDBRANCH  20  22
ENDBRANCH  17  20
ENDBRANCH   7  17
TORSDOF 4
