REMARK  Name = 135415984
REMARK  5 active torsions:
REMARK  status: ('A' for Active; 'I' for Inactive)
REMARK    1  A    between atoms: C_6  and  C_16
REMARK    2  A    between atoms: C_16  and  N_17
REMARK    3  A    between atoms: C_18  and  C_25
REMARK    4  A    between atoms: C_19  and  O_23
REMARK    5  A    between atoms: C_25  and  O_26
REMARK                            x       y       z     vdW  Elec       q    Type
REMARK                         _______ _______ _______ _____ _____    ______ ____
ROOT
ATOM      1  O   UNL     1       4.761   0.512   1.490  0.00  0.00    -0.272 OA
ATOM      2  N   UNL     1       2.289   2.064   0.744  0.00  0.00    -0.321 N 
ATOM      3  N   UNL     1       1.735  -1.034  -0.913  0.00  0.00    -0.376 NA
ATOM      4  N   UNL     1       3.843  -1.201   0.223  0.00  0.00    -0.246 N 
ATOM      5  N   UNL     1       3.009  -2.995  -1.031  0.00  0.00    -0.321 N 
ATOM      6  C   UNL     1       0.673   1.213  -0.549  0.00  0.00    -0.001 C 
ATOM      7  C   UNL     1       1.692   0.260  -0.378  0.00  0.00    +0.134 C 
ATOM      8  C   UNL     1       1.070   2.329   0.161  0.00  0.00    +0.054 C 
ATOM      9  C   UNL     1       2.676   0.794   0.417  0.00  0.00    +0.200 C 
ATOM     10  C   UNL     1       3.858   0.077   0.784  0.00  0.00    +0.254 C 
ATOM     11  C   UNL     1       2.813  -1.712  -0.588  0.00  0.00    +0.237 C 
ATOM     12  H   UNL     1       2.800   2.689   1.308  0.00  0.00    +0.148 HD
ATOM     13  H   UNL     1       4.611  -1.789   0.409  0.00  0.00    +0.159 HD
ATOM     14  H   UNL     1       2.335  -3.427  -1.604  0.00  0.00    +0.146 HD
ATOM     15  H   UNL     1       3.824  -3.485  -0.776  0.00  0.00    +0.146 HD
ENDROOT
BRANCH   6  16
ATOM     16  C   UNL     1      -0.598   1.063  -1.342  0.00  0.00    -0.046 C 
BRANCH  16  17
ATOM     17  N   UNL     1      -1.750   0.845  -0.481  0.00  0.00    +0.391 N 
ATOM     18  C   UNL     1      -3.254  -0.542   0.583  0.00  0.00    +0.033 C 
ATOM     19  C   UNL     1      -4.062   0.329  -0.382  0.00  0.00    +0.090 C 
ATOM     20  C   UNL     1      -1.859  -0.543  -0.028  0.00  0.00    -0.072 C 
ATOM     21  C   UNL     1      -3.021   1.146  -1.152  0.00  0.00    -0.047 C 
ATOM     22  H   UNL     1      -1.593   1.475   0.305  0.00  0.00    -0.079 HD
BRANCH  19  23
ATOM     23  O   UNL     1      -4.932   1.174   0.356  0.00  0.00    -0.387 OA
ATOM     24  H   UNL     1      -5.580   0.633   0.833  0.00  0.00    +0.210 HD
ENDBRANCH  19  23
BRANCH  18  25
ATOM     25  C   UNL     1      -3.827  -1.941   0.751  0.00  0.00    +0.137 C 
BRANCH  25  26
ATOM     26  O   UNL     1      -5.115  -1.839   1.334  0.00  0.00    -0.382 OA
ATOM     27  H   UNL     1      -5.491  -2.726   1.445  0.00  0.00    +0.210 HD
ENDBRANCH  25  26
ENDBRANCH  18  25
ENDBRANCH  16  17
ENDBRANCH   6  16
TORSDOF 5
