REMARK  Name = 135446210
REMARK  7 active torsions:
REMARK  status: ('A' for Active; 'I' for Inactive)
REMARK    1  A    between atoms: C_3  and  C_17
REMARK    2  A    between atoms: C_4  and  C_7
REMARK    3  A    between atoms: C_5  and  C_27
REMARK    4  A    between atoms: C_8  and  O_13
REMARK    5  A    between atoms: C_12  and  O_15
REMARK    6  A    between atoms: C_22  and  O_23
REMARK    7  A    between atoms: N_26  and  C_29
REMARK                            x       y       z     vdW  Elec       q    Type
REMARK                         _______ _______ _______ _____ _____    ______ ____
ROOT
ATOM      1  O   UNL     1      -0.270  -2.662   0.191  0.00  0.00    -0.353 OA
ATOM      2  N   UNL     1      -1.656  -2.605   0.270  0.00  0.00    -0.072 NA
ATOM      3  C   UNL     1      -0.802  -0.497   0.144  0.00  0.00    +0.063 A 
ATOM      4  C   UNL     1       0.227  -1.401   0.116  0.00  0.00    +0.180 A 
ATOM      5  C   UNL     1      -1.951  -1.302   0.240  0.00  0.00    +0.176 A 
ENDROOT
BRANCH   4   7
ATOM      6 CL   UNL     1       4.593   0.326   2.187  0.00  0.00    -0.079 Cl
ATOM      7  C   UNL     1       1.658  -1.314   0.028  0.00  0.00    +0.072 C 
ATOM      8  C   UNL     1       2.347  -1.906  -1.031  0.00  0.00    +0.140 C 
ATOM      9  C   UNL     1       2.360  -0.626   1.018  0.00  0.00    +0.021 C 
ATOM     10  C   UNL     1       3.736  -1.811  -1.099  0.00  0.00    +0.074 C 
ATOM     11  C   UNL     1       3.750  -0.530   0.949  0.00  0.00    +0.092 C 
ATOM     12  C   UNL     1       4.438  -1.123  -0.109  0.00  0.00    +0.147 C 
BRANCH   8  13
ATOM     13  O   UNL     1       1.687  -2.585  -2.012  0.00  0.00    -0.505 OA
ATOM     14  H   UNL     1       0.753  -2.660  -1.983  0.00  0.00    +0.292 HD
ENDBRANCH   8  13
BRANCH  12  15
ATOM     15  O   UNL     1       5.796  -1.046  -0.201  0.00  0.00    -0.505 OA
ATOM     16  H   UNL     1       6.241  -1.450  -0.920  0.00  0.00    +0.292 HD
ENDBRANCH  12  15
ENDBRANCH   4   7
BRANCH   3  17
ATOM     17  C   UNL     1      -0.642   0.928   0.083  0.00  0.00    +0.005 C 
ATOM     18  C   UNL     1      -1.101   1.727   1.131  0.00  0.00    +0.003 C 
ATOM     19  C   UNL     1      -0.026   1.515  -1.023  0.00  0.00    +0.003 C 
ATOM     20  C   UNL     1      -0.944   3.111   1.073  0.00  0.00    +0.037 C 
ATOM     21  C   UNL     1       0.131   2.900  -1.081  0.00  0.00    +0.037 C 
ATOM     22  C   UNL     1      -0.328   3.698  -0.032  0.00  0.00    +0.139 C 
BRANCH  22  23
ATOM     23  O   UNL     1      -0.176   5.050  -0.088  0.00  0.00    -0.471 OA
ATOM     24  C   UNL     1       0.462   5.584  -1.248  0.00  0.00    +0.252 C 
ENDBRANCH  22  23
ENDBRANCH   3  17
BRANCH   5  27
ATOM     25  O   UNL     1      -3.636   0.328   0.262  0.00  0.00    -0.268 OA
ATOM     26  N   UNL     1      -4.307  -1.887   0.400  0.00  0.00    -0.300 N 
ATOM     27  C   UNL     1      -3.322  -0.885   0.306  0.00  0.00    +0.267 C 
ATOM     28  H   UNL     1      -4.008  -2.825   0.432  0.00  0.00    +0.150 HD
BRANCH  26  29
ATOM     29  C   UNL     1      -5.728  -1.630   0.452  0.00  0.00    +0.090 C 
ATOM     30  C   UNL     1      -6.293  -1.357  -0.927  0.00  0.00    +0.023 C 
ENDBRANCH  26  29
ENDBRANCH   5  27
TORSDOF 7
