REMARK  Name = 135409256
REMARK  5 active torsions:
REMARK  status: ('A' for Active; 'I' for Inactive)
REMARK    1  A    between atoms: N_2  and  C_18
REMARK    2  A    between atoms: C_15  and  C_19
REMARK    3  A    between atoms: C_15  and  C_22
REMARK    4  A    between atoms: C_19  and  O_20
REMARK    5  A    between atoms: C_22  and  O_23
REMARK                            x       y       z     vdW  Elec       q    Type
REMARK                         _______ _______ _______ _____ _____    ______ ____
ROOT
ATOM      1  O   UNL     1      -3.818  -2.347   0.211  0.00  0.00    -0.268 OA
ATOM      2  N   UNL     1      -0.082   0.180  -0.060  0.00  0.00    -0.239 N 
ATOM      3  N   UNL     1      -0.882  -1.898   0.148  0.00  0.00    -0.239 NA
ATOM      4  N   UNL     1      -2.146   1.441  -0.170  0.00  0.00    -0.356 NA
ATOM      5  N   UNL     1      -4.029  -0.032  -0.014  0.00  0.00    -0.243 N 
ATOM      6  N   UNL     1      -4.336   2.291  -0.238  0.00  0.00    -0.321 N 
ATOM      7  C   UNL     1      -1.442   0.293  -0.062  0.00  0.00    +0.213 C 
ATOM      8  C   UNL     1       0.206  -1.156   0.068  0.00  0.00    +0.226 C 
ATOM      9  C   UNL     1      -1.901  -0.996   0.066  0.00  0.00    +0.176 C 
ATOM     10  C   UNL     1      -3.317  -1.235   0.099  0.00  0.00    +0.273 C 
ATOM     11  C   UNL     1      -3.447   1.251  -0.143  0.00  0.00    +0.239 C 
ATOM     12  H   UNL     1      -5.012  -0.085  -0.002  0.00  0.00    +0.159 HD
ATOM     13  H   UNL     1      -4.006   3.214  -0.330  0.00  0.00    +0.146 HD
ATOM     14  H   UNL     1      -5.304   2.114  -0.214  0.00  0.00    +0.146 HD
ENDROOT
BRANCH   2  18
ATOM     15  C   UNL     1       3.255   0.141  -0.124  0.00  0.00    +0.074 C 
ATOM     16  C   UNL     1       3.420   1.704  -0.261  0.00  0.00    +0.032 C 
ATOM     17  C   UNL     1       2.172   1.054  -0.180  0.00  0.00    -0.024 C 
ATOM     18  C   UNL     1       0.842   1.202  -0.166  0.00  0.00    +0.061 C 
BRANCH  15  19
ATOM     19  C   UNL     1       3.546  -0.707  -1.330  0.00  0.00    +0.144 C 
BRANCH  19  20
ATOM     20  O   UNL     1       4.881  -1.173  -1.257  0.00  0.00    -0.382 OA
ATOM     21  H   UNL     1       5.076  -1.721  -2.033  0.00  0.00    +0.210 HD
ENDBRANCH  19  20
ENDBRANCH  15  19
BRANCH  15  22
ATOM     22  C   UNL     1       3.596  -0.492   1.195  0.00  0.00    +0.144 C 
BRANCH  22  23
ATOM     23  O   UNL     1       3.482   0.481   2.218  0.00  0.00    -0.382 OA
ATOM     24  H   UNL     1       3.701   0.079   3.073  0.00  0.00    +0.210 HD
ENDBRANCH  22  23
ENDBRANCH  15  22
ENDBRANCH   2  18
TORSDOF 5
