REMARK  Name = 135495066
REMARK  4 active torsions:
REMARK  status: ('A' for Active; 'I' for Inactive)
REMARK    1  A    between atoms: C_5  and  C_6
REMARK    2  A    between atoms: C_6  and  C_12
REMARK    3  A    between atoms: C_15  and  O_18
REMARK    4  A    between atoms: C_17  and  O_20
REMARK                            x       y       z     vdW  Elec       q    Type
REMARK                         _______ _______ _______ _____ _____    ______ ____
ROOT
ATOM      1  C   UNL     1      -0.602   1.180   0.309  0.00  0.00    +0.090 C 
ENDROOT
BRANCH   1   6
ATOM      2  O   UNL     1      -3.418   1.980   0.729  0.00  0.00    -0.267 OA
ATOM      3  N   UNL     1      -3.796  -0.207  -0.024  0.00  0.00    -0.242 N 
ATOM      4  N   UNL     1      -1.688  -0.878  -0.363  0.00  0.00    -0.373 NA
ATOM      5  N   UNL     1      -3.467  -2.404  -0.815  0.00  0.00    -0.321 N 
ATOM      6  C   UNL     1      -1.676   0.419   0.094  0.00  0.00    +0.170 C 
ATOM      7  C   UNL     1      -3.061   0.890   0.327  0.00  0.00    +0.278 C 
ATOM      8  C   UNL     1      -2.949  -1.207  -0.418  0.00  0.00    +0.238 C 
ATOM      9  H   UNL     1      -4.778  -0.269   0.002  0.00  0.00    +0.159 HD
ATOM     10  H   UNL     1      -4.442  -2.543  -0.817  0.00  0.00    +0.146 HD
ATOM     11  H   UNL     1      -2.866  -3.130  -1.100  0.00  0.00    +0.146 HD
ENDBRANCH   1   6
BRANCH   1  12
ATOM     12  C   UNL     1       0.800   0.775   0.099  0.00  0.00    -0.012 C 
ATOM     13  C   UNL     1       1.321  -0.321   0.786  0.00  0.00    +0.036 C 
ATOM     14  C   UNL     1       1.607   1.489  -0.788  0.00  0.00    -0.001 C 
ATOM     15  C   UNL     1       2.647  -0.704   0.587  0.00  0.00    +0.167 C 
ATOM     16  C   UNL     1       2.934   1.107  -0.986  0.00  0.00    +0.039 C 
ATOM     17  C   UNL     1       3.454   0.010  -0.299  0.00  0.00    +0.167 C 
BRANCH  15  18
ATOM     18  O   UNL     1       3.144  -1.777   1.264  0.00  0.00    -0.503 OA
ATOM     19  H   UNL     1       2.595  -2.251   1.858  0.00  0.00    +0.292 HD
ENDBRANCH  15  18
BRANCH  17  20
ATOM     20  O   UNL     1       4.751  -0.353  -0.502  0.00  0.00    -0.503 OA
ATOM     21  H   UNL     1       5.108  -1.089  -0.044  0.00  0.00    +0.292 HD
ENDBRANCH  17  20
ENDBRANCH   1  12
TORSDOF 4
