REMARK  Name = 135430323
REMARK  4 active torsions:
REMARK  status: ('A' for Active; 'I' for Inactive)
REMARK    1  A    between atoms: C_8  and  O_25
REMARK    2  A    between atoms: C_16  and  O_27
REMARK    3  A    between atoms: C_17  and  O_29
REMARK    4  A    between atoms: C_20  and  O_31
REMARK                            x       y       z     vdW  Elec       q    Type
REMARK                         _______ _______ _______ _____ _____    ______ ____
ROOT
ATOM      1  O   UNL     1      -4.805   0.433  -0.007  0.00  0.00    -0.286 OA
ATOM      2  O   UNL     1       3.095   3.202  -0.005  0.00  0.00    -0.286 OA
ATOM      3  C   UNL     1      -1.560  -2.542   0.001  0.00  0.00    +0.069 C 
ATOM      4  C   UNL     1      -0.153  -1.916   0.001  0.00  0.00    -0.013 C 
ATOM      5  C   UNL     1       0.026  -0.516   0.000  0.00  0.00    -0.003 A 
ATOM      6  C   UNL     1      -1.082   0.366   0.000  0.00  0.00    +0.011 A 
ATOM      7  C   UNL     1       1.348   0.018   0.000  0.00  0.00    +0.008 A 
ATOM      8  C   UNL     1      -2.680  -1.493   0.000  0.00  0.00    +0.117 C 
ATOM      9  C   UNL     1      -2.463  -0.162  -0.001  0.00  0.00    +0.069 C 
ATOM     10  C   UNL     1      -0.891   1.763   0.001  0.00  0.00    +0.068 A 
ATOM     11  C   UNL     1       2.474  -0.839   0.000  0.00  0.00    +0.030 C 
ATOM     12  C   UNL     1       1.510   1.411   0.000  0.00  0.00    +0.073 A 
ATOM     13  C   UNL     1      -1.723  -3.419  -1.263  0.00  0.00    +0.012 C 
ATOM     14  C   UNL     1      -1.724  -3.416   1.267  0.00  0.00    +0.012 C 
ATOM     15  C   UNL     1       0.980  -2.747   0.001  0.00  0.00    +0.033 C 
ATOM     16  C   UNL     1       0.411   2.272   0.000  0.00  0.00    +0.139 A 
ATOM     17  C   UNL     1       2.268  -2.221   0.001  0.00  0.00    +0.133 C 
ATOM     18  C   UNL     1      -3.630   0.783  -0.003  0.00  0.00    +0.201 C 
ATOM     19  C   UNL     1       3.843  -0.266   0.000  0.00  0.00    -0.016 C 
ATOM     20  C   UNL     1      -2.050   2.675   0.002  0.00  0.00    +0.140 C 
ATOM     21  C   UNL     1       2.869   1.998  -0.002  0.00  0.00    +0.198 C 
ATOM     22  C   UNL     1      -3.310   2.227   0.001  0.00  0.00    +0.079 C 
ATOM     23  C   UNL     1       4.013   1.064  -0.001  0.00  0.00    +0.038 C 
ATOM     24  C   UNL     1       5.080  -1.123   0.001  0.00  0.00    +0.031 C 
ENDROOT
BRANCH   8  25
ATOM     25  O   UNL     1      -3.941  -2.070  -0.001  0.00  0.00    -0.509 OA
ATOM     26  H   UNL     1      -4.029  -3.003   0.000  0.00  0.00    +0.292 HD
ENDBRANCH   8  25
BRANCH  16  27
ATOM     27  O   UNL     1       0.626   3.623   0.001  0.00  0.00    -0.505 OA
ATOM     28  H   UNL     1      -0.101   4.213   0.001  0.00  0.00    +0.292 HD
ENDBRANCH  16  27
BRANCH  17  29
ATOM     29  O   UNL     1       3.273  -3.142  -0.001  0.00  0.00    -0.506 OA
ATOM     30  H   UNL     1       4.167  -2.860  -0.001  0.00  0.00    +0.292 HD
ENDBRANCH  17  29
BRANCH  20  31
ATOM     31  O   UNL     1      -1.807   4.037   0.007  0.00  0.00    -0.505 OA
ATOM     32  H   UNL     1      -0.926   4.356   0.008  0.00  0.00    +0.292 HD
ENDBRANCH  20  31
TORSDOF 4
