REMARK  Name = 135452876
REMARK  7 active torsions:
REMARK  status: ('A' for Active; 'I' for Inactive)
REMARK    1  A    between atoms: C_1  and  S_22
REMARK    2  A    between atoms: C_4  and  C_12
REMARK    3  A    between atoms: C_5  and  O_35
REMARK    4  A    between atoms: C_15  and  C_19
REMARK    5  A    between atoms: C_19  and  C_20
REMARK    6  A    between atoms: S_22  and  N_25
REMARK    7  A    between atoms: O_35  and  C_36
REMARK                            x       y       z     vdW  Elec       q    Type
REMARK                         _______ _______ _______ _____ _____    ______ ____
ROOT
ATOM      1  C   UNL     1      -2.357  -0.282   1.529  0.00  0.00    +0.123 C 
ATOM      2  C   UNL     1      -1.117  -0.756   1.100  0.00  0.00    +0.027 C 
ATOM      3  C   UNL     1      -2.464   0.998   2.072  0.00  0.00    +0.023 C 
ATOM      4  C   UNL     1       0.016   0.050   1.214  0.00  0.00    +0.079 C 
ATOM      5  C   UNL     1      -0.092   1.331   1.758  0.00  0.00    +0.142 C 
ATOM      6  C   UNL     1      -1.332   1.804   2.186  0.00  0.00    +0.038 C 
ENDROOT
BRANCH   4  12
ATOM      7  O   UNL     1       2.817  -3.759   0.563  0.00  0.00    -0.272 OA
ATOM      8  N   UNL     1       1.499  -1.870   0.857  0.00  0.00    -0.258 N 
ATOM      9  N   UNL     1       2.229   0.358   0.295  0.00  0.00    -0.388 NA
ATOM     10  N   UNL     1       4.884  -1.811  -0.516  0.00  0.00    -0.217 N 
ATOM     11  N   UNL     1       5.489  -0.664  -0.898  0.00  0.00    -0.183 NA
ATOM     12  C   UNL     1       1.328  -0.474   0.751  0.00  0.00    +0.188 C 
ATOM     13  C   UNL     1       3.409  -0.274  -0.105  0.00  0.00    +0.154 C 
ATOM     14  C   UNL     1       3.626  -1.622  -0.031  0.00  0.00    +0.220 C 
ATOM     15  C   UNL     1       4.572   0.279  -0.641  0.00  0.00    +0.104 C 
ATOM     16  C   UNL     1       2.660  -2.547   0.473  0.00  0.00    +0.254 C 
ATOM     17  C   UNL     1       5.595  -3.061  -0.646  0.00  0.00    +0.135 C 
ATOM     18  H   UNL     1       0.755  -2.400   1.224  0.00  0.00    +0.157 HD
BRANCH  15  19
ATOM     19  C   UNL     1       4.869   1.691  -0.930  0.00  0.00    +0.050 C 
BRANCH  19  20
ATOM     20  C   UNL     1       4.191   2.196  -2.220  0.00  0.00    +0.006 C 
ATOM     21  C   UNL     1       4.470   3.665  -2.493  0.00  0.00    +0.000 C 
ENDBRANCH  19  20
ENDBRANCH  15  19
ENDBRANCH   4  12
BRANCH   1  22
ATOM     22  S   UNL     1      -3.790  -1.302   1.384  0.00  0.00    +0.063 S 
ATOM     23  O   UNL     1      -3.352  -2.681   1.350  0.00  0.00    -0.153 OA
ATOM     24  O   UNL     1      -4.758  -0.851   2.361  0.00  0.00    -0.153 OA
BRANCH  22  25
ATOM     25  N   UNL     1      -4.324  -0.847  -0.179  0.00  0.00    -0.160 NA
ATOM     26  N   UNL     1      -4.650   0.428  -2.728  0.00  0.00    +0.388 N 
ATOM     27  C   UNL     1      -4.063  -0.914  -2.633  0.00  0.00    -0.044 C 
ATOM     28  C   UNL     1      -5.610   0.667  -1.643  0.00  0.00    -0.044 C 
ATOM     29  C   UNL     1      -3.355  -1.097  -1.286  0.00  0.00    +0.074 C 
ATOM     30  C   UNL     1      -4.929   0.513  -0.279  0.00  0.00    +0.074 C 
ATOM     31  C   UNL     1      -6.195   2.070  -1.794  0.00  0.00    -0.022 C 
ATOM     32  C   UNL     1      -3.081  -1.113  -3.785  0.00  0.00    -0.022 C 
ATOM     33  H   UNL     1      -5.130   0.518  -3.624  0.00  0.00    -0.084 HD
ATOM     34  H   UNL     1      -3.899   1.115  -2.652  0.00  0.00    -0.084 HD
ENDBRANCH  22  25
ENDBRANCH   1  22
BRANCH   5  35
ATOM     35  O   UNL     1       1.003   2.134   1.879  0.00  0.00    -0.475 OA
BRANCH  35  36
ATOM     36  C   UNL     1       0.785   3.541   1.800  0.00  0.00    +0.206 C 
ATOM     37  C   UNL     1       2.026   4.200   1.237  0.00  0.00    +0.051 C 
ENDBRANCH  35  36
ENDBRANCH   5  35
TORSDOF 7
