REMARK  Name = 135449281
REMARK  5 active torsions:
REMARK  status: ('A' for Active; 'I' for Inactive)
REMARK    1  A    between atoms: C_2  and  O_18
REMARK    2  A    between atoms: C_3  and  C_11
REMARK    3  A    between atoms: C_4  and  O_20
REMARK    4  A    between atoms: C_5  and  C_22
REMARK    5  A    between atoms: C_22  and  O_23
REMARK                            x       y       z     vdW  Elec       q    Type
REMARK                         _______ _______ _______ _____ _____    ______ ____
ROOT
ATOM      1  O   UNL     1      -1.704  -0.437   1.065  0.00  0.00    -0.349 OA
ATOM      2  C   UNL     1      -2.002   1.027  -0.773  0.00  0.00    +0.169 C 
ATOM      3  C   UNL     1      -1.267   0.836   0.548  0.00  0.00    +0.169 C 
ATOM      4  C   UNL     1      -3.307   0.295  -0.527  0.00  0.00    +0.169 C 
ATOM      5  C   UNL     1      -2.862  -0.886   0.327  0.00  0.00    +0.174 C 
ENDROOT
BRANCH   3  11
ATOM      6  O   UNL     1       4.752   0.461  -0.162  0.00  0.00    -0.268 OA
ATOM      7  N   UNL     1       0.951   2.048   0.552  0.00  0.00    -0.251 N 
ATOM      8  N   UNL     1       2.285   1.905   0.383  0.00  0.00    -0.179 NA
ATOM      9  N   UNL     1       1.017  -1.423  -0.138  0.00  0.00    -0.249 NA
ATOM     10  N   UNL     1       3.419  -1.434  -0.394  0.00  0.00    -0.279 N 
ATOM     11  C   UNL     1       0.236   0.890   0.399  0.00  0.00    +0.158 C 
ATOM     12  C   UNL     1       1.177  -0.058   0.113  0.00  0.00    +0.101 C 
ATOM     13  C   UNL     1       2.414   0.604   0.113  0.00  0.00    +0.166 C 
ATOM     14  C   UNL     1       3.653  -0.081  -0.153  0.00  0.00    +0.268 C 
ATOM     15  C   UNL     1       2.151  -2.015  -0.375  0.00  0.00    +0.219 C 
ATOM     16  H   UNL     1       0.530   2.912   0.766  0.00  0.00    +0.169 HD
ATOM     17  H   UNL     1       4.192  -2.011  -0.590  0.00  0.00    +0.152 HD
ENDBRANCH   3  11
BRANCH   2  18
ATOM     18  O   UNL     1      -2.190   2.394  -1.082  0.00  0.00    -0.379 OA
ATOM     19  H   UNL     1      -1.328   2.813  -1.230  0.00  0.00    +0.211 HD
ENDBRANCH   2  18
BRANCH   4  20
ATOM     20  O   UNL     1      -4.210   1.106   0.224  0.00  0.00    -0.379 OA
ATOM     21  H   UNL     1      -4.495   1.859  -0.317  0.00  0.00    +0.211 HD
ENDBRANCH   4  20
BRANCH   5  22
ATOM     22  C   UNL     1      -2.460  -2.100  -0.500  0.00  0.00    +0.169 C 
BRANCH  22  23
ATOM     23  O   UNL     1      -2.054  -3.133   0.380  0.00  0.00    -0.379 OA
ATOM     24  H   UNL     1      -1.795  -3.913  -0.135  0.00  0.00    +0.211 HD
ENDBRANCH  22  23
ENDBRANCH   5  22
TORSDOF 5
