REMARK  Name = 135410911
REMARK  2 active torsions:
REMARK  status: ('A' for Active; 'I' for Inactive)
REMARK    1  A    between atoms: N_6  and  C_9
REMARK    2  A    between atoms: N_6  and  C_16
REMARK                            x       y       z     vdW  Elec       q    Type
REMARK                         _______ _______ _______ _____ _____    ______ ____
ROOT
ATOM      1 CL   UNL     1       4.039  -2.949  -0.015  0.00  0.00    -0.075 Cl
ATOM      2  S   UNL     1       1.240   2.090  -0.040  0.00  0.00    +0.069 S 
ATOM      3  S   UNL     1       3.285  -0.073  -0.058  0.00  0.00    -0.054 S 
ATOM      4  O   UNL     1       1.656   2.580  -1.337  0.00  0.00    -0.152 OA
ATOM      5  O   UNL     1       1.746   2.641   1.198  0.00  0.00    -0.152 OA
ATOM      6  N   UNL     1      -0.461   1.970   0.023  0.00  0.00    -0.147 NA
ATOM      7  N   UNL     1      -0.565  -0.486   0.084  0.00  0.00    -0.305 N 
ATOM      8  C   UNL     1      -1.221   0.742   0.077  0.00  0.00    +0.226 C 
ATOM      9  C   UNL     1       0.783  -0.644   0.041  0.00  0.00    +0.073 C 
ATOM     10  C   UNL     1       1.665   0.400  -0.014  0.00  0.00    +0.165 C 
ATOM     11  C   UNL     1       1.463  -1.894   0.048  0.00  0.00    +0.034 C 
ATOM     12  C   UNL     1       2.834  -1.730  -0.003  0.00  0.00    +0.089 C 
ATOM     13  H   UNL     1      -0.971   2.812   0.023  0.00  0.00    +0.152 HD
ATOM     14  H   UNL     1      -1.119  -1.299   0.121  0.00  0.00    +0.149 HD
ENDROOT
BRANCH   8  15
ATOM     15  N   UNL     1      -2.515   0.844   0.120  0.00  0.00    -0.187 NA
BRANCH  15  16
ATOM     16  C   UNL     1      -3.225  -0.441   0.175  0.00  0.00    +0.063 C 
ATOM     17  C   UNL     1      -4.303  -0.651  -0.861  0.00  0.00    +0.018 C 
ATOM     18  C   UNL     1      -2.999  -1.383  -0.983  0.00  0.00    +0.018 C 
ATOM     19  C   UNL     1      -3.421  -1.015   1.544  0.00  0.00    +0.018 C 
ENDBRANCH  15  16
ENDBRANCH   8  15
TORSDOF 2
