REMARK  Name = 135407735
REMARK  5 active torsions:
REMARK  status: ('A' for Active; 'I' for Inactive)
REMARK    1  A    between atoms: N_2  and  C1*_16
REMARK    2  A    between atoms: C_8  and  O_25
REMARK    3  A    between atoms: C3*_18  and  O3*_20
REMARK    4  A    between atoms: C4*_19  and  C5*_22
REMARK    5  A    between atoms: C5*_22  and  O5*_23
REMARK                            x       y       z     vdW  Elec       q    Type
REMARK                         _______ _______ _______ _____ _____    ______ ____
ROOT
ATOM      1  O   UNL     1       4.409  -0.460  -0.213  0.00  0.00    -0.267 OA
ATOM      2  N   UNL     1       0.123   0.925   0.154  0.00  0.00    -0.181 N 
ATOM      3  N   UNL     1       2.260   1.576   0.037  0.00  0.00    -0.346 NA
ATOM      4  N   UNL     1       0.384  -1.478   0.017  0.00  0.00    -0.355 NA
ATOM      5  N   UNL     1       2.702  -2.053  -0.172  0.00  0.00    -0.242 N 
ATOM      6  N   UNL     1       1.048  -3.727  -0.140  0.00  0.00    -0.321 N 
ATOM      7  C   UNL     1       0.864  -0.215   0.046  0.00  0.00    +0.230 C 
ATOM      8  C   UNL     1       1.008   1.976   0.144  0.00  0.00    +0.351 C 
ATOM      9  C   UNL     1       2.166   0.217  -0.024  0.00  0.00    +0.234 C 
ATOM     10  C   UNL     1       3.221  -0.751  -0.145  0.00  0.00    +0.286 C 
ATOM     11  C   UNL     1       1.329  -2.386  -0.093  0.00  0.00    +0.240 C 
ATOM     12  H   UNL     1       3.344  -2.795  -0.254  0.00  0.00    +0.159 HD
ATOM     13  H   UNL     1       0.114  -4.036  -0.090  0.00  0.00    +0.146 HD
ATOM     14  H   UNL     1       1.779  -4.381  -0.223  0.00  0.00    +0.146 HD
ENDROOT
BRANCH   2  16
ATOM     15  O4* UNL     1      -1.939  -0.111   0.960  0.00  0.00    -0.334 OA
ATOM     16  C1* UNL     1      -1.378   1.018   0.265  0.00  0.00    +0.205 C 
ATOM     17  C2* UNL     1      -2.075   1.078  -1.090  0.00  0.00    +0.083 C 
ATOM     18  C3* UNL     1      -3.446   0.534  -0.762  0.00  0.00    +0.144 C 
ATOM     19  C4* UNL     1      -3.152  -0.520   0.297  0.00  0.00    +0.173 C 
BRANCH  18  20
ATOM     20  O3* UNL     1      -4.224   1.583  -0.190  0.00  0.00    -0.382 OA
ATOM     21  H3* UNL     1      -4.410   2.254  -0.866  0.00  0.00    +0.210 HD
ENDBRANCH  18  20
BRANCH  19  22
ATOM     22  C5* UNL     1      -2.919  -1.903  -0.298  0.00  0.00    +0.169 C 
BRANCH  22  23
ATOM     23  O5* UNL     1      -2.644  -2.809   0.756  0.00  0.00    -0.379 OA
ATOM     24  H5* UNL     1      -2.493  -3.695   0.390  0.00  0.00    +0.211 HD
ENDBRANCH  22  23
ENDBRANCH  19  22
ENDBRANCH   2  16
BRANCH   8  25
ATOM     25  O   UNL     1       0.624   3.240   0.234  0.00  0.00    -0.436 OA
ATOM     26  C   UNL     1       1.639   4.267   0.216  0.00  0.00    +0.257 C 
ENDBRANCH   8  25
TORSDOF 5
