135424953
  -OEChem-03292013293D

 25 26  0     0  0  0  0  0  0999 V2000
   -4.1680    1.0589    1.9929 Cl  0  0  0  0  0  0  0  0  0  0  0  0
   -5.1940   -0.3550   -0.4021 F   0  0  0  0  0  0  0  0  0  0  0  0
    4.6509   -0.4366   -0.2154 O   0  0  0  0  0  0  0  0  0  0  0  0
    1.5324   -2.2032    1.5132 O   0  0  0  0  0  0  0  0  0  0  0  0
    0.2716    0.4755   -0.4860 N   0  0  0  0  0  0  0  0  0  0  0  0
    0.6697   -1.6291    0.5995 N   0  0  0  0  0  0  0  0  0  0  0  0
    3.4209   -1.0945   -0.1559 N   0  0  0  0  0  0  0  0  0  0  0  0
    4.4861    0.9487   -0.1570 N   0  0  0  0  0  0  0  0  0  0  0  0
    2.5113    2.3039    0.0233 N   0  0  0  0  0  0  0  0  0  0  0  0
   -1.1110    0.2666   -0.4602 C   0  0  0  0  0  0  0  0  0  0  0  0
    1.0661   -0.4319    0.0252 C   0  0  0  0  0  0  0  0  0  0  0  0
    2.5251   -0.1135   -0.0614 C   0  0  0  0  0  0  0  0  0  0  0  0
   -1.8643    0.7131    0.6256 C   0  0  0  0  0  0  0  0  0  0  0  0
   -1.7369   -0.3872   -1.5215 C   0  0  0  0  0  0  0  0  0  0  0  0
    3.1691    1.1217   -0.0619 C   0  0  0  0  0  0  0  0  0  0  0  0
   -3.2435    0.5058    0.6500 C   0  0  0  0  0  0  0  0  0  0  0  0
   -3.1161   -0.5947   -1.4969 C   0  0  0  0  0  0  0  0  0  0  0  0
   -3.8694   -0.1481   -0.4113 C   0  0  0  0  0  0  0  0  0  0  0  0
   -1.3714    1.2230    1.4505 H   0  0  0  0  0  0  0  0  0  0  0  0
   -1.1587   -0.7383   -2.3723 H   0  0  0  0  0  0  0  0  0  0  0  0
   -3.6036   -1.1039   -2.3231 H   0  0  0  0  0  0  0  0  0  0  0  0
   -0.3049   -1.8961    0.6911 H   0  0  0  0  0  0  0  0  0  0  0  0
    1.5006    2.3716    0.0953 H   0  0  0  0  0  0  0  0  0  0  0  0
    3.0028    3.1923    0.0205 H   0  0  0  0  0  0  0  0  0  0  0  0
    1.2993   -3.1443    1.4412 H   0  0  0  0  0  0  0  0  0  0  0  0
  1 16  1  0  0  0  0
  2 18  1  0  0  0  0
  3  7  1  0  0  0  0
  3  8  1  0  0  0  0
  4  6  1  0  0  0  0
  4 25  1  0  0  0  0
  5 10  1  0  0  0  0
  5 11  2  0  0  0  0
  6 11  1  0  0  0  0
  6 22  1  0  0  0  0
  7 12  2  0  0  0  0
  8 15  2  0  0  0  0
  9 15  1  0  0  0  0
  9 23  1  0  0  0  0
  9 24  1  0  0  0  0
 10 13  2  0  0  0  0
 10 14  1  0  0  0  0
 11 12  1  0  0  0  0
 12 15  1  0  0  0  0
 13 16  1  0  0  0  0
 13 19  1  0  0  0  0
 14 17  2  0  0  0  0
 14 20  1  0  0  0  0
 16 18  2  0  0  0  0
 17 18  1  0  0  0  0
 17 21  1  0  0  0  0
M  END
> <PUBCHEM_COMPOUND_CID>
135424953

> <PUBCHEM_CONFORMER_RMSD>
0.6

> <PUBCHEM_CONFORMER_DIVERSEORDER>
1
24
19
14
22
8
17
9
21
20
27
12
25
7
23
11
5
2
10
18
26
16
4
3
15
6
13

> <PUBCHEM_MMFF94_PARTIAL_CHARGES>
25
1 -0.18
10 0.18
11 0.59
12 0.2
13 -0.15
14 -0.15
15 0.37
16 0.18
17 -0.15
18 0.19
19 0.15
2 -0.19
20 0.15
21 0.15
22 0.4
23 0.4
24 0.4
25 0.4
3 0.24
4 -0.38
5 -0.63
6 -0.47
7 -0.41
8 -0.41
9 -0.88

> <PUBCHEM_EFFECTIVE_ROTOR_COUNT>
3

> <PUBCHEM_PHARMACOPHORE_FEATURES>
7
1 6 donor
1 7 acceptor
1 9 donor
3 5 6 11 cation
3 8 9 15 cation
5 3 7 8 12 15 rings
6 10 13 14 16 17 18 rings

> <PUBCHEM_HEAVY_ATOM_COUNT>
18

> <PUBCHEM_ATOM_DEF_STEREO_COUNT>
0

> <PUBCHEM_ATOM_UDEF_STEREO_COUNT>
0

> <PUBCHEM_BOND_DEF_STEREO_COUNT>
0

> <PUBCHEM_BOND_UDEF_STEREO_COUNT>
0

> <PUBCHEM_ISOTOPIC_ATOM_COUNT>
0

> <PUBCHEM_COMPONENT_COUNT>
1

> <PUBCHEM_CACTVS_TAUTO_COUNT>
-1

> <PUBCHEM_CONFORMER_ID>
08126BB900000001

> <PUBCHEM_MMFF94_ENERGY>
44.785

> <PUBCHEM_FEATURE_SELFOVERLAP>
35.521

> <PUBCHEM_SHAPE_FINGERPRINT>
10366900 7 17676488336949137489
11132069 177 17530970223528322347
11615757 297 18410569587258018309
12107183 9 17412480025932386851
12186901 62 16558754503345703433
12236239 1 18202282511329058245
13583140 156 18189911842082082177
14386348 63 16877947118240079891
15099037 37 15719684224895122539
15375358 24 16732697238596547943
16752209 62 17131536277073841277
17834072 33 18272083937761452231
18186145 218 18408601478919476796
19422 9 18059856177176240655
200 152 18334570248751363621
20233049 118 15769494240279266298
20279233 1 16805605850276110211
204376 136 17968097572731416414
20645477 70 18042392560888711703
21618674 53 18202009836756200443
22094290 60 16702020894019450277
2255824 54 18409728478496196204
22854114 59 17894348890838719797
23048698 100 18413386536312072621
23402539 116 16917066629259464628
23402655 69 18130791165906230340
23557571 272 15936684861797240975
474 4 18266738159256035080
5104073 3 18060700589279798818
573450 72 17561359561026020823
633830 44 18411145740125530548
77492 1 18202279208346181333
77779 3 17632860832297780284
81228 2 12462755948194784138
9981440 41 16978407562919620000

> <PUBCHEM_SHAPE_MULTIPOLES>
328.38
9.52
1.58
1.32
0.47
0.42
0.48
1.46
0.07
0.17
0.26
-0.62
-0.3
-1.92

> <PUBCHEM_SHAPE_SELFOVERLAP>
694.596

> <PUBCHEM_SHAPE_VOLUME>
184.5

> <PUBCHEM_COORDINATE_TYPE>
2
5
10

$$$$
