REMARK  Name = 135455980
REMARK  7 active torsions:
REMARK  status: ('A' for Active; 'I' for Inactive)
REMARK    1  A    between atoms: C_1  and  S_22
REMARK    2  A    between atoms: C_3  and  C_12
REMARK    3  A    between atoms: C_5  and  O_33
REMARK    4  A    between atoms: C_15  and  C_19
REMARK    5  A    between atoms: C_19  and  C_20
REMARK    6  A    between atoms: S_22  and  N_25
REMARK    7  A    between atoms: O_33  and  C_34
REMARK                            x       y       z     vdW  Elec       q    Type
REMARK                         _______ _______ _______ _____ _____    ______ ____
ROOT
ATOM      1  C   UNL     1      -2.591   0.874  -1.004  0.00  0.00    +0.123 C 
ATOM      2  C   UNL     1      -1.399   0.155  -0.916  0.00  0.00    +0.027 C 
ATOM      3  C   UNL     1      -0.303   0.702  -0.248  0.00  0.00    +0.079 C 
ATOM      4  C   UNL     1      -2.688   2.139  -0.425  0.00  0.00    +0.023 C 
ATOM      5  C   UNL     1      -0.399   1.968   0.331  0.00  0.00    +0.142 C 
ATOM      6  C   UNL     1      -1.592   2.686   0.243  0.00  0.00    +0.038 C 
ENDROOT
BRANCH   3  12
ATOM      7  O   UNL     1       1.864  -3.283   1.236  0.00  0.00    -0.272 OA
ATOM      8  N   UNL     1       4.396  -2.128   0.015  0.00  0.00    -0.217 N 
ATOM      9  N   UNL     1       0.864  -1.325   0.490  0.00  0.00    -0.258 N 
ATOM     10  N   UNL     1       2.057   0.413  -0.679  0.00  0.00    -0.388 NA
ATOM     11  N   UNL     1       5.249  -1.291  -0.616  0.00  0.00    -0.183 NA
ATOM     12  C   UNL     1       0.959  -0.080  -0.167  0.00  0.00    +0.188 C 
ATOM     13  C   UNL     1       3.161  -0.430  -0.529  0.00  0.00    +0.154 C 
ATOM     14  C   UNL     1       3.124  -1.648   0.091  0.00  0.00    +0.220 C 
ATOM     15  C   UNL     1       4.479  -0.246  -0.949  0.00  0.00    +0.104 C 
ATOM     16  C   UNL     1       1.939  -2.201   0.665  0.00  0.00    +0.254 C 
ATOM     17  C   UNL     1       4.890  -3.384   0.529  0.00  0.00    +0.135 C 
ATOM     18  H   UNL     1      -0.014  -1.593   0.846  0.00  0.00    +0.157 HD
BRANCH  15  19
ATOM     19  C   UNL     1       5.063   0.898  -1.668  0.00  0.00    +0.050 C 
BRANCH  19  20
ATOM     20  C   UNL     1       5.882   1.830  -0.751  0.00  0.00    +0.006 C 
ATOM     21  C   UNL     1       5.040   2.454   0.351  0.00  0.00    +0.000 C 
ENDBRANCH  19  20
ENDBRANCH  15  19
ENDBRANCH   3  12
BRANCH   1  22
ATOM     22  S   UNL     1      -3.978   0.183  -1.849  0.00  0.00    +0.063 S 
ATOM     23  O   UNL     1      -4.822   1.276  -2.282  0.00  0.00    -0.153 OA
ATOM     24  O   UNL     1      -3.482  -0.795  -2.793  0.00  0.00    -0.153 OA
BRANCH  22  25
ATOM     25  N   UNL     1      -4.743  -0.634  -0.552  0.00  0.00    -0.160 NA
ATOM     26  N   UNL     1      -5.465  -1.639   2.041  0.00  0.00    +0.386 N 
ATOM     27  C   UNL     1      -5.423   0.242   0.445  0.00  0.00    +0.072 C 
ATOM     28  C   UNL     1      -3.924  -1.687   0.115  0.00  0.00    +0.072 C 
ATOM     29  C   UNL     1      -4.808  -2.499   1.056  0.00  0.00    -0.062 C 
ATOM     30  C   UNL     1      -6.273  -0.614   1.379  0.00  0.00    -0.062 C 
ATOM     31  H   UNL     1      -4.754  -1.185   2.615  0.00  0.00    -0.084 HD
ATOM     32  H   UNL     1      -6.075  -2.213   2.622  0.00  0.00    -0.084 HD
ENDBRANCH  22  25
ENDBRANCH   1  22
BRANCH   5  33
ATOM     33  O   UNL     1       0.660   2.519   0.989  0.00  0.00    -0.475 OA
BRANCH  33  34
ATOM     34  C   UNL     1       0.470   2.840   2.365  0.00  0.00    +0.206 C 
ATOM     35  C   UNL     1       1.792   2.703   3.090  0.00  0.00    +0.051 C 
ENDBRANCH  33  34
ENDBRANCH   5  33
TORSDOF 7
