135428114
  -OEChem-03292013293D

 34 36  0     1  0  0  0  0  0999 V2000
    0.3484   -3.7376    0.5803 Cl  0  0  0  0  0  0  0  0  0  0  0  0
    1.6002    0.5092    1.0719 O   0  0  0  0  0  0  0  0  0  0  0  0
    2.5369   -1.9720   -1.3665 O   0  0  0  0  0  0  0  0  0  0  0  0
    4.3025   -0.5067    0.1529 O   0  0  0  0  0  0  0  0  0  0  0  0
    1.4883    3.2761    0.6443 O   0  0  0  0  0  0  0  0  0  0  0  0
   -4.5732   -0.6038   -0.2600 O   0  0  0  0  0  0  0  0  0  0  0  0
   -0.0638   -1.1041    0.3066 N   0  0  0  0  0  0  0  0  0  0  0  0
   -0.8256    1.1533    0.0228 N   0  0  0  0  0  0  0  0  0  0  0  0
   -3.1945    1.2739   -0.2642 N   0  0  0  0  0  0  0  0  0  0  0  0
   -1.8861    3.2268   -0.2787 N   0  0  0  0  0  0  0  0  0  0  0  0
    1.4038   -0.7774    0.4496 C   0  0  1  0  0  0  0  0  0  0  0  0
    2.1309   -0.7049   -0.8891 C   0  0  1  0  0  0  0  0  0  0  0  0
    3.2969    0.2074   -0.5646 C   0  0  1  0  0  0  0  0  0  0  0  0
    2.6628    1.2117    0.3893 C   0  0  1  0  0  0  0  0  0  0  0  0
    2.0582    2.4132   -0.3241 C   0  0  0  0  0  0  0  0  0  0  0  0
   -1.0525   -0.1794    0.1116 C   0  0  0  0  0  0  0  0  0  0  0  0
   -0.6209   -2.3598    0.3495 C   0  0  0  0  0  0  0  0  0  0  0  0
   -2.2512   -0.8560    0.0302 C   0  0  0  0  0  0  0  0  0  0  0  0
   -1.9849   -2.2337    0.1801 C   0  0  0  0  0  0  0  0  0  0  0  0
   -3.4604   -0.0976   -0.1765 C   0  0  0  0  0  0  0  0  0  0  0  0
   -1.9158    1.8614   -0.1655 C   0  0  0  0  0  0  0  0  0  0  0  0
    1.8252   -1.5310    1.1229 H   0  0  0  0  0  0  0  0  0  0  0  0
    1.4910   -0.2408   -1.6495 H   0  0  0  0  0  0  0  0  0  0  0  0
    3.7642    0.6472   -1.4503 H   0  0  0  0  0  0  0  0  0  0  0  0
    3.3599    1.5524    1.1633 H   0  0  0  0  0  0  0  0  0  0  0  0
    1.2821    2.1292   -1.0386 H   0  0  0  0  0  0  0  0  0  0  0  0
    2.8370    2.9653   -0.8606 H   0  0  0  0  0  0  0  0  0  0  0  0
    3.0825   -1.8241   -2.1577 H   0  0  0  0  0  0  0  0  0  0  0  0
    5.0095    0.1251    0.3691 H   0  0  0  0  0  0  0  0  0  0  0  0
   -2.6996   -3.0451    0.1665 H   0  0  0  0  0  0  0  0  0  0  0  0
    1.1667    4.0632    0.1728 H   0  0  0  0  0  0  0  0  0  0  0  0
   -3.9856    1.8944   -0.4096 H   0  0  0  0  0  0  0  0  0  0  0  0
   -1.0135    3.7399   -0.2225 H   0  0  0  0  0  0  0  0  0  0  0  0
   -2.7339    3.7639   -0.4237 H   0  0  0  0  0  0  0  0  0  0  0  0
  1 17  1  0  0  0  0
  2 11  1  0  0  0  0
  2 14  1  0  0  0  0
  3 12  1  0  0  0  0
  3 28  1  0  0  0  0
  4 13  1  0  0  0  0
  4 29  1  0  0  0  0
  5 15  1  0  0  0  0
  5 31  1  0  0  0  0
  6 20  2  0  0  0  0
  7 11  1  0  0  0  0
  7 16  1  0  0  0  0
  7 17  1  0  0  0  0
  8 16  1  0  0  0  0
  8 21  2  0  0  0  0
  9 20  1  0  0  0  0
  9 21  1  0  0  0  0
  9 32  1  0  0  0  0
 10 21  1  0  0  0  0
 10 33  1  0  0  0  0
 10 34  1  0  0  0  0
 11 12  1  0  0  0  0
 11 22  1  0  0  0  0
 12 13  1  0  0  0  0
 12 23  1  0  0  0  0
 13 14  1  0  0  0  0
 13 24  1  0  0  0  0
 14 15  1  0  0  0  0
 14 25  1  0  0  0  0
 15 26  1  0  0  0  0
 15 27  1  0  0  0  0
 16 18  2  0  0  0  0
 17 19  2  0  0  0  0
 18 19  1  0  0  0  0
 18 20  1  0  0  0  0
 19 30  1  0  0  0  0
M  END
> <PUBCHEM_COMPOUND_CID>
135428114

> <PUBCHEM_CONFORMER_RMSD>
0.6

> <PUBCHEM_CONFORMER_DIVERSEORDER>
1
7
10
8
3
11
2
6
4
9
5

> <PUBCHEM_MMFF94_PARTIAL_CHARGES>
28
1 -0.12
10 -0.85
11 0.54
12 0.28
13 0.28
14 0.28
15 0.28
16 -0.03
17 -0.03
18 -0.09
19 -0.15
2 -0.56
20 0.72
21 0.56
28 0.4
29 0.4
3 -0.68
30 0.15
31 0.4
32 0.37
33 0.4
34 0.4
4 -0.68
5 -0.68
6 -0.57
7 0.05
8 -0.58
9 -0.49

> <PUBCHEM_EFFECTIVE_ROTOR_COUNT>
3

> <PUBCHEM_PHARMACOPHORE_FEATURES>
14
1 10 donor
1 2 acceptor
1 3 acceptor
1 3 donor
1 4 acceptor
1 4 donor
1 5 acceptor
1 5 donor
1 6 acceptor
1 7 cation
1 9 donor
5 2 11 12 13 14 rings
5 7 16 17 18 19 rings
6 8 9 16 18 20 21 rings

> <PUBCHEM_HEAVY_ATOM_COUNT>
21

> <PUBCHEM_ATOM_DEF_STEREO_COUNT>
4

> <PUBCHEM_ATOM_UDEF_STEREO_COUNT>
0

> <PUBCHEM_BOND_DEF_STEREO_COUNT>
0

> <PUBCHEM_BOND_UDEF_STEREO_COUNT>
0

> <PUBCHEM_ISOTOPIC_ATOM_COUNT>
0

> <PUBCHEM_COMPONENT_COUNT>
1

> <PUBCHEM_CACTVS_TAUTO_COUNT>
-1

> <PUBCHEM_CONFORMER_ID>
0812781200000001

> <PUBCHEM_MMFF94_ENERGY>
51.5573

> <PUBCHEM_FEATURE_SELFOVERLAP>
71.224

> <PUBCHEM_SHAPE_FINGERPRINT>
10498660 4 18334853871143520909
10608611 8 18267585899779009186
10616163 171 17833553774856304196
10967382 1 18337670927049296945
12403259 226 18409446968648148143
12403260 363 18409719660327093606
12553582 1 17183069574649509419
13140716 1 18336833112253357379
14790565 3 18337681892776582529
16945 1 18337104579945725043
17802600 8 18410007741005833460
18186145 218 18341616975539400167
19591789 44 18265899064121633827
20510252 161 18413108346922364889
20905425 154 17980481152867097014
21524375 3 18187363212023901819
22802520 49 18341059626007029154
2334 1 18048879890209231475
23402539 116 18339632421412704550
23557571 272 17979648049718449518
23559900 14 18341330102084132584
238 59 18122028006545445325
2748010 2 18050852422416712123
335352 9 18410009940013024726
350125 39 18047473322927378715
5262128 65 17916883312888353526
7364860 26 18270680995099960488
7832392 63 17979918211598542493
81228 2 17907008826793576155
8809292 202 18337676420391739266
9709674 26 18341899622810451158
9925002 15 15248484496622134374

> <PUBCHEM_SHAPE_MULTIPOLES>
384.77
6.05
3.81
0.84
0.75
0.01
-0.07
-0.92
-0.87
0.08
0.4
-0.45
0.17
0.61

> <PUBCHEM_SHAPE_SELFOVERLAP>
828.559

> <PUBCHEM_SHAPE_VOLUME>
211.6

> <PUBCHEM_COORDINATE_TYPE>
2
5
10

$$$$
