REMARK  Name = 135446919
REMARK  7 active torsions:
REMARK  status: ('A' for Active; 'I' for Inactive)
REMARK    1  A    between atoms: N_2  and  C_15
REMARK    2  A    between atoms: C_15  and  O_16
REMARK    3  A    between atoms: O_16  and  C_17
REMARK    4  A    between atoms: C_17  and  C_18
REMARK    5  A    between atoms: C_18  and  O_19
REMARK    6  A    between atoms: C_18  and  C_21
REMARK    7  A    between atoms: C_21  and  O_22
REMARK                            x       y       z     vdW  Elec       q    Type
REMARK                         _______ _______ _______ _____ _____    ______ ____
ROOT
ATOM      1  O   UNL     1      -4.593   0.590   1.113  0.00  0.00    -0.268 OA
ATOM      2  N   UNL     1      -0.476   1.103  -0.676  0.00  0.00    -0.235 N 
ATOM      3  N   UNL     1      -2.233   2.157   0.220  0.00  0.00    -0.240 NA
ATOM      4  N   UNL     1      -1.236  -1.192  -0.575  0.00  0.00    -0.357 NA
ATOM      5  N   UNL     1      -3.425  -1.300   0.394  0.00  0.00    -0.243 N 
ATOM      6  N   UNL     1      -2.321  -3.259  -0.304  0.00  0.00    -0.321 N 
ATOM      7  C   UNL     1      -1.386   0.135  -0.370  0.00  0.00    +0.211 C 
ATOM      8  C   UNL     1      -2.450   0.812   0.177  0.00  0.00    +0.176 C 
ATOM      9  C   UNL     1      -1.032   2.303  -0.303  0.00  0.00    +0.224 C 
ATOM     10  C   UNL     1      -3.601   0.073   0.615  0.00  0.00    +0.273 C 
ATOM     11  C   UNL     1      -2.277  -1.895  -0.182  0.00  0.00    +0.239 C 
ATOM     12  H   UNL     1      -4.160  -1.899   0.661  0.00  0.00    +0.159 HD
ATOM     13  H   UNL     1      -1.558  -3.743  -0.696  0.00  0.00    +0.146 HD
ATOM     14  H   UNL     1      -3.115  -3.755   0.000  0.00  0.00    +0.146 HD
ENDROOT
BRANCH   2  15
ATOM     15  C   UNL     1       0.823   0.921  -1.278  0.00  0.00    +0.244 C 
BRANCH  15  16
ATOM     16  O   UNL     1       1.710   0.407  -0.288  0.00  0.00    -0.332 OA
BRANCH  16  17
ATOM     17  C   UNL     1       3.019   0.214  -0.806  0.00  0.00    +0.176 C 
BRANCH  17  18
ATOM     18  C   UNL     1       3.942  -0.290   0.297  0.00  0.00    +0.169 C 
BRANCH  18  19
ATOM     19  O   UNL     1       4.003   0.695   1.331  0.00  0.00    -0.379 OA
ATOM     20  H   UNL     1       3.111   0.856   1.677  0.00  0.00    +0.211 HD
ENDBRANCH  18  19
BRANCH  18  21
ATOM     21  C   UNL     1       5.357  -0.516  -0.221  0.00  0.00    +0.169 C 
BRANCH  21  22
ATOM     22  O   UNL     1       6.178  -0.958   0.855  0.00  0.00    -0.379 OA
ATOM     23  H   UNL     1       7.081  -1.104   0.534  0.00  0.00    +0.211 HD
ENDBRANCH  21  22
ENDBRANCH  18  21
ENDBRANCH  17  18
ENDBRANCH  16  17
ENDBRANCH  15  16
ENDBRANCH   2  15
TORSDOF 7
