REMARK  Name = 135452319
REMARK  4 active torsions:
REMARK  status: ('A' for Active; 'I' for Inactive)
REMARK    1  A    between atoms: N_2  and  C_15
REMARK    2  A    between atoms: C_16  and  C_22
REMARK    3  A    between atoms: C_18  and  O_20
REMARK    4  A    between atoms: C_22  and  O_23
REMARK                            x       y       z     vdW  Elec       q    Type
REMARK                         _______ _______ _______ _____ _____    ______ ____
ROOT
ATOM      1  O   UNL     1       4.609   0.076  -0.254  0.00  0.00    -0.268 OA
ATOM      2  N   UNL     1       0.350  -1.424  -0.073  0.00  0.00    -0.263 N 
ATOM      3  N   UNL     1       2.493  -2.008  -0.337  0.00  0.00    -0.240 NA
ATOM      4  N   UNL     1       0.575   0.969   0.216  0.00  0.00    -0.357 NA
ATOM      5  N   UNL     1       2.881   1.607   0.097  0.00  0.00    -0.243 N 
ATOM      6  N   UNL     1       1.203   3.220   0.452  0.00  0.00    -0.321 N 
ATOM      7  C   UNL     1       1.073  -0.271   0.012  0.00  0.00    +0.210 C 
ATOM      8  C   UNL     1       1.249  -2.441  -0.284  0.00  0.00    +0.222 C 
ATOM      9  C   UNL     1       2.380  -0.662  -0.153  0.00  0.00    +0.176 C 
ATOM     10  C   UNL     1       3.419   0.330  -0.116  0.00  0.00    +0.273 C 
ATOM     11  C   UNL     1       1.505   1.898   0.255  0.00  0.00    +0.239 C 
ATOM     12  H   UNL     1       3.511   2.362   0.139  0.00  0.00    +0.159 HD
ATOM     13  H   UNL     1       0.267   3.499   0.571  0.00  0.00    +0.146 HD
ATOM     14  H   UNL     1       1.923   3.891   0.476  0.00  0.00    +0.146 HD
ENDROOT
BRANCH   2  15
ATOM     15  C   UNL     1      -1.150  -1.573   0.038  0.00  0.00    +0.079 C 
ATOM     16  C   UNL     1      -2.768   0.244  -0.241  0.00  0.00    +0.058 C 
ATOM     17  C   UNL     1      -1.952  -0.788  -1.023  0.00  0.00    +0.025 C 
ATOM     18  C   UNL     1      -3.035  -0.464   1.084  0.00  0.00    +0.115 C 
ATOM     19  C   UNL     1      -1.688  -1.101   1.401  0.00  0.00    +0.049 C 
BRANCH  18  20
ATOM     20  O   UNL     1      -3.422   0.456   2.087  0.00  0.00    -0.384 OA
ATOM     21  H   UNL     1      -4.281   0.844   1.856  0.00  0.00    +0.210 HD
ENDBRANCH  18  20
BRANCH  16  22
ATOM     22  C   UNL     1      -4.038   0.673  -0.960  0.00  0.00    +0.140 C 
BRANCH  22  23
ATOM     23  O   UNL     1      -3.683   1.258  -2.201  0.00  0.00    -0.382 OA
ATOM     24  H   UNL     1      -4.486   1.536  -2.669  0.00  0.00    +0.210 HD
ENDBRANCH  22  23
ENDBRANCH  16  22
ENDBRANCH   2  15
TORSDOF 4
