135409256
  -OEChem-03292013293D

 32 34  0     0  0  0  0  0  0999 V2000
    3.4819    0.4809    2.2177 O   0  0  0  0  0  0  0  0  0  0  0  0
    4.8811   -1.1729   -1.2567 O   0  0  0  0  0  0  0  0  0  0  0  0
   -3.8177   -2.3472    0.2112 O   0  0  0  0  0  0  0  0  0  0  0  0
   -0.0824    0.1805   -0.0603 N   0  0  0  0  0  0  0  0  0  0  0  0
   -0.8820   -1.8978    0.1479 N   0  0  0  0  0  0  0  0  0  0  0  0
   -2.1458    1.4412   -0.1700 N   0  0  0  0  0  0  0  0  0  0  0  0
   -4.0285   -0.0323   -0.0136 N   0  0  0  0  0  0  0  0  0  0  0  0
   -4.3358    2.2906   -0.2380 N   0  0  0  0  0  0  0  0  0  0  0  0
    3.2548    0.1408   -0.1244 C   0  0  0  0  0  0  0  0  0  0  0  0
    3.4201    1.7036   -0.2608 C   0  0  0  0  0  0  0  0  0  0  0  0
    2.1720    1.0536   -0.1803 C   0  0  0  0  0  0  0  0  0  0  0  0
    3.5455   -0.7070   -1.3304 C   0  0  0  0  0  0  0  0  0  0  0  0
    3.5965   -0.4922    1.1948 C   0  0  0  0  0  0  0  0  0  0  0  0
    0.8416    1.2015   -0.1660 C   0  0  0  0  0  0  0  0  0  0  0  0
   -1.4415    0.2929   -0.0624 C   0  0  0  0  0  0  0  0  0  0  0  0
    0.2056   -1.1564    0.0684 C   0  0  0  0  0  0  0  0  0  0  0  0
   -1.9011   -0.9955    0.0664 C   0  0  0  0  0  0  0  0  0  0  0  0
   -3.3173   -1.2352    0.0993 C   0  0  0  0  0  0  0  0  0  0  0  0
   -3.4472    1.2512   -0.1428 C   0  0  0  0  0  0  0  0  0  0  0  0
    3.6968    2.1095   -1.2251 H   0  0  0  0  0  0  0  0  0  0  0  0
    3.7242    2.2965    0.5896 H   0  0  0  0  0  0  0  0  0  0  0  0
    3.4266   -0.1485   -2.2658 H   0  0  0  0  0  0  0  0  0  0  0  0
    2.8865   -1.5793   -1.3670 H   0  0  0  0  0  0  0  0  0  0  0  0
    4.6303   -0.8515    1.2022 H   0  0  0  0  0  0  0  0  0  0  0  0
    2.9380   -1.3328    1.4294 H   0  0  0  0  0  0  0  0  0  0  0  0
    0.4346    2.2054   -0.2480 H   0  0  0  0  0  0  0  0  0  0  0  0
    3.7114    0.0450    3.0560 H   0  0  0  0  0  0  0  0  0  0  0  0
    5.0370   -1.7237   -2.0427 H   0  0  0  0  0  0  0  0  0  0  0  0
    1.1997   -1.5679    0.1001 H   0  0  0  0  0  0  0  0  0  0  0  0
   -5.0429   -0.0874   -0.0015 H   0  0  0  0  0  0  0  0  0  0  0  0
   -4.0154    3.2481   -0.3335 H   0  0  0  0  0  0  0  0  0  0  0  0
   -5.3374    2.1338   -0.2160 H   0  0  0  0  0  0  0  0  0  0  0  0
  1 13  1  0  0  0  0
  1 27  1  0  0  0  0
  2 12  1  0  0  0  0
  2 28  1  0  0  0  0
  3 18  2  0  0  0  0
  4 14  1  0  0  0  0
  4 15  1  0  0  0  0
  4 16  1  0  0  0  0
  5 16  2  0  0  0  0
  5 17  1  0  0  0  0
  6 15  1  0  0  0  0
  6 19  2  0  0  0  0
  7 18  1  0  0  0  0
  7 19  1  0  0  0  0
  7 30  1  0  0  0  0
  8 19  1  0  0  0  0
  8 31  1  0  0  0  0
  8 32  1  0  0  0  0
  9 10  1  0  0  0  0
  9 11  1  0  0  0  0
  9 12  1  0  0  0  0
  9 13  1  0  0  0  0
 10 11  1  0  0  0  0
 10 20  1  0  0  0  0
 10 21  1  0  0  0  0
 11 14  2  0  0  0  0
 12 22  1  0  0  0  0
 12 23  1  0  0  0  0
 13 24  1  0  0  0  0
 13 25  1  0  0  0  0
 14 26  1  0  0  0  0
 15 17  2  0  0  0  0
 16 29  1  0  0  0  0
 17 18  1  0  0  0  0
M  END
> <PUBCHEM_COMPOUND_CID>
135409256

> <PUBCHEM_CONFORMER_RMSD>
0.6

> <PUBCHEM_CONFORMER_DIVERSEORDER>
1
7
8
2
22
19
4
12
3
13
23
16
21
18
10
5
20
17
14
11
6
9
15

> <PUBCHEM_MMFF94_PARTIAL_CHARGES>
28
1 -0.68
10 -0.16
11 -0.08
12 0.38
13 0.38
14 -0.18
15 -0.03
16 0.04
17 0.14
18 0.72
19 0.56
2 -0.68
20 0.1
21 0.1
26 0.15
27 0.4
28 0.4
29 0.15
3 -0.57
30 0.37
31 0.4
32 0.4
4 0.33
5 -0.57
6 -0.58
7 -0.49
8 -0.85
9 -0.15

> <PUBCHEM_EFFECTIVE_ROTOR_COUNT>
3.4

> <PUBCHEM_PHARMACOPHORE_FEATURES>
10
1 1 acceptor
1 1 donor
1 2 acceptor
1 2 donor
1 3 acceptor
1 7 donor
1 8 donor
3 4 5 16 cation
5 4 5 15 16 17 rings
6 6 7 15 17 18 19 rings

> <PUBCHEM_HEAVY_ATOM_COUNT>
19

> <PUBCHEM_ATOM_DEF_STEREO_COUNT>
0

> <PUBCHEM_ATOM_UDEF_STEREO_COUNT>
0

> <PUBCHEM_BOND_DEF_STEREO_COUNT>
1

> <PUBCHEM_BOND_UDEF_STEREO_COUNT>
0

> <PUBCHEM_ISOTOPIC_ATOM_COUNT>
0

> <PUBCHEM_COMPONENT_COUNT>
1

> <PUBCHEM_CACTVS_TAUTO_COUNT>
-1

> <PUBCHEM_CONFORMER_ID>
08122E6800000001

> <PUBCHEM_MMFF94_ENERGY>
51.9468

> <PUBCHEM_FEATURE_SELFOVERLAP>
50.925

> <PUBCHEM_SHAPE_FINGERPRINT>
10062212 137 18334283271700273563
10608611 8 18340487858459680629
10646746 165 18411980264929302132
10751810 167 18041287620664411902
10922523 26 18272936037360233742
1100329 8 16758045087236352096
11132069 177 18411414003730188489
11405975 8 18273219664078610338
12403259 415 18130791169784290920
12507560 40 18272932760722348660
13296908 3 18272374187129404116
13583140 156 16916491657708042534
13675066 3 18131064952537741418
14144814 61 18260545658048944936
14866123 147 16977040367502059866
15196674 1 18410015454861925812
15536298 74 18413108381313407206
16752209 62 18335983142151356251
17492 89 18337393858540896086
17804303 29 18409733962589346860
1813 80 16445017615160947874
18186145 218 18272939292850537320
19078846 21 18113892754534863536
19422 9 17894624881163292648
200 152 16988844947333050413
20510252 161 18341899648849020457
20645477 70 17275109401332112318
21065201 7 18410009931549846322
21267235 1 18336276703429723343
2255824 54 17531530992255594196
23463225 33 18187641414282550840
23557571 272 18343033185408045559
23559900 14 18272091570023968492
2838139 119 16879882220567472701
3004659 81 18116445756753999022
4214541 1 18410015437597829500
495365 180 17489011687676487442
5104073 3 18409730689845445024
573450 72 18187915192767564217
633830 44 18408321090168591646
77779 3 18410016563032176924
9709674 26 18266465480308770374

> <PUBCHEM_SHAPE_MULTIPOLES>
348.5
9.35
2.06
1.06
0.36
0.03
0.36
0.12
-0.52
-1.82
-0.14
1.72
-0.11
0.64

> <PUBCHEM_SHAPE_SELFOVERLAP>
759.915

> <PUBCHEM_SHAPE_VOLUME>
189.4

> <PUBCHEM_COORDINATE_TYPE>
2
5
10

$$$$
