REMARK  Name = 135415565
REMARK  4 active torsions:
REMARK  status: ('A' for Active; 'I' for Inactive)
REMARK    1  A    between atoms: N_2  and  C_17
REMARK    2  A    between atoms: C_18  and  O_21
REMARK    3  A    between atoms: C_20  and  C_23
REMARK    4  A    between atoms: C_23  and  O_24
REMARK                            x       y       z     vdW  Elec       q    Type
REMARK                         _______ _______ _______ _____ _____    ______ ____
ROOT
ATOM      1  O   UNL     1      -4.235   1.962  -0.702  0.00  0.00    -0.268 OA
ATOM      2  N   UNL     1      -0.114   0.312   0.135  0.00  0.00    -0.236 N 
ATOM      3  N   UNL     1      -1.272   2.100  -0.544  0.00  0.00    -0.240 NA
ATOM      4  N   UNL     1      -1.913  -1.256   0.538  0.00  0.00    -0.357 NA
ATOM      5  N   UNL     1      -4.026  -0.238   0.051  0.00  0.00    -0.243 N 
ATOM      6  N   UNL     1      -3.909  -2.465   0.806  0.00  0.00    -0.321 N 
ATOM      7  C   UNL     1      -1.428  -0.051   0.167  0.00  0.00    +0.211 C 
ATOM      8  C   UNL     1      -0.071   1.614  -0.299  0.00  0.00    +0.224 C 
ATOM      9  C   UNL     1      -2.111   1.065  -0.254  0.00  0.00    +0.176 C 
ATOM     10  C   UNL     1      -3.544   1.019  -0.338  0.00  0.00    +0.273 C 
ATOM     11  C   UNL     1      -3.225  -1.326   0.471  0.00  0.00    +0.239 C 
ATOM     12  H   UNL     1      -5.001  -0.376   0.030  0.00  0.00    +0.159 HD
ATOM     13  H   UNL     1      -3.419  -3.264   1.108  0.00  0.00    +0.146 HD
ATOM     14  H   UNL     1      -4.892  -2.485   0.745  0.00  0.00    +0.146 HD
ENDROOT
BRANCH   2  17
ATOM     15  F   UNL     1       2.122  -2.492  -0.244  0.00  0.00    -0.230 F 
ATOM     16  O   UNL     1       2.145   0.260   1.062  0.00  0.00    -0.333 OA
ATOM     17  C   UNL     1       1.079  -0.541   0.503  0.00  0.00    +0.231 C 
ATOM     18  C   UNL     1       2.862  -0.428  -1.063  0.00  0.00    +0.177 C 
ATOM     19  C   UNL     1       1.673  -1.283  -0.690  0.00  0.00    +0.236 C 
ATOM     20  C   UNL     1       3.343   0.018   0.305  0.00  0.00    +0.176 C 
BRANCH  18  21
ATOM     21  O   UNL     1       3.850  -1.148  -1.767  0.00  0.00    -0.379 OA
ATOM     22  H   UNL     1       3.502  -1.413  -2.633  0.00  0.00    +0.211 HD
ENDBRANCH  18  21
BRANCH  20  23
ATOM     23  C   UNL     1       4.194   1.274   0.268  0.00  0.00    +0.169 C 
BRANCH  23  24
ATOM     24  O   UNL     1       4.578   1.605   1.593  0.00  0.00    -0.379 OA
ATOM     25  H   UNL     1       5.123   2.408   1.580  0.00  0.00    +0.211 HD
ENDBRANCH  23  24
ENDBRANCH  20  23
ENDBRANCH   2  17
TORSDOF 4
