REMARK  Name = 135480707
REMARK  3 active torsions:
REMARK  status: ('A' for Active; 'I' for Inactive)
REMARK    1  A    between atoms: N_2  and  C_15
REMARK    2  A    between atoms: C_18  and  O_20
REMARK    3  A    between atoms: C_19  and  O_22
REMARK                            x       y       z     vdW  Elec       q    Type
REMARK                         _______ _______ _______ _____ _____    ______ ____
ROOT
ATOM      1  O   UNL     1       4.414  -0.137  -0.019  0.00  0.00    -0.268 OA
ATOM      2  N   UNL     1       0.067  -1.370   0.012  0.00  0.00    -0.263 N 
ATOM      3  N   UNL     1       2.182  -2.098  -0.009  0.00  0.00    -0.240 NA
ATOM      4  N   UNL     1       0.421   1.024   0.021  0.00  0.00    -0.357 NA
ATOM      5  N   UNL     1       2.766   1.517   0.003  0.00  0.00    -0.243 N 
ATOM      6  N   UNL     1       1.173   3.251   0.026  0.00  0.00    -0.321 N 
ATOM      7  C   UNL     1       0.853  -0.256   0.011  0.00  0.00    +0.210 C 
ATOM      8  C   UNL     1       0.912  -2.453   0.000  0.00  0.00    +0.222 C 
ATOM      9  C   UNL     1       2.141  -0.735  -0.002  0.00  0.00    +0.176 C 
ATOM     10  C   UNL     1       3.236   0.196  -0.007  0.00  0.00    +0.273 C 
ATOM     11  C   UNL     1       1.403   1.899   0.017  0.00  0.00    +0.239 C 
ATOM     12  H   UNL     1       3.438   2.237   0.001  0.00  0.00    +0.159 HD
ATOM     13  H   UNL     1       0.249   3.592   0.035  0.00  0.00    +0.146 HD
ATOM     14  H   UNL     1       1.930   3.879   0.022  0.00  0.00    +0.146 HD
ENDROOT
BRANCH   2  15
ATOM     15  C   UNL     1      -1.444  -1.423   0.025  0.00  0.00    +0.082 C 
ATOM     16  C   UNL     1      -2.098  -0.729   1.239  0.00  0.00    +0.052 C 
ATOM     17  C   UNL     1      -2.066  -0.759  -1.218  0.00  0.00    +0.052 C 
ATOM     18  C   UNL     1      -2.901   0.432   0.664  0.00  0.00    +0.139 C 
ATOM     19  C   UNL     1      -3.327  -0.077  -0.704  0.00  0.00    +0.139 C 
BRANCH  18  20
ATOM     20  O   UNL     1      -4.021   0.718   1.483  0.00  0.00    -0.382 OA
ATOM     21  H   UNL     1      -3.717   1.040   2.346  0.00  0.00    +0.210 HD
ENDBRANCH  18  20
BRANCH  19  22
ATOM     22  O   UNL     1      -3.711   0.998  -1.541  0.00  0.00    -0.382 OA
ATOM     23  H   UNL     1      -3.978   0.654  -2.407  0.00  0.00    +0.210 HD
ENDBRANCH  19  22
ENDBRANCH   2  15
TORSDOF 3
