REMARK  Name = 135426831
REMARK  5 active torsions:
REMARK  status: ('A' for Active; 'I' for Inactive)
REMARK    1  A    between atoms: C_3  and  C_12
REMARK    2  A    between atoms: C_4  and  O_23
REMARK    3  A    between atoms: C_7  and  O_25
REMARK    4  A    between atoms: C_13  and  O_19
REMARK    5  A    between atoms: C_16  and  O_21
REMARK                            x       y       z     vdW  Elec       q    Type
REMARK                         _______ _______ _______ _____ _____    ______ ____
ROOT
ATOM      1  O   UNL     1      -0.828   2.142  -0.801  0.00  0.00    -0.283 OA
ATOM      2  O   UNL     1      -3.548  -2.136   0.798  0.00  0.00    -0.284 OA
ATOM      3  C   UNL     1      -0.723  -0.094   0.011  0.00  0.00    +0.085 C 
ATOM      4  C   UNL     1      -1.437  -1.163   0.410  0.00  0.00    +0.176 C 
ATOM      5  C   UNL     1      -1.440   1.143  -0.430  0.00  0.00    +0.232 C 
ATOM      6  C   UNL     1      -3.628   0.085  -0.014  0.00  0.00    +0.057 C 
ATOM      7  C   UNL     1      -2.923   1.150  -0.413  0.00  0.00    +0.172 C 
ATOM      8  C   UNL     1      -2.924  -1.145   0.426  0.00  0.00    +0.228 C 
ATOM      9  C   UNL     1      -5.128   0.038   0.024  0.00  0.00    +0.038 C 
ENDROOT
BRANCH   3  12
ATOM     10  O   UNL     1       0.828   2.142   0.801  0.00  0.00    -0.283 OA
ATOM     11  O   UNL     1       3.548  -2.136  -0.798  0.00  0.00    -0.284 OA
ATOM     12  C   UNL     1       0.723  -0.094  -0.011  0.00  0.00    +0.085 C 
ATOM     13  C   UNL     1       1.437  -1.163  -0.410  0.00  0.00    +0.176 C 
ATOM     14  C   UNL     1       1.440   1.143   0.430  0.00  0.00    +0.232 C 
ATOM     15  C   UNL     1       3.628   0.085   0.014  0.00  0.00    +0.057 C 
ATOM     16  C   UNL     1       2.923   1.151   0.413  0.00  0.00    +0.172 C 
ATOM     17  C   UNL     1       2.924  -1.145  -0.426  0.00  0.00    +0.228 C 
ATOM     18  C   UNL     1       5.128   0.038  -0.024  0.00  0.00    +0.038 C 
BRANCH  13  19
ATOM     19  O   UNL     1       0.822  -2.330  -0.828  0.00  0.00    -0.503 OA
ATOM     20  H   UNL     1      -0.113  -2.390  -0.835  0.00  0.00    +0.292 HD
ENDBRANCH  13  19
BRANCH  16  21
ATOM     21  O   UNL     1       3.551   2.310   0.827  0.00  0.00    -0.503 OA
ATOM     22  H   UNL     1       3.042   3.046   1.103  0.00  0.00    +0.292 HD
ENDBRANCH  16  21
ENDBRANCH   3  12
BRANCH   4  23
ATOM     23  O   UNL     1      -0.822  -2.330   0.828  0.00  0.00    -0.503 OA
ATOM     24  H   UNL     1       0.113  -2.390   0.835  0.00  0.00    +0.292 HD
ENDBRANCH   4  23
BRANCH   7  25
ATOM     25  O   UNL     1      -3.551   2.310  -0.827  0.00  0.00    -0.503 OA
ATOM     26  H   UNL     1      -3.042   3.046  -1.103  0.00  0.00    +0.292 HD
ENDBRANCH   7  25
TORSDOF 5
