REMARK  Name = 135449517
REMARK  4 active torsions:
REMARK  status: ('A' for Active; 'I' for Inactive)
REMARK    1  A    between atoms: C_7  and  C_16
REMARK    2  A    between atoms: C_16  and  O_17
REMARK    3  A    between atoms: C_16  and  C_19
REMARK    4  A    between atoms: C_19  and  O_21
REMARK                            x       y       z     vdW  Elec       q    Type
REMARK                         _______ _______ _______ _____ _____    ______ ____
ROOT
ATOM      1  O   UNL     1      -1.053  -2.563  -0.313  0.00  0.00    -0.266 OA
ATOM      2  N   UNL     1       0.632  -0.428  -0.327  0.00  0.00    -0.390 NA
ATOM      3  N   UNL     1      -0.527   2.109   0.023  0.00  0.00    -0.200 NA
ATOM      4  N   UNL     1      -2.886  -1.181   0.015  0.00  0.00    -0.241 N 
ATOM      5  N   UNL     1      -2.663   1.159   0.188  0.00  0.00    -0.318 NA
ATOM      6  N   UNL     1      -4.777   0.155   0.346  0.00  0.00    -0.320 N 
ATOM      7  C   UNL     1       1.371   0.698  -0.316  0.00  0.00    +0.142 C 
ATOM      8  C   UNL     1      -0.693  -0.249  -0.158  0.00  0.00    +0.257 C 
ATOM      9  C   UNL     1       0.802   1.942  -0.144  0.00  0.00    +0.194 C 
ATOM     10  C   UNL     1      -1.280   0.990   0.015  0.00  0.00    +0.121 C 
ATOM     11  C   UNL     1      -1.538  -1.448  -0.163  0.00  0.00    +0.293 C 
ATOM     12  C   UNL     1      -3.418   0.094   0.184  0.00  0.00    +0.248 C 
ATOM     13  H   UNL     1      -3.508  -1.944   0.022  0.00  0.00    +0.159 HD
ATOM     14  H   UNL     1      -5.311  -0.672   0.337  0.00  0.00    +0.146 HD
ATOM     15  H   UNL     1      -5.220   1.026   0.470  0.00  0.00    +0.146 HD
ENDROOT
BRANCH   7  16
ATOM     16  C   UNL     1       2.842   0.558  -0.498  0.00  0.00    +0.187 C 
BRANCH  16  17
ATOM     17  O   UNL     1       3.127   0.053  -1.813  0.00  0.00    -0.376 OA
ATOM     18  H   UNL     1       4.086  -0.035  -1.925  0.00  0.00    +0.211 HD
ENDBRANCH  16  17
BRANCH  16  19
ATOM     19  C   UNL     1       3.568  -0.340   0.537  0.00  0.00    +0.144 C 
ATOM     20  C   UNL     1       3.391   0.136   1.972  0.00  0.00    +0.035 C 
BRANCH  19  21
ATOM     21  O   UNL     1       3.102  -1.685   0.452  0.00  0.00    -0.382 OA
ATOM     22  H   UNL     1       3.207  -2.006  -0.457  0.00  0.00    +0.210 HD
ENDBRANCH  19  21
ENDBRANCH  16  19
ENDBRANCH   7  16
TORSDOF 4
