REMARK  Name = 135410906
REMARK  7 active torsions:
REMARK  status: ('A' for Active; 'I' for Inactive)
REMARK    1  A    between atoms: N_3  and  C1*_17
REMARK    2  A    between atoms: N_4  and  C_28
REMARK    3  A    between atoms: C2*_18  and  O2*_21
REMARK    4  A    between atoms: C3*_19  and  O3*_23
REMARK    5  A    between atoms: C4*_20  and  C5*_25
REMARK    6  A    between atoms: C5*_25  and  O5*_26
REMARK    7  A    between atoms: C_28  and  C_29
REMARK                            x       y       z     vdW  Elec       q    Type
REMARK                         _______ _______ _______ _____ _____    ______ ____
ROOT
ATOM      1  O   UNL     1      -0.854   2.131  -0.448  0.00  0.00    -0.252 OA
ATOM      2  O   UNL     1       4.252   0.388  -0.272  0.00  0.00    -0.272 OA
ATOM      3  N   UNL     1      -0.288  -0.183  -0.330  0.00  0.00    -0.194 N 
ATOM      4  N   UNL     1       1.389   1.322  -0.369  0.00  0.00    -0.246 N 
ATOM      5  N   UNL     1       1.064  -2.210  -0.209  0.00  0.00    -0.360 NA
ATOM      6  N   UNL     1       3.397  -1.770  -0.187  0.00  0.00    -0.246 N 
ATOM      7  N   UNL     1       2.607  -3.976  -0.099  0.00  0.00    -0.321 N 
ATOM      8  C   UNL     1       0.917  -0.855  -0.276  0.00  0.00    +0.199 C 
ATOM      9  C   UNL     1      -0.038   1.224  -0.391  0.00  0.00    +0.315 C 
ATOM     10  C   UNL     1       1.903   0.052  -0.300  0.00  0.00    +0.222 C 
ATOM     11  C   UNL     1       3.301  -0.382  -0.254  0.00  0.00    +0.255 C 
ATOM     12  C   UNL     1       2.300  -2.642  -0.167  0.00  0.00    +0.239 C 
ATOM     13  H   UNL     1       4.297  -2.166  -0.152  0.00  0.00    +0.159 HD
ATOM     14  H   UNL     1       1.886  -4.646  -0.081  0.00  0.00    +0.146 HD
ATOM     15  H   UNL     1       3.548  -4.263  -0.068  0.00  0.00    +0.146 HD
ENDROOT
BRANCH   3  17
ATOM     16  O4* UNL     1      -2.486  -0.007  -1.106  0.00  0.00    -0.333 OA
ATOM     17  C1* UNL     1      -1.582  -0.805  -0.325  0.00  0.00    +0.231 C 
ATOM     18  C2* UNL     1      -2.178  -0.894   1.070  0.00  0.00    +0.187 C 
ATOM     19  C3* UNL     1      -3.662  -0.822   0.782  0.00  0.00    +0.171 C 
ATOM     20  C4* UNL     1      -3.716   0.172  -0.370  0.00  0.00    +0.175 C 
BRANCH  18  21
ATOM     21  O2* UNL     1      -1.818  -2.086   1.739  0.00  0.00    -0.378 OA
ATOM     22  H2* UNL     1      -0.862  -2.089   1.902  0.00  0.00    +0.211 HD
ENDBRANCH  18  21
BRANCH  19  23
ATOM     23  O3* UNL     1      -4.135  -2.080   0.300  0.00  0.00    -0.379 OA
ATOM     24  H3* UNL     1      -4.110  -2.731   1.018  0.00  0.00    +0.211 HD
ENDBRANCH  19  23
BRANCH  20  25
ATOM     25  C5* UNL     1      -3.787   1.622   0.090  0.00  0.00    +0.169 C 
BRANCH  25  26
ATOM     26  O5* UNL     1      -3.822   2.459  -1.054  0.00  0.00    -0.379 OA
ATOM     27  H5* UNL     1      -3.867   3.386  -0.774  0.00  0.00    +0.211 HD
ENDBRANCH  25  26
ENDBRANCH  20  25
ENDBRANCH   3  17
BRANCH   4  28
ATOM     28  C   UNL     1       2.142   2.549  -0.412  0.00  0.00    +0.122 C 
BRANCH  28  29
ATOM     29  C   UNL     1       2.681   2.838   0.949  0.00  0.00    -0.005 C 
ATOM     30  C   UNL     1       2.414   3.955   1.635  0.00  0.00    -0.003 C 
ENDBRANCH  28  29
ENDBRANCH   4  28
TORSDOF 7
