REMARK  Name = 135411006
REMARK  4 active torsions:
REMARK  status: ('A' for Active; 'I' for Inactive)
REMARK    1  A    between atoms: N_2  and  C1*_16
REMARK    2  A    between atoms: C3*_18  and  O3*_20
REMARK    3  A    between atoms: C4*_19  and  C5*_22
REMARK    4  A    between atoms: C5*_22  and  O5*_23
REMARK                            x       y       z     vdW  Elec       q    Type
REMARK                         _______ _______ _______ _____ _____    ______ ____
ROOT
ATOM      1  O   UNL     1       4.270  -1.850  -0.302  0.00  0.00    -0.274 OA
ATOM      2  N   UNL     1      -0.043  -0.381   0.083  0.00  0.00    -0.242 N 
ATOM      3  N   UNL     1       1.645   1.316   0.242  0.00  0.00    -0.362 NA
ATOM      4  N   UNL     1       3.848   0.417   0.026  0.00  0.00    -0.247 N 
ATOM      5  N   UNL     1       3.523   2.722   0.354  0.00  0.00    -0.321 N 
ATOM      6  C   UNL     1       1.262   0.026   0.083  0.00  0.00    +0.181 C 
ATOM      7  C   UNL     1      -0.092  -1.742  -0.100  0.00  0.00    +0.065 C 
ATOM      8  C   UNL     1       2.051  -1.089  -0.103  0.00  0.00    +0.167 C 
ATOM      9  C   UNL     1       1.201  -2.209  -0.220  0.00  0.00    +0.007 C 
ATOM     10  C   UNL     1       3.484  -0.924  -0.142  0.00  0.00    +0.241 C 
ATOM     11  C   UNL     1       2.947   1.487   0.210  0.00  0.00    +0.239 C 
ATOM     12  H   UNL     1       4.809   0.631   0.015  0.00  0.00    +0.158 HD
ATOM     13  H   UNL     1       2.958   3.517   0.486  0.00  0.00    +0.146 HD
ATOM     14  H   UNL     1       4.503   2.814   0.325  0.00  0.00    +0.146 HD
ENDROOT
BRANCH   2  16
ATOM     15  O4* UNL     1      -2.330  -0.175   0.922  0.00  0.00    -0.335 OA
ATOM     16  C1* UNL     1      -1.251   0.505   0.254  0.00  0.00    +0.200 C 
ATOM     17  C2* UNL     1      -1.815   1.010  -1.069  0.00  0.00    +0.083 C 
ATOM     18  C3* UNL     1      -3.259   1.280  -0.714  0.00  0.00    +0.144 C 
ATOM     19  C4* UNL     1      -3.576   0.177   0.288  0.00  0.00    +0.173 C 
BRANCH  18  20
ATOM     20  O3* UNL     1      -3.336   2.549  -0.069  0.00  0.00    -0.382 OA
ATOM     21  H3* UNL     1      -3.133   3.249  -0.709  0.00  0.00    +0.210 HD
ENDBRANCH  18  20
BRANCH  19  22
ATOM     22  C5* UNL     1      -4.138  -1.075  -0.373  0.00  0.00    +0.169 C 
BRANCH  22  23
ATOM     23  O5* UNL     1      -4.391  -2.043   0.630  0.00  0.00    -0.379 OA
ATOM     24  H5* UNL     1      -4.749  -2.846   0.221  0.00  0.00    +0.211 HD
ENDBRANCH  22  23
ENDBRANCH  19  22
ENDBRANCH   2  16
TORSDOF 4
