135464366
  -OEChem-03292013293D

 49 54  0     1  0  0  0  0  0999 V2000
   -2.2008   -0.5717    0.3430 O   0  0  0  0  0  0  0  0  0  0  0  0
   -3.9084    2.7123    0.1329 O   0  0  0  0  0  0  0  0  0  0  0  0
    1.1888    2.8352   -0.1067 O   0  0  0  0  0  0  0  0  0  0  0  0
    2.3231   -1.8537    0.1758 O   0  0  0  0  0  0  0  0  0  0  0  0
    2.8126    4.5310   -0.3098 O   0  0  0  0  0  0  0  0  0  0  0  0
   -6.5538   -1.5728   -2.2661 O   0  0  0  0  0  0  0  0  0  0  0  0
    7.8346   -0.7215   -0.1887 O   0  0  0  0  0  0  0  0  0  0  0  0
   -8.2803   -1.8816   -0.1099 O   0  0  0  0  0  0  0  0  0  0  0  0
    6.8057   -3.2716    0.0427 O   0  0  0  0  0  0  0  0  0  0  0  0
   -2.9619    1.7038   -0.2051 C   0  0  1  0  0  0  0  0  0  0  0  0
   -1.5706    2.2713    0.0630 C   0  0  0  0  0  0  0  0  0  0  0  0
   -3.1670    0.4456    0.6495 C   0  0  1  0  0  0  0  0  0  0  0  0
   -0.5280    1.1913    0.0920 C   0  0  0  0  0  0  0  0  0  0  0  0
   -0.9019   -0.1505    0.2380 C   0  0  0  0  0  0  0  0  0  0  0  0
    0.8398    1.5039    0.0055 C   0  0  0  0  0  0  0  0  0  0  0  0
    1.8097    0.4931    0.0323 C   0  0  0  0  0  0  0  0  0  0  0  0
    1.4153   -0.8314    0.1502 C   0  0  0  0  0  0  0  0  0  0  0  0
   -4.5352   -0.1767    0.4428 C   0  0  0  0  0  0  0  0  0  0  0  0
    0.0650   -1.1602    0.2514 C   0  0  0  0  0  0  0  0  0  0  0  0
    3.2319    0.8524   -0.0660 C   0  0  0  0  0  0  0  0  0  0  0  0
    4.1357   -0.1601   -0.0391 C   0  0  0  0  0  0  0  0  0  0  0  0
    3.6798   -1.5577    0.0839 C   0  0  0  0  0  0  0  0  0  0  0  0
    3.5287    2.2723   -0.1830 C   0  0  0  0  0  0  0  0  0  0  0  0
   -4.9266   -0.5939   -0.8293 C   0  0  0  0  0  0  0  0  0  0  0  0
   -5.4011   -0.3325    1.5251 C   0  0  0  0  0  0  0  0  0  0  0  0
    2.5339    3.1798   -0.1985 C   0  0  0  0  0  0  0  0  0  0  0  0
    5.5809    0.0740   -0.1294 C   0  0  0  0  0  0  0  0  0  0  0  0
    4.5541   -2.5731    0.1107 C   0  0  0  0  0  0  0  0  0  0  0  0
   -6.1841   -1.1671   -1.0192 C   0  0  0  0  0  0  0  0  0  0  0  0
   -6.6587   -0.9053    1.3351 C   0  0  0  0  0  0  0  0  0  0  0  0
    6.4748   -0.9273   -0.1043 C   0  0  0  0  0  0  0  0  0  0  0  0
   -7.0502   -1.3228    0.0631 C   0  0  0  0  0  0  0  0  0  0  0  0
    6.0144   -2.3348    0.0183 C   0  0  0  0  0  0  0  0  0  0  0  0
   -3.0573    1.4755   -1.2737 H   0  0  0  0  0  0  0  0  0  0  0  0
   -1.5566    2.8031    1.0234 H   0  0  0  0  0  0  0  0  0  0  0  0
   -1.3401    3.0137   -0.7112 H   0  0  0  0  0  0  0  0  0  0  0  0
   -3.0602    0.7036    1.7129 H   0  0  0  0  0  0  0  0  0  0  0  0
   -0.2352   -2.2009    0.3484 H   0  0  0  0  0  0  0  0  0  0  0  0
   -3.7313    3.4828   -0.4335 H   0  0  0  0  0  0  0  0  0  0  0  0
    4.5539    2.6127   -0.2588 H   0  0  0  0  0  0  0  0  0  0  0  0
   -4.2516   -0.4855   -1.6745 H   0  0  0  0  0  0  0  0  0  0  0  0
   -5.1108   -0.0125    2.5221 H   0  0  0  0  0  0  0  0  0  0  0  0
    5.9619    1.0846   -0.2202 H   0  0  0  0  0  0  0  0  0  0  0  0
    4.2240   -3.6026    0.2010 H   0  0  0  0  0  0  0  0  0  0  0  0
   -7.3235   -1.0208    2.1870 H   0  0  0  0  0  0  0  0  0  0  0  0
    3.7772    4.6426   -0.3659 H   0  0  0  0  0  0  0  0  0  0  0  0
   -5.8300   -1.3862   -2.8884 H   0  0  0  0  0  0  0  0  0  0  0  0
    8.2675   -1.5917   -0.1496 H   0  0  0  0  0  0  0  0  0  0  0  0
   -8.7393   -1.9084    0.7472 H   0  0  0  0  0  0  0  0  0  0  0  0
  1 12  1  0  0  0  0
  1 14  1  0  0  0  0
  2 10  1  0  0  0  0
  2 39  1  0  0  0  0
  3 15  1  0  0  0  0
  3 26  1  0  0  0  0
  4 17  1  0  0  0  0
  4 22  1  0  0  0  0
  5 26  1  0  0  0  0
  5 46  1  0  0  0  0
  6 29  1  0  0  0  0
  6 47  1  0  0  0  0
  7 31  1  0  0  0  0
  7 48  1  0  0  0  0
  8 32  1  0  0  0  0
  8 49  1  0  0  0  0
  9 33  2  0  0  0  0
 10 11  1  0  0  0  0
 10 12  1  0  0  0  0
 10 34  1  0  0  0  0
 11 13  1  0  0  0  0
 11 35  1  0  0  0  0
 11 36  1  0  0  0  0
 12 18  1  0  0  0  0
 12 37  1  0  0  0  0
 13 14  2  0  0  0  0
 13 15  1  0  0  0  0
 14 19  1  0  0  0  0
 15 16  2  0  0  0  0
 16 17  1  0  0  0  0
 16 20  1  0  0  0  0
 17 19  2  0  0  0  0
 18 24  2  0  0  0  0
 18 25  1  0  0  0  0
 19 38  1  0  0  0  0
 20 21  2  0  0  0  0
 20 23  1  0  0  0  0
 21 22  1  0  0  0  0
 21 27  1  0  0  0  0
 22 28  2  0  0  0  0
 23 26  2  0  0  0  0
 23 40  1  0  0  0  0
 24 29  1  0  0  0  0
 24 41  1  0  0  0  0
 25 30  2  0  0  0  0
 25 42  1  0  0  0  0
 27 31  2  0  0  0  0
 27 43  1  0  0  0  0
 28 33  1  0  0  0  0
 28 44  1  0  0  0  0
 29 32  2  0  0  0  0
 30 32  1  0  0  0  0
 30 45  1  0  0  0  0
 31 33  1  0  0  0  0
M  END
> <PUBCHEM_COMPOUND_CID>
135464366

> <PUBCHEM_CONFORMER_RMSD>
0.8

> <PUBCHEM_CONFORMER_DIVERSEORDER>
1
6
4
7
3
2
5

> <PUBCHEM_MMFF94_PARTIAL_CHARGES>
44
1 -0.36
10 0.28
11 0.14
12 0.42
13 -0.14
14 0.08
15 0.08
16 0.03
17 0.08
18 -0.14
19 -0.15
2 -0.68
20 -0.03
22 0.08
23 -0.15
24 -0.15
25 -0.15
26 0.15
27 -0.15
28 -0.14
29 0.08
3 -0.16
30 -0.15
31 0.09
32 0.08
33 0.54
38 0.15
39 0.4
4 -0.16
40 0.15
41 0.15
42 0.15
43 0.15
44 0.15
45 0.15
46 0.45
47 0.45
48 0.45
49 0.45
5 -0.53
6 -0.53
7 -0.53
8 -0.53
9 -0.57

> <PUBCHEM_EFFECTIVE_ROTOR_COUNT>
1.8

> <PUBCHEM_PHARMACOPHORE_FEATURES>
16
1 1 acceptor
1 2 acceptor
1 2 donor
1 3 acceptor
1 4 acceptor
1 5 donor
1 6 donor
1 7 donor
1 8 donor
1 9 acceptor
6 1 10 11 12 13 14 rings
6 13 14 15 16 17 19 rings
6 18 24 25 29 30 32 rings
6 21 22 27 28 31 33 rings
6 3 15 16 20 23 26 rings
6 4 16 17 20 21 22 rings

> <PUBCHEM_HEAVY_ATOM_COUNT>
33

> <PUBCHEM_ATOM_DEF_STEREO_COUNT>
2

> <PUBCHEM_ATOM_UDEF_STEREO_COUNT>
0

> <PUBCHEM_BOND_DEF_STEREO_COUNT>
0

> <PUBCHEM_BOND_UDEF_STEREO_COUNT>
0

> <PUBCHEM_ISOTOPIC_ATOM_COUNT>
0

> <PUBCHEM_COMPONENT_COUNT>
1

> <PUBCHEM_CACTVS_TAUTO_COUNT>
-1

> <PUBCHEM_CONFORMER_ID>
081305AE00000001

> <PUBCHEM_MMFF94_ENERGY>
106.5681

> <PUBCHEM_FEATURE_SELFOVERLAP>
81.347

> <PUBCHEM_SHAPE_FINGERPRINT>
10 15 12319736968868997367
10299344 5 18060139843008843419
10411042 1 18337673006414712000
12107183 9 18197791994578819065
12107698 1 18412546500643403257
12166972 35 18272933821394830512
12236239 1 18060144284479209657
12516196 113 18410577250112540802
12522641 24 17560795593793377992
12645989 146 18411704253489050598
12760667 363 18411139126218818579
13533116 47 18339361967179780305
13782708 43 17822290162892749418
13862211 1 18411420591983238674
14068700 675 18273216374397834784
14170010 4 18410292540883154952
14347332 77 18412266116836734389
14849402 71 18338526330201401800
15064981 113 14201935975101230915
15082195 135 17677907900960875300
15320294 125 17489302023629874815
15361156 5 18114476565202970565
15419008 47 17603299358674093653
15483637 11 17975418232471289274
15927050 60 17980485882448860156
16991971 28 18341343219109882118
18681886 176 18412820283592085082
20028762 73 18201718448705515638
20721686 56 18334861661797399633
20771845 140 16702310069962356679
21049683 271 18334022705210403220
21130935 74 18199467663258278242
21267235 1 18410860957686307178
21583282 1 17970640794476322988
21682296 61 18410580543651122723
22311459 1 18410013238891429274
22393880 68 17895463744617522661
23522609 53 18053698907861745329
23559900 14 18334295413282519841
23569914 152 17542187231535251623
24771293 8 18272085016173017328
24771750 20 18116728507204121580
249057 25 17988657310847948945
3004659 81 18114177553615612961
3178227 256 18337121115163912523
335352 9 18337114557471193430
3383291 50 18334574633623836570
350125 39 18410016528577798225
3504750 166 17988924427859407317
397830 11 11743835915603292581
4015057 19 18335987566479166697
4112364 45 14261053429575953986
439807 62 18408888434517069589
4461854 278 17988929985057628638
44880568 143 16877657981384625077
46194498 28 17530683242925960324
484989 97 18115316703465513331
50009960 94 17681258968238774730
5104073 3 18341612564460619816
57527295 17 17460028492090425712
5912855 24 17911233137624807423
6004065 56 18409166623802003898
6086070 43 17968923198247296245
6608658 132 14346064288412053191
9962374 69 18339072804222048818

> <PUBCHEM_SHAPE_MULTIPOLES>
626.3
20.51
3.57
0.94
12.97
2.81
0.16
-17.17
1.49
-4.46
0.33
2
-0.32
-0.89

> <PUBCHEM_SHAPE_SELFOVERLAP>
1431.238

> <PUBCHEM_SHAPE_VOLUME>
320.7

> <PUBCHEM_COORDINATE_TYPE>
2
5
10

$$$$
