REMARK  Name = 135440049
REMARK  8 active torsions:
REMARK  status: ('A' for Active; 'I' for Inactive)
REMARK    1  A    between atoms: N_3  and  C_13
REMARK    2  A    between atoms: C_5  and  O_23
REMARK    3  A    between atoms: C_6  and  O_29
REMARK    4  A    between atoms: C_7  and  O_33
REMARK    5  A    between atoms: C_8  and  O_25
REMARK    6  A    between atoms: C_19  and  O_27
REMARK    7  A    between atoms: O_29  and  C_31
REMARK    8  A    between atoms: O_33  and  C_35
REMARK                            x       y       z     vdW  Elec       q    Type
REMARK                         _______ _______ _______ _____ _____    ______ ____
ROOT
ATOM      1  O   UNL     1      -1.771  -2.628   0.737  0.00  0.00    -0.287 OA
ATOM      2  O   UNL     1      -2.969   2.437  -0.614  0.00  0.00    -0.286 OA
ATOM      3  C   UNL     1       3.251  -0.324   0.826  0.00  0.00    +0.168 C 
ATOM      4  C   UNL     1       2.688  -1.702   0.386  0.00  0.00    +0.224 C 
ATOM      5  C   UNL     1       2.494   0.833   0.118  0.00  0.00    +0.217 C 
ATOM      6  C   UNL     1       1.166  -1.845   0.652  0.00  0.00    +0.161 C 
ATOM      7  C   UNL     1       1.031   0.583   0.102  0.00  0.00    +0.020 C 
ATOM      8  C   UNL     1       0.417  -0.584   0.350  0.00  0.00    +0.079 C 
ATOM      9  C   UNL     1      -1.014  -0.441   0.229  0.00  0.00    +0.027 C 
ATOM     10  C   UNL     1       4.758  -0.224   0.555  0.00  0.00    +0.037 C 
ATOM     11  C   UNL     1      -0.067   1.490  -0.200  0.00  0.00    +0.085 C 
ATOM     12  C   UNL     1      -1.351   0.807  -0.105  0.00  0.00    +0.055 C 
ATOM     13  C   UNL     1      -2.047  -1.476   0.426  0.00  0.00    +0.192 C 
ATOM     14  C   UNL     1      -2.719   1.280  -0.309  0.00  0.00    +0.200 C 
ATOM     15  C   UNL     1      -3.458  -1.054   0.231  0.00  0.00    +0.045 C 
ATOM     16  C   UNL     1      -3.780   0.265  -0.121  0.00  0.00    +0.076 C 
ATOM     17  C   UNL     1      -5.118   0.635  -0.300  0.00  0.00    +0.137 C 
ATOM     18  C   UNL     1      -4.479  -1.996   0.402  0.00  0.00    +0.003 C 
ATOM     19  C   UNL     1      -6.130  -0.309  -0.127  0.00  0.00    +0.037 C 
ATOM     20  C   UNL     1      -5.812  -1.621   0.223  0.00  0.00    +0.003 C 
ENDROOT
BRANCH  11  21
ATOM     21  N   UNL     1       0.080   2.750  -0.528  0.00  0.00    -0.130 NA
ATOM     22  N   UNL     1       0.209   3.853  -0.815  0.00  0.00    +0.004 NA
ENDBRANCH  11  21
BRANCH   3  23
ATOM     23  O   UNL     1       3.068  -0.219   2.244  0.00  0.00    -0.379 OA
ATOM     24  H   UNL     1       2.123  -0.278   2.454  0.00  0.00    +0.211 HD
ENDBRANCH   3  23
BRANCH   6  25
ATOM     25  O   UNL     1       0.947  -2.171   2.023  0.00  0.00    -0.380 OA
ATOM     26  H   UNL     1       1.424  -2.987   2.241  0.00  0.00    +0.211 HD
ENDBRANCH   6  25
BRANCH  17  27
ATOM     27  O   UNL     1      -5.494   1.900  -0.642  0.00  0.00    -0.505 OA
ATOM     28  H   UNL     1      -4.844   2.564  -0.767  0.00  0.00    +0.292 HD
ENDBRANCH  17  27
BRANCH   4  29
ATOM     29  O   UNL     1       2.937  -1.891  -1.007  0.00  0.00    -0.447 OA
BRANCH  29  31
ATOM     30  O   UNL     1       3.123  -4.170  -0.678  0.00  0.00    -0.250 OA
ATOM     31  C   UNL     1       3.137  -3.182  -1.400  0.00  0.00    +0.318 C 
ATOM     32  C   UNL     1       3.385  -3.226  -2.878  0.00  0.00    +0.121 C 
ENDBRANCH  29  31
ENDBRANCH   4  29
BRANCH   5  33
ATOM     33  O   UNL     1       2.795   2.075   0.748  0.00  0.00    -0.445 OA
BRANCH  33  35
ATOM     34  O   UNL     1       3.684   2.880  -1.227  0.00  0.00    -0.250 OA
ATOM     35  C   UNL     1       3.392   3.013  -0.046  0.00  0.00    +0.318 C 
ATOM     36  C   UNL     1       3.647   4.260   0.746  0.00  0.00    +0.121 C 
ENDBRANCH  33  35
ENDBRANCH   5  33
TORSDOF 8
