REMARK  Name = 135411862
REMARK  5 active torsions:
REMARK  status: ('A' for Active; 'I' for Inactive)
REMARK    1  A    between atoms: N_2  and  C_10
REMARK    2  A    between atoms: N_3  and  N_16
REMARK    3  A    between atoms: N_16  and  C_17
REMARK    4  A    between atoms: C_17  and  C_18
REMARK    5  A    between atoms: C_23  and  O_24
REMARK                            x       y       z     vdW  Elec       q    Type
REMARK                         _______ _______ _______ _____ _____    ______ ____
ROOT
ATOM      1  O   UNL     1       0.425   1.665   0.000  0.00  0.00    -0.251 OA
ATOM      2  N   UNL     1       1.785  -0.255   0.000  0.00  0.00    -0.266 N 
ATOM      3  N   UNL     1      -0.519  -0.441   0.000  0.00  0.00    -0.216 N 
ATOM      4  C   UNL     1       0.560   0.443   0.000  0.00  0.00    +0.319 C 
ATOM      5  H   UNL     1       1.716  -1.237   0.000  0.00  0.00    +0.156 HD
ATOM      6  H   UNL     1      -0.368  -1.414   0.001  0.00  0.00    +0.172 HD
ENDROOT
BRANCH   2  10
ATOM      7  S   UNL     1       5.850  -2.353   0.000  0.00  0.00    +0.117 S 
ATOM      8  N   UNL     1       4.252  -1.902   0.000  0.00  0.00    -0.189 NA
ATOM      9  N   UNL     1       6.593  -0.868   0.000  0.00  0.00    -0.190 NA
ATOM     10  C   UNL     1       3.079   0.260   0.000  0.00  0.00    +0.072 C 
ATOM     11  C   UNL     1       4.233  -0.559   0.000  0.00  0.00    +0.122 A 
ATOM     12  C   UNL     1       5.613   0.050   0.000  0.00  0.00    +0.110 A 
ATOM     13  C   UNL     1       3.310   1.646   0.000  0.00  0.00    +0.016 C 
ATOM     14  C   UNL     1       5.785   1.456   0.000  0.00  0.00    +0.021 C 
ATOM     15  C   UNL     1       4.604   2.218   0.000  0.00  0.00    +0.003 C 
ENDBRANCH   2  10
BRANCH   3  16
ATOM     16  N   UNL     1      -1.776   0.058   0.000  0.00  0.00    -0.125 NA
BRANCH  16  17
ATOM     17  C   UNL     1      -2.700  -0.848   0.000  0.00  0.00    +0.138 C 
BRANCH  17  18
ATOM     18  C   UNL     1      -4.132  -0.501   0.001  0.00  0.00    -0.003 C 
ATOM     19  C   UNL     1      -5.093  -1.512   0.001  0.00  0.00    +0.000 C 
ATOM     20  C   UNL     1      -4.526   0.837   0.000  0.00  0.00    +0.000 C 
ATOM     21  C   UNL     1      -6.449  -1.185   0.000  0.00  0.00    +0.036 C 
ATOM     22  C   UNL     1      -5.882   1.164   0.000  0.00  0.00    +0.036 C 
ATOM     23  C   UNL     1      -6.843   0.153   0.000  0.00  0.00    +0.134 C 
BRANCH  23  24
ATOM     24  O   UNL     1      -8.167   0.473  -0.001  0.00  0.00    -0.506 OA
ATOM     25  H   UNL     1      -8.813  -0.206  -0.001  0.00  0.00    +0.292 HD
ENDBRANCH  23  24
ENDBRANCH  17  18
ENDBRANCH  16  17
ENDBRANCH   3  16
TORSDOF 5
