REMARK  Name = 135400921
REMARK  3 active torsions:
REMARK  status: ('A' for Active; 'I' for Inactive)
REMARK    1  A    between atoms: N_2  and  C_14
REMARK    2  A    between atoms: C_13  and  O_19
REMARK    3  A    between atoms: C_15  and  O_21
REMARK                            x       y       z     vdW  Elec       q    Type
REMARK                         _______ _______ _______ _____ _____    ______ ____
ROOT
ATOM      1  O   UNL     1      -4.516   1.203  -0.760  0.00  0.00    -0.268 OA
ATOM      2  N   UNL     1      -0.207   0.321   0.292  0.00  0.00    -0.247 N 
ATOM      3  N   UNL     1      -1.621   1.837  -0.550  0.00  0.00    -0.241 NA
ATOM      4  N   UNL     1      -1.741  -1.490   0.783  0.00  0.00    -0.232 NA
ATOM      5  N   UNL     1      -3.984  -0.871   0.171  0.00  0.00    -0.279 N 
ATOM      6  C   UNL     1      -1.444  -0.251   0.327  0.00  0.00    +0.154 C 
ATOM      7  C   UNL     1      -0.365   1.577  -0.243  0.00  0.00    +0.223 C 
ATOM      8  C   UNL     1      -2.288   0.702  -0.196  0.00  0.00    +0.162 C 
ATOM      9  C   UNL     1      -3.696   0.415  -0.305  0.00  0.00    +0.267 C 
ATOM     10  C   UNL     1      -3.014  -1.742   0.681  0.00  0.00    +0.220 C 
ATOM     11  H   UNL     1      -4.919  -1.178   0.146  0.00  0.00    +0.152 HD
ENDROOT
BRANCH   2  14
ATOM     12  O   UNL     1       1.940   0.738   1.330  0.00  0.00    -0.336 OA
ATOM     13  C   UNL     1       1.951  -0.997  -0.323  0.00  0.00    +0.158 C 
ATOM     14  C   UNL     1       1.098  -0.292   0.751  0.00  0.00    +0.222 C 
ATOM     15  C   UNL     1       2.971   0.075  -0.682  0.00  0.00    +0.166 C 
ATOM     16  C   UNL     1       3.213   0.746   0.661  0.00  0.00    +0.146 C 
ATOM     17  C   UNL     1       1.220  -1.565  -1.533  0.00  0.00    +0.036 C 
ATOM     18  C   UNL     1       3.721   2.173   0.545  0.00  0.00    +0.035 C 
BRANCH  13  19
ATOM     19  O   UNL     1       2.610  -2.114   0.294  0.00  0.00    -0.380 OA
ATOM     20  H   UNL     1       3.096  -1.810   1.077  0.00  0.00    +0.211 HD
ENDBRANCH  13  19
BRANCH  15  21
ATOM     21  O   UNL     1       4.151  -0.464  -1.242  0.00  0.00    -0.380 OA
ATOM     22  H   UNL     1       3.944  -0.879  -2.094  0.00  0.00    +0.211 HD
ENDBRANCH  15  21
ENDBRANCH   2  14
TORSDOF 3
