135433604
  -OEChem-03292013293D

 31 33  0     1  0  0  0  0  0999 V2000
   -5.1012   -1.3038    0.4102 O   0  0  0  0  0  0  0  0  0  0  0  0
    4.4804   -0.1141    0.2524 O   0  0  0  0  0  0  0  0  0  0  0  0
    0.2332    1.4076    0.0058 N   0  0  0  0  0  0  0  0  0  0  0  0
    2.3805    1.9868    0.2430 N   0  0  0  0  0  0  0  0  0  0  0  0
    0.4396   -0.9972   -0.1769 N   0  0  0  0  0  0  0  0  0  0  0  0
    2.7410   -1.6468   -0.0287 N   0  0  0  0  0  0  0  0  0  0  0  0
    1.0512   -3.2616   -0.3118 N   0  0  0  0  0  0  0  0  0  0  0  0
   -1.2656    1.5626   -0.1126 C   0  0  2  0  0  0  0  0  0  0  0  0
   -2.0454    0.7931    0.9711 C   0  0  0  0  0  0  0  0  0  0  0  0
   -3.3357    0.3020    0.2942 C   0  0  1  0  0  0  0  0  0  0  0  0
   -1.8495    1.0157   -1.3820 C   0  0  0  0  0  0  0  0  0  0  0  0
   -2.9728    0.3270   -1.1582 C   0  0  0  0  0  0  0  0  0  0  0  0
   -3.7514   -1.0793    0.7792 C   0  0  0  0  0  0  0  0  0  0  0  0
    0.9474    0.2464   -0.0284 C   0  0  0  0  0  0  0  0  0  0  0  0
    1.1394    2.4267    0.1707 C   0  0  0  0  0  0  0  0  0  0  0  0
    2.2571    0.6345    0.1191 C   0  0  0  0  0  0  0  0  0  0  0  0
    3.2887   -0.3656    0.1265 C   0  0  0  0  0  0  0  0  0  0  0  0
    1.3630   -1.9339   -0.1738 C   0  0  0  0  0  0  0  0  0  0  0  0
   -1.4582    2.6405   -0.0484 H   0  0  0  0  0  0  0  0  0  0  0  0
   -2.2762    1.4479    1.8199 H   0  0  0  0  0  0  0  0  0  0  0  0
   -1.4715   -0.0457    1.3820 H   0  0  0  0  0  0  0  0  0  0  0  0
   -4.1493    1.0202    0.4585 H   0  0  0  0  0  0  0  0  0  0  0  0
   -1.4315    1.1896   -2.3635 H   0  0  0  0  0  0  0  0  0  0  0  0
   -3.5736   -0.1168   -1.9395 H   0  0  0  0  0  0  0  0  0  0  0  0
   -3.6932   -1.1362    1.8714 H   0  0  0  0  0  0  0  0  0  0  0  0
   -3.1277   -1.8728    0.3530 H   0  0  0  0  0  0  0  0  0  0  0  0
    0.8368    3.4632    0.2309 H   0  0  0  0  0  0  0  0  0  0  0  0
   -5.3450   -2.1862    0.7380 H   0  0  0  0  0  0  0  0  0  0  0  0
    3.3859   -2.4318   -0.0374 H   0  0  0  0  0  0  0  0  0  0  0  0
    0.0901   -3.5663   -0.4214 H   0  0  0  0  0  0  0  0  0  0  0  0
    1.7700   -3.9770   -0.3082 H   0  0  0  0  0  0  0  0  0  0  0  0
  1 13  1  0  0  0  0
  1 28  1  0  0  0  0
  2 17  2  0  0  0  0
  3  8  1  0  0  0  0
  3 14  1  0  0  0  0
  3 15  1  0  0  0  0
  4 15  2  0  0  0  0
  4 16  1  0  0  0  0
  5 14  1  0  0  0  0
  5 18  2  0  0  0  0
  6 17  1  0  0  0  0
  6 18  1  0  0  0  0
  6 29  1  0  0  0  0
  7 18  1  0  0  0  0
  7 30  1  0  0  0  0
  7 31  1  0  0  0  0
  8  9  1  0  0  0  0
  8 11  1  0  0  0  0
  8 19  1  0  0  0  0
  9 10  1  0  0  0  0
  9 20  1  0  0  0  0
  9 21  1  0  0  0  0
 10 12  1  0  0  0  0
 10 13  1  0  0  0  0
 10 22  1  0  0  0  0
 11 12  2  0  0  0  0
 11 23  1  0  0  0  0
 12 24  1  0  0  0  0
 13 25  1  0  0  0  0
 13 26  1  0  0  0  0
 14 16  2  0  0  0  0
 15 27  1  0  0  0  0
 16 17  1  0  0  0  0
M  END
> <PUBCHEM_COMPOUND_CID>
135433604

> <PUBCHEM_CONFORMER_RMSD>
0.6

> <PUBCHEM_CONFORMER_DIVERSEORDER>
1
2
8
9
3
5
6
7
4
10

> <PUBCHEM_MMFF94_PARTIAL_CHARGES>
24
1 -0.68
10 0.14
11 -0.29
12 -0.29
13 0.28
14 -0.03
15 0.04
16 0.14
17 0.72
18 0.56
2 -0.57
23 0.15
24 0.15
27 0.15
28 0.4
29 0.37
3 0.05
30 0.4
31 0.4
4 -0.57
5 -0.58
6 -0.49
7 -0.85
8 0.39

> <PUBCHEM_EFFECTIVE_ROTOR_COUNT>
2.6

> <PUBCHEM_PHARMACOPHORE_FEATURES>
9
1 1 acceptor
1 1 donor
1 2 acceptor
1 6 donor
1 7 donor
3 3 4 15 cation
5 3 4 14 15 16 rings
5 8 9 10 11 12 rings
6 5 6 14 16 17 18 rings

> <PUBCHEM_HEAVY_ATOM_COUNT>
18

> <PUBCHEM_ATOM_DEF_STEREO_COUNT>
2

> <PUBCHEM_ATOM_UDEF_STEREO_COUNT>
0

> <PUBCHEM_BOND_DEF_STEREO_COUNT>
0

> <PUBCHEM_BOND_UDEF_STEREO_COUNT>
0

> <PUBCHEM_ISOTOPIC_ATOM_COUNT>
0

> <PUBCHEM_COMPONENT_COUNT>
1

> <PUBCHEM_CACTVS_TAUTO_COUNT>
-1

> <PUBCHEM_CONFORMER_ID>
08128D8400000001

> <PUBCHEM_MMFF94_ENERGY>
36.2972

> <PUBCHEM_FEATURE_SELFOVERLAP>
45.85

> <PUBCHEM_SHAPE_FINGERPRINT>
10967382 1 18411698811648863606
11806522 49 18409732858772039792
12032990 46 18339364067813926724
12553582 1 17475799745066617783
13140716 1 18196929087839526210
13583140 156 16880717952051507048
14178342 30 18268989778570064848
14251705 54 18338519629661652999
14252887 29 17775291534400579124
15375462 189 17917989499259336545
15635459 17 18334579031843894155
16945 1 18340480080579706780
19107657 46 18410012109129933327
200 152 18201708557985974749
20028762 73 18058728146956083599
20201158 50 18335137549169084497
20261772 1 18272086131989002542
20645477 70 18335413612951180343
22112679 90 16844997022546293109
221490 88 18409169874670123534
22445834 79 18201721721781233385
2334 1 18123463053866141868
23402539 116 16515680022604027661
23557571 272 17458621207965616477
23559900 14 17974559209500328922
2748010 2 18265897041576899300
2871803 45 18187359943975483843
3286 77 18408887373259662577
33824 294 18337954605428691627
474229 33 18410008836887125698
5104073 3 18269267972449977688
77492 1 17489583476430368197
81228 2 16901294976909472240
8809292 202 18186806910785070715
9709674 26 18265891350745057069

> <PUBCHEM_SHAPE_MULTIPOLES>
333.79
7.18
2.57
0.91
3.44
1.03
-0.16
2.33
1.06
-1.19
-0.07
0.74
-0.13
0.64

> <PUBCHEM_SHAPE_SELFOVERLAP>
727.954

> <PUBCHEM_SHAPE_VOLUME>
182

> <PUBCHEM_COORDINATE_TYPE>
2
5
10

$$$$
