REMARK  Name = 135435111
REMARK  5 active torsions:
REMARK  status: ('A' for Active; 'I' for Inactive)
REMARK    1  A    between atoms: N_3  and  C1*_18
REMARK    2  A    between atoms: C2*_19  and  O2*_22
REMARK    3  A    between atoms: C3*_20  and  O3*_24
REMARK    4  A    between atoms: C4*_21  and  C5*_26
REMARK    5  A    between atoms: C5*_26  and  O5*_27
REMARK                            x       y       z     vdW  Elec       q    Type
REMARK                         _______ _______ _______ _____ _____    ______ ____
ROOT
ATOM      1  O   UNL     1      -1.065   2.304   0.101  0.00  0.00    -0.252 OA
ATOM      2  O   UNL     1       4.271   1.509   0.301  0.00  0.00    -0.272 OA
ATOM      3  N   UNL     1      -0.073   0.153  -0.188  0.00  0.00    -0.194 N 
ATOM      4  N   UNL     1       1.287   1.912   0.182  0.00  0.00    -0.249 N 
ATOM      5  N   UNL     1       1.637  -1.579  -0.363  0.00  0.00    -0.360 NA
ATOM      6  N   UNL     1       3.840  -0.740  -0.091  0.00  0.00    -0.246 N 
ATOM      7  N   UNL     1       3.483  -3.023  -0.484  0.00  0.00    -0.321 N 
ATOM      8  C   UNL     1       1.236  -0.287  -0.178  0.00  0.00    +0.199 C 
ATOM      9  C   UNL     1      -0.093   1.566   0.041  0.00  0.00    +0.315 C 
ATOM     10  C   UNL     1       2.032   0.768   0.042  0.00  0.00    +0.221 C 
ATOM     11  C   UNL     1       3.485   0.593   0.103  0.00  0.00    +0.255 C 
ATOM     12  C   UNL     1       1.794   3.238   0.429  0.00  0.00    +0.117 C 
ATOM     13  C   UNL     1       2.930  -1.780  -0.317  0.00  0.00    +0.239 C 
ATOM     14  H   UNL     1       4.798  -0.966  -0.069  0.00  0.00    +0.159 HD
ATOM     15  H   UNL     1       2.903  -3.802  -0.647  0.00  0.00    +0.146 HD
ATOM     16  H   UNL     1       4.460  -3.137  -0.443  0.00  0.00    +0.146 HD
ENDROOT
BRANCH   3  18
ATOM     17  O4* UNL     1      -2.236   0.084  -1.069  0.00  0.00    -0.333 OA
ATOM     18  C1* UNL     1      -1.223  -0.679  -0.394  0.00  0.00    +0.231 C 
ATOM     19  C2* UNL     1      -1.838  -1.154   0.911  0.00  0.00    +0.187 C 
ATOM     20  C3* UNL     1      -3.299  -1.294   0.539  0.00  0.00    +0.171 C 
ATOM     21  C4* UNL     1      -3.502  -0.114  -0.402  0.00  0.00    +0.175 C 
BRANCH  19  22
ATOM     22  O2* UNL     1      -1.281  -2.371   1.364  0.00  0.00    -0.378 OA
ATOM     23  H2* UNL     1      -0.348  -2.235   1.590  0.00  0.00    +0.211 HD
ENDBRANCH  19  22
BRANCH  20  24
ATOM     24  O3* UNL     1      -3.506  -2.492  -0.208  0.00  0.00    -0.379 OA
ATOM     25  H3* UNL     1      -3.382  -3.260   0.371  0.00  0.00    +0.211 HD
ENDBRANCH  20  24
BRANCH  21  26
ATOM     26  C5* UNL     1      -3.863   1.177   0.321  0.00  0.00    +0.169 C 
BRANCH  26  27
ATOM     27  O5* UNL     1      -4.018   2.207  -0.639  0.00  0.00    -0.379 OA
ATOM     28  H5* UNL     1      -4.249   3.036  -0.191  0.00  0.00    +0.211 HD
ENDBRANCH  26  27
ENDBRANCH  21  26
ENDBRANCH   3  18
TORSDOF 5
