REMARK  Name = 135465372
REMARK  5 active torsions:
REMARK  status: ('A' for Active; 'I' for Inactive)
REMARK    1  A    between atoms: N_2  and  C_15
REMARK    2  A    between atoms: C_15  and  O_16
REMARK    3  A    between atoms: O_16  and  C_17
REMARK    4  A    between atoms: C_17  and  C_18
REMARK    5  A    between atoms: C_18  and  N_19
REMARK                            x       y       z     vdW  Elec       q    Type
REMARK                         _______ _______ _______ _____ _____    ______ ____
ROOT
ATOM      1  O   UNL     1      -4.033   0.712   0.840  0.00  0.00    -0.268 OA
ATOM      2  N   UNL     1       0.256   1.081  -0.530  0.00  0.00    -0.235 N 
ATOM      3  N   UNL     1      -1.548   2.198   0.178  0.00  0.00    -0.240 NA
ATOM      4  N   UNL     1      -0.582  -1.189  -0.489  0.00  0.00    -0.357 NA
ATOM      5  N   UNL     1      -2.859  -1.220   0.255  0.00  0.00    -0.243 N 
ATOM      6  N   UNL     1      -1.753  -3.218  -0.315  0.00  0.00    -0.321 N 
ATOM      7  C   UNL     1      -0.710   0.144  -0.309  0.00  0.00    +0.211 C 
ATOM      8  C   UNL     1      -1.801   0.859   0.122  0.00  0.00    +0.176 C 
ATOM      9  C   UNL     1      -0.296   2.301  -0.223  0.00  0.00    +0.224 C 
ATOM     10  C   UNL     1      -3.013   0.160   0.448  0.00  0.00    +0.273 C 
ATOM     11  C   UNL     1      -1.679  -1.855  -0.198  0.00  0.00    +0.239 C 
ATOM     12  H   UNL     1      -3.635  -1.793   0.451  0.00  0.00    +0.159 HD
ATOM     13  H   UNL     1      -0.970  -3.729  -0.624  0.00  0.00    +0.146 HD
ATOM     14  H   UNL     1      -2.589  -3.687  -0.089  0.00  0.00    +0.146 HD
ENDROOT
BRANCH   2  15
ATOM     15  C   UNL     1       1.603   0.853  -0.996  0.00  0.00    +0.244 C 
BRANCH  15  16
ATOM     16  O   UNL     1       2.369   0.323   0.082  0.00  0.00    -0.337 OA
BRANCH  16  17
ATOM     17  C   UNL     1       3.717   0.084  -0.301  0.00  0.00    +0.120 C 
BRANCH  17  18
ATOM     18  C   UNL     1       4.471  -0.479   0.893  0.00  0.00    -0.053 C 
BRANCH  18  19
ATOM     19  N   UNL     1       5.856  -0.756   0.542  0.00  0.00    +0.382 N 
ATOM     20  H   UNL     1       6.344  -1.132   1.355  0.00  0.00    -0.089 HD
ATOM     21  H   UNL     1       6.310   0.107   0.242  0.00  0.00    -0.089 HD
ATOM     22  H   UNL     1       5.885  -1.437  -0.217  0.00  0.00    -0.089 HD
ENDBRANCH  18  19
ENDBRANCH  17  18
ENDBRANCH  16  17
ENDBRANCH  15  16
ENDBRANCH   2  15
TORSDOF 5
