135433664
  -OEChem-03292013293D

 32 34  0     1  0  0  0  0  0999 V2000
   -0.8617   -1.4921    1.5198 F   0  0  0  0  0  0  0  0  0  0  0  0
   -2.0536   -2.4273   -0.0451 F   0  0  0  0  0  0  0  0  0  0  0  0
   -2.0744    0.5016   -1.0891 O   0  0  0  0  0  0  0  0  0  0  0  0
   -3.8848   -1.2658    1.4610 O   0  0  0  0  0  0  0  0  0  0  0  0
   -4.4809    1.9062   -1.5672 O   0  0  0  0  0  0  0  0  0  0  0  0
    4.3116    1.8965    0.8494 O   0  0  0  0  0  0  0  0  0  0  0  0
    0.1664    0.4045   -0.1535 N   0  0  0  0  0  0  0  0  0  0  0  0
    1.3507    2.0924    0.7124 N   0  0  0  0  0  0  0  0  0  0  0  0
    1.9430   -1.1369   -0.7255 N   0  0  0  0  0  0  0  0  0  0  0  0
    4.0709   -0.2072   -0.1356 N   0  0  0  0  0  0  0  0  0  0  0  0
    3.9223   -2.3382   -1.1254 N   0  0  0  0  0  0  0  0  0  0  0  0
   -1.0372   -0.3862   -0.6083 C   0  0  1  0  0  0  0  0  0  0  0  0
   -2.8858   -0.4386    0.9018 C   0  0  1  0  0  0  0  0  0  0  0  0
   -1.6779   -1.2364    0.4821 C   0  0  0  0  0  0  0  0  0  0  0  0
   -3.3054    0.1696   -0.4229 C   0  0  1  0  0  0  0  0  0  0  0  0
   -4.1564    1.4177   -0.2757 C   0  0  0  0  0  0  0  0  0  0  0  0
    1.4753    0.0285   -0.2261 C   0  0  0  0  0  0  0  0  0  0  0  0
    0.1427    1.6531    0.4183 C   0  0  0  0  0  0  0  0  0  0  0  0
    2.1742    1.0822    0.3114 C   0  0  0  0  0  0  0  0  0  0  0  0
    3.6071    1.0081    0.3872 C   0  0  0  0  0  0  0  0  0  0  0  0
    3.2538   -1.2319   -0.6689 C   0  0  0  0  0  0  0  0  0  0  0  0
   -0.6944   -0.9900   -1.4555 H   0  0  0  0  0  0  0  0  0  0  0  0
   -2.5970    0.3238    1.6344 H   0  0  0  0  0  0  0  0  0  0  0  0
   -3.8330   -0.5595   -1.0517 H   0  0  0  0  0  0  0  0  0  0  0  0
   -3.6072    2.2064    0.2489 H   0  0  0  0  0  0  0  0  0  0  0  0
   -5.0848    1.2032    0.2619 H   0  0  0  0  0  0  0  0  0  0  0  0
   -0.7781    2.1907    0.5987 H   0  0  0  0  0  0  0  0  0  0  0  0
   -4.6595   -0.7080    1.6445 H   0  0  0  0  0  0  0  0  0  0  0  0
   -5.0231    2.7039   -1.4437 H   0  0  0  0  0  0  0  0  0  0  0  0
    5.0747   -0.3641   -0.1307 H   0  0  0  0  0  0  0  0  0  0  0  0
    3.4231   -3.1254   -1.5250 H   0  0  0  0  0  0  0  0  0  0  0  0
    4.9332   -2.4025   -1.0774 H   0  0  0  0  0  0  0  0  0  0  0  0
  1 14  1  0  0  0  0
  2 14  1  0  0  0  0
  3 12  1  0  0  0  0
  3 15  1  0  0  0  0
  4 13  1  0  0  0  0
  4 28  1  0  0  0  0
  5 16  1  0  0  0  0
  5 29  1  0  0  0  0
  6 20  2  0  0  0  0
  7 12  1  0  0  0  0
  7 17  1  0  0  0  0
  7 18  1  0  0  0  0
  8 18  2  0  0  0  0
  8 19  1  0  0  0  0
  9 17  1  0  0  0  0
  9 21  2  0  0  0  0
 10 20  1  0  0  0  0
 10 21  1  0  0  0  0
 10 30  1  0  0  0  0
 11 21  1  0  0  0  0
 11 31  1  0  0  0  0
 11 32  1  0  0  0  0
 12 14  1  0  0  0  0
 12 22  1  0  0  0  0
 13 14  1  0  0  0  0
 13 15  1  0  0  0  0
 13 23  1  0  0  0  0
 15 16  1  0  0  0  0
 15 24  1  0  0  0  0
 16 25  1  0  0  0  0
 16 26  1  0  0  0  0
 17 19  2  0  0  0  0
 18 27  1  0  0  0  0
 19 20  1  0  0  0  0
M  END
> <PUBCHEM_COMPOUND_CID>
135433664

> <PUBCHEM_CONFORMER_RMSD>
0.6

> <PUBCHEM_CONFORMER_DIVERSEORDER>
1
13
10
5
15
12
8
2
4
17
3
6
11
16
14
9
7

> <PUBCHEM_MMFF94_PARTIAL_CHARGES>
27
1 -0.34
10 -0.49
11 -0.85
12 0.54
13 0.28
14 0.68
15 0.28
16 0.28
17 -0.03
18 0.04
19 0.14
2 -0.34
20 0.72
21 0.56
27 0.15
28 0.4
29 0.4
3 -0.56
30 0.37
31 0.4
32 0.4
4 -0.68
5 -0.68
6 -0.57
7 0.05
8 -0.57
9 -0.58

> <PUBCHEM_EFFECTIVE_ROTOR_COUNT>
3

> <PUBCHEM_PHARMACOPHORE_FEATURES>
12
1 10 donor
1 11 donor
1 3 acceptor
1 4 acceptor
1 4 donor
1 5 acceptor
1 5 donor
1 6 acceptor
3 7 8 18 cation
5 3 12 13 14 15 rings
5 7 8 17 18 19 rings
6 9 10 17 19 20 21 rings

> <PUBCHEM_HEAVY_ATOM_COUNT>
21

> <PUBCHEM_ATOM_DEF_STEREO_COUNT>
3

> <PUBCHEM_ATOM_UDEF_STEREO_COUNT>
0

> <PUBCHEM_BOND_DEF_STEREO_COUNT>
0

> <PUBCHEM_BOND_UDEF_STEREO_COUNT>
0

> <PUBCHEM_ISOTOPIC_ATOM_COUNT>
0

> <PUBCHEM_COMPONENT_COUNT>
1

> <PUBCHEM_CACTVS_TAUTO_COUNT>
-1

> <PUBCHEM_CONFORMER_ID>
08128DC000000001

> <PUBCHEM_MMFF94_ENERGY>
46.347

> <PUBCHEM_FEATURE_SELFOVERLAP>
61.079

> <PUBCHEM_SHAPE_FINGERPRINT>
10608611 8 18338231673516002125
10922523 26 18335424598923694029
1100329 8 16752124212857251657
11471102 20 18273491265284482892
116883 192 18270683039699500764
11796584 16 17822292319647204066
12236239 1 16487256573094166461
12403259 415 18261392192504689493
12500047 106 18410005576305146135
12507560 40 18411142454459633685
12553582 1 18058183730308361454
13134695 92 17847056666709178072
13296908 3 18410016545857530330
13464514 151 17977383837787187821
13544592 145 18335703776177297654
13583140 156 17702375337497600453
13675066 3 18335144210542060833
14115302 16 18187941533886406246
14251757 17 18409730621247163577
14866123 147 17406002751499006858
15219456 202 18411138060523473564
15375358 24 18412257354934294648
16945 1 18272092742006766680
17349148 13 15554446305736837485
18186145 218 18188208706389925293
19049666 15 18408605837968390843
19422 9 14562529600125705483
19784866 170 18341612685336842856
200 152 17274816922427817989
20279233 1 18411417340840454828
20645477 56 18336264630392659881
20645477 70 18131066000631178926
21065201 7 17894633642865090347
21069387 34 17418093191747911647
21521239 73 18128515134340346263
23175994 123 18270130010624219517
23526113 38 18341600499971227233
23557571 272 18040722501810788436
23559900 14 18409450250683624846
296302 2 18272368715357088040
34934 24 18343292687295068268
495365 180 18059558183918781336
5104073 3 18411139129891261835
5161694 15 18409448051053766509
633830 44 18337379436467568725
69090 78 18342174514150825487
77492 1 16487258776507373758
9709674 26 18411980290588264854

> <PUBCHEM_SHAPE_MULTIPOLES>
369.24
8.6
2.27
1.15
0.04
0.23
0.04
-1.11
-0.95
-0.62
0.03
0.78
0.11
2.24

> <PUBCHEM_SHAPE_SELFOVERLAP>
809.142

> <PUBCHEM_SHAPE_VOLUME>
200.9

> <PUBCHEM_COORDINATE_TYPE>
2
5
10

$$$$
