REMARK  Name = 135442584
REMARK  3 active torsions:
REMARK  status: ('A' for Active; 'I' for Inactive)
REMARK    1  A    between atoms: N_2  and  C_14
REMARK    2  A    between atoms: C_16  and  C_17
REMARK    3  A    between atoms: C_17  and  O_18
REMARK                            x       y       z     vdW  Elec       q    Type
REMARK                         _______ _______ _______ _____ _____    ______ ____
ROOT
ATOM      1  O   UNL     1      -4.369   1.404  -0.190  0.00  0.00    -0.268 OA
ATOM      2  N   UNL     1      -0.036   0.132   0.061  0.00  0.00    -0.248 N 
ATOM      3  N   UNL     1      -1.433   1.863  -0.182  0.00  0.00    -0.241 NA
ATOM      4  N   UNL     1      -1.621  -1.691   0.254  0.00  0.00    -0.232 NA
ATOM      5  N   UNL     1      -3.872  -0.858   0.104  0.00  0.00    -0.279 N 
ATOM      6  C   UNL     1      -1.296  -0.387   0.099  0.00  0.00    +0.154 C 
ATOM      7  C   UNL     1      -0.171   1.489  -0.110  0.00  0.00    +0.223 C 
ATOM      8  C   UNL     1      -2.130   0.697  -0.053  0.00  0.00    +0.162 C 
ATOM      9  C   UNL     1      -3.556   0.497  -0.058  0.00  0.00    +0.267 C 
ATOM     10  C   UNL     1      -2.911  -1.865   0.249  0.00  0.00    +0.220 C 
ATOM     11  H   UNL     1      -4.822  -1.117   0.116  0.00  0.00    +0.152 HD
ENDROOT
BRANCH   2  14
ATOM     12  S   UNL     1       3.529  -1.454  -0.820  0.00  0.00    -0.105 S 
ATOM     13  O   UNL     1       2.258   0.202   0.818  0.00  0.00    -0.326 OA
ATOM     14  C   UNL     1       1.267  -0.622   0.181  0.00  0.00    +0.207 C 
ATOM     15  C   UNL     1       1.815  -1.037  -1.183  0.00  0.00    +0.111 C 
ATOM     16  C   UNL     1       3.532  -0.444   0.684  0.00  0.00    +0.194 C 
BRANCH  16  17
ATOM     17  C   UNL     1       4.614   0.619   0.633  0.00  0.00    +0.178 C 
BRANCH  17  18
ATOM     18  O   UNL     1       4.380   1.456  -0.487  0.00  0.00    -0.379 OA
ATOM     19  H   UNL     1       5.068   2.140  -0.529  0.00  0.00    +0.211 HD
ENDBRANCH  17  18
ENDBRANCH  16  17
ENDBRANCH   2  14
TORSDOF 3
