REMARK  Name = 135484455
REMARK  7 active torsions:
REMARK  status: ('A' for Active; 'I' for Inactive)
REMARK    1  A    between atoms: N_3  and  C1*_17
REMARK    2  A    between atoms: N_4  and  C_28
REMARK    3  A    between atoms: C2*_18  and  O2*_21
REMARK    4  A    between atoms: C3*_19  and  O3*_23
REMARK    5  A    between atoms: C4*_20  and  C5*_25
REMARK    6  A    between atoms: C5*_25  and  O5*_26
REMARK    7  A    between atoms: C_28  and  C_29
REMARK                            x       y       z     vdW  Elec       q    Type
REMARK                         _______ _______ _______ _____ _____    ______ ____
ROOT
ATOM      1  O   UNL     1      -0.858   2.127   0.430  0.00  0.00    -0.252 OA
ATOM      2  O   UNL     1       4.239   0.357   0.622  0.00  0.00    -0.272 OA
ATOM      3  N   UNL     1      -0.256  -0.121  -0.096  0.00  0.00    -0.194 N 
ATOM      4  N   UNL     1       1.382   1.307   0.503  0.00  0.00    -0.250 N 
ATOM      5  N   UNL     1       1.122  -2.103  -0.450  0.00  0.00    -0.360 NA
ATOM      6  N   UNL     1       3.428  -1.716  -0.043  0.00  0.00    -0.246 N 
ATOM      7  N   UNL     1       2.683  -3.836  -0.712  0.00  0.00    -0.321 N 
ATOM      8  C   UNL     1       0.952  -0.790  -0.118  0.00  0.00    +0.199 C 
ATOM      9  C   UNL     1      -0.032   1.236   0.299  0.00  0.00    +0.315 C 
ATOM     10  C   UNL     1       1.914   0.070   0.240  0.00  0.00    +0.221 C 
ATOM     11  C   UNL     1       3.309  -0.372   0.304  0.00  0.00    +0.255 C 
ATOM     12  C   UNL     1       2.355  -2.541  -0.406  0.00  0.00    +0.239 C 
ATOM     13  H   UNL     1       4.329  -2.114  -0.032  0.00  0.00    +0.159 HD
ATOM     14  H   UNL     1       1.980  -4.473  -0.976  0.00  0.00    +0.146 HD
ATOM     15  H   UNL     1       3.622  -4.130  -0.668  0.00  0.00    +0.146 HD
ENDROOT
BRANCH   3  17
ATOM     16  O4* UNL     1      -2.362   0.306  -1.016  0.00  0.00    -0.333 OA
ATOM     17  C1* UNL     1      -1.528  -0.701  -0.420  0.00  0.00    +0.231 C 
ATOM     18  C2* UNL     1      -2.267  -1.202   0.809  0.00  0.00    +0.187 C 
ATOM     19  C3* UNL     1      -3.713  -1.030   0.398  0.00  0.00    +0.171 C 
ATOM     20  C4* UNL     1      -3.667   0.267  -0.398  0.00  0.00    +0.175 C 
BRANCH  18  21
ATOM     21  O2* UNL     1      -1.954  -2.544   1.122  0.00  0.00    -0.378 OA
ATOM     22  H2* UNL     1      -1.020  -2.607   1.378  0.00  0.00    +0.211 HD
ENDBRANCH  18  21
BRANCH  19  23
ATOM     23  O3* UNL     1      -4.104  -2.077  -0.490  0.00  0.00    -0.379 OA
ATOM     24  H3* UNL     1      -4.141  -2.916  -0.004  0.00  0.00    +0.211 HD
ENDBRANCH  19  23
BRANCH  20  25
ATOM     25  C5* UNL     1      -3.819   1.510   0.468  0.00  0.00    +0.169 C 
BRANCH  25  26
ATOM     26  O5* UNL     1      -3.751   2.654  -0.365  0.00  0.00    -0.379 OA
ATOM     27  H5* UNL     1      -3.846   3.454   0.176  0.00  0.00    +0.211 HD
ENDBRANCH  25  26
ENDBRANCH  20  25
ENDBRANCH   3  17
BRANCH   4  28
ATOM     28  C   UNL     1       2.108   2.481   0.915  0.00  0.00    +0.096 C 
BRANCH  28  29
ATOM     29  C   UNL     1       2.867   3.128  -0.237  0.00  0.00    +0.022 C 
ATOM     30  C   UNL     1       1.949   3.590  -1.360  0.00  0.00    +0.002 C 
ENDBRANCH  28  29
ENDBRANCH   4  28
TORSDOF 7
