REMARK  Name = 135434160
REMARK  3 active torsions:
REMARK  status: ('A' for Active; 'I' for Inactive)
REMARK    1  A    between atoms: N_2  and  C_16
REMARK    2  A    between atoms: C_18  and  C_20
REMARK    3  A    between atoms: C_20  and  O_21
REMARK                            x       y       z     vdW  Elec       q    Type
REMARK                         _______ _______ _______ _____ _____    ______ ____
ROOT
ATOM      1  O   UNL     1       4.329  -0.547   0.214  0.00  0.00    -0.274 OA
ATOM      2  N   UNL     1       0.272   1.551   0.000  0.00  0.00    -0.264 N 
ATOM      3  N   UNL     1       0.208  -0.842  -0.163  0.00  0.00    -0.362 NA
ATOM      4  N   UNL     1       2.389  -1.810  -0.038  0.00  0.00    -0.247 N 
ATOM      5  N   UNL     1       0.488  -3.170  -0.292  0.00  0.00    -0.321 N 
ATOM      6  C   UNL     1       0.880   0.327  -0.028  0.00  0.00    +0.179 C 
ATOM      7  C   UNL     1       1.228   2.528   0.147  0.00  0.00    +0.063 C 
ATOM      8  C   UNL     1       2.238   0.528   0.103  0.00  0.00    +0.167 C 
ATOM      9  C   UNL     1       2.463   1.917   0.214  0.00  0.00    +0.007 C 
ATOM     10  C   UNL     1       3.111  -0.620   0.103  0.00  0.00    +0.241 C 
ATOM     11  C   UNL     1       0.986  -1.900  -0.166  0.00  0.00    +0.239 C 
ATOM     12  H   UNL     1       2.899  -2.652  -0.050  0.00  0.00    +0.158 HD
ATOM     13  H   UNL     1      -0.482  -3.311  -0.386  0.00  0.00    +0.146 HD
ATOM     14  H   UNL     1       1.100  -3.941  -0.290  0.00  0.00    +0.146 HD
ENDROOT
BRANCH   2  16
ATOM     15  O   UNL     1      -2.564   0.090  -1.029  0.00  0.00    -0.352 OA
ATOM     16  C   UNL     1      -1.218   1.812  -0.111  0.00  0.00    +0.111 C 
ATOM     17  C   UNL     1      -2.005   1.127   1.006  0.00  0.00    +0.055 C 
ATOM     18  C   UNL     1      -3.086   0.339   0.281  0.00  0.00    +0.146 C 
ATOM     19  C   UNL     1      -1.834   1.265  -1.399  0.00  0.00    +0.162 C 
BRANCH  18  20
ATOM     20  C   UNL     1      -3.433  -0.975   0.953  0.00  0.00    +0.167 C 
BRANCH  20  21
ATOM     21  O   UNL     1      -4.452  -1.619   0.205  0.00  0.00    -0.379 OA
ATOM     22  H   UNL     1      -4.681  -2.462   0.628  0.00  0.00    +0.211 HD
ENDBRANCH  20  21
ENDBRANCH  18  20
ENDBRANCH   2  16
TORSDOF 3
