REMARK  Name = 135435048
REMARK  2 active torsions:
REMARK  status: ('A' for Active; 'I' for Inactive)
REMARK    1  A    between atoms: N_3  and  C_16
REMARK    2  A    between atoms: C_21  and  O_22
REMARK                            x       y       z     vdW  Elec       q    Type
REMARK                         _______ _______ _______ _____ _____    ______ ____
ROOT
ATOM      1  O   UNL     1       3.770   2.113  -0.686  0.00  0.00    -0.273 OA
ATOM      2  N   UNL     1       1.556   1.680  -0.150  0.00  0.00    -0.246 N 
ATOM      3  N   UNL     1      -0.702   1.348   0.373  0.00  0.00    -0.276 N 
ATOM      4  N   UNL     1       4.199  -0.834  -0.155  0.00  0.00    -0.268 NA
ATOM      5  N   UNL     1       0.742  -0.492   0.470  0.00  0.00    -0.361 NA
ATOM      6  N   UNL     1       2.543  -2.193   0.465  0.00  0.00    -0.297 N 
ATOM      7  C   UNL     1       3.076  -0.063  -0.090  0.00  0.00    +0.200 C 
ATOM      8  C   UNL     1       0.542   0.786   0.242  0.00  0.00    +0.246 C 
ATOM      9  C   UNL     1       2.070  -0.919   0.292  0.00  0.00    +0.184 C 
ATOM     10  C   UNL     1       2.891   1.330  -0.345  0.00  0.00    +0.251 C 
ATOM     11  C   UNL     1       3.828  -2.109   0.188  0.00  0.00    +0.164 C 
ATOM     12  H   UNL     1       1.304   2.620  -0.297  0.00  0.00    +0.159 HD
ATOM     13  H   UNL     1      -0.732   2.296   0.639  0.00  0.00    +0.156 HD
ATOM     14  H   UNL     1       5.104  -0.533  -0.400  0.00  0.00    +0.126 HD
ATOM     15  H   UNL     1       2.036  -2.992   0.735  0.00  0.00    +0.150 HD
ENDROOT
BRANCH   3  16
ATOM     16  C   UNL     1      -1.929   0.718   0.171  0.00  0.00    +0.051 C 
ATOM     17  C   UNL     1      -3.051   1.129   0.891  0.00  0.00    +0.018 C 
ATOM     18  C   UNL     1      -2.034  -0.325  -0.749  0.00  0.00    +0.018 C 
ATOM     19  C   UNL     1      -4.278   0.497   0.690  0.00  0.00    +0.038 C 
ATOM     20  C   UNL     1      -3.261  -0.957  -0.950  0.00  0.00    +0.038 C 
ATOM     21  C   UNL     1      -4.383  -0.546  -0.231  0.00  0.00    +0.134 C 
BRANCH  21  22
ATOM     22  O   UNL     1      -5.580  -1.163  -0.427  0.00  0.00    -0.506 OA
ATOM     23  H   UNL     1      -6.334  -0.887   0.057  0.00  0.00    +0.292 HD
ENDBRANCH  21  22
ENDBRANCH   3  16
TORSDOF 2
