REMARK  Name = 135408972
REMARK  2 active torsions:
REMARK  status: ('A' for Active; 'I' for Inactive)
REMARK    1  A    between atoms: N_2  and  C_18
REMARK    2  A    between atoms: C_18  and  C_19
REMARK                            x       y       z     vdW  Elec       q    Type
REMARK                         _______ _______ _______ _____ _____    ______ ____
ROOT
ATOM      1  O   UNL     1      -3.997   1.194   1.299  0.00  0.00    -0.267 OA
ATOM      2  N   UNL     1       0.007   0.663  -0.725  0.00  0.00    -0.220 N 
ATOM      3  N   UNL     1      -1.321   2.089   0.373  0.00  0.00    -0.364 NA
ATOM      4  N   UNL     1      -1.391  -1.312  -0.756  0.00  0.00    -0.355 NA
ATOM      5  N   UNL     1      -3.471  -0.874   0.351  0.00  0.00    -0.242 N 
ATOM      6  N   UNL     1       0.844   2.835  -0.369  0.00  0.00    -0.320 N 
ATOM      7  N   UNL     1      -3.025  -2.992  -0.578  0.00  0.00    -0.321 N 
ATOM      8  C   UNL     1      -1.134  -0.025  -0.435  0.00  0.00    +0.227 C 
ATOM      9  C   UNL     1      -1.926   0.875   0.237  0.00  0.00    +0.232 C 
ATOM     10  C   UNL     1      -0.153   1.930  -0.219  0.00  0.00    +0.241 C 
ATOM     11  C   UNL     1      -3.224   0.462   0.694  0.00  0.00    +0.286 C 
ATOM     12  C   UNL     1      -2.575  -1.717  -0.349  0.00  0.00    +0.240 C 
ATOM     13  H   UNL     1      -4.337  -1.258   0.619  0.00  0.00    +0.159 HD
ATOM     14  H   UNL     1       1.672   2.582  -0.837  0.00  0.00    +0.146 HD
ATOM     15  H   UNL     1       0.740   3.746  -0.010  0.00  0.00    +0.146 HD
ATOM     16  H   UNL     1      -2.456  -3.635  -1.059  0.00  0.00    +0.146 HD
ATOM     17  H   UNL     1      -3.916  -3.264  -0.260  0.00  0.00    +0.146 HD
ENDROOT
BRANCH   2  18
ATOM     18  C   UNL     1       1.157   0.146  -1.432  0.00  0.00    +0.128 C 
BRANCH  18  19
ATOM     19  C   UNL     1       2.306  -0.213  -0.523  0.00  0.00    -0.002 C 
ATOM     20  C   UNL     1       3.557   0.373  -0.714  0.00  0.00    -0.003 C 
ATOM     21  C   UNL     1       2.117  -1.132   0.509  0.00  0.00    -0.003 C 
ATOM     22  C   UNL     1       4.619   0.040   0.127  0.00  0.00    -0.000 C 
ATOM     23  C   UNL     1       3.179  -1.465   1.350  0.00  0.00    -0.000 C 
ATOM     24  C   UNL     1       4.430  -0.879   1.159  0.00  0.00    -0.000 C 
ENDBRANCH  18  19
ENDBRANCH   2  18
TORSDOF 2
