REMARK  Name = 135492321
REMARK  2 active torsions:
REMARK  status: ('A' for Active; 'I' for Inactive)
REMARK    1  A    between atoms: N_5  and  C_12
REMARK    2  A    between atoms: N_7  and  C_14
REMARK                            x       y       z     vdW  Elec       q    Type
REMARK                         _______ _______ _______ _____ _____    ______ ____
ROOT
ATOM      1  S   UNL     1      -1.135   2.283  -0.013  0.00  0.00    -0.098 S 
ATOM      2  O   UNL     1      -1.581  -2.796  -0.074  0.00  0.00    -0.250 OA
ATOM      3  N   UNL     1      -1.381  -0.476  -0.005  0.00  0.00    -0.235 N 
ATOM      4  C   UNL     1      -2.839  -0.370  -0.071  0.00  0.00    +0.101 C 
ATOM      5  C   UNL     1      -3.437   0.922   0.457  0.00  0.00    +0.034 C 
ATOM      6  C   UNL     1      -0.544   0.650  -0.021  0.00  0.00    +0.095 C 
ATOM      7  C   UNL     1      -2.897   2.101  -0.319  0.00  0.00    +0.065 C 
ATOM      8  C   UNL     1       0.774   0.450  -0.010  0.00  0.00    +0.076 C 
ATOM      9  C   UNL     1      -0.840  -1.810  -0.026  0.00  0.00    +0.333 C 
ENDROOT
BRANCH   9  11
ATOM     10  N   UNL     1       2.626  -0.844   0.025  0.00  0.00    -0.316 N 
ATOM     11  N   UNL     1       0.538  -1.991   0.002  0.00  0.00    -0.145 NA
ATOM     12  C   UNL     1       1.256  -0.929   0.006  0.00  0.00    +0.151 C 
ATOM     13  C   UNL     1       3.021   0.489   0.018  0.00  0.00    +0.110 C 
ATOM     14  H   UNL     1       3.238  -1.614   0.040  0.00  0.00    +0.148 HD
ENDBRANCH   9  11
BRANCH   8  15
ATOM     15  N   UNL     1       1.860   1.272  -0.003  0.00  0.00    -0.355 N 
ATOM     16  H   UNL     1       1.833   2.256  -0.013  0.00  0.00    +0.142 HD
ATOM     17  H   UNL     1       2.100   0.459   0.498  0.00  0.00    +0.142 HD
ENDBRANCH   8  15
TORSDOF 2
REMARK  Name = 135492321
REMARK  2 active torsions:
REMARK  status: ('A' for Active; 'I' for Inactive)
REMARK    1  A    between atoms: N_5  and  C_12
REMARK    2  A    between atoms: N_7  and  C_14
REMARK                            x       y       z     vdW  Elec       q    Type
REMARK                         _______ _______ _______ _____ _____    ______ ____
ROOT
ATOM      1  S   UNL     1       4.579   1.051   0.035  0.00  0.00    +0.000 S 
ENDROOT
TORSDOF 0
