135499684
  -OEChem-03292013293D

 41 43  0     0  0  0  0  0  0999 V2000
   -0.0026    0.6688   -0.0007 O   0  0  0  0  0  0  0  0  0  0  0  0
   -8.3143   -1.3491   -0.3735 O   0  0  0  0  0  0  0  0  0  0  0  0
    8.3163   -1.3465    0.3754 O   0  0  0  0  0  0  0  0  0  0  0  0
    6.2245   -2.4322   -0.7127 N   0  0  0  0  0  0  0  0  0  0  0  0
   -6.2210   -2.4342    0.7122 N   0  0  0  0  0  0  0  0  0  0  0  0
    7.1495   -0.5815    0.4695 N   0  0  0  0  0  0  0  0  0  0  0  0
   -7.1482   -0.5831   -0.4677 N   0  0  0  0  0  0  0  0  0  0  0  0
   -1.0925    1.4805    0.0180 C   0  0  0  0  0  0  0  0  0  0  0  0
    1.0865    1.4812   -0.0190 C   0  0  0  0  0  0  0  0  0  0  0  0
    2.3611    0.8064   -0.0402 C   0  0  0  0  0  0  0  0  0  0  0  0
   -2.3605    0.8079    0.0394 C   0  0  0  0  0  0  0  0  0  0  0  0
    0.7040    2.8026   -0.0121 C   0  0  0  0  0  0  0  0  0  0  0  0
   -0.7111    2.8021    0.0121 C   0  0  0  0  0  0  0  0  0  0  0  0
    3.5426    1.5477   -0.0592 C   0  0  0  0  0  0  0  0  0  0  0  0
   -3.5425    1.5483    0.0600 C   0  0  0  0  0  0  0  0  0  0  0  0
   -2.4108   -0.5861    0.0393 C   0  0  0  0  0  0  0  0  0  0  0  0
    2.4125   -0.5875   -0.0412 C   0  0  0  0  0  0  0  0  0  0  0  0
    4.8264   -0.4987   -0.0807 C   0  0  0  0  0  0  0  0  0  0  0  0
   -4.8248   -0.4990    0.0808 C   0  0  0  0  0  0  0  0  0  0  0  0
   -4.7747    0.8950    0.0807 C   0  0  0  0  0  0  0  0  0  0  0  0
    4.7752    0.8954   -0.0794 C   0  0  0  0  0  0  0  0  0  0  0  0
   -3.6429   -1.2396    0.0600 C   0  0  0  0  0  0  0  0  0  0  0  0
    3.6451   -1.2401   -0.0615 C   0  0  0  0  0  0  0  0  0  0  0  0
   -6.1097   -1.1798    0.0994 C   0  0  0  0  0  0  0  0  0  0  0  0
    6.1118   -1.1784   -0.0988 C   0  0  0  0  0  0  0  0  0  0  0  0
    1.3503    3.6688   -0.0227 H   0  0  0  0  0  0  0  0  0  0  0  0
   -1.3577    3.6681    0.0234 H   0  0  0  0  0  0  0  0  0  0  0  0
    3.5349    2.6345   -0.0606 H   0  0  0  0  0  0  0  0  0  0  0  0
   -3.5363    2.6352    0.0624 H   0  0  0  0  0  0  0  0  0  0  0  0
    1.5141   -1.1994   -0.0225 H   0  0  0  0  0  0  0  0  0  0  0  0
   -1.5125   -1.1979    0.0194 H   0  0  0  0  0  0  0  0  0  0  0  0
   -5.6807    1.4949    0.1048 H   0  0  0  0  0  0  0  0  0  0  0  0
    5.6808    1.4960   -0.1024 H   0  0  0  0  0  0  0  0  0  0  0  0
   -3.6498   -2.3259    0.0414 H   0  0  0  0  0  0  0  0  0  0  0  0
    3.6528   -2.3264   -0.0438 H   0  0  0  0  0  0  0  0  0  0  0  0
    7.1159   -2.9163   -0.7297 H   0  0  0  0  0  0  0  0  0  0  0  0
    5.4509   -2.8742   -1.1970 H   0  0  0  0  0  0  0  0  0  0  0  0
   -7.1119   -2.9190    0.7294 H   0  0  0  0  0  0  0  0  0  0  0  0
   -5.4466   -2.8761    1.1955 H   0  0  0  0  0  0  0  0  0  0  0  0
   -8.9586   -0.7795   -0.8265 H   0  0  0  0  0  0  0  0  0  0  0  0
    8.9598   -0.7767    0.8294 H   0  0  0  0  0  0  0  0  0  0  0  0
  1  8  1  0  0  0  0
  1  9  1  0  0  0  0
  2  7  1  0  0  0  0
  2 40  1  0  0  0  0
  3  6  1  0  0  0  0
  3 41  1  0  0  0  0
  4 25  1  0  0  0  0
  4 36  1  0  0  0  0
  4 37  1  0  0  0  0
  5 24  1  0  0  0  0
  5 38  1  0  0  0  0
  5 39  1  0  0  0  0
  6 25  2  0  0  0  0
  7 24  2  0  0  0  0
  8 11  1  0  0  0  0
  8 13  2  0  0  0  0
  9 10  1  0  0  0  0
  9 12  2  0  0  0  0
 10 14  2  0  0  0  0
 10 17  1  0  0  0  0
 11 15  2  0  0  0  0
 11 16  1  0  0  0  0
 12 13  1  0  0  0  0
 12 26  1  0  0  0  0
 13 27  1  0  0  0  0
 14 21  1  0  0  0  0
 14 28  1  0  0  0  0
 15 20  1  0  0  0  0
 15 29  1  0  0  0  0
 16 22  2  0  0  0  0
 16 31  1  0  0  0  0
 17 23  2  0  0  0  0
 17 30  1  0  0  0  0
 18 21  2  0  0  0  0
 18 23  1  0  0  0  0
 18 25  1  0  0  0  0
 19 20  2  0  0  0  0
 19 22  1  0  0  0  0
 19 24  1  0  0  0  0
 20 32  1  0  0  0  0
 21 33  1  0  0  0  0
 22 34  1  0  0  0  0
 23 35  1  0  0  0  0
M  END
> <PUBCHEM_COMPOUND_CID>
135499684

> <PUBCHEM_CONFORMER_RMSD>
0.8

> <PUBCHEM_CONFORMER_DIVERSEORDER>
1
7
5
4
3
6
2

> <PUBCHEM_MMFF94_PARTIAL_CHARGES>
41
1 -0.28
10 0.05
11 0.05
12 -0.15
13 -0.15
14 -0.15
15 -0.15
16 -0.15
17 -0.15
18 0.09
19 0.09
2 -0.34
20 -0.15
21 -0.15
22 -0.15
23 -0.15
24 0.41
25 0.41
26 0.15
27 0.15
28 0.15
29 0.15
3 -0.34
30 0.15
31 0.15
32 0.15
33 0.15
34 0.15
35 0.15
36 0.4
37 0.4
38 0.4
39 0.4
4 -0.85
40 0.4
41 0.4
5 -0.85
6 -0.51
7 -0.51
8 0.09
9 0.09

> <PUBCHEM_EFFECTIVE_ROTOR_COUNT>
4

> <PUBCHEM_PHARMACOPHORE_FEATURES>
10
1 1 acceptor
1 2 anion
1 3 anion
1 4 donor
1 5 donor
3 4 6 25 cation
3 5 7 24 cation
5 1 8 9 12 13 rings
6 10 14 17 18 21 23 rings
6 11 15 16 19 20 22 rings

> <PUBCHEM_HEAVY_ATOM_COUNT>
25

> <PUBCHEM_ATOM_DEF_STEREO_COUNT>
0

> <PUBCHEM_ATOM_UDEF_STEREO_COUNT>
0

> <PUBCHEM_BOND_DEF_STEREO_COUNT>
2

> <PUBCHEM_BOND_UDEF_STEREO_COUNT>
0

> <PUBCHEM_ISOTOPIC_ATOM_COUNT>
0

> <PUBCHEM_COMPONENT_COUNT>
1

> <PUBCHEM_CACTVS_TAUTO_COUNT>
-1

> <PUBCHEM_CONFORMER_ID>
08138FA400000001

> <PUBCHEM_MMFF94_ENERGY>
73.4153

> <PUBCHEM_FEATURE_SELFOVERLAP>
50.745

> <PUBCHEM_SHAPE_FINGERPRINT>
10 15 11455892468719992615
10411042 1 18410573985157609348
10622 236 17270018864866115703
106641 1 17846774123065682866
11135609 99 18410857689886576038
11211813 128 18273213076775587142
11524674 6 16845572019671763039
11963148 33 18337386055224044902
12166972 35 17822014224424308852
12516196 113 18272651259511864040
12592606 108 18341047515238893839
12633257 1 15697995262435757097
12760667 363 18413107260559064501
13288520 33 18409167710513028029
13402501 40 18410857659157211798
13533116 47 18200030776093350641
13631057 29 18336827498905187672
13673619 4 18410293613992489213
13685833 64 18411700997475961513
13862211 1 18410294713493151725
13885169 127 18411698752073664141
14216079 64 18412544310352708591
14251764 18 18273217512257985233
14556957 393 15647628752291757350
14931854 50 17894628119611397051
15183329 4 17968093114434089787
15196674 1 18410576184175063973
15352361 1 18410576188512112361
15690457 1 18059851792621604879
15927050 60 17623287582651355108
17492 89 18122624955829694258
1768 124 17775286058101623118
18335252 98 18272933800816740270
19784866 240 18409173225092877933
20028762 73 18413108351492080358
20721686 124 12107778597998708016
21033650 10 16660918877510285205
21130935 74 18271810185278468531
21267235 1 18410859862469685669
21304304 249 18413392042065053422
21623969 137 17846501405073939646
21682296 61 18411987970760001219
21792934 111 18271798034346925025
22224240 67 16487252179553794990
23522609 53 18122661367861420388
23559900 14 18411693309553905136
3004659 81 18040995150555755120
335352 9 18409445861517595157
3383291 50 18408323315379324587
3627633 1 18339081467150953748
439807 62 18333733519980808099
46194498 28 17458903867884160133
465052 167 18271812349298388004
5104073 3 18131351895198335376
5385378 56 10952058836103666500
559249 180 18411136914374055357
5718773 13 18410573989446723747
59682541 35 18201146716635126762
59755656 215 18261112941872911386
6138700 20 18407759236070426251
636775 8 18341342094213520614
77188 2 18411982489686549017
7970288 3 18410575084663709027
999808 66 18041292045045457243

> <PUBCHEM_SHAPE_MULTIPOLES>
476.96
21.29
2.62
0.65
0.06
0.73
0
-18.07
0.01
-0.01
0
0
-0.07
0.31

> <PUBCHEM_SHAPE_SELFOVERLAP>
1048.227

> <PUBCHEM_SHAPE_VOLUME>
256.7

> <PUBCHEM_COORDINATE_TYPE>
2
5
10

$$$$
