REMARK  Name = 135456222
REMARK  6 active torsions:
REMARK  status: ('A' for Active; 'I' for Inactive)
REMARK    1  A    between atoms: N_1  and  C1*_16
REMARK    2  A    between atoms: N_5  and  C_9
REMARK    3  A    between atoms: C2*_15  and  O2*_19
REMARK    4  A    between atoms: C3*_17  and  O3*_21
REMARK    5  A    between atoms: C4*_18  and  C5*_23
REMARK    6  A    between atoms: C5*_23  and  O5*_24
REMARK                            x       y       z     vdW  Elec       q    Type
REMARK                         _______ _______ _______ _____ _____    ______ ____
ROOT
ATOM      1  N   UNL     1       0.340  -0.092   0.189  0.00  0.00    -0.251 N 
ATOM      2  N   UNL     1       1.655   1.953   0.484  0.00  0.00    -0.304 N 
ATOM      3  N   UNL     1       3.636   0.978   0.135  0.00  0.00    -0.312 N 
ATOM      4  N   UNL     1       1.634  -2.113  -0.272  0.00  0.00    -0.231 NA
ATOM      5  C   UNL     1       1.498   0.620   0.237  0.00  0.00    +0.117 C 
ATOM      6  C   UNL     1       0.530  -1.450  -0.059  0.00  0.00    +0.224 C 
ATOM      7  C   UNL     1       2.702  -0.010   0.021  0.00  0.00    +0.106 C 
ATOM      8  C   UNL     1       2.825  -1.409  -0.253  0.00  0.00    +0.157 C 
ATOM      9  C   UNL     1       2.958   2.139   0.415  0.00  0.00    +0.183 C 
ATOM     10  H   UNL     1       0.957   2.622   0.671  0.00  0.00    +0.150 HD
ATOM     11  H   UNL     1       4.611   0.877   0.036  0.00  0.00    +0.149 HD
ENDROOT
BRANCH   1  14
ATOM     12  O4* UNL     1      -1.844  -0.438   1.044  0.00  0.00    -0.333 OA
ATOM     13  C2* UNL     1      -1.591   0.985  -0.833  0.00  0.00    +0.187 C 
ATOM     14  C1* UNL     1      -0.939   0.516   0.458  0.00  0.00    +0.225 C 
ATOM     15  C3* UNL     1      -3.064   0.872  -0.505  0.00  0.00    +0.171 C 
ATOM     16  C4* UNL     1      -3.106  -0.391   0.344  0.00  0.00    +0.175 C 
BRANCH  13  17
ATOM     17  O2* UNL     1      -1.220   2.304  -1.180  0.00  0.00    -0.378 OA
ATOM     18  H2* UNL     1      -0.272   2.331  -1.382  0.00  0.00    +0.211 HD
ENDBRANCH  13  17
BRANCH  15  19
ATOM     19  O3* UNL     1      -3.475   1.966   0.315  0.00  0.00    -0.379 OA
ATOM     20  H3* UNL     1      -3.457   2.784  -0.206  0.00  0.00    +0.211 HD
ENDBRANCH  15  19
BRANCH  16  21
ATOM     21  C5* UNL     1      -3.239  -1.666  -0.479  0.00  0.00    +0.169 C 
BRANCH  21  22
ATOM     22  O5* UNL     1      -3.257  -2.775   0.403  0.00  0.00    -0.379 OA
ATOM     23  H5* UNL     1      -3.342  -3.594  -0.109  0.00  0.00    +0.211 HD
ENDBRANCH  21  22
ENDBRANCH  16  21
ENDBRANCH   1  14
BRANCH   8  24
ATOM     24  N   UNL     1       3.957  -1.989  -0.465  0.00  0.00    -0.248 NA
ATOM     25  H   UNL     1       3.987  -2.956  -0.649  0.00  0.00    +0.172 HD
ENDBRANCH   8  24
TORSDOF 6
