REMARK  Name = 135409371
REMARK  5 active torsions:
REMARK  status: ('A' for Active; 'I' for Inactive)
REMARK    1  A    between atoms: N_2  and  O_15
REMARK    2  A    between atoms: O_15  and  C_16
REMARK    3  A    between atoms: C_16  and  C_17
REMARK    4  A    between atoms: C_17  and  C_18
REMARK    5  A    between atoms: C_18  and  O_19
REMARK                            x       y       z     vdW  Elec       q    Type
REMARK                         _______ _______ _______ _____ _____    ______ ____
ROOT
ATOM      1  O   UNL     1      -4.087   0.985   0.636  0.00  0.00    -0.268 OA
ATOM      2  N   UNL     1       0.295   0.908  -0.461  0.00  0.00    -0.185 N 
ATOM      3  N   UNL     1      -1.444   2.213   0.063  0.00  0.00    -0.235 NA
ATOM      4  N   UNL     1      -0.741  -1.277  -0.353  0.00  0.00    -0.352 NA
ATOM      5  N   UNL     1      -3.053  -1.071   0.238  0.00  0.00    -0.243 N 
ATOM      6  N   UNL     1      -2.095  -3.186  -0.147  0.00  0.00    -0.321 N 
ATOM      7  C   UNL     1      -0.761   0.071  -0.255  0.00  0.00    +0.241 C 
ATOM      8  C   UNL     1      -1.810   0.900   0.063  0.00  0.00    +0.180 C 
ATOM      9  C   UNL     1      -0.165   2.187  -0.258  0.00  0.00    +0.260 C 
ATOM     10  C   UNL     1      -3.097   0.326   0.345  0.00  0.00    +0.274 C 
ATOM     11  C   UNL     1      -1.907  -1.829  -0.100  0.00  0.00    +0.240 C 
ATOM     12  H   UNL     1      -3.887  -1.565   0.412  0.00  0.00    +0.159 HD
ATOM     13  H   UNL     1      -1.343  -3.779  -0.375  0.00  0.00    +0.146 HD
ATOM     14  H   UNL     1      -2.981  -3.568   0.048  0.00  0.00    +0.146 HD
ENDROOT
BRANCH   2  15
ATOM     15  O   UNL     1       1.584   0.550  -0.810  0.00  0.00    -0.253 OA
BRANCH  15  16
ATOM     16  C   UNL     1       2.479   0.303   0.261  0.00  0.00    +0.177 C 
BRANCH  16  17
ATOM     17  C   UNL     1       3.846  -0.077  -0.286  0.00  0.00    +0.067 C 
BRANCH  17  18
ATOM     18  C   UNL     1       4.852  -0.334   0.824  0.00  0.00    +0.140 C 
BRANCH  18  19
ATOM     19  O   UNL     1       6.104  -0.668   0.241  0.00  0.00    -0.382 OA
ATOM     20  H   UNL     1       6.753  -0.834   0.943  0.00  0.00    +0.210 HD
ENDBRANCH  18  19
ENDBRANCH  17  18
ENDBRANCH  16  17
ENDBRANCH  15  16
ENDBRANCH   2  15
TORSDOF 5
