135422946
  -OEChem-03292013293D

 35 36  0     0  0  0  0  0  0999 V2000
   -3.6474   -1.0784   -0.1419 P   0  0  0  0  0  0  0  0  0  0  0  0
   -2.0637    0.9130   -0.2231 O   0  0  0  0  0  0  0  0  0  0  0  0
    4.1948   -1.7247   -1.0742 O   0  0  0  0  0  0  0  0  0  0  0  0
   -4.5068   -1.9229   -1.2191 O   0  0  0  0  0  0  0  0  0  0  0  0
   -4.7495   -0.1089    0.5346 O   0  0  0  0  0  0  0  0  0  0  0  0
   -2.8470   -1.9007    0.8234 O   0  0  0  0  0  0  0  0  0  0  0  0
    1.4141    1.4603    0.5191 N   0  0  0  0  0  0  0  0  0  0  0  0
    3.3542    1.0705   -0.5229 N   0  0  0  0  0  0  0  0  0  0  0  0
    0.6252   -0.8041    0.8502 N   0  0  0  0  0  0  0  0  0  0  0  0
    2.2013   -2.3715   -0.0439 N   0  0  0  0  0  0  0  0  0  0  0  0
    0.2152   -3.1139    0.9795 N   0  0  0  0  0  0  0  0  0  0  0  0
    0.3328    2.2032    1.1203 C   0  0  0  0  0  0  0  0  0  0  0  0
    1.5227    0.1053    0.4098 C   0  0  0  0  0  0  0  0  0  0  0  0
   -0.6178    2.8100    0.1126 C   0  0  0  0  0  0  0  0  0  0  0  0
    2.7200   -0.1009   -0.2318 C   0  0  0  0  0  0  0  0  0  0  0  0
   -1.2720    1.8909   -0.8858 C   0  0  0  0  0  0  0  0  0  0  0  0
    2.5399    1.9969   -0.0564 C   0  0  0  0  0  0  0  0  0  0  0  0
    3.1455   -1.4450   -0.5083 C   0  0  0  0  0  0  0  0  0  0  0  0
   -2.6899    0.0354   -1.1484 C   0  0  0  0  0  0  0  0  0  0  0  0
    0.9897   -2.0449    0.6100 C   0  0  0  0  0  0  0  0  0  0  0  0
   -0.8613    4.1306    0.0964 C   0  0  0  0  0  0  0  0  0  0  0  0
    0.7926    2.9708    1.7552 H   0  0  0  0  0  0  0  0  0  0  0  0
   -0.2177    1.5340    1.7914 H   0  0  0  0  0  0  0  0  0  0  0  0
   -1.9147    2.4597   -1.5695 H   0  0  0  0  0  0  0  0  0  0  0  0
   -0.5062    1.3976   -1.4960 H   0  0  0  0  0  0  0  0  0  0  0  0
    2.7096    3.0641   -0.1052 H   0  0  0  0  0  0  0  0  0  0  0  0
   -3.3379    0.5966   -1.8291 H   0  0  0  0  0  0  0  0  0  0  0  0
   -1.9374   -0.5150   -1.7216 H   0  0  0  0  0  0  0  0  0  0  0  0
    2.4040   -3.3564   -0.1888 H   0  0  0  0  0  0  0  0  0  0  0  0
   -1.5374    4.5735   -0.6273 H   0  0  0  0  0  0  0  0  0  0  0  0
   -0.3896    4.8001    0.8080 H   0  0  0  0  0  0  0  0  0  0  0  0
   -0.6723   -2.9805    1.4519 H   0  0  0  0  0  0  0  0  0  0  0  0
    0.5042   -4.0673    0.7900 H   0  0  0  0  0  0  0  0  0  0  0  0
   -5.1009   -2.6350   -0.8994 H   0  0  0  0  0  0  0  0  0  0  0  0
   -5.3881   -0.4897    1.1744 H   0  0  0  0  0  0  0  0  0  0  0  0
  1  4  1  0  0  0  0
  1  5  1  0  0  0  0
  1  6  2  0  0  0  0
  1 19  1  0  0  0  0
  2 16  1  0  0  0  0
  2 19  1  0  0  0  0
  3 18  2  0  0  0  0
  4 34  1  0  0  0  0
  5 35  1  0  0  0  0
  7 12  1  0  0  0  0
  7 13  1  0  0  0  0
  7 17  1  0  0  0  0
  8 15  1  0  0  0  0
  8 17  2  0  0  0  0
  9 13  1  0  0  0  0
  9 20  2  0  0  0  0
 10 18  1  0  0  0  0
 10 20  1  0  0  0  0
 10 29  1  0  0  0  0
 11 20  1  0  0  0  0
 11 32  1  0  0  0  0
 11 33  1  0  0  0  0
 12 14  1  0  0  0  0
 12 22  1  0  0  0  0
 12 23  1  0  0  0  0
 13 15  2  0  0  0  0
 14 16  1  0  0  0  0
 14 21  2  0  0  0  0
 15 18  1  0  0  0  0
 16 24  1  0  0  0  0
 16 25  1  0  0  0  0
 17 26  1  0  0  0  0
 19 27  1  0  0  0  0
 19 28  1  0  0  0  0
 21 30  1  0  0  0  0
 21 31  1  0  0  0  0
M  END
> <PUBCHEM_COMPOUND_CID>
135422946

> <PUBCHEM_CONFORMER_RMSD>
0.8

> <PUBCHEM_CONFORMER_DIVERSEORDER>
1
98
45
76
160
164
66
87
177
71
110
138
48
109
88
55
107
83
34
2
174
20
101
44
148
24
80
179
60
72
176
13
157
139
62
120
159
79
170
9
135
74
163
58
178
102
169
22
4
75
165
130
21
63
65
7
127
117
5
96
43
126
16
108
144
27
128
153
125
53
154
150
89
28
50
141
25
123
119
172
143
156
11
31
104
137
38
56
81
166
32
19
145
149
6
105
3
180
69
46
129
51
77
133
30
115
36
161
111
147
90
39
106
29
40
122
100
23
64
171
95
146
182
54
85
14
116
113
99
92
12
37
103
97
131
70
155
93
17
94
33
118
142
91
167
41
18
175
136
86
181
8
61
82
152
42
26
132
15
52
121
57
134
114
35
68
124
10
112
158
151
67
168
73
140
49
59
84
47
173
78
162

> <PUBCHEM_MMFF94_PARTIAL_CHARGES>
29
1 1.24
10 -0.49
11 -0.85
12 0.39
13 -0.03
14 -0.28
15 0.14
16 0.42
17 0.04
18 0.72
19 0.28
2 -0.56
20 0.56
21 -0.3
26 0.15
29 0.37
3 -0.57
30 0.15
31 0.15
32 0.4
33 0.4
34 0.5
35 0.5
4 -0.77
5 -0.77
6 -0.7
7 0.05
8 -0.57
9 -0.58

> <PUBCHEM_EFFECTIVE_ROTOR_COUNT>
6

> <PUBCHEM_PHARMACOPHORE_FEATURES>
12
1 10 donor
1 11 donor
1 2 acceptor
1 21 hydrophobe
1 3 acceptor
1 4 acceptor
1 5 acceptor
1 6 acceptor
3 7 8 17 cation
4 1 4 5 6 anion
5 7 8 13 15 17 rings
6 9 10 13 15 18 20 rings

> <PUBCHEM_HEAVY_ATOM_COUNT>
21

> <PUBCHEM_ATOM_DEF_STEREO_COUNT>
0

> <PUBCHEM_ATOM_UDEF_STEREO_COUNT>
0

> <PUBCHEM_BOND_DEF_STEREO_COUNT>
0

> <PUBCHEM_BOND_UDEF_STEREO_COUNT>
0

> <PUBCHEM_ISOTOPIC_ATOM_COUNT>
0

> <PUBCHEM_COMPONENT_COUNT>
1

> <PUBCHEM_CACTVS_TAUTO_COUNT>
-1

> <PUBCHEM_CONFORMER_ID>
081263E200000001

> <PUBCHEM_MMFF94_ENERGY>
2.7545

> <PUBCHEM_FEATURE_SELFOVERLAP>
61.111

> <PUBCHEM_SHAPE_FINGERPRINT>
12035758 1 17908133636000356568
12506688 2 18410853287149341477
12553582 1 18338227172827833619
12596599 1 17845393118680388271
13533116 47 18127408080919082143
14178342 30 17976804407838452344
15210252 30 17968095343464588013
15635459 17 18264196084272380359
17492 54 17679026151604790628
20291156 8 18342455933060618957
20645476 183 17691405209261045228
21141583 151 18410293631203714611
21197605 99 17111567251775998547
21634736 98 18411420566614140862
22907989 373 17682160739391504398
23379529 103 18131079190555522630
23419403 2 16302373766078054257
238 59 17687701268462000751
2748010 2 17764320822533462568
2871803 45 18335696139751780127
3323516 105 18409168848172829347
6443956 14 18337387249182047325

> <PUBCHEM_SHAPE_MULTIPOLES>
381.77
6.99
4.21
1.04
4.54
2.23
0.05
-4.54
2.03
0.28
-0.57
0.23
-0.2
0.18

> <PUBCHEM_SHAPE_SELFOVERLAP>
788.093

> <PUBCHEM_SHAPE_VOLUME>
221.3

> <PUBCHEM_COORDINATE_TYPE>
2
5
10

$$$$
