REMARK  Name = 135405023
REMARK  11 active torsions:
REMARK  status: ('A' for Active; 'I' for Inactive)
REMARK    1  A    between atoms: C_1  and  C_9
REMARK    2  A    between atoms: C_2  and  N_23
REMARK    3  A    between atoms: N_8  and  CA_11
REMARK    4  A    between atoms: CA_11  and  C_13
REMARK    5  A    between atoms: CA_11  and  CB_16
REMARK    6  A    between atoms: C_13  and  O_14
REMARK    7  A    between atoms: CB_16  and  CG_17
REMARK    8  A    between atoms: CG_17  and  CD_19
REMARK    9  A    between atoms: CD_19  and  OE1_20
REMARK   10  A    between atoms: N_23  and  C_25
REMARK   11  A    between atoms: C_25  and  C_32
REMARK                            x       y       z     vdW  Elec       q    Type
REMARK                         _______ _______ _______ _____ _____    ______ ____
ROOT
ATOM      1  C   UNL     1       1.625   0.128   0.168  0.00  0.00    +0.053 C 
ATOM      2  C   UNL     1      -0.555  -1.484  -0.488  0.00  0.00    +0.055 C 
ATOM      3  C   UNL     1       0.730  -0.272   1.160  0.00  0.00    +0.006 C 
ATOM      4  C   UNL     1       1.430  -0.278  -1.152  0.00  0.00    +0.006 C 
ATOM      5  C   UNL     1      -0.360  -1.078   0.832  0.00  0.00    +0.015 C 
ATOM      6  C   UNL     1       0.340  -1.084  -1.480  0.00  0.00    +0.015 C 
ENDROOT
BRANCH   1   9
ATOM      7  O   UNL     1       2.715   1.718   1.503  0.00  0.00    -0.270 OA
ATOM      8  N   UNL     1       3.896   0.874  -0.306  0.00  0.00    -0.293 N 
ATOM      9  C   ACE A   0       2.785   0.987   0.518  0.00  0.00    +0.246 C 
ATOM     10  H   UNL     1       3.855   0.259  -1.074  0.00  0.00    +0.150 HD
BRANCH   8  11
ATOM     11  CA  UNL     1       5.107   1.623  -0.083  0.00  0.00    +0.172 C 
BRANCH  11  13
ATOM     12  OXT UNL     1       5.275   1.551  -2.511  0.00  0.00    -0.248 OA
ATOM     13  C   UNL     1       5.690   1.968  -1.438  0.00  0.00    +0.332 C 
BRANCH  13  14
ATOM     14  O   UNL     1       6.726   2.841  -1.336  0.00  0.00    -0.479 OA
ATOM     15  H   UNL     1       7.011   3.134  -0.493  0.00  0.00    +0.295 HD
ENDBRANCH  13  14
ENDBRANCH  11  13
BRANCH  11  16
ATOM     16  CB  UNL     1       6.088   0.898   0.847  0.00  0.00    +0.043 C 
BRANCH  16  17
ATOM     17  CG  UNL     1       6.621  -0.448   0.338  0.00  0.00    +0.112 C 
BRANCH  17  19
ATOM     18  OE2 UNL     1       7.913  -0.693   2.389  0.00  0.00    -0.250 OA
ATOM     19  CD  UNL     1       7.575  -1.127   1.297  0.00  0.00    +0.314 C 
BRANCH  19  20
ATOM     20  OE1 UNL     1       8.061  -2.287   0.781  0.00  0.00    -0.480 OA
ATOM     21  HE1 UNL     1       7.773  -2.582  -0.060  0.00  0.00    +0.295 HD
ENDBRANCH  19  20
ENDBRANCH  17  19
ENDBRANCH  16  17
ENDBRANCH  11  16
ENDBRANCH   8  11
ENDBRANCH   1   9
BRANCH   2  23
ATOM     22  O   UNL     1      -2.894  -3.478  -2.477  0.00  0.00    -0.265 OA
ATOM     23  N   UNL     1      -1.646  -2.289  -0.817  0.00  0.00    -0.245 N 
ATOM     24  C   UNL     1      -1.956  -2.770  -2.120  0.00  0.00    +0.307 C 
BRANCH  23  25
ATOM     25  C   UNL     1      -2.607  -2.720   0.234  0.00  0.00    +0.155 C 
BRANCH  25  32
ATOM     26  O   UNL     1      -4.152   1.496  -1.973  0.00  0.00    -0.266 OA
ATOM     27  N   UNL     1      -3.744  -0.645  -0.346  0.00  0.00    -0.391 NA
ATOM     28  N   UNL     1      -5.339  -0.809   1.963  0.00  0.00    -0.200 NA
ATOM     29  N   UNL     1      -5.810   2.312  -0.573  0.00  0.00    -0.241 N 
ATOM     30  N   UNL     1      -6.431   1.188   1.404  0.00  0.00    -0.318 NA
ATOM     31  N   UNL     1      -7.491   3.191   0.796  0.00  0.00    -0.320 N 
ATOM     32  C   UNL     1      -3.628  -1.661   0.530  0.00  0.00    +0.133 C 
ATOM     33  C   UNL     1      -4.674   0.280  -0.036  0.00  0.00    +0.257 C 
ATOM     34  C   UNL     1      -4.410  -1.741   1.662  0.00  0.00    +0.193 C 
ATOM     35  C   UNL     1      -5.467   0.216   1.095  0.00  0.00    +0.121 C 
ATOM     36  C   UNL     1      -4.836   1.405  -0.962  0.00  0.00    +0.293 C 
ATOM     37  C   UNL     1      -6.578   2.192   0.582  0.00  0.00    +0.248 C 
ATOM     38  H   UNL     1      -5.969   3.092  -1.152  0.00  0.00    +0.159 HD
ATOM     39  H   UNL     1      -7.570   3.931   0.152  0.00  0.00    +0.146 HD
ATOM     40  H   UNL     1      -8.067   3.168   1.594  0.00  0.00    +0.146 HD
ENDBRANCH  25  32
ENDBRANCH  23  25
ENDBRANCH   2  23
TORSDOF 11
