REMARK  Name = 135415773
REMARK  11 active torsions:
REMARK  status: ('A' for Active; 'I' for Inactive)
REMARK    1  A    between atoms: C_1  and  N_22
REMARK    2  A    between atoms: C_2  and  C_9
REMARK    3  A    between atoms: N_8  and  CA_11
REMARK    4  A    between atoms: CA_11  and  C_13
REMARK    5  A    between atoms: CA_11  and  CB_16
REMARK    6  A    between atoms: C_13  and  O_14
REMARK    7  A    between atoms: CB_16  and  CG_17
REMARK    8  A    between atoms: CG_17  and  CD_19
REMARK    9  A    between atoms: CD_19  and  OE1_20
REMARK   10  A    between atoms: N_22  and  C_24
REMARK   11  A    between atoms: C_24  and  C_31
REMARK                            x       y       z     vdW  Elec       q    Type
REMARK                         _______ _______ _______ _____ _____    ______ ____
ROOT
ATOM      1  C   UNL     1      -0.599  -2.252   0.101  0.00  0.00    +0.048 C 
ATOM      2  C   UNL     1       1.651  -0.862   0.988  0.00  0.00    +0.053 C 
ATOM      3  C   UNL     1       0.164  -2.759   1.153  0.00  0.00    +0.015 C 
ATOM      4  C   UNL     1      -0.237  -1.050  -0.508  0.00  0.00    +0.015 C 
ATOM      5  C   UNL     1       1.289  -2.064   1.597  0.00  0.00    +0.006 C 
ATOM      6  C   UNL     1       0.889  -0.356  -0.064  0.00  0.00    +0.006 C 
ENDROOT
BRANCH   2   9
ATOM      7  O   UNL     1       3.229  -0.271   2.619  0.00  0.00    -0.270 OA
ATOM      8  N   UNL     1       3.479   0.680   0.518  0.00  0.00    -0.293 N 
ATOM      9  C   ACE A   0       2.851  -0.123   1.459  0.00  0.00    +0.246 C 
ATOM     10  H   UNL     1       3.098   0.734  -0.388  0.00  0.00    +0.150 HD
BRANCH   8  11
ATOM     11  CA  UNL     1       4.667   1.440   0.816  0.00  0.00    +0.172 C 
BRANCH  11  13
ATOM     12  OXT UNL     1       3.738   3.008  -0.799  0.00  0.00    -0.248 OA
ATOM     13  C   UNL     1       4.589   2.737   0.038  0.00  0.00    +0.332 C 
BRANCH  13  14
ATOM     14  O   UNL     1       5.566   3.608   0.404  0.00  0.00    -0.479 OA
ATOM     15  H   UNL     1       6.197   3.359   1.050  0.00  0.00    +0.295 HD
ENDBRANCH  13  14
ENDBRANCH  11  13
BRANCH  11  16
ATOM     16  CB  UNL     1       5.955   0.646   0.568  0.00  0.00    +0.043 C 
BRANCH  16  17
ATOM     17  CG  UNL     1       6.200   0.205  -0.881  0.00  0.00    +0.112 C 
BRANCH  17  19
ATOM     18  OE2 UNL     1       8.268  -0.879  -0.184  0.00  0.00    -0.250 OA
ATOM     19  CD  UNL     1       7.477  -0.585  -1.070  0.00  0.00    +0.314 C 
BRANCH  19  20
ATOM     20  OE1 UNL     1       7.678  -0.907  -2.375  0.00  0.00    -0.480 OA
ATOM     21  HE1 UNL     1       7.045  -0.661  -3.021  0.00  0.00    +0.295 HD
ENDBRANCH  19  20
ENDBRANCH  17  19
ENDBRANCH  16  17
ENDBRANCH  11  16
ENDBRANCH   8  11
ENDBRANCH   2   9
BRANCH   1  22
ATOM     22  N   UNL     1      -1.737  -2.953  -0.348  0.00  0.00    -0.300 N 
ATOM     23  C   UNL     1      -2.124  -4.202   0.278  0.00  0.00    +0.113 C 
BRANCH  22  24
ATOM     24  C   UNL     1      -2.541  -2.430  -1.435  0.00  0.00    +0.148 C 
BRANCH  24  31
ATOM     25  O   UNL     1      -3.242   2.522  -1.247  0.00  0.00    -0.266 OA
ATOM     26  N   UNL     1      -3.416  -0.185  -1.057  0.00  0.00    -0.391 NA
ATOM     27  N   UNL     1      -5.711  -1.228   0.187  0.00  0.00    -0.200 NA
ATOM     28  N   UNL     1      -5.285   2.781  -0.182  0.00  0.00    -0.241 N 
ATOM     29  N   UNL     1      -6.548   0.930   0.550  0.00  0.00    -0.318 NA
ATOM     30  N   UNL     1      -7.339   3.113   0.887  0.00  0.00    -0.320 N 
ATOM     31  C   UNL     1      -3.607  -1.510  -0.908  0.00  0.00    +0.133 C 
ATOM     32  C   UNL     1      -4.732  -2.022  -0.299  0.00  0.00    +0.193 C 
ATOM     33  C   UNL     1      -4.399   0.596  -0.569  0.00  0.00    +0.257 C 
ATOM     34  C   UNL     1      -5.534   0.102   0.046  0.00  0.00    +0.121 C 
ATOM     35  C   UNL     1      -4.234   2.047  -0.708  0.00  0.00    +0.293 C 
ATOM     36  C   UNL     1      -6.405   2.222   0.428  0.00  0.00    +0.248 C 
ATOM     37  H   UNL     1      -5.236   3.762  -0.244  0.00  0.00    +0.159 HD
ATOM     38  H   UNL     1      -7.193   4.080   0.775  0.00  0.00    +0.146 HD
ATOM     39  H   UNL     1      -8.156   2.786   1.329  0.00  0.00    +0.146 HD
ENDBRANCH  24  31
ENDBRANCH  22  24
ENDBRANCH   1  22
TORSDOF 11
