135400203
  -OEChem-03292013293D

 59 61  0     1  0  0  0  0  0999 V2000
    3.3369   -2.8061   -1.1199 O   0  0  0  0  0  0  0  0  0  0  0  0
    6.4028   -0.3112    2.0081 O   0  0  0  0  0  0  0  0  0  0  0  0
    4.2655   -0.2092    2.7643 O   0  0  0  0  0  0  0  0  0  0  0  0
   -2.2080    2.8135    2.7482 O   0  0  0  0  0  0  0  0  0  0  0  0
    4.3818    3.8253   -1.3637 O   0  0  0  0  0  0  0  0  0  0  0  0
    5.6566    2.3268   -2.4934 O   0  0  0  0  0  0  0  0  0  0  0  0
   -2.9355   -2.6206   -0.0449 N   0  0  3  0  0  0  0  0  0  0  0  0
    3.2603   -1.0807    0.4273 N   0  0  0  0  0  0  0  0  0  0  0  0
   -2.4836    4.3071    1.0098 N   0  0  0  0  0  0  0  0  0  0  0  0
   -3.3026    3.6422   -1.1050 N   0  0  0  0  0  0  0  0  0  0  0  0
   -3.7321   -1.7298    0.7709 C   0  0  0  0  0  0  0  0  0  0  0  0
   -3.6155   -0.3215    0.2937 C   0  0  0  0  0  0  0  0  0  0  0  0
    4.6786   -0.8025    0.4385 C   0  0  1  0  0  0  0  0  0  0  0  0
   -1.5440   -2.4860   -0.1240 C   0  0  0  0  0  0  0  0  0  0  0  0
    5.0898    0.2207   -0.6271 C   0  0  0  0  0  0  0  0  0  0  0  0
   -3.1430    0.6683    1.1541 C   0  0  0  0  0  0  0  0  0  0  0  0
   -3.0366    1.9848    0.6968 C   0  0  0  0  0  0  0  0  0  0  0  0
   -3.6158   -3.6808   -0.7877 C   0  0  0  0  0  0  0  0  0  0  0  0
    1.2284   -2.2179   -0.2794 C   0  0  0  0  0  0  0  0  0  0  0  0
   -3.9784    0.0030   -1.0128 C   0  0  0  0  0  0  0  0  0  0  0  0
    4.4782    1.6199   -0.4818 C   0  0  0  0  0  0  0  0  0  0  0  0
   -3.3982    2.3261   -0.6152 C   0  0  0  0  0  0  0  0  0  0  0  0
   -0.8313   -1.9715    0.9590 C   0  0  0  0  0  0  0  0  0  0  0  0
   -0.8706   -2.8665   -1.2849 C   0  0  0  0  0  0  0  0  0  0  0  0
    2.6734   -2.0773   -0.3612 C   0  0  0  0  0  0  0  0  0  0  0  0
   -3.8702    1.3197   -1.4645 C   0  0  0  0  0  0  0  0  0  0  0  0
    0.5549   -1.8376    0.8814 C   0  0  0  0  0  0  0  0  0  0  0  0
    0.5157   -2.7326   -1.3624 C   0  0  0  0  0  0  0  0  0  0  0  0
    5.0562   -0.4013    1.8497 C   0  0  0  0  0  0  0  0  0  0  0  0
   -2.5375    3.0511    1.5921 C   0  0  0  0  0  0  0  0  0  0  0  0
   -2.8615    4.5512   -0.2943 C   0  0  0  0  0  0  0  0  0  0  0  0
    4.9055    2.5877   -1.5640 C   0  0  0  0  0  0  0  0  0  0  0  0
   -3.1041   -4.9965   -0.3964 C   0  0  0  0  0  0  0  0  0  0  0  0
   -2.7283    5.9788   -0.7328 C   0  0  0  0  0  0  0  0  0  0  0  0
   -2.6878   -6.0768   -0.0784 C   0  0  0  0  0  0  0  0  0  0  0  0
   -3.4682   -1.8304    1.8307 H   0  0  0  0  0  0  0  0  0  0  0  0
   -4.7962   -1.9996    0.7351 H   0  0  0  0  0  0  0  0  0  0  0  0
    5.1950   -1.7487    0.2330 H   0  0  0  0  0  0  0  0  0  0  0  0
    6.1832    0.3192   -0.6246 H   0  0  0  0  0  0  0  0  0  0  0  0
    4.8257   -0.1735   -1.6174 H   0  0  0  0  0  0  0  0  0  0  0  0
   -2.8633    0.4146    2.1732 H   0  0  0  0  0  0  0  0  0  0  0  0
   -4.6946   -3.6608   -0.5907 H   0  0  0  0  0  0  0  0  0  0  0  0
   -3.5219   -3.5218   -1.8678 H   0  0  0  0  0  0  0  0  0  0  0  0
    2.6715   -0.4572    0.9699 H   0  0  0  0  0  0  0  0  0  0  0  0
   -4.3543   -0.7574   -1.6924 H   0  0  0  0  0  0  0  0  0  0  0  0
    4.7733    2.0500    0.4817 H   0  0  0  0  0  0  0  0  0  0  0  0
    3.3854    1.5501   -0.5160 H   0  0  0  0  0  0  0  0  0  0  0  0
   -1.3096   -1.6957    1.8932 H   0  0  0  0  0  0  0  0  0  0  0  0
   -1.3868   -3.2505   -2.1591 H   0  0  0  0  0  0  0  0  0  0  0  0
   -4.1588    1.5559   -2.4860 H   0  0  0  0  0  0  0  0  0  0  0  0
    1.0747   -1.4673    1.7602 H   0  0  0  0  0  0  0  0  0  0  0  0
    1.0209   -3.0260   -2.2790 H   0  0  0  0  0  0  0  0  0  0  0  0
   -2.1475    5.0745    1.5847 H   0  0  0  0  0  0  0  0  0  0  0  0
   -3.7105    6.3511   -1.0389 H   0  0  0  0  0  0  0  0  0  0  0  0
   -2.0576    6.0263   -1.5958 H   0  0  0  0  0  0  0  0  0  0  0  0
   -2.3353    6.6204    0.0598 H   0  0  0  0  0  0  0  0  0  0  0  0
    6.6470   -0.0669    2.9262 H   0  0  0  0  0  0  0  0  0  0  0  0
    4.6710    4.4604   -2.0532 H   0  0  0  0  0  0  0  0  0  0  0  0
   -2.3178   -7.0346    0.2038 H   0  0  0  0  0  0  0  0  0  0  0  0
  1 25  2  0  0  0  0
  2 29  1  0  0  0  0
  2 57  1  0  0  0  0
  3 29  2  0  0  0  0
  4 30  2  0  0  0  0
  5 32  1  0  0  0  0
  5 58  1  0  0  0  0
  6 32  2  0  0  0  0
  7 11  1  0  0  0  0
  7 14  1  0  0  0  0
  7 18  1  0  0  0  0
  8 13  1  0  0  0  0
  8 25  1  0  0  0  0
  8 44  1  0  0  0  0
  9 30  1  0  0  0  0
  9 31  1  0  0  0  0
  9 53  1  0  0  0  0
 10 22  1  0  0  0  0
 10 31  2  0  0  0  0
 11 12  1  0  0  0  0
 11 36  1  0  0  0  0
 11 37  1  0  0  0  0
 12 16  2  0  0  0  0
 12 20  1  0  0  0  0
 13 15  1  0  0  0  0
 13 29  1  0  0  0  0
 13 38  1  0  0  0  0
 14 23  2  0  0  0  0
 14 24  1  0  0  0  0
 15 21  1  0  0  0  0
 15 39  1  0  0  0  0
 15 40  1  0  0  0  0
 16 17  1  0  0  0  0
 16 41  1  0  0  0  0
 17 22  2  0  0  0  0
 17 30  1  0  0  0  0
 18 33  1  0  0  0  0
 18 42  1  0  0  0  0
 18 43  1  0  0  0  0
 19 25  1  0  0  0  0
 19 27  2  0  0  0  0
 19 28  1  0  0  0  0
 20 26  2  0  0  0  0
 20 45  1  0  0  0  0
 21 32  1  0  0  0  0
 21 46  1  0  0  0  0
 21 47  1  0  0  0  0
 22 26  1  0  0  0  0
 23 27  1  0  0  0  0
 23 48  1  0  0  0  0
 24 28  2  0  0  0  0
 24 49  1  0  0  0  0
 26 50  1  0  0  0  0
 27 51  1  0  0  0  0
 28 52  1  0  0  0  0
 31 34  1  0  0  0  0
 33 35  3  0  0  0  0
 34 54  1  0  0  0  0
 34 55  1  0  0  0  0
 34 56  1  0  0  0  0
 35 59  1  0  0  0  0
M  END
> <PUBCHEM_COMPOUND_CID>
135400203

> <PUBCHEM_CONFORMER_RMSD>
1.2

> <PUBCHEM_CONFORMER_DIVERSEORDER>
1
60
64
40
97
33
80
88
103
17
61
95
55
18
115
75
94
52
74
85
46
78
5
13
110
62
77
54
36
66
111
9
81
23
102
38
30
83
24
31
116
69
12
14
65
112
76
87
107
27
48
92
59
109
79
56
45
4
26
49
37
63
104
57
105
86
98
84
114
39
7
71
108
19
42
100
10
53
15
41
22
99
82
32
51
91
68
28
96
117
58
90
25
29
113
118
70
21
34
47
89
20
72
11
106
73
16
2
67
8
101
6
44
3
50
35
93
43

> <PUBCHEM_MMFF94_PARTIAL_CHARGES>
46
1 -0.57
10 -0.63
11 0.51
12 -0.14
13 0.36
14 0.1
16 -0.15
17 0.09
18 0.57
19 0.09
2 -0.65
20 -0.15
21 0.06
22 0.18
23 -0.15
24 -0.15
25 0.54
26 -0.15
27 -0.15
28 -0.15
29 0.66
3 -0.57
30 0.54
31 0.45
32 0.66
33 -0.2
34 0.06
35 -0.18
4 -0.57
41 0.15
44 0.37
45 0.15
48 0.15
49 0.15
5 -0.65
50 0.15
51 0.15
52 0.15
53 0.37
57 0.5
58 0.5
59 0.18
6 -0.57
7 -0.84
8 -0.73
9 -0.49

> <PUBCHEM_EFFECTIVE_ROTOR_COUNT>
11

> <PUBCHEM_PHARMACOPHORE_FEATURES>
15
1 1 acceptor
1 2 acceptor
1 3 acceptor
1 35 hydrophobe
1 4 acceptor
1 5 acceptor
1 6 acceptor
1 7 cation
1 8 donor
1 9 donor
3 2 3 29 anion
3 5 6 32 anion
6 12 16 17 20 22 26 rings
6 14 19 23 24 27 28 rings
6 9 10 17 22 30 31 rings

> <PUBCHEM_HEAVY_ATOM_COUNT>
35

> <PUBCHEM_ATOM_DEF_STEREO_COUNT>
1

> <PUBCHEM_ATOM_UDEF_STEREO_COUNT>
0

> <PUBCHEM_BOND_DEF_STEREO_COUNT>
0

> <PUBCHEM_BOND_UDEF_STEREO_COUNT>
0

> <PUBCHEM_ISOTOPIC_ATOM_COUNT>
0

> <PUBCHEM_COMPONENT_COUNT>
1

> <PUBCHEM_CACTVS_TAUTO_COUNT>
-1

> <PUBCHEM_CONFORMER_ID>
08120B0B00000001

> <PUBCHEM_MMFF94_ENERGY>
100.7576

> <PUBCHEM_FEATURE_SELFOVERLAP>
76.27

> <PUBCHEM_SHAPE_FINGERPRINT>
10439779 11 18265597798589627888
10670039 82 18198071472437298174
10937287 8 17980191994621096427
11059845 2 18050256221581477426
12107183 9 17973987476429153882
12788726 201 18193275415280470706
12978246 48 18410014299600580432
13627167 48 18192175852345300436
14251764 38 18336270041935375940
14394314 77 18121512507702231741
14784336 7 17472143250560574982
14950920 106 17312822675955705850
15001296 14 18267025140586638600
15320291 9 18334859398793707588
16067690 210 18189054359992031794
16708801 149 18265322928919521724
16988056 13 16320610944720021119
18393751 57 18337687317383522987
20764821 26 18126841827207622680
21033648 144 18059571365089796162
21133410 221 17197084847626400784
22956985 138 17039780141708964907
376196 1 17759803642145818187
4173938 77 16973662641875409697
4561138 5 17678431225403364499
508706 21 18271799099540388642
550186 7 18201726170988051438
550186 72 18194124246377108500
6036956 94 18261118486660269757
6371009 1 18337092493749589596
6608658 132 18195534915822539182
6700243 42 17769964546672696606
9981440 41 18193831536552493931

> <PUBCHEM_SHAPE_MULTIPOLES>
665.14
12.6
8.64
1.96
21.89
2.56
0.73
5.43
-0.31
-11.58
-2.27
2.01
1.24
-2.47

> <PUBCHEM_SHAPE_SELFOVERLAP>
1418.999

> <PUBCHEM_SHAPE_VOLUME>
365.7

> <PUBCHEM_COORDINATE_TYPE>
2
5
10

$$$$
