REMARK  Name = 135430345
REMARK  8 active torsions:
REMARK  status: ('A' for Active; 'I' for Inactive)
REMARK    1  A    between atoms: C_6  and  C_21
REMARK    2  A    between atoms: C_8  and  O_29
REMARK    3  A    between atoms: C_17  and  C_34
REMARK    4  A    between atoms: C_18  and  O_31
REMARK    5  A    between atoms: N_20  and  C_23
REMARK    6  A    between atoms: C_23  and  C_24
REMARK    7  A    between atoms: C_24  and  N_25
REMARK    8  A    between atoms: C_34  and  O_35
REMARK                            x       y       z     vdW  Elec       q    Type
REMARK                         _______ _______ _______ _____ _____    ______ ____
ROOT
ATOM      1  N   UNL     1      -0.799   2.416  -0.040  0.00  0.00    -0.397 NA
ATOM      2  N   UNL     1       0.004  -0.203  -0.164  0.00  0.00    -0.396 NA
ATOM      3  C   UNL     1      -1.727   1.437  -0.040  0.00  0.00    +0.161 A 
ATOM      4  C   UNL     1      -1.301   0.105  -0.104  0.00  0.00    +0.168 A 
ATOM      5  C   UNL     1      -3.109   1.724   0.021  0.00  0.00    +0.035 A 
ATOM      6  C   UNL     1      -2.241  -0.916  -0.105  0.00  0.00    +0.119 A 
ATOM      7  C   UNL     1      -4.056   0.671   0.019  0.00  0.00    +0.036 A 
ATOM      8  C   UNL     1      -3.605  -0.646  -0.045  0.00  0.00    +0.141 A 
ATOM      9  C   UNL     1       0.915   0.780  -0.163  0.00  0.00    +0.161 C 
ATOM     10  C   UNL     1       0.507   2.113  -0.100  0.00  0.00    +0.164 C 
ATOM     11  C   UNL     1      -3.598   3.046   0.087  0.00  0.00    +0.003 C 
ATOM     12  C   UNL     1      -5.430   0.957   0.080  0.00  0.00    +0.003 C 
ATOM     13  C   UNL     1       2.276   0.487  -0.225  0.00  0.00    +0.044 C 
ATOM     14  C   UNL     1       1.469   3.121  -0.100  0.00  0.00    +0.072 C 
ATOM     15  C   UNL     1      -4.967   3.317   0.148  0.00  0.00    +0.000 C 
ATOM     16  C   UNL     1      -5.882   2.273   0.144  0.00  0.00    +0.000 C 
ATOM     17  C   UNL     1       3.235   1.499  -0.225  0.00  0.00    +0.112 C 
ATOM     18  C   UNL     1       2.829   2.823  -0.162  0.00  0.00    +0.148 C 
ENDROOT
BRANCH   6  21
ATOM     19  O   UNL     1      -2.137  -3.027  -1.122  0.00  0.00    -0.270 OA
ATOM     20  N   UNL     1      -0.975  -2.753   0.866  0.00  0.00    -0.303 N 
ATOM     21  C   UNL     1      -1.798  -2.308  -0.170  0.00  0.00    +0.251 C 
ATOM     22  H   UNL     1      -0.750  -2.123   1.588  0.00  0.00    +0.150 HD
BRANCH  20  23
ATOM     23  C   UNL     1      -0.437  -4.093   0.932  0.00  0.00    +0.067 C 
BRANCH  23  24
ATOM     24  C   UNL     1       0.911  -4.181   0.231  0.00  0.00    -0.056 C 
BRANCH  24  25
ATOM     25  N   UNL     1       1.448  -5.531   0.333  0.00  0.00    +0.385 N 
ATOM     26  C   UNL     1       0.811  -6.416  -0.644  0.00  0.00    -0.101 C 
ATOM     27  C   UNL     1       2.900  -5.525   0.141  0.00  0.00    -0.101 C 
ATOM     28  H   UNL     1       1.247  -5.883   1.269  0.00  0.00    -0.080 HD
ENDBRANCH  24  25
ENDBRANCH  23  24
ENDBRANCH  20  23
ENDBRANCH   6  21
BRANCH   8  29
ATOM     29  O   UNL     1      -4.489  -1.689  -0.049  0.00  0.00    -0.505 OA
ATOM     30  H   UNL     1      -4.174  -2.571  -0.092  0.00  0.00    +0.292 HD
ENDBRANCH   8  29
BRANCH  18  31
ATOM     31  O   UNL     1       3.736   3.839  -0.160  0.00  0.00    -0.471 OA
ATOM     32  C   UNL     1       4.214   4.277   1.111  0.00  0.00    +0.252 C 
ENDBRANCH  18  31
BRANCH  17  34
ATOM     33  O   UNL     1       5.520   1.851  -0.807  0.00  0.00    -0.245 OA
ATOM     34  C   UNL     1       4.646   1.145  -0.288  0.00  0.00    +0.344 C 
BRANCH  34  35
ATOM     35  O   UNL     1       4.887  -0.066   0.299  0.00  0.00    -0.441 OA
ATOM     36  C   UNL     1       6.243  -0.525   0.301  0.00  0.00    +0.256 C 
ENDBRANCH  34  35
ENDBRANCH  17  34
TORSDOF 8
