REMARK  Name = 135412761
REMARK  5 active torsions:
REMARK  status: ('A' for Active; 'I' for Inactive)
REMARK    1  A    between atoms: N_2  and  C_17
REMARK    2  A    between atoms: C_16  and  C_20
REMARK    3  A    between atoms: C_18  and  C_23
REMARK    4  A    between atoms: C_20  and  O_21
REMARK    5  A    between atoms: C_23  and  O_24
REMARK                            x       y       z     vdW  Elec       q    Type
REMARK                         _______ _______ _______ _____ _____    ______ ____
ROOT
ATOM      1  O   UNL     1      -4.581   1.520  -0.562  0.00  0.00    -0.268 OA
ATOM      2  N   UNL     1      -0.207   0.638   0.145  0.00  0.00    -0.260 N 
ATOM      3  N   UNL     1      -1.694   2.206  -0.430  0.00  0.00    -0.240 NA
ATOM      4  N   UNL     1      -1.671  -1.258   0.488  0.00  0.00    -0.357 NA
ATOM      5  N   UNL     1      -3.948  -0.634   0.076  0.00  0.00    -0.243 N 
ATOM      6  N   UNL     1      -3.400  -2.833   0.717  0.00  0.00    -0.321 N 
ATOM      7  C   UNL     1      -1.429   0.033   0.173  0.00  0.00    +0.210 C 
ATOM      8  C   UNL     1      -0.418   1.945  -0.223  0.00  0.00    +0.222 C 
ATOM      9  C   UNL     1      -2.317   1.019  -0.184  0.00  0.00    +0.176 C 
ATOM     10  C   UNL     1      -3.718   0.709  -0.254  0.00  0.00    +0.273 C 
ATOM     11  C   UNL     1      -2.948  -1.571   0.432  0.00  0.00    +0.239 C 
ATOM     12  H   UNL     1      -4.879  -0.952   0.059  0.00  0.00    +0.159 HD
ATOM     13  H   UNL     1      -2.762  -3.538   0.972  0.00  0.00    +0.146 HD
ATOM     14  H   UNL     1      -4.362  -3.035   0.665  0.00  0.00    +0.146 HD
ENDROOT
BRANCH   2  17
ATOM     15  O   UNL     1       3.278   0.428   1.405  0.00  0.00    -0.352 OA
ATOM     16  C   UNL     1       2.172   0.079  -0.660  0.00  0.00    +0.080 C 
ATOM     17  C   UNL     1       1.130   0.010   0.456  0.00  0.00    +0.111 C 
ATOM     18  C   UNL     1       3.453  -0.202   0.124  0.00  0.00    +0.148 C 
ATOM     19  C   UNL     1       1.877   0.666   1.614  0.00  0.00    +0.162 C 
BRANCH  16  20
ATOM     20  C   UNL     1       1.927  -0.905  -1.795  0.00  0.00    +0.141 C 
BRANCH  20  21
ATOM     21  O   UNL     1       1.960  -2.221  -1.271  0.00  0.00    -0.382 OA
ATOM     22  H   UNL     1       1.805  -2.858  -1.987  0.00  0.00    +0.210 HD
ENDBRANCH  20  21
ENDBRANCH  16  20
BRANCH  18  23
ATOM     23  C   UNL     1       4.709   0.341  -0.534  0.00  0.00    +0.167 C 
BRANCH  23  24
ATOM     24  O   UNL     1       5.825   0.030   0.285  0.00  0.00    -0.379 OA
ATOM     25  H   UNL     1       6.633   0.374  -0.127  0.00  0.00    +0.211 HD
ENDBRANCH  23  24
ENDBRANCH  18  23
ENDBRANCH   2  17
TORSDOF 5
