REMARK  Name = 135437474
REMARK  5 active torsions:
REMARK  status: ('A' for Active; 'I' for Inactive)
REMARK    1  A    between atoms: C_2  and  C_21
REMARK    2  A    between atoms: C_3  and  O_17
REMARK    3  A    between atoms: C_4  and  O_19
REMARK    4  A    between atoms: C_5  and  N_7
REMARK    5  A    between atoms: C_21  and  O_23
REMARK                            x       y       z     vdW  Elec       q    Type
REMARK                         _______ _______ _______ _____ _____    ______ ____
ROOT
ATOM      1  O   UNL     1       1.477  -0.282   1.125  0.00  0.00    -0.333 OA
ATOM      2  C   UNL     1       2.620  -0.011   0.297  0.00  0.00    +0.173 C 
ATOM      3  C   UNL     1       2.282  -0.585  -1.072  0.00  0.00    +0.171 C 
ATOM      4  C   UNL     1       1.467  -1.813  -0.717  0.00  0.00    +0.187 C 
ATOM      5  C   UNL     1       0.794  -1.443   0.611  0.00  0.00    +0.225 C 
ENDROOT
BRANCH   5   7
ATOM      6  O   UNL     1      -4.788   0.617  -0.189  0.00  0.00    -0.268 OA
ATOM      7  N   UNL     1      -0.689  -1.179   0.464  0.00  0.00    -0.247 N 
ATOM      8  N   UNL     1      -2.889  -1.582   0.436  0.00  0.00    -0.241 NA
ATOM      9  N   UNL     1      -0.664   1.179  -0.094  0.00  0.00    -0.232 NA
ATOM     10  N   UNL     1      -2.908   1.984  -0.410  0.00  0.00    -0.279 N 
ATOM     11  C   UNL     1      -1.288   0.004   0.150  0.00  0.00    +0.154 C 
ATOM     12  C   UNL     1      -1.692  -2.103   0.626  0.00  0.00    +0.223 C 
ATOM     13  C   UNL     1      -2.636  -0.275   0.141  0.00  0.00    +0.162 C 
ATOM     14  C   UNL     1      -3.574   0.776  -0.161  0.00  0.00    +0.267 C 
ATOM     15  C   UNL     1      -1.516   2.125  -0.366  0.00  0.00    +0.220 C 
ATOM     16  H   UNL     1      -3.450   2.777  -0.629  0.00  0.00    +0.152 HD
ENDBRANCH   5   7
BRANCH   3  17
ATOM     17  O   UNL     1       1.476   0.324  -1.810  0.00  0.00    -0.379 OA
ATOM     18  H   UNL     1       1.998   1.110  -2.037  0.00  0.00    +0.211 HD
ENDBRANCH   3  17
BRANCH   4  19
ATOM     19  O   UNL     1       2.330  -2.931  -0.520  0.00  0.00    -0.378 OA
ATOM     20  H   UNL     1       2.755  -3.165  -1.360  0.00  0.00    +0.211 HD
ENDBRANCH   4  19
BRANCH   2  21
ATOM     21  C   UNL     1       2.918   1.477   0.326  0.00  0.00    +0.140 C 
ATOM     22  C   UNL     1       3.282   1.959   1.724  0.00  0.00    +0.034 C 
BRANCH  21  23
ATOM     23  O   UNL     1       3.998   1.760  -0.560  0.00  0.00    -0.382 OA
ATOM     24  H   UNL     1       3.772   1.454  -1.453  0.00  0.00    +0.210 HD
ENDBRANCH  21  23
ENDBRANCH   2  21
TORSDOF 5
