REMARK  Name = 135449337
REMARK  8 active torsions:
REMARK  status: ('A' for Active; 'I' for Inactive)
REMARK    1  A    between atoms: C_2  and  O_17
REMARK    2  A    between atoms: C_3  and  O_19
REMARK    3  A    between atoms: C_4  and  N_7
REMARK    4  A    between atoms: C_5  and  C_21
REMARK    5  A    between atoms: C_21  and  O_22
REMARK    6  A    between atoms: O_22  and  P_23
REMARK    7  A    between atoms: P_23  and  O_25
REMARK    8  A    between atoms: P_23  and  O_27
REMARK                            x       y       z     vdW  Elec       q    Type
REMARK                         _______ _______ _______ _____ _____    ______ ____
ROOT
ATOM      1  O   UNL     1      -0.750  -1.150  -1.041  0.00  0.00    -0.333 OA
ATOM      2  C   UNL     1      -0.183  -2.539   0.794  0.00  0.00    +0.187 C 
ATOM      3  C   UNL     1      -1.653  -2.743   0.493  0.00  0.00    +0.171 C 
ATOM      4  C   UNL     1       0.327  -1.951  -0.521  0.00  0.00    +0.225 C 
ATOM      5  C   UNL     1      -1.989  -1.586  -0.448  0.00  0.00    +0.176 C 
ENDROOT
BRANCH   4   7
ATOM      6  O   UNL     1       4.835   1.955   0.124  0.00  0.00    -0.268 OA
ATOM      7  N   UNL     1       1.621  -1.182  -0.410  0.00  0.00    -0.247 N 
ATOM      8  N   UNL     1       3.823  -0.786  -0.419  0.00  0.00    -0.241 NA
ATOM      9  N   UNL     1       0.775   1.031   0.103  0.00  0.00    -0.232 NA
ATOM     10  N   UNL     1       2.598   2.580   0.358  0.00  0.00    -0.279 N 
ATOM     11  C   UNL     1       1.770   0.144  -0.131  0.00  0.00    +0.154 C 
ATOM     12  C   UNL     1       2.884  -1.698  -0.575  0.00  0.00    +0.223 C 
ATOM     13  C   UNL     1       3.130   0.356  -0.144  0.00  0.00    +0.162 C 
ATOM     14  C   UNL     1       3.642   1.677   0.119  0.00  0.00    +0.267 C 
ATOM     15  C   UNL     1       1.245   2.222   0.339  0.00  0.00    +0.220 C 
ATOM     16  H   UNL     1       2.828   3.518   0.550  0.00  0.00    +0.152 HD
ENDBRANCH   4   7
BRANCH   2  17
ATOM     17  O   UNL     1      -0.046  -1.603   1.857  0.00  0.00    -0.378 OA
ATOM     18  H   UNL     1      -0.375  -1.997   2.680  0.00  0.00    +0.211 HD
ENDBRANCH   2  17
BRANCH   3  19
ATOM     19  O   UNL     1      -1.800  -3.978  -0.206  0.00  0.00    -0.379 OA
ATOM     20  H   UNL     1      -1.587  -4.713   0.389  0.00  0.00    +0.211 HD
ENDBRANCH   3  19
BRANCH   5  21
ATOM     21  C   UNL     1      -2.611  -0.392   0.262  0.00  0.00    +0.186 C 
BRANCH  21  22
ATOM     22  O   UNL     1      -2.871   0.620  -0.694  0.00  0.00    -0.271 OA
BRANCH  22  23
ATOM     23  P   UNL     1      -3.538   2.006  -0.189  0.00  0.00    +0.473 P 
ATOM     24  O   UNL     1      -3.779   3.023  -1.266  0.00  0.00    -0.227 OA
BRANCH  23  25
ATOM     25  O   UNL     1      -4.865   1.507   0.588  0.00  0.00    -0.303 OA
ATOM     26  H   UNL     1      -4.619   0.855   1.263  0.00  0.00    +0.222 HD
ENDBRANCH  23  25
BRANCH  23  27
ATOM     27  O   UNL     1      -2.564   2.487   1.009  0.00  0.00    -0.303 OA
ATOM     28  H   UNL     1      -2.468   1.769   1.654  0.00  0.00    +0.222 HD
ENDBRANCH  23  27
ENDBRANCH  22  23
ENDBRANCH  21  22
ENDBRANCH   5  21
TORSDOF 8
