REMARK  Name = 135426515
REMARK  5 active torsions:
REMARK  status: ('A' for Active; 'I' for Inactive)
REMARK    1  A    between atoms: C_11  and  O_19
REMARK    2  A    between atoms: C_12  and  O_21
REMARK    3  A    between atoms: C_13  and  O_23
REMARK    4  A    between atoms: C_17  and  O_25
REMARK    5  A    between atoms: C_18  and  O_27
REMARK                            x       y       z     vdW  Elec       q    Type
REMARK                         _______ _______ _______ _____ _____    ______ ____
ROOT
ATOM      1  O   UNL     1       0.721  -2.325  -0.001  0.00  0.00    -0.420 OA
ATOM      2  O   UNL     1      -0.392   2.515   0.000  0.00  0.00    -0.420 OA
ATOM      3  O   UNL     1      -3.154   2.573   0.000  0.00  0.00    -0.280 OA
ATOM      4  O   UNL     1       3.494  -2.362   0.003  0.00  0.00    -0.280 OA
ATOM      5  C   UNL     1      -0.568   0.115  -0.001  0.00  0.00    +0.050 A 
ATOM      6  C   UNL     1       0.881   0.067  -0.001  0.00  0.00    +0.048 A 
ATOM      7  C   UNL     1      -1.373  -1.109  -0.001  0.00  0.00    +0.112 A 
ATOM      8  C   UNL     1       1.681   1.284  -0.001  0.00  0.00    +0.078 A 
ATOM      9  C   UNL     1      -1.133   1.336   0.000  0.00  0.00    +0.191 A 
ATOM     10  C   UNL     1       1.456  -1.147  -0.001  0.00  0.00    +0.191 A 
ATOM     11  C   UNL     1      -2.831  -0.987   0.000  0.00  0.00    +0.177 A 
ATOM     12  C   UNL     1      -0.677  -2.276  -0.001  0.00  0.00    +0.296 A 
ATOM     13  C   UNL     1       1.006   2.456   0.000  0.00  0.00    +0.293 A 
ATOM     14  C   UNL     1      -2.616   1.470   0.000  0.00  0.00    +0.266 A 
ATOM     15  C   UNL     1       3.130   1.191   0.000  0.00  0.00    +0.046 C 
ATOM     16  C   UNL     1       2.944  -1.265   0.001  0.00  0.00    +0.263 C 
ATOM     17  C   UNL     1      -3.428   0.217   0.001  0.00  0.00    +0.211 A 
ATOM     18  C   UNL     1       3.744  -0.001   0.000  0.00  0.00    +0.176 C 
ENDROOT
BRANCH  11  19
ATOM     19  O   UNL     1      -3.559  -2.159   0.001  0.00  0.00    -0.503 OA
ATOM     20  H   UNL     1      -3.118  -2.985   0.001  0.00  0.00    +0.292 HD
ENDBRANCH  11  19
BRANCH  12  21
ATOM     21  O   UNL     1      -1.314  -3.500  -0.001  0.00  0.00    -0.479 OA
ATOM     22  H   UNL     1      -0.810  -4.290  -0.001  0.00  0.00    +0.295 HD
ENDBRANCH  12  21
BRANCH  13  23
ATOM     23  O   UNL     1       1.673   3.664   0.000  0.00  0.00    -0.480 OA
ATOM     24  H   UNL     1       1.189   4.467   0.001  0.00  0.00    +0.295 HD
ENDBRANCH  13  23
BRANCH  17  25
ATOM     25  O   UNL     1      -4.803   0.336   0.002  0.00  0.00    -0.501 OA
ATOM     26  H   UNL     1      -5.339  -0.433   0.002  0.00  0.00    +0.292 HD
ENDBRANCH  17  25
BRANCH  18  27
ATOM     27  O   UNL     1       5.119  -0.095   0.001  0.00  0.00    -0.503 OA
ATOM     28  H   UNL     1       5.642   0.683   0.000  0.00  0.00    +0.292 HD
ENDBRANCH  18  27
TORSDOF 5
