REMARK  Name = 135435181
REMARK  5 active torsions:
REMARK  status: ('A' for Active; 'I' for Inactive)
REMARK    1  A    between atoms: N_3  and  C_28
REMARK    2  A    between atoms: C_7  and  C_18
REMARK    3  A    between atoms: C_8  and  O_26
REMARK    4  A    between atoms: C_28  and  C_29
REMARK    5  A    between atoms: C_29  and  C_30
REMARK                            x       y       z     vdW  Elec       q    Type
REMARK                         _______ _______ _______ _____ _____    ______ ____
ROOT
ATOM      1  F   UNL     1       5.269  -3.208  -1.369  0.00  0.00    -0.204 F 
ATOM      2  O   UNL     1       0.061   1.563   1.556  0.00  0.00    -0.267 OA
ATOM      3  N   UNL     1       2.175   0.738   1.079  0.00  0.00    -0.295 N 
ATOM      4  C   UNL     1       2.977  -0.266   0.457  0.00  0.00    +0.065 A 
ATOM      5  C   UNL     1       0.781   0.712   1.030  0.00  0.00    +0.267 A 
ATOM      6  C   UNL     1       2.349  -1.319  -0.228  0.00  0.00    +0.052 A 
ATOM      7  C   UNL     1       0.129  -0.421   0.292  0.00  0.00    +0.123 A 
ATOM      8  C   UNL     1       0.878  -1.373  -0.295  0.00  0.00    +0.142 A 
ATOM      9  C   UNL     1       4.383  -0.229   0.511  0.00  0.00    +0.020 C 
ATOM     10  C   UNL     1       3.143  -2.308  -0.841  0.00  0.00    +0.034 C 
ATOM     11  C   UNL     1       5.155  -1.216  -0.102  0.00  0.00    +0.031 C 
ATOM     12  C   UNL     1       4.535  -2.256  -0.778  0.00  0.00    +0.140 C 
ENDROOT
BRANCH   7  18
ATOM     13  S   UNL     1      -3.511  -1.759   0.761  0.00  0.00    +0.103 S 
ATOM     14  O   UNL     1      -3.977  -1.722   2.136  0.00  0.00    -0.146 OA
ATOM     15  O   UNL     1      -3.837  -2.884  -0.097  0.00  0.00    -0.146 OA
ATOM     16  N   UNL     1      -2.012   0.589  -0.369  0.00  0.00    -0.295 N 
ATOM     17  N   UNL     1      -1.900  -1.534   0.745  0.00  0.00    -0.112 NA
ATOM     18  C   UNL     1      -1.345  -0.469   0.224  0.00  0.00    +0.161 C 
ATOM     19  C   UNL     1      -3.402   0.662  -0.493  0.00  0.00    +0.069 C 
ATOM     20  C   UNL     1      -4.232  -0.351  -0.017  0.00  0.00    +0.143 C 
ATOM     21  C   UNL     1      -4.006   1.768  -1.105  0.00  0.00    +0.016 C 
ATOM     22  C   UNL     1      -5.621  -0.291  -0.132  0.00  0.00    +0.022 C 
ATOM     23  C   UNL     1      -5.396   1.845  -1.229  0.00  0.00    +0.001 C 
ATOM     24  C   UNL     1      -6.202   0.816  -0.744  0.00  0.00    +0.001 C 
ATOM     25  H   UNL     1      -1.476   1.333  -0.726  0.00  0.00    +0.154 HD
ENDBRANCH   7  18
BRANCH   8  26
ATOM     26  O   UNL     1       0.386  -2.457  -0.991  0.00  0.00    -0.505 OA
ATOM     27  H   UNL     1       0.976  -3.078  -1.372  0.00  0.00    +0.292 HD
ENDBRANCH   8  26
BRANCH   3  28
ATOM     28  C   UNL     1       2.836   1.830   1.792  0.00  0.00    +0.109 C 
BRANCH  28  29
ATOM     29  C   UNL     1       3.385   2.890   0.845  0.00  0.00    +0.025 C 
BRANCH  29  30
ATOM     30  C   UNL     1       2.323   3.511  -0.012  0.00  0.00    +0.002 C 
ATOM     31  C   UNL     1       2.696   4.228  -1.280  0.00  0.00    +0.000 C 
ATOM     32  C   UNL     1       1.979   2.909  -1.346  0.00  0.00    +0.000 C 
ENDBRANCH  29  30
ENDBRANCH  28  29
ENDBRANCH   3  28
TORSDOF 5
