REMARK  Name = 135407624
REMARK  4 active torsions:
REMARK  status: ('A' for Active; 'I' for Inactive)
REMARK    1  A    between atoms: N_1  and  C_7
REMARK    2  A    between atoms: N_1  and  C_19
REMARK    3  A    between atoms: C_11  and  O_15
REMARK    4  A    between atoms: C_26  and  O_27
REMARK                            x       y       z     vdW  Elec       q    Type
REMARK                         _______ _______ _______ _____ _____    ______ ____
ROOT
ATOM      1  N   UNL     1       0.248  -0.395  -1.099  0.00  0.00    -0.326 N 
ATOM      2  H   UNL     1       0.636  -1.299  -1.129  0.00  0.00    +0.147 HD
ENDROOT
BRANCH   1   7
ATOM      3  N   UNL     1      -3.701   2.254  -0.145  0.00  0.00    -0.278 NA
ATOM      4  N   UNL     1      -3.946  -2.329   0.591  0.00  0.00    -0.245 NA
ATOM      5  C   UNL     1      -3.683  -0.136   0.178  0.00  0.00    +0.099 C 
ATOM      6  C   UNL     1      -4.875  -0.174   0.738  0.00  0.00    -0.013 C 
ATOM      7  C   UNL     1      -1.051  -0.254  -0.687  0.00  0.00    +0.063 C 
ATOM      8  C   UNL     1      -3.072   1.130  -0.185  0.00  0.00    +0.046 C 
ATOM      9  C   UNL     1      -3.056  -1.399   0.111  0.00  0.00    +0.102 C 
ATOM     10  C   UNL     1      -5.664   1.029   1.013  0.00  0.00    +0.051 C 
ATOM     11  C   UNL     1      -1.790  -1.480  -0.312  0.00  0.00    +0.157 C 
ATOM     12  C   UNL     1      -1.645   0.965  -0.613  0.00  0.00    +0.085 C 
ATOM     13  C   UNL     1      -5.160   2.216   0.158  0.00  0.00    +0.129 C 
ATOM     14  C   UNL     1      -4.981  -1.614   0.956  0.00  0.00    +0.091 C 
BRANCH  11  15
ATOM     15  O   UNL     1      -1.091  -2.665  -0.385  0.00  0.00    -0.503 OA
ATOM     16  H   UNL     1      -0.205  -2.668  -0.688  0.00  0.00    +0.292 HD
ENDBRANCH  11  15
ENDBRANCH   1   7
BRANCH   1  19
ATOM     17 BR   UNL     1       5.912   0.405   2.947  0.00  0.00    -0.046 Br
ATOM     18  S   UNL     1       2.489   0.131  -2.483  0.00  0.00    -0.094 S 
ATOM     19  C   UNL     1       1.078   0.723  -1.493  0.00  0.00    +0.126 C 
ATOM     20  C   UNL     1       1.669   1.413  -0.252  0.00  0.00    +0.058 C 
ATOM     21  C   UNL     1       3.004   0.776   0.019  0.00  0.00    -0.013 C 
ATOM     22  C   UNL     1       3.562   0.110  -1.075  0.00  0.00    +0.026 C 
ATOM     23  C   UNL     1       3.706   0.871   1.214  0.00  0.00    +0.006 C 
ATOM     24  C   UNL     1       4.816  -0.479  -0.995  0.00  0.00    +0.043 C 
ATOM     25  C   UNL     1       4.966   0.276   1.308  0.00  0.00    +0.068 C 
ATOM     26  C   UNL     1       5.518  -0.395   0.209  0.00  0.00    +0.140 C 
BRANCH  26  27
ATOM     27  O   UNL     1       6.748  -0.979   0.283  0.00  0.00    -0.505 OA
ATOM     28  H   UNL     1       7.102  -1.424  -0.463  0.00  0.00    +0.292 HD
ENDBRANCH  26  27
ENDBRANCH   1  19
TORSDOF 4
