REMARK  Name = 135433961
REMARK  7 active torsions:
REMARK  status: ('A' for Active; 'I' for Inactive)
REMARK    1  A    between atoms: C_1  and  C_6
REMARK    2  A    between atoms: C_1  and  N_17
REMARK    3  A    between atoms: N_17  and  C_18
REMARK    4  A    between atoms: N_17  and  C_28
REMARK    5  A    between atoms: C_23  and  C_25
REMARK    6  A    between atoms: C_25  and  O_26
REMARK    7  A    between atoms: C_28  and  C_29
REMARK                            x       y       z     vdW  Elec       q    Type
REMARK                         _______ _______ _______ _____ _____    ______ ____
ROOT
ATOM      1  C   UNL     1       0.314  -2.167   1.358  0.00  0.00    +0.118 C 
ENDROOT
BRANCH   1   6
ATOM      2  O   UNL     1      -3.250  -1.239  -2.294  0.00  0.00    -0.270 OA
ATOM      3  N   UNL     1      -4.168   1.315   0.761  0.00  0.00    -0.377 NA
ATOM      4  N   UNL     1      -4.569   0.419  -1.377  0.00  0.00    -0.244 N 
ATOM      5  N   UNL     1      -5.959   2.097  -0.534  0.00  0.00    -0.321 N 
ATOM      6  C   UNL     1      -0.860  -1.262   1.188  0.00  0.00    -0.006 C 
ATOM      7  C   UNL     1      -1.608  -1.305   0.013  0.00  0.00    +0.004 C 
ATOM      8  C   UNL     1      -2.707  -0.453  -0.135  0.00  0.00    +0.079 C 
ATOM      9  C   UNL     1      -1.209  -0.376   2.206  0.00  0.00    -0.021 C 
ATOM     10  C   UNL     1      -3.069   0.444   0.879  0.00  0.00    +0.121 C 
ATOM     11  C   UNL     1      -2.307   0.472   2.052  0.00  0.00    +0.085 C 
ATOM     12  C   UNL     1      -3.514  -0.478  -1.371  0.00  0.00    +0.254 C 
ATOM     13  C   UNL     1      -4.875   1.285  -0.334  0.00  0.00    +0.237 C 
ATOM     14  H   UNL     1      -5.143   0.445  -2.177  0.00  0.00    +0.159 HD
ATOM     15  H   UNL     1      -6.231   2.735   0.165  0.00  0.00    +0.146 HD
ATOM     16  H   UNL     1      -6.466   2.043  -1.376  0.00  0.00    +0.146 HD
ENDBRANCH   1   6
BRANCH   1  17
ATOM     17  N   UNL     1       1.292  -1.947   0.315  0.00  0.00    -0.292 N 
BRANCH  17  18
ATOM     18  C   UNL     1       1.933  -0.711   0.166  0.00  0.00    +0.049 C 
ATOM     19  C   UNL     1       2.149   0.102   1.279  0.00  0.00    +0.015 C 
ATOM     20  C   UNL     1       2.355  -0.293  -1.095  0.00  0.00    +0.015 C 
ATOM     21  C   UNL     1       2.787   1.333   1.130  0.00  0.00    +0.008 C 
ATOM     22  C   UNL     1       2.993   0.939  -1.244  0.00  0.00    +0.008 C 
ATOM     23  C   UNL     1       3.209   1.751  -0.132  0.00  0.00    +0.076 C 
BRANCH  23  25
ATOM     24  O   UNL     1       4.118   3.831   0.627  0.00  0.00    -0.245 OA
ATOM     25  C   UNL     1       3.876   3.035  -0.286  0.00  0.00    +0.338 C 
BRANCH  25  26
ATOM     26  O   UNL     1       4.222   3.289  -1.578  0.00  0.00    -0.477 OA
ATOM     27  H   UNL     1       4.024   2.665  -2.248  0.00  0.00    +0.295 HD
ENDBRANCH  25  26
ENDBRANCH  23  25
ENDBRANCH  17  18
BRANCH  17  28
ATOM     28  C   UNL     1       1.608  -3.053  -0.588  0.00  0.00    +0.170 C 
BRANCH  28  29
ATOM     29  C   UNL     1       3.035  -3.378  -0.527  0.00  0.00    -0.056 C 
ATOM     30  C   UNL     1       4.204  -3.648  -0.480  0.00  0.00    -0.012 C 
ENDBRANCH  28  29
ENDBRANCH  17  28
ENDBRANCH   1  17
TORSDOF 7
