REMARK  Name = 135407110
REMARK  5 active torsions:
REMARK  status: ('A' for Active; 'I' for Inactive)
REMARK    1  A    between atoms: C2*_2  and  O2*_17
REMARK    2  A    between atoms: C3*_3  and  O3*_19
REMARK    3  A    between atoms: C1*_4  and  N_7
REMARK    4  A    between atoms: C4*_5  and  C5*_21
REMARK    5  A    between atoms: C5*_21  and  O5*_22
REMARK                            x       y       z     vdW  Elec       q    Type
REMARK                         _______ _______ _______ _____ _____    ______ ____
ROOT
ATOM      1  O4* UNL     1       2.030   0.498   0.977  0.00  0.00    -0.332 OA
ATOM      2  C2* UNL     1       1.689  -0.993  -0.829  0.00  0.00    +0.188 C 
ATOM      3  C3* UNL     1       3.155  -1.037  -0.447  0.00  0.00    +0.171 C 
ATOM      4  C1* UNL     1       1.052  -0.408   0.427  0.00  0.00    +0.243 C 
ATOM      5  C4* UNL     1       3.314   0.243   0.363  0.00  0.00    +0.176 C 
ENDROOT
BRANCH   4   7
ATOM      6  O   UNL     1      -4.632   1.356  -0.420  0.00  0.00    -0.274 OA
ATOM      7  N   UNL     1      -0.258   0.293   0.153  0.00  0.00    -0.170 N 
ATOM      8  N   UNL     1      -0.253   1.596  -0.198  0.00  0.00    -0.177 NA
ATOM      9  N   UNL     1      -1.794  -1.527   0.542  0.00  0.00    -0.236 NA
ATOM     10  N   UNL     1      -4.064  -0.818   0.203  0.00  0.00    -0.283 N 
ATOM     11  C   UNL     1      -1.507  -0.245   0.215  0.00  0.00    +0.141 C 
ATOM     12  C   UNL     1      -2.372   0.773  -0.115  0.00  0.00    +0.174 C 
ATOM     13  C   UNL     1      -1.551   1.883  -0.360  0.00  0.00    +0.108 C 
ATOM     14  C   UNL     1      -3.789   0.513  -0.138  0.00  0.00    +0.236 C 
ATOM     15  C   UNL     1      -3.075  -1.754   0.520  0.00  0.00    +0.220 C 
ATOM     16  H   UNL     1      -5.004  -1.110   0.221  0.00  0.00    +0.151 HD
ENDBRANCH   4   7
BRANCH   2  17
ATOM     17  O2* UNL     1       1.169  -2.261  -1.173  0.00  0.00    -0.378 OA
ATOM     18  H2* UNL     1       1.607  -2.584  -1.976  0.00  0.00    +0.211 HD
ENDBRANCH   2  17
BRANCH   3  19
ATOM     19  O3* UNL     1       3.409  -2.142   0.420  0.00  0.00    -0.379 OA
ATOM     20  H3* UNL     1       3.314  -2.970  -0.075  0.00  0.00    +0.211 HD
ENDBRANCH   3  19
BRANCH   5  21
ATOM     21  C5* UNL     1       3.682   1.448  -0.491  0.00  0.00    +0.169 C 
BRANCH  21  22
ATOM     22  O5* UNL     1       3.795   2.583   0.351  0.00  0.00    -0.379 OA
ATOM     23  H5* UNL     1       4.030   3.358  -0.182  0.00  0.00    +0.211 HD
ENDBRANCH  21  22
ENDBRANCH   5  21
TORSDOF 5
