REMARK  Name = 135445750
REMARK  5 active torsions:
REMARK  status: ('A' for Active; 'I' for Inactive)
REMARK    1  A    between atoms: N_2  and  C1*_17
REMARK    2  A    between atoms: C2*_18  and  O2*_21
REMARK    3  A    between atoms: C3*_19  and  O3*_23
REMARK    4  A    between atoms: C4*_20  and  C5*_25
REMARK    5  A    between atoms: C5*_25  and  O5*_26
REMARK                            x       y       z     vdW  Elec       q    Type
REMARK                         _______ _______ _______ _____ _____    ______ ____
ROOT
ATOM      1  O   UNL     1      -4.344  -1.534   0.311  0.00  0.00    -0.273 OA
ATOM      2  N   UNL     1       0.048  -0.283  -0.170  0.00  0.00    -0.247 N 
ATOM      3  N   UNL     1      -1.296  -1.936   0.195  0.00  0.00    -0.241 NA
ATOM      4  N   UNL     1      -1.582   1.544  -0.382  0.00  0.00    -0.361 NA
ATOM      5  N   UNL     1      -3.798   0.673  -0.098  0.00  0.00    -0.246 N 
ATOM      6  N   UNL     1      -3.448   2.958  -0.510  0.00  0.00    -0.321 N 
ATOM      7  C   UNL     1      -1.226   0.249  -0.182  0.00  0.00    +0.189 C 
ATOM      8  C   UNL     1      -0.009  -1.600   0.058  0.00  0.00    +0.173 C 
ATOM      9  C   UNL     1      -2.075  -0.814   0.051  0.00  0.00    +0.204 C 
ATOM     10  C   UNL     1      -3.485  -0.679   0.113  0.00  0.00    +0.252 C 
ATOM     11  C   UNL     1      -1.769  -3.280   0.454  0.00  0.00    +0.092 C 
ATOM     12  C   UNL     1      -2.882   1.721  -0.333  0.00  0.00    +0.239 C 
ATOM     13  H   UNL     1      -4.752   0.915  -0.081  0.00  0.00    +0.159 HD
ATOM     14  H   UNL     1      -2.876   3.741  -0.679  0.00  0.00    +0.146 HD
ATOM     15  H   UNL     1      -4.426   3.062  -0.468  0.00  0.00    +0.146 HD
ENDROOT
BRANCH   2  17
ATOM     16  O4* UNL     1       2.332  -0.310  -1.031  0.00  0.00    -0.333 OA
ATOM     17  C1* UNL     1       1.325   0.494  -0.382  0.00  0.00    +0.225 C 
ATOM     18  C2* UNL     1       1.955   0.972   0.922  0.00  0.00    +0.187 C 
ATOM     19  C3* UNL     1       3.413   1.115   0.533  0.00  0.00    +0.171 C 
ATOM     20  C4* UNL     1       3.612  -0.067  -0.406  0.00  0.00    +0.175 C 
BRANCH  18  21
ATOM     21  O2* UNL     1       1.390   2.177   1.399  0.00  0.00    -0.378 OA
ATOM     22  H2* UNL     1       0.460   2.028   1.632  0.00  0.00    +0.211 HD
ENDBRANCH  18  21
BRANCH  19  23
ATOM     23  O3* UNL     1       3.613   2.312  -0.218  0.00  0.00    -0.379 OA
ATOM     24  H3* UNL     1       3.491   3.081   0.361  0.00  0.00    +0.211 HD
ENDBRANCH  19  23
BRANCH  20  25
ATOM     25  C5* UNL     1       4.039  -1.338   0.315  0.00  0.00    +0.169 C 
BRANCH  25  26
ATOM     26  O5* UNL     1       4.186  -2.375  -0.639  0.00  0.00    -0.379 OA
ATOM     27  H5* UNL     1       4.458  -3.191  -0.191  0.00  0.00    +0.211 HD
ENDBRANCH  25  26
ENDBRANCH  20  25
ENDBRANCH   2  17
TORSDOF 5
