REMARK  Name = 135439051
REMARK  16 active torsions:
REMARK  status: ('A' for Active; 'I' for Inactive)
REMARK    1  A    between atoms: C_1  and  N_2
REMARK    2  A    between atoms: C_1  and  C_15
REMARK    3  A    between atoms: N_2  and  N_4
REMARK    4  A    between atoms: N_2  and  C_8
REMARK    5  A    between atoms: N_4  and  N_5
REMARK    6  A    between atoms: N_5  and  O_6
REMARK    7  A    between atoms: C_8  and  C_9
REMARK    8  A    between atoms: C_9  and  C_10
REMARK    9  A    between atoms: C_10  and  N_11
REMARK   10  A    between atoms: C_15  and  C_16
REMARK   11  A    between atoms: C_16  and  C_17
REMARK   12  A    between atoms: C_17  and  N_18
REMARK   13  A    between atoms: N_18  and  C_21
REMARK   14  A    between atoms: C_21  and  C_22
REMARK   15  A    between atoms: C_22  and  C_23
REMARK   16  A    between atoms: C_23  and  N_24
REMARK                            x       y       z     vdW  Elec       q    Type
REMARK                         _______ _______ _______ _____ _____    ______ ____
ROOT
ATOM      1  C   UNL     1       1.067  -0.701   0.627  0.00  0.00    +0.092 C 
ENDROOT
BRANCH   1   2
ATOM      2  N   UNL     1       2.327  -0.253   0.046  0.00  0.00    -0.176 NA
BRANCH   2   4
ATOM      3  O   UNL     1       2.876   1.591   1.473  0.00  0.00    -0.082 OA
ATOM      4  N   UNL     1       2.705   1.196   0.268  0.00  0.00    +0.033 NA
BRANCH   4   5
ATOM      5  N   UNL     1       2.859   1.922  -0.770  0.00  0.00    +0.038 NA
BRANCH   5   6
ATOM      6  O   UNL     1       3.216   3.213  -0.366  0.00  0.00    -0.278 OA
ATOM      7  H   UNL     1       3.368   3.880  -1.007  0.00  0.00    +0.240 HD
ENDBRANCH   5   6
ENDBRANCH   4   5
ENDBRANCH   2   4
BRANCH   2   8
ATOM      8  C   UNL     1       3.382  -1.242   0.291  0.00  0.00    +0.090 C 
BRANCH   8   9
ATOM      9  C   UNL     1       4.718  -0.819  -0.322  0.00  0.00    -0.005 C 
BRANCH   9  10
ATOM     10  C   UNL     1       5.831  -1.844  -0.095  0.00  0.00    -0.085 C 
BRANCH  10  11
ATOM     11  N   UNL     1       7.078  -1.374  -0.689  0.00  0.00    +0.380 N 
ATOM     12  H   UNL     1       7.811  -2.065  -0.532  0.00  0.00    -0.089 HD
ATOM     13  H   UNL     1       7.346  -0.489  -0.259  0.00  0.00    -0.089 HD
ATOM     14  H   UNL     1       6.947  -1.239  -1.692  0.00  0.00    -0.089 HD
ENDBRANCH  10  11
ENDBRANCH   9  10
ENDBRANCH   8   9
ENDBRANCH   2   8
ENDBRANCH   1   2
BRANCH   1  15
ATOM     15  C   UNL     1      -0.113  -0.139  -0.166  0.00  0.00    +0.017 C 
BRANCH  15  16
ATOM     16  C   UNL     1      -1.447  -0.592   0.436  0.00  0.00    -0.022 C 
BRANCH  16  17
ATOM     17  C   UNL     1      -2.669  -0.038  -0.299  0.00  0.00    -0.082 C 
BRANCH  17  18
ATOM     18  N   UNL     1      -3.923  -0.488   0.294  0.00  0.00    +0.384 N 
ATOM     19  H   UNL     1      -3.961  -0.183   1.267  0.00  0.00    -0.085 HD
ATOM     20  H   UNL     1      -3.964  -1.505   0.237  0.00  0.00    -0.085 HD
BRANCH  18  21
ATOM     21  C   UNL     1      -5.064   0.065  -0.423  0.00  0.00    -0.084 C 
BRANCH  21  22
ATOM     22  C   UNL     1      -6.394  -0.385   0.185  0.00  0.00    -0.047 C 
BRANCH  22  23
ATOM     23  C   UNL     1      -7.609   0.169  -0.563  0.00  0.00    -0.088 C 
BRANCH  23  24
ATOM     24  N   UNL     1      -8.841  -0.283   0.075  0.00  0.00    +0.380 N 
ATOM     25  H   UNL     1      -9.643   0.092  -0.432  0.00  0.00    -0.089 HD
ATOM     26  H   UNL     1      -8.864   0.046   1.040  0.00  0.00    -0.089 HD
ATOM     27  H   UNL     1      -8.877  -1.302   0.062  0.00  0.00    -0.089 HD
ENDBRANCH  23  24
ENDBRANCH  22  23
ENDBRANCH  21  22
ENDBRANCH  18  21
ENDBRANCH  17  18
ENDBRANCH  16  17
ENDBRANCH  15  16
ENDBRANCH   1  15
TORSDOF 16
