REMARK  Name = 135492361
REMARK  5 active torsions:
REMARK  status: ('A' for Active; 'I' for Inactive)
REMARK    1  A    between atoms: C2*_2  and  O2*_17
REMARK    2  A    between atoms: C3*_3  and  O3*_19
REMARK    3  A    between atoms: C1*_4  and  N_7
REMARK    4  A    between atoms: C4*_5  and  C5*_21
REMARK    5  A    between atoms: C5*_21  and  O5*_22
REMARK                            x       y       z     vdW  Elec       q    Type
REMARK                         _______ _______ _______ _____ _____    ______ ____
ROOT
ATOM      1  O4* UNL     1       2.025   0.500   0.980  0.00  0.00    -0.332 OA
ATOM      2  C2* UNL     1       1.712  -0.998  -0.825  0.00  0.00    +0.188 C 
ATOM      3  C3* UNL     1       3.181  -1.005  -0.450  0.00  0.00    +0.171 C 
ATOM      4  C1* UNL     1       1.067  -0.431   0.435  0.00  0.00    +0.243 C 
ATOM      5  C4* UNL     1       3.311   0.278   0.360  0.00  0.00    +0.176 C 
ENDROOT
BRANCH   4   7
ATOM      6  O   UNL     1      -4.558   1.419  -0.435  0.00  0.00    -0.268 OA
ATOM      7  N   UNL     1      -0.262   0.236   0.168  0.00  0.00    -0.157 N 
ATOM      8  N   UNL     1      -0.318   1.539  -0.184  0.00  0.00    -0.041 NA
ATOM      9  N   UNL     1      -1.602   1.860  -0.355  0.00  0.00    -0.136 NA
ATOM     10  N   UNL     1      -1.834  -1.577   0.545  0.00  0.00    -0.231 NA
ATOM     11  N   UNL     1      -4.077  -0.783   0.183  0.00  0.00    -0.279 N 
ATOM     12  C   UNL     1      -1.507  -0.304   0.228  0.00  0.00    +0.173 C 
ATOM     13  C   UNL     1      -2.331   0.742  -0.106  0.00  0.00    +0.188 C 
ATOM     14  C   UNL     1      -3.754   0.541  -0.148  0.00  0.00    +0.269 C 
ATOM     15  C   UNL     1      -3.123  -1.756   0.506  0.00  0.00    +0.220 C 
ATOM     16  H   UNL     1      -5.027  -1.042   0.188  0.00  0.00    +0.152 HD
ENDBRANCH   4   7
BRANCH   2  17
ATOM     17  O2* UNL     1       1.223  -2.280  -1.167  0.00  0.00    -0.378 OA
ATOM     18  H2* UNL     1       1.666  -2.590  -1.972  0.00  0.00    +0.211 HD
ENDBRANCH   2  17
BRANCH   3  19
ATOM     19  O3* UNL     1       3.468  -2.103   0.414  0.00  0.00    -0.379 OA
ATOM     20  H3* UNL     1       3.391  -2.934  -0.081  0.00  0.00    +0.211 HD
ENDBRANCH   3  19
BRANCH   5  21
ATOM     21  C5* UNL     1       3.644   1.493  -0.495  0.00  0.00    +0.169 C 
BRANCH  21  22
ATOM     22  O5* UNL     1       3.732   2.629   0.347  0.00  0.00    -0.379 OA
ATOM     23  H5* UNL     1       3.945   3.411  -0.186  0.00  0.00    +0.211 HD
ENDBRANCH  21  22
ENDBRANCH   5  21
TORSDOF 5
