REMARK  Name = 135413535
REMARK  11 active torsions:
REMARK  status: ('A' for Active; 'I' for Inactive)
REMARK    1  A    between atoms: O_1  and  C_2
REMARK    2  A    between atoms: O_1  and  C_18
REMARK    3  A    between atoms: C_2  and  C_3
REMARK    4  A    between atoms: C_2  and  C_15
REMARK    5  A    between atoms: C_3  and  O_4
REMARK    6  A    between atoms: O_4  and  C_6
REMARK    7  A    between atoms: C_6  and  C_7
REMARK    8  A    between atoms: C_7  and  N_8
REMARK    9  A    between atoms: C_7  and  C_12
REMARK   10  A    between atoms: C_15  and  O_16
REMARK   11  A    between atoms: C_18  and  N_20
REMARK                            x       y       z     vdW  Elec       q    Type
REMARK                         _______ _______ _______ _____ _____    ______ ____
ROOT
ATOM      1  O   UNL     1      -0.125  -2.382  -0.104  0.00  0.00    -0.330 OA
ENDROOT
BRANCH   1   2
ATOM      2  C   UNL     1       1.095  -2.820   0.498  0.00  0.00    +0.190 C 
BRANCH   2   3
ATOM      3  C   UNL     1       1.707  -1.655   1.267  0.00  0.00    +0.240 C 
BRANCH   3   4
ATOM      4  O   UNL     1       1.956  -0.563   0.376  0.00  0.00    -0.447 OA
BRANCH   4   6
ATOM      5  O   UNL     1       2.795   0.674   2.130  0.00  0.00    -0.252 OA
ATOM      6  C   UNL     1       2.507   0.551   0.946  0.00  0.00    +0.296 C 
BRANCH   6   7
ATOM      7  C   UNL     1       2.704   1.618  -0.120  0.00  0.00    +0.036 C 
BRANCH   7   8
ATOM      8  N   UNL     1       3.176   2.840   0.532  0.00  0.00    +0.389 N 
ATOM      9  H   UNL     1       3.314   3.568  -0.169  0.00  0.00    -0.088 HD
ATOM     10  H   UNL     1       4.060   2.653   1.006  0.00  0.00    -0.088 HD
ATOM     11  H   UNL     1       2.484   3.151   1.214  0.00  0.00    -0.088 HD
ENDBRANCH   7   8
BRANCH   7  12
ATOM     12  C   UNL     1       3.641   1.135  -1.251  0.00  0.00    -0.010 C 
ATOM     13  C   UNL     1       3.775   2.193  -2.352  0.00  0.00    -0.002 C 
ATOM     14  C   UNL     1       5.034   0.721  -0.761  0.00  0.00    -0.002 C 
ENDBRANCH   7  12
ENDBRANCH   6   7
ENDBRANCH   4   6
ENDBRANCH   3   4
ENDBRANCH   2   3
BRANCH   2  15
ATOM     15  C   UNL     1       2.020  -3.303  -0.611  0.00  0.00    +0.171 C 
BRANCH  15  16
ATOM     16  O   UNL     1       1.411  -4.406  -1.273  0.00  0.00    -0.379 OA
ATOM     17  H   UNL     1       1.994  -4.720  -1.982  0.00  0.00    +0.211 HD
ENDBRANCH  15  16
ENDBRANCH   2  15
ENDBRANCH   1   2
BRANCH   1  18
ATOM     18  C   UNL     1      -1.187  -2.350   0.841  0.00  0.00    +0.244 C 
BRANCH  18  20
ATOM     19  O   UNL     1      -4.830   2.021  -1.025  0.00  0.00    -0.268 OA
ATOM     20  N   UNL     1      -2.267  -1.456   0.300  0.00  0.00    -0.235 N 
ATOM     21  N   UNL     1      -4.208  -0.858  -0.636  0.00  0.00    -0.240 NA
ATOM     22  N   UNL     1      -1.276   0.716   0.696  0.00  0.00    -0.357 NA
ATOM     23  N   UNL     1      -2.748   2.450  -0.057  0.00  0.00    -0.243 N 
ATOM     24  N   UNL     1      -0.666   2.975   0.909  0.00  0.00    -0.321 N 
ATOM     25  C   UNL     1      -2.264  -0.093   0.256  0.00  0.00    +0.211 C 
ATOM     26  C   UNL     1      -3.465   0.242  -0.322  0.00  0.00    +0.176 C 
ATOM     27  C   UNL     1      -3.457  -1.870  -0.247  0.00  0.00    +0.224 C 
ATOM     28  C   UNL     1      -3.786   1.628  -0.519  0.00  0.00    +0.273 C 
ATOM     29  C   UNL     1      -1.543   1.993   0.527  0.00  0.00    +0.239 C 
ATOM     30  H   UNL     1      -2.867   3.423  -0.146  0.00  0.00    +0.159 HD
ATOM     31  H   UNL     1       0.194   2.733   1.323  0.00  0.00    +0.146 HD
ATOM     32  H   UNL     1      -0.896   3.922   0.769  0.00  0.00    +0.146 HD
ENDBRANCH  18  20
ENDBRANCH   1  18
TORSDOF 11
