REMARK  Name = 135465546
REMARK  4 active torsions:
REMARK  status: ('A' for Active; 'I' for Inactive)
REMARK    1  A    between atoms: N_1  and  C_3
REMARK    2  A    between atoms: N_1  and  C_20
REMARK    3  A    between atoms: C_3  and  N_10
REMARK    4  A    between atoms: N_8  and  C_15
REMARK                            x       y       z     vdW  Elec       q    Type
REMARK                         _______ _______ _______ _____ _____    ______ ____
ROOT
ATOM      1  N   UNL     1       0.626  -0.958  -1.860  0.00  0.00    -0.368 N 
ATOM      2  C   UNL     1       0.193  -1.030  -0.551  0.00  0.00    +0.225 C 
ATOM      3  H   UNL     1      -0.016  -1.071  -2.598  0.00  0.00    +0.159 HD
ATOM      4  H   UNL     1       1.576  -0.793  -2.056  0.00  0.00    +0.159 HD
ENDROOT
BRANCH   2   9
ATOM      5  O   UNL     1      -4.784   1.537   0.287  0.00  0.00    -0.265 OA
ATOM      6  O   UNL     1      -2.498   3.120  -0.165  0.00  0.00    -0.265 OA
ATOM      7  N   UNL     1      -3.247  -0.238   0.054  0.00  0.00    -0.226 N 
ATOM      8  N   UNL     1      -1.432   1.033  -0.307  0.00  0.00    -0.250 N 
ATOM      9  N   UNL     1      -1.142  -1.288  -0.302  0.00  0.00    -0.182 NA
ATOM     10  C   UNL     1      -1.896  -0.250  -0.191  0.00  0.00    +0.200 C 
ATOM     11  C   UNL     1      -3.688   1.053   0.102  0.00  0.00    +0.309 C 
ATOM     12  C   UNL     1      -2.459   1.909  -0.142  0.00  0.00    +0.306 C 
ATOM     13  H   UNL     1      -0.496   1.283  -0.483  0.00  0.00    +0.158 HD
BRANCH   7  14
ATOM     14  C   UNL     1      -4.077  -1.415   0.233  0.00  0.00    +0.083 C 
ATOM     15  C   UNL     1      -5.146  -1.479  -0.850  0.00  0.00    +0.022 C 
ATOM     16  C   UNL     1      -4.700  -1.423   1.624  0.00  0.00    +0.022 C 
ENDBRANCH   7  14
ENDBRANCH   2   9
BRANCH   2  17
ATOM     17  N   UNL     1       0.922  -0.902   0.523  0.00  0.00    -0.212 NA
BRANCH  17  20
ATOM     18 CL   UNL     1       4.635   2.572   0.117  0.00  0.00    -0.081 Cl
ATOM     19 CL   UNL     1       6.728   0.111  -0.061  0.00  0.00    -0.081 Cl
ATOM     20  C   UNL     1       2.296  -0.645   0.385  0.00  0.00    +0.085 C 
ATOM     21  C   UNL     1       2.759   0.669   0.324  0.00  0.00    +0.031 C 
ATOM     22  C   UNL     1       3.198  -1.707   0.310  0.00  0.00    +0.020 C 
ATOM     23  C   UNL     1       4.124   0.922   0.187  0.00  0.00    +0.070 C 
ATOM     24  C   UNL     1       4.563  -1.453   0.172  0.00  0.00    +0.014 C 
ATOM     25  C   UNL     1       5.026  -0.139   0.111  0.00  0.00    +0.068 C 
ENDBRANCH  17  20
ENDBRANCH   2  17
TORSDOF 4
