REMARK  Name = 135409539
REMARK  7 active torsions:
REMARK  status: ('A' for Active; 'I' for Inactive)
REMARK    1  A    between atoms: C_2  and  C_11
REMARK    2  A    between atoms: C_3  and  C_22
REMARK    3  A    between atoms: C_4  and  O_8
REMARK    4  A    between atoms: N_10  and  C_11
REMARK    5  A    between atoms: N_10  and  N_13
REMARK    6  A    between atoms: C_14  and  C_17
REMARK    7  A    between atoms: C_22  and  O_23
REMARK                            x       y       z     vdW  Elec       q    Type
REMARK                         _______ _______ _______ _____ _____    ______ ____
ROOT
ATOM      1  N   UNL     1      -5.100   0.237   0.188  0.00  0.00    -0.245 NA
ATOM      2  C   UNL     1      -2.359  -0.269  -0.028  0.00  0.00    +0.032 C 
ATOM      3  C   UNL     1      -3.240  -1.307   0.256  0.00  0.00    +0.026 C 
ATOM      4  C   UNL     1      -2.847   1.021  -0.204  0.00  0.00    +0.144 C 
ATOM      5  C   UNL     1      -4.213   1.220  -0.086  0.00  0.00    +0.093 C 
ATOM      6  C   UNL     1      -4.589  -1.004   0.352  0.00  0.00    +0.096 C 
ATOM      7  C   UNL     1      -4.790   2.586  -0.266  0.00  0.00    +0.055 C 
ENDROOT
BRANCH   4   8
ATOM      8  O   UNL     1      -2.011   2.057  -0.482  0.00  0.00    -0.505 OA
ATOM      9  H   UNL     1      -1.089   1.907  -0.559  0.00  0.00    +0.292 HD
ENDBRANCH   4   8
BRANCH   2  10
ATOM     10  C   UNL     1      -0.914  -0.532  -0.143  0.00  0.00    +0.141 C 
BRANCH  10  11
ATOM     11  N   UNL     1      -0.029   0.361   0.159  0.00  0.00    -0.126 NA
BRANCH  11  13
ATOM     12  O   UNL     1       2.112   1.977   0.698  0.00  0.00    -0.269 OA
ATOM     13  N   UNL     1       1.250  -0.053  -0.005  0.00  0.00    -0.228 N 
ATOM     14  C   UNL     1       2.301   0.818   0.287  0.00  0.00    +0.260 C 
ATOM     15  H   UNL     1       1.437  -0.964  -0.329  0.00  0.00    +0.171 HD
BRANCH  14  17
ATOM     16  N   UNL     1       6.243  -0.681  -0.235  0.00  0.00    -0.242 NA
ATOM     17  C   UNL     1       3.650   0.305   0.110  0.00  0.00    +0.058 C 
ATOM     18  C   UNL     1       4.696   1.176  -0.177  0.00  0.00    +0.025 C 
ATOM     19  C   UNL     1       3.900  -1.058   0.224  0.00  0.00    +0.025 C 
ATOM     20  C   UNL     1       5.962   0.637  -0.339  0.00  0.00    +0.099 C 
ATOM     21  C   UNL     1       5.202  -1.497   0.044  0.00  0.00    +0.099 C 
ENDBRANCH  14  17
ENDBRANCH  11  13
ENDBRANCH  10  11
ENDBRANCH   2  10
BRANCH   3  22
ATOM     22  C   UNL     1      -2.778  -2.709   0.454  0.00  0.00    +0.165 C 
BRANCH  22  23
ATOM     23  O   UNL     1      -2.447  -3.282  -0.806  0.00  0.00    -0.377 OA
ATOM     24  H   UNL     1      -2.146  -4.195  -0.677  0.00  0.00    +0.211 HD
ENDBRANCH  22  23
ENDBRANCH   3  22
TORSDOF 7
