REMARK  Name = 135428114
REMARK  5 active torsions:
REMARK  status: ('A' for Active; 'I' for Inactive)
REMARK    1  A    between atoms: N_3  and  C1*_17
REMARK    2  A    between atoms: C2*_18  and  O2*_21
REMARK    3  A    between atoms: C3*_19  and  O3*_23
REMARK    4  A    between atoms: C4*_20  and  C5*_25
REMARK    5  A    between atoms: C5*_25  and  O5*_26
REMARK                            x       y       z     vdW  Elec       q    Type
REMARK                         _______ _______ _______ _____ _____    ______ ____
ROOT
ATOM      1 CL   UNL     1       0.348  -3.738   0.580  0.00  0.00    -0.066 Cl
ATOM      2  O   UNL     1      -4.573  -0.604  -0.260  0.00  0.00    -0.274 OA
ATOM      3  N   UNL     1      -0.064  -1.104   0.307  0.00  0.00    -0.232 N 
ATOM      4  N   UNL     1      -0.826   1.153   0.023  0.00  0.00    -0.362 NA
ATOM      5  N   UNL     1      -3.195   1.274  -0.264  0.00  0.00    -0.247 N 
ATOM      6  N   UNL     1      -1.886   3.227  -0.279  0.00  0.00    -0.321 N 
ATOM      7  C   UNL     1      -1.052  -0.179   0.112  0.00  0.00    +0.182 C 
ATOM      8  C   UNL     1      -0.621  -2.360   0.349  0.00  0.00    +0.111 C 
ATOM      9  C   UNL     1      -2.251  -0.856   0.030  0.00  0.00    +0.168 C 
ATOM     10  C   UNL     1      -1.985  -2.234   0.180  0.00  0.00    +0.018 C 
ATOM     11  C   UNL     1      -3.460  -0.098  -0.176  0.00  0.00    +0.241 C 
ATOM     12  C   UNL     1      -1.916   1.861  -0.166  0.00  0.00    +0.239 C 
ATOM     13  H   UNL     1      -3.960   1.876  -0.406  0.00  0.00    +0.158 HD
ATOM     14  H   UNL     1      -1.029   3.707  -0.220  0.00  0.00    +0.146 HD
ATOM     15  H   UNL     1      -2.722   3.727  -0.419  0.00  0.00    +0.146 HD
ENDROOT
BRANCH   3  17
ATOM     16  O4* UNL     1       1.600   0.509   1.072  0.00  0.00    -0.333 OA
ATOM     17  C1* UNL     1       1.404  -0.777   0.450  0.00  0.00    +0.228 C 
ATOM     18  C2* UNL     1       2.131  -0.705  -0.889  0.00  0.00    +0.187 C 
ATOM     19  C3* UNL     1       3.297   0.207  -0.565  0.00  0.00    +0.171 C 
ATOM     20  C4* UNL     1       2.663   1.212   0.389  0.00  0.00    +0.175 C 
BRANCH  18  21
ATOM     21  O2* UNL     1       2.537  -1.972  -1.367  0.00  0.00    -0.378 OA
ATOM     22  H2* UNL     1       1.754  -2.512  -1.557  0.00  0.00    +0.211 HD
ENDBRANCH  18  21
BRANCH  19  23
ATOM     23  O3* UNL     1       4.303  -0.507   0.153  0.00  0.00    -0.379 OA
ATOM     24  H3* UNL     1       4.722  -1.154  -0.436  0.00  0.00    +0.211 HD
ENDBRANCH  19  23
BRANCH  20  25
ATOM     25  C5* UNL     1       2.058   2.413  -0.324  0.00  0.00    +0.169 C 
BRANCH  25  26
ATOM     26  O5* UNL     1       1.488   3.276   0.644  0.00  0.00    -0.379 OA
ATOM     27  H5* UNL     1       1.099   4.047   0.202  0.00  0.00    +0.211 HD
ENDBRANCH  25  26
ENDBRANCH  20  25
ENDBRANCH   3  17
TORSDOF 5
