REMARK  Name = 135457300
REMARK  4 active torsions:
REMARK  status: ('A' for Active; 'I' for Inactive)
REMARK    1  A    between atoms: C_9  and  C_24
REMARK    2  A    between atoms: C_13  and  O_19
REMARK    3  A    between atoms: C_17  and  O_21
REMARK    4  A    between atoms: C_24  and  O_25
REMARK                            x       y       z     vdW  Elec       q    Type
REMARK                         _______ _______ _______ _____ _____    ______ ____
ROOT
ATOM      1  O   UNL     1      -1.161  -3.352  -0.104  0.00  0.00    -0.289 OA
ATOM      2  O   UNL     1       0.533   3.691  -0.002  0.00  0.00    -0.284 OA
ATOM      3  N   UNL     1       0.428  -1.060  -0.114  0.00  0.00    -0.320 N 
ATOM      4  N   UNL     1      -0.875   1.403   0.002  0.00  0.00    -0.399 NA
ATOM      5  C   UNL     1       1.225   0.058  -0.120  0.00  0.00    +0.085 C 
ATOM      6  C   UNL     1      -0.943  -0.983  -0.054  0.00  0.00    +0.185 C 
ATOM      7  C   UNL     1      -1.574   0.209   0.002  0.00  0.00    +0.140 C 
ATOM      8  C   UNL     1       0.423   1.333  -0.055  0.00  0.00    +0.183 C 
ATOM      9  C   UNL     1       2.564   0.164  -0.175  0.00  0.00    +0.091 C 
ATOM     10  C   UNL     1      -3.043   0.279   0.065  0.00  0.00    +0.098 C 
ATOM     11  C   UNL     1      -1.714  -2.259  -0.053  0.00  0.00    +0.201 C 
ATOM     12  C   UNL     1       1.164   2.646  -0.054  0.00  0.00    +0.226 C 
ATOM     13  C   UNL     1      -3.805  -0.975   0.066  0.00  0.00    +0.142 C 
ATOM     14  C   UNL     1       3.256   1.434  -0.174  0.00  0.00    +0.011 C 
ATOM     15  C   UNL     1      -3.194  -2.166   0.011  0.00  0.00    +0.076 C 
ATOM     16  C   UNL     1       2.634   2.615  -0.118  0.00  0.00    +0.045 C 
ATOM     17  C   UNL     1      -3.657   1.476   0.175  0.00  0.00    +0.173 C 
ATOM     18  H   UNL     1       0.853  -1.947  -0.153  0.00  0.00    +0.148 HD
ENDROOT
BRANCH  13  19
ATOM     19  O   UNL     1      -5.189  -0.940   0.084  0.00  0.00    -0.505 OA
ATOM     20  H   UNL     1      -5.637  -0.118   0.122  0.00  0.00    +0.292 HD
ENDBRANCH  13  19
BRANCH  17  21
ATOM     21  O   UNL     1      -3.009   2.669   0.235  0.00  0.00    -0.503 OA
ATOM     22  H   UNL     1      -3.499   3.464   0.312  0.00  0.00    +0.292 HD
ENDBRANCH  17  21
BRANCH   9  24
ATOM     23  O   UNL     1       3.293  -1.876  -1.138  0.00  0.00    -0.245 OA
ATOM     24  C   UNL     1       3.382  -1.060  -0.240  0.00  0.00    +0.343 C 
BRANCH  24  25
ATOM     25  O   UNL     1       4.200  -1.084   0.839  0.00  0.00    -0.441 OA
ATOM     26  C   UNL     1       5.064  -2.222   0.920  0.00  0.00    +0.256 C 
ENDBRANCH  24  25
ENDBRANCH   9  24
TORSDOF 4
