REMARK  Name = 135416507
REMARK  5 active torsions:
REMARK  status: ('A' for Active; 'I' for Inactive)
REMARK    1  A    between atoms: N_2  and  C1*_17
REMARK    2  A    between atoms: C2*_16  and  O2*_20
REMARK    3  A    between atoms: C3*_18  and  O3*_22
REMARK    4  A    between atoms: C4*_19  and  C5*_24
REMARK    5  A    between atoms: C5*_24  and  O5*_25
REMARK                            x       y       z     vdW  Elec       q    Type
REMARK                         _______ _______ _______ _____ _____    ______ ____
ROOT
ATOM      1  O   UNL     1      -1.225  -2.354   0.107  0.00  0.00    -0.272 OA
ATOM      2  N   UNL     1      -0.132   0.472   0.197  0.00  0.00    -0.207 NA
ATOM      3  N   UNL     1      -1.457   2.266   0.197  0.00  0.00    -0.194 NA
ATOM      4  N   UNL     1      -3.302  -1.330   0.072  0.00  0.00    -0.245 N 
ATOM      5  N   UNL     1      -3.614   1.050   0.113  0.00  0.00    -0.323 NA
ATOM      6  N   UNL     1      -5.450  -0.400   0.032  0.00  0.00    -0.320 N 
ATOM      7  C   UNL     1      -1.412   0.002   0.152  0.00  0.00    +0.236 C 
ATOM      8  C   UNL     1      -0.211   1.840   0.224  0.00  0.00    +0.216 C 
ATOM      9  C   UNL     1      -2.209   1.122   0.153  0.00  0.00    +0.087 C 
ATOM     10  C   UNL     1      -1.909  -1.336   0.110  0.00  0.00    +0.259 C 
ATOM     11  C   UNL     1      -4.098  -0.171   0.074  0.00  0.00    +0.248 C 
ATOM     12  H   UNL     1      -3.762  -2.200   0.042  0.00  0.00    +0.159 HD
ATOM     13  H   UNL     1      -5.792  -1.323   0.004  0.00  0.00    +0.146 HD
ATOM     14  H   UNL     1      -6.078   0.358   0.030  0.00  0.00    +0.146 HD
ENDROOT
BRANCH   2  17
ATOM     15  O4* UNL     1       2.166   0.324   0.986  0.00  0.00    -0.336 OA
ATOM     16  C2* UNL     1       1.710  -0.588  -1.185  0.00  0.00    +0.183 C 
ATOM     17  C1* UNL     1       1.145  -0.340   0.217  0.00  0.00    +0.208 C 
ATOM     18  C3* UNL     1       2.928   0.308  -1.256  0.00  0.00    +0.171 C 
ATOM     19  C4* UNL     1       3.359   0.458   0.195  0.00  0.00    +0.175 C 
BRANCH  16  20
ATOM     20  O2* UNL     1       2.124  -1.946  -1.298  0.00  0.00    -0.378 OA
ATOM     21  H2* UNL     1       1.347  -2.526  -1.252  0.00  0.00    +0.211 HD
ENDBRANCH  16  20
BRANCH  18  22
ATOM     22  O3* UNL     1       2.539   1.592  -1.740  0.00  0.00    -0.379 OA
ATOM     23  H3* UNL     1       2.261   1.517  -2.666  0.00  0.00    +0.211 HD
ENDBRANCH  18  22
BRANCH  19  24
ATOM     24  C5* UNL     1       4.354  -0.604   0.647  0.00  0.00    +0.169 C 
BRANCH  24  25
ATOM     25  O5* UNL     1       4.694  -0.365   2.003  0.00  0.00    -0.379 OA
ATOM     26  H5* UNL     1       5.328  -1.036   2.300  0.00  0.00    +0.211 HD
ENDBRANCH  24  25
ENDBRANCH  19  24
ENDBRANCH   2  17
TORSDOF 5
