135484540
  -OEChem-03292013293D

 38 40  0     1  0  0  0  0  0999 V2000
    2.3201   -1.6331    0.7337 S   0  0  0  0  0  0  0  0  0  0  0  0
    3.3743   -0.8071    1.3138 O   0  0  0  0  0  0  0  0  0  0  0  0
    1.8705   -2.8062    1.4764 O   0  0  0  0  0  0  0  0  0  0  0  0
   -4.7754    0.9166   -0.3473 O   0  0  0  0  0  0  0  0  0  0  0  0
   -4.7352   -1.7661    0.0594 O   0  0  0  0  0  0  0  0  0  0  0  0
    1.9069    2.8742   -0.3375 N   0  0  1  0  0  0  0  0  0  0  0  0
   -2.5354    1.5685   -0.2355 N   0  0  0  0  0  0  0  0  0  0  0  0
    2.8124   -2.1317   -0.8487 N   0  0  0  0  0  0  0  0  0  0  0  0
   -3.5372   -1.8906    0.1911 N   0  0  0  0  0  0  0  0  0  0  0  0
    1.0715    0.7435    0.2242 C   0  0  0  0  0  0  0  0  0  0  0  0
   -0.0272    1.5762   -0.0079 C   0  0  0  0  0  0  0  0  0  0  0  0
    2.3176    1.5746    0.2410 C   0  0  0  0  0  0  0  0  0  0  0  0
    0.4444    2.9937   -0.1537 C   0  0  0  0  0  0  0  0  0  0  0  0
    0.9356   -0.6170    0.4272 C   0  0  0  0  0  0  0  0  0  0  0  0
   -1.2958    1.0107   -0.0388 C   0  0  0  0  0  0  0  0  0  0  0  0
   -1.4791   -0.3638    0.1531 C   0  0  0  0  0  0  0  0  0  0  0  0
   -0.3465   -1.1830    0.3881 C   0  0  0  0  0  0  0  0  0  0  0  0
    2.6430    4.0001    0.2147 C   0  0  0  0  0  0  0  0  0  0  0  0
   -2.8780   -0.6075    0.0584 C   0  0  0  0  0  0  0  0  0  0  0  0
   -3.4995    0.5974   -0.1805 C   0  0  0  0  0  0  0  0  0  0  0  0
    1.8311   -2.8901   -1.6654 C   0  0  0  0  0  0  0  0  0  0  0  0
    3.5820   -1.1594   -1.6657 C   0  0  0  0  0  0  0  0  0  0  0  0
    2.6509    1.6926    1.2791 H   0  0  0  0  0  0  0  0  0  0  0  0
    3.1214    1.1652   -0.3694 H   0  0  0  0  0  0  0  0  0  0  0  0
   -0.0121    3.4779   -1.0221 H   0  0  0  0  0  0  0  0  0  0  0  0
    0.1847    3.5437    0.7587 H   0  0  0  0  0  0  0  0  0  0  0  0
   -0.4889   -2.2500    0.5364 H   0  0  0  0  0  0  0  0  0  0  0  0
   -2.7087    2.5507   -0.3990 H   0  0  0  0  0  0  0  0  0  0  0  0
    3.7157    3.8843    0.0259 H   0  0  0  0  0  0  0  0  0  0  0  0
    2.4933    4.1057    1.2951 H   0  0  0  0  0  0  0  0  0  0  0  0
    2.3318    4.9328   -0.2680 H   0  0  0  0  0  0  0  0  0  0  0  0
    4.0682   -1.6863   -2.4936 H   0  0  0  0  0  0  0  0  0  0  0  0
    2.9237   -0.3937   -2.0837 H   0  0  0  0  0  0  0  0  0  0  0  0
    4.3777   -0.6981   -1.0757 H   0  0  0  0  0  0  0  0  0  0  0  0
    1.1124   -2.2162   -2.1398 H   0  0  0  0  0  0  0  0  0  0  0  0
    2.3597   -3.4480   -2.4450 H   0  0  0  0  0  0  0  0  0  0  0  0
    1.2993   -3.6209   -1.0500 H   0  0  0  0  0  0  0  0  0  0  0  0
   -4.8335    1.8766   -0.4966 H   0  0  0  0  0  0  0  0  0  0  0  0
  1  2  2  0  0  0  0
  1  3  2  0  0  0  0
  1  8  1  0  0  0  0
  1 14  1  0  0  0  0
  4 20  1  0  0  0  0
  4 38  1  0  0  0  0
  5  9  2  0  0  0  0
  6 12  1  0  0  0  0
  6 13  1  0  0  0  0
  6 18  1  0  0  0  0
  7 15  1  0  0  0  0
  7 20  1  0  0  0  0
  7 28  1  0  0  0  0
  8 21  1  0  0  0  0
  8 22  1  0  0  0  0
  9 19  1  0  0  0  0
 10 11  1  0  0  0  0
 10 12  1  0  0  0  0
 10 14  2  0  0  0  0
 11 13  1  0  0  0  0
 11 15  2  0  0  0  0
 12 23  1  0  0  0  0
 12 24  1  0  0  0  0
 13 25  1  0  0  0  0
 13 26  1  0  0  0  0
 14 17  1  0  0  0  0
 15 16  1  0  0  0  0
 16 17  2  0  0  0  0
 16 19  1  0  0  0  0
 17 27  1  0  0  0  0
 18 29  1  0  0  0  0
 18 30  1  0  0  0  0
 18 31  1  0  0  0  0
 19 20  2  0  0  0  0
 21 35  1  0  0  0  0
 21 36  1  0  0  0  0
 21 37  1  0  0  0  0
 22 32  1  0  0  0  0
 22 33  1  0  0  0  0
 22 34  1  0  0  0  0
M  END
> <PUBCHEM_COMPOUND_CID>
135484540

> <PUBCHEM_CONFORMER_RMSD>
0.6

> <PUBCHEM_CONFORMER_DIVERSEORDER>
1
4
3
5
2

> <PUBCHEM_MMFF94_PARTIAL_CHARGES>
24
1 1.45
10 -0.14
11 -0.14
12 0.41
13 0.41
14 -0.01
15 -0.15
17 -0.15
18 0.27
19 0.25
2 -0.65
20 -0.09
21 0.36
22 0.36
27 0.15
28 0.27
3 -0.65
38 0.45
4 -0.51
5 -0.16
6 -0.81
7 0.03
8 -0.85
9 -0.09

> <PUBCHEM_EFFECTIVE_ROTOR_COUNT>
3.6

> <PUBCHEM_PHARMACOPHORE_FEATURES>
9
1 2 acceptor
1 3 acceptor
1 4 donor
1 6 cation
1 7 cation
1 7 donor
5 6 10 11 12 13 rings
5 7 15 16 19 20 rings
6 10 11 14 15 16 17 rings

> <PUBCHEM_HEAVY_ATOM_COUNT>
22

> <PUBCHEM_ATOM_DEF_STEREO_COUNT>
0

> <PUBCHEM_ATOM_UDEF_STEREO_COUNT>
0

> <PUBCHEM_BOND_DEF_STEREO_COUNT>
0

> <PUBCHEM_BOND_UDEF_STEREO_COUNT>
0

> <PUBCHEM_ISOTOPIC_ATOM_COUNT>
0

> <PUBCHEM_COMPONENT_COUNT>
1

> <PUBCHEM_CACTVS_TAUTO_COUNT>
-1

> <PUBCHEM_CONFORMER_ID>
0813547C00000001

> <PUBCHEM_MMFF94_ENERGY>
46.7163

> <PUBCHEM_FEATURE_SELFOVERLAP>
45.896

> <PUBCHEM_SHAPE_FINGERPRINT>
10616163 171 18050286165750267267
10967382 1 18335976467771886065
11578080 2 17024565864106441492
116883 192 18125721192809222773
12553582 1 18193841435876714483
12707595 3 18337394837829914527
12788726 201 17830749655381025762
13140716 1 18407477765314680801
138480 1 18335976498032108784
14022347 108 18049451339860935099
14223421 5 18264494056165688475
15475509 8 17626406527608430005
15536298 74 18411979191382657065
15664445 248 18269847419451819198
16945 1 18120936101003946065
17492 54 18191611798700737302
19591789 44 17039230385814799299
20028762 73 16829262156470689879
20600515 1 18124015846011048424
20645477 70 18339919428697546143
20691752 17 17313099769986789137
21197605 99 17328312853398410363
21524375 3 17906172106997654768
221490 88 18335708286051434763
2255824 54 18409447011661053154
2334 1 18408881871364098673
23366157 5 17968090962391937897
23419403 2 17752171004087189812
23557571 272 17981598270082822762
23559900 14 18342174457883480653
2748010 2 18337943515591122017
3091708 16 10080407807244065312
314173 41 18337956679787197043
335352 9 18264200323610940501
352729 6 17397834960531322113
43471831 8 18118679057209545129
5104073 3 18334858355537583065
5902787 121 18262509308464732147
5939293 188 18410285904963536192
59755656 215 18189331453991375589
6138700 20 18410017663419712428
6669772 16 17913222133238408388
7364860 26 18341051908051284724
81228 2 17909550553915632040
84936 31 17917701418628212232
9709674 26 18336828697132679723

> <PUBCHEM_SHAPE_MULTIPOLES>
413.2
6.94
4.08
1.1
7.57
2.4
0.14
-2.18
0.77
-3.79
0.33
-1.19
-0.89
0.6

> <PUBCHEM_SHAPE_SELFOVERLAP>
884.71

> <PUBCHEM_SHAPE_VOLUME>
232.5

> <PUBCHEM_COORDINATE_TYPE>
2
5
10

$$$$
