REMARK  Name = 135497915
REMARK  12 active torsions:
REMARK  status: ('A' for Active; 'I' for Inactive)
REMARK    1  A    between atoms: N_2  and  C_18
REMARK    2  A    between atoms: C_3  and  C_7
REMARK    3  A    between atoms: C_9  and  C_10
REMARK    4  A    between atoms: C_11  and  O_16
REMARK    5  A    between atoms: C_18  and  C_20
REMARK    6  A    between atoms: C_18  and  C_23
REMARK    7  A    between atoms: C_20  and  O_21
REMARK    8  A    between atoms: C_23  and  C_24
REMARK    9  A    between atoms: C_24  and  C_25
REMARK   10  A    between atoms: C_25  and  C_26
REMARK   11  A    between atoms: C_26  and  N_27
REMARK   12  A    between atoms: N_27  and  C_31
REMARK                            x       y       z     vdW  Elec       q    Type
REMARK                         _______ _______ _______ _____ _____    ______ ____
ROOT
ATOM      1  O   UNK     1       1.655  -0.774  -1.922  0.00  0.00    -0.273 OA
ATOM      2  N   UNK     1       2.221  -0.985   0.327  0.00  0.00    -0.295 N 
ATOM      3  C   UNK     1       1.478  -1.266  -0.811  0.00  0.00    +0.249 C 
ATOM      4  H   UNK     1       1.984  -1.444   1.165  0.00  0.00    +0.150 HD
ENDROOT
BRANCH   3   7
ATOM      5  O   UNK     1      -1.636  -1.779  -1.525  0.00  0.00    -0.458 OA
ATOM      6  N   UNK     1      -0.484  -1.704   0.448  0.00  0.00    -0.226 NA
ATOM      7  C   UNK     1       0.404  -2.289  -0.557  0.00  0.00    +0.225 C 
ATOM      8  C   UNK     1      -0.452  -2.524  -1.776  0.00  0.00    +0.241 C 
ATOM      9  C   UNK     1      -1.568  -1.448  -0.214  0.00  0.00    +0.224 C 
BRANCH   9  10
ATOM     10  C   UNK     1      -2.773  -0.825   0.278  0.00  0.00    +0.086 C 
ATOM     11  C   UNK     1      -2.725   0.106   1.316  0.00  0.00    +0.138 C 
ATOM     12  C   UNK     1      -3.997  -1.166  -0.297  0.00  0.00    +0.008 C 
ATOM     13  C   UNK     1      -3.901   0.696   1.778  0.00  0.00    +0.037 C 
ATOM     14  C   UNK     1      -5.173  -0.576   0.165  0.00  0.00    +0.000 C 
ATOM     15  C   UNK     1      -5.125   0.355   1.203  0.00  0.00    +0.003 C 
BRANCH  11  16
ATOM     16  O   UNK     1      -1.539   0.451   1.892  0.00  0.00    -0.505 OA
ATOM     17  H   UNK     1      -0.741   0.062   1.591  0.00  0.00    +0.292 HD
ENDBRANCH  11  16
ENDBRANCH   9  10
ENDBRANCH   3   7
BRANCH   2  18
ATOM     18  C   UNK     1       3.321  -0.056   0.344  0.00  0.00    +0.171 C 
BRANCH  18  20
ATOM     19  O   UNK     1       4.600  -1.820   1.438  0.00  0.00    -0.248 OA
ATOM     20  C   UNK     1       4.561  -0.865   0.673  0.00  0.00    +0.332 C 
BRANCH  20  21
ATOM     21  O   UNK     1       5.666  -0.375   0.051  0.00  0.00    -0.479 OA
ATOM     22  H   UNK     1       5.591   0.359  -0.527  0.00  0.00    +0.295 HD
ENDBRANCH  20  21
ENDBRANCH  18  20
BRANCH  18  23
ATOM     23  C   UNK     1       3.131   1.058   1.375  0.00  0.00    +0.031 C 
BRANCH  23  24
ATOM     24  C   UNK     1       1.921   1.966   1.119  0.00  0.00    +0.004 C 
BRANCH  24  25
ATOM     25  C   UNK     1       1.956   2.651  -0.251  0.00  0.00    +0.020 C 
BRANCH  25  26
ATOM     26  C   UNK     1       0.769   3.586  -0.463  0.00  0.00    +0.072 C 
BRANCH  26  27
ATOM     27  N   UNK     1      -0.492   2.898  -0.408  0.00  0.00    -0.362 NA
ATOM     28  H   UNK     1      -0.941   2.817   0.464  0.00  0.00    +0.127 HD
ATOM     29  H   UNK     1      -0.451   2.117   0.190  0.00  0.00    +0.127 HD
BRANCH  27  31
ATOM     30  O   UNK     1      -0.709   2.341  -2.670  0.00  0.00    -0.267 OA
ATOM     31  C   UNK     1      -1.109   2.343  -1.513  0.00  0.00    +0.282 C 
ENDBRANCH  27  31
ENDBRANCH  26  27
ENDBRANCH  25  26
ENDBRANCH  24  25
ENDBRANCH  23  24
ENDBRANCH  18  23
ENDBRANCH   2  18
TORSDOF 12
