135446210
  -OEChem-03292013293D

 44 46  0     0  0  0  0  0  0999 V2000
    4.5927    0.3258    2.1874 Cl  0  0  0  0  0  0  0  0  0  0  0  0
   -0.2698   -2.6617    0.1910 O   0  0  0  0  0  0  0  0  0  0  0  0
    1.6865   -2.5853   -2.0119 O   0  0  0  0  0  0  0  0  0  0  0  0
   -0.1757    5.0495   -0.0881 O   0  0  0  0  0  0  0  0  0  0  0  0
   -3.6364    0.3278    0.2616 O   0  0  0  0  0  0  0  0  0  0  0  0
    5.7960   -1.0460   -0.2013 O   0  0  0  0  0  0  0  0  0  0  0  0
   -1.6560   -2.6048    0.2701 N   0  0  0  0  0  0  0  0  0  0  0  0
   -4.3072   -1.8875    0.4000 N   0  0  0  0  0  0  0  0  0  0  0  0
   -0.8023   -0.4971    0.1439 C   0  0  0  0  0  0  0  0  0  0  0  0
    0.2270   -1.4005    0.1164 C   0  0  0  0  0  0  0  0  0  0  0  0
   -0.6421    0.9285    0.0828 C   0  0  0  0  0  0  0  0  0  0  0  0
   -1.9507   -1.3020    0.2402 C   0  0  0  0  0  0  0  0  0  0  0  0
    1.6582   -1.3137    0.0280 C   0  0  0  0  0  0  0  0  0  0  0  0
   -1.1010    1.7267    1.1307 C   0  0  0  0  0  0  0  0  0  0  0  0
   -0.0264    1.5153   -1.0229 C   0  0  0  0  0  0  0  0  0  0  0  0
    2.3466   -1.9061   -1.0308 C   0  0  0  0  0  0  0  0  0  0  0  0
   -3.3223   -0.8850    0.3064 C   0  0  0  0  0  0  0  0  0  0  0  0
    2.3598   -0.6259    1.0180 C   0  0  0  0  0  0  0  0  0  0  0  0
   -0.9438    3.1114    1.0732 C   0  0  0  0  0  0  0  0  0  0  0  0
    0.1308    2.9000   -1.0805 C   0  0  0  0  0  0  0  0  0  0  0  0
   -0.3280    3.6981   -0.0324 C   0  0  0  0  0  0  0  0  0  0  0  0
    3.7365   -1.8106   -1.0995 C   0  0  0  0  0  0  0  0  0  0  0  0
    3.7497   -0.5305    0.9494 C   0  0  0  0  0  0  0  0  0  0  0  0
    4.4381   -1.1227   -0.1094 C   0  0  0  0  0  0  0  0  0  0  0  0
   -5.7283   -1.6296    0.4521 C   0  0  0  0  0  0  0  0  0  0  0  0
   -6.2934   -1.3575   -0.9266 C   0  0  0  0  0  0  0  0  0  0  0  0
    0.4616    5.5836   -1.2477 C   0  0  0  0  0  0  0  0  0  0  0  0
   -1.5750    1.2881    2.0057 H   0  0  0  0  0  0  0  0  0  0  0  0
    0.3315    0.9117   -1.8539 H   0  0  0  0  0  0  0  0  0  0  0  0
    1.8279   -0.1662    1.8490 H   0  0  0  0  0  0  0  0  0  0  0  0
   -1.3013    3.7279    1.8934 H   0  0  0  0  0  0  0  0  0  0  0  0
    0.6162    3.2899   -1.9686 H   0  0  0  0  0  0  0  0  0  0  0  0
    4.2731   -2.2726   -1.9249 H   0  0  0  0  0  0  0  0  0  0  0  0
   -4.0065   -2.8579    0.4202 H   0  0  0  0  0  0  0  0  0  0  0  0
   -6.2068   -2.5088    0.8946 H   0  0  0  0  0  0  0  0  0  0  0  0
   -5.9056   -0.7708    1.1078 H   0  0  0  0  0  0  0  0  0  0  0  0
   -5.8320   -0.4738   -1.3792 H   0  0  0  0  0  0  0  0  0  0  0  0
   -6.1149   -2.2052   -1.5967 H   0  0  0  0  0  0  0  0  0  0  0  0
   -7.3728   -1.1869   -0.8697 H   0  0  0  0  0  0  0  0  0  0  0  0
    2.3316   -2.9228   -2.6567 H   0  0  0  0  0  0  0  0  0  0  0  0
    6.0897   -1.5153   -1.0009 H   0  0  0  0  0  0  0  0  0  0  0  0
   -0.1201    5.3846   -2.1542 H   0  0  0  0  0  0  0  0  0  0  0  0
    1.4967    5.2359   -1.3339 H   0  0  0  0  0  0  0  0  0  0  0  0
    0.4989    6.6709   -1.1241 H   0  0  0  0  0  0  0  0  0  0  0  0
  1 23  1  0  0  0  0
  2  7  1  0  0  0  0
  2 10  1  0  0  0  0
  3 16  1  0  0  0  0
  3 40  1  0  0  0  0
  4 21  1  0  0  0  0
  4 27  1  0  0  0  0
  5 17  2  0  0  0  0
  6 24  1  0  0  0  0
  6 41  1  0  0  0  0
  7 12  2  0  0  0  0
  8 17  1  0  0  0  0
  8 25  1  0  0  0  0
  8 34  1  0  0  0  0
  9 10  2  0  0  0  0
  9 11  1  0  0  0  0
  9 12  1  0  0  0  0
 10 13  1  0  0  0  0
 11 14  2  0  0  0  0
 11 15  1  0  0  0  0
 12 17  1  0  0  0  0
 13 16  1  0  0  0  0
 13 18  2  0  0  0  0
 14 19  1  0  0  0  0
 14 28  1  0  0  0  0
 15 20  2  0  0  0  0
 15 29  1  0  0  0  0
 16 22  2  0  0  0  0
 18 23  1  0  0  0  0
 18 30  1  0  0  0  0
 19 21  2  0  0  0  0
 19 31  1  0  0  0  0
 20 21  1  0  0  0  0
 20 32  1  0  0  0  0
 22 24  1  0  0  0  0
 22 33  1  0  0  0  0
 23 24  2  0  0  0  0
 25 26  1  0  0  0  0
 25 35  1  0  0  0  0
 25 36  1  0  0  0  0
 26 37  1  0  0  0  0
 26 38  1  0  0  0  0
 26 39  1  0  0  0  0
 27 42  1  0  0  0  0
 27 43  1  0  0  0  0
 27 44  1  0  0  0  0
M  END
> <PUBCHEM_COMPOUND_CID>
135446210

> <PUBCHEM_CONFORMER_RMSD>
0.8

> <PUBCHEM_CONFORMER_DIVERSEORDER>
1
7
20
12
16
23
3
6
21
5
18
4
2
9
13
10
11
19
17
8
22
14
15

> <PUBCHEM_MMFF94_PARTIAL_CHARGES>
35
1 -0.18
10 0.09
11 0.05
12 0.2
13 0.05
14 -0.15
15 -0.15
16 0.08
17 0.72
18 -0.15
19 -0.15
2 -0.02
20 -0.15
21 0.08
22 -0.15
23 0.18
24 0.08
25 0.3
27 0.28
28 0.15
29 0.15
3 -0.53
30 0.15
31 0.15
32 0.15
33 0.15
34 0.37
4 -0.36
40 0.45
41 0.45
5 -0.57
6 -0.53
7 -0.41
8 -0.73
9 -0.05

> <PUBCHEM_EFFECTIVE_ROTOR_COUNT>
6

> <PUBCHEM_PHARMACOPHORE_FEATURES>
9
1 3 donor
1 4 acceptor
1 5 acceptor
1 6 donor
1 7 acceptor
1 8 donor
5 2 7 9 10 12 rings
6 11 14 15 19 20 21 rings
6 13 16 18 22 23 24 rings

> <PUBCHEM_HEAVY_ATOM_COUNT>
27

> <PUBCHEM_ATOM_DEF_STEREO_COUNT>
0

> <PUBCHEM_ATOM_UDEF_STEREO_COUNT>
0

> <PUBCHEM_BOND_DEF_STEREO_COUNT>
0

> <PUBCHEM_BOND_UDEF_STEREO_COUNT>
0

> <PUBCHEM_ISOTOPIC_ATOM_COUNT>
0

> <PUBCHEM_COMPONENT_COUNT>
1

> <PUBCHEM_CACTVS_TAUTO_COUNT>
-1

> <PUBCHEM_CONFORMER_ID>
0812BEC200000001

> <PUBCHEM_MMFF94_ENERGY>
68.2837

> <PUBCHEM_FEATURE_SELFOVERLAP>
45.672

> <PUBCHEM_SHAPE_FINGERPRINT>
10006869 2 17976532815786957995
10165383 225 17403764154668081304
10930396 42 18122029188062307290
1100329 8 18265053716227545419
11578080 2 12749311764010997739
11595378 159 18115869603485157690
11646440 116 18411427223961636715
12236239 1 16950282914469332474
12403259 226 18199751341204915418
12623949 98 17202781318649450511
12788726 201 18186800236537748762
133893 2 17541634537114302255
140371 6 18341062899173425203
14170010 4 18342735269660827771
14955137 171 18338244867972248259
15230672 131 17182226250070750412
15775530 1 17624992538042945439
15840311 113 17632308869625239275
15849732 13 17917987309258967911
15927050 60 17403186283612905270
15961568 22 18338236072427786944
167882 2 18048880994263843741
17357779 13 18270668797339605263
17980427 23 17983562280806344807
1813 80 18409731776698867563
18393751 57 17985525962046337746
18785283 64 18120094150528754067
20600515 1 18411420643475451563
20642791 178 17615682268932070704
21033648 29 17846205658121676619
21133665 82 17326625099403978420
21285901 2 18130231458257784262
21641784 216 18266761141805072860
23366157 5 17682955853422393315
23402539 116 18411980234785929662
23419403 2 17825640477996770013
23557571 272 18410296874125757686
23558518 356 17755868510792908763
23559900 14 18267581502233950571
238 59 16681466288474084500
23845131 108 17547290004258709937
24771293 8 18272363226309769441
24771750 20 17758409847447552453
25019877 29 17131552833677487126
283562 15 18264209118997282251
3178227 256 14876941955260430698
3187 122 18337096900528661704
3298306 158 17760098705866271068
350125 39 17761217617829732794
469060 322 18336557014201142329
5252454 2 17619081538236633368
621550 34 18131063819083652278
6442390 28 17402059898359524833
7399639 24 18130212792909949994
7808743 9 18047764698305042124
81228 2 18265067850468602642
9777508 108 17906733600746244184

> <PUBCHEM_SHAPE_MULTIPOLES>
518.21
9.61
5.58
1.39
5.41
11.45
-0.04
-9.97
-1.04
0.68
2.02
-1.25
0.17
0.59

> <PUBCHEM_SHAPE_SELFOVERLAP>
1121.246

> <PUBCHEM_SHAPE_VOLUME>
284.5

> <PUBCHEM_COORDINATE_TYPE>
2
5
10

$$$$
