135474412
  -OEChem-03292013293D

 43 46  0     0  0  0  0  0  0999 V2000
    2.6999   -5.1441   -0.0469 O   0  0  0  0  0  0  0  0  0  0  0  0
    3.5794    3.8282    0.5137 O   0  5  0  0  0  0  0  0  0  0  0  0
    3.0162    3.7425   -1.6064 O   0  0  0  0  0  0  0  0  0  0  0  0
   -8.2540   -0.6425   -1.3828 O   0  0  0  0  0  0  0  0  0  0  0  0
   -1.3956    0.0930    0.8452 N   0  0  0  0  0  0  0  0  0  0  0  0
    2.8967    0.4528   -0.3085 N   0  0  0  0  0  0  0  0  0  0  0  0
   -0.7955   -1.1273    0.7321 N   0  0  0  0  0  0  0  0  0  0  0  0
   -5.0988   -0.1130    0.4353 N   0  0  0  0  0  0  0  0  0  0  0  0
    2.8177    3.4430   -0.4050 N   0  3  0  0  0  0  0  0  0  0  0  0
    0.6280    0.5650    0.2906 C   0  0  0  0  0  0  0  0  0  0  0  0
   -0.5707    1.1580    0.5853 C   0  0  0  0  0  0  0  0  0  0  0  0
    0.4587   -0.8212    0.3875 C   0  0  0  0  0  0  0  0  0  0  0  0
    1.7898    1.2541   -0.0433 C   0  0  0  0  0  0  0  0  0  0  0  0
    1.6196   -1.6621    0.1108 C   0  0  0  0  0  0  0  0  0  0  0  0
   -2.7909    0.1591    1.2130 C   0  0  0  0  0  0  0  0  0  0  0  0
    2.8433   -0.9805   -0.2380 C   0  0  0  0  0  0  0  0  0  0  0  0
    1.6922    2.6403   -0.0736 C   0  0  0  0  0  0  0  0  0  0  0  0
   -0.7013    2.5438    0.5661 C   0  0  0  0  0  0  0  0  0  0  0  0
   -3.6992   -0.1774    0.0309 C   0  0  0  0  0  0  0  0  0  0  0  0
    0.4649    3.2684    0.2279 C   0  0  0  0  0  0  0  0  0  0  0  0
    1.5749   -3.0526    0.1739 C   0  0  0  0  0  0  0  0  0  0  0  0
    3.9832   -1.7390   -0.5140 C   0  0  0  0  0  0  0  0  0  0  0  0
    2.7310   -3.7828   -0.1056 C   0  0  0  0  0  0  0  0  0  0  0  0
    3.9229   -3.1333   -0.4466 C   0  0  0  0  0  0  0  0  0  0  0  0
   -5.9769   -0.4416   -0.6785 C   0  0  0  0  0  0  0  0  0  0  0  0
   -7.4353   -0.3306   -0.2633 C   0  0  0  0  0  0  0  0  0  0  0  0
   -2.9418   -0.5461    2.0395 H   0  0  0  0  0  0  0  0  0  0  0  0
   -3.0004    1.1631    1.5982 H   0  0  0  0  0  0  0  0  0  0  0  0
    3.7809    0.8823   -0.5434 H   0  0  0  0  0  0  0  0  0  0  0  0
   -1.6336    3.0467    0.7920 H   0  0  0  0  0  0  0  0  0  0  0  0
   -3.5057    0.5256   -0.7894 H   0  0  0  0  0  0  0  0  0  0  0  0
   -3.4625   -1.1834   -0.3374 H   0  0  0  0  0  0  0  0  0  0  0  0
    0.3972    4.3558    0.2025 H   0  0  0  0  0  0  0  0  0  0  0  0
    0.6580   -3.5735    0.4363 H   0  0  0  0  0  0  0  0  0  0  0  0
    4.9195   -1.2567   -0.7813 H   0  0  0  0  0  0  0  0  0  0  0  0
   -5.3135    0.8220    0.7809 H   0  0  0  0  0  0  0  0  0  0  0  0
    4.8196   -3.7089   -0.6639 H   0  0  0  0  0  0  0  0  0  0  0  0
   -5.7843   -1.4611   -1.0354 H   0  0  0  0  0  0  0  0  0  0  0  0
   -5.7968    0.2272   -1.5298 H   0  0  0  0  0  0  0  0  0  0  0  0
   -7.6762    0.6854    0.0671 H   0  0  0  0  0  0  0  0  0  0  0  0
   -7.6697   -1.0318    0.5446 H   0  0  0  0  0  0  0  0  0  0  0  0
    3.5816   -5.4899   -0.2682 H   0  0  0  0  0  0  0  0  0  0  0  0
   -9.1782   -0.5646   -1.0906 H   0  0  0  0  0  0  0  0  0  0  0  0
  1 23  1  0  0  0  0
  1 42  1  0  0  0  0
  2  9  1  0  0  0  0
  3  9  2  0  0  0  0
  4 26  1  0  0  0  0
  4 43  1  0  0  0  0
  5  7  1  0  0  0  0
  5 11  1  0  0  0  0
  5 15  1  0  0  0  0
  6 13  1  0  0  0  0
  6 16  1  0  0  0  0
  6 29  1  0  0  0  0
  7 12  2  0  0  0  0
  8 19  1  0  0  0  0
  8 25  1  0  0  0  0
  8 36  1  0  0  0  0
  9 17  1  0  0  0  0
 10 11  2  0  0  0  0
 10 12  1  0  0  0  0
 10 13  1  0  0  0  0
 11 18  1  0  0  0  0
 12 14  1  0  0  0  0
 13 17  2  0  0  0  0
 14 16  2  0  0  0  0
 14 21  1  0  0  0  0
 15 19  1  0  0  0  0
 15 27  1  0  0  0  0
 15 28  1  0  0  0  0
 16 22  1  0  0  0  0
 17 20  1  0  0  0  0
 18 20  2  0  0  0  0
 18 30  1  0  0  0  0
 19 31  1  0  0  0  0
 19 32  1  0  0  0  0
 20 33  1  0  0  0  0
 21 23  2  0  0  0  0
 21 34  1  0  0  0  0
 22 24  2  0  0  0  0
 22 35  1  0  0  0  0
 23 24  1  0  0  0  0
 24 37  1  0  0  0  0
 25 26  1  0  0  0  0
 25 38  1  0  0  0  0
 25 39  1  0  0  0  0
 26 40  1  0  0  0  0
 26 41  1  0  0  0  0
M  CHG  2   2  -1   9   1
M  END
> <PUBCHEM_COMPOUND_CID>
135474412

> <PUBCHEM_CONFORMER_RMSD>
0.8

> <PUBCHEM_CONFORMER_DIVERSEORDER>
1
19
10
21
13
9
23
24
16
4
11
7
15
22
2
3
20
8
6
18
12
17
14
5

> <PUBCHEM_MMFF94_PARTIAL_CHARGES>
34
1 -0.53
11 -0.15
12 0.23
13 0.1
14 0.05
15 0.26
16 0.1
17 0.13
18 -0.15
19 0.27
2 -0.52
20 -0.15
21 -0.15
22 -0.15
23 0.08
24 -0.15
25 0.27
26 0.28
29 0.4
3 -0.52
30 0.15
33 0.15
34 0.15
35 0.15
36 0.36
37 0.15
4 -0.68
42 0.45
43 0.4
5 0.31
6 -0.6
7 -0.71
8 -0.9
9 0.91

> <PUBCHEM_EFFECTIVE_ROTOR_COUNT>
6.2

> <PUBCHEM_PHARMACOPHORE_FEATURES>
15
1 1 donor
1 2 acceptor
1 2 anion
1 3 acceptor
1 4 acceptor
1 4 donor
1 6 cation
1 6 donor
1 7 acceptor
1 8 cation
1 8 donor
5 5 7 10 11 12 rings
6 10 11 13 17 18 20 rings
6 14 16 21 22 23 24 rings
6 6 10 12 13 14 16 rings

> <PUBCHEM_HEAVY_ATOM_COUNT>
26

> <PUBCHEM_ATOM_DEF_STEREO_COUNT>
0

> <PUBCHEM_ATOM_UDEF_STEREO_COUNT>
0

> <PUBCHEM_BOND_DEF_STEREO_COUNT>
0

> <PUBCHEM_BOND_UDEF_STEREO_COUNT>
0

> <PUBCHEM_ISOTOPIC_ATOM_COUNT>
0

> <PUBCHEM_COMPONENT_COUNT>
1

> <PUBCHEM_CACTVS_TAUTO_COUNT>
-1

> <PUBCHEM_CONFORMER_ID>
08132CEC00000001

> <PUBCHEM_MMFF94_ENERGY>
75.6188

> <PUBCHEM_FEATURE_SELFOVERLAP>
76.473

> <PUBCHEM_SHAPE_FINGERPRINT>
10411042 1 18194683657441709458
10622 236 18128808660974754871
10693767 8 18130518461252855918
10967382 1 18337968826450446050
1100329 8 18267592476065100682
11045515 52 17972887955588333316
11135609 149 18122036772621292391
11719270 70 18339355400095514376
12553582 1 18193863464890953242
12730499 353 18264214780491762889
13140716 1 18195828446999082186
13533116 47 18271805753125374433
13540713 4 17896617248358435091
13540713 5 18130522833846275561
13690498 29 17260213007288674598
138480 1 18338245868778379080
13955234 65 18342457092817775481
13968360 50 18338231695080425025
14508225 48 18193556653553509919
15042514 8 17472433044941347472
15483637 11 18122344846816763691
15950262 2 15070904297918330716
16087824 20 17400369945094144817
17492 89 17835804093012657318
17980427 26 17557964411117977425
1813 80 18057613074787738327
19591789 44 17833861600095432450
20554085 129 17772178963128090600
20612939 158 18410857685770716177
20645477 70 18335138726238225577
20775438 99 18266722745014457851
21133410 171 17103088453720905155
21478907 32 18123191203932390051
221357 26 18334851676847456941
23522609 53 17845114977553251137
23559900 14 18410295821637127019
25147074 1 17988096512841928449
2748010 2 17976285717559757424
3091708 16 8783372184398264952
3380486 145 17832165830484225048
4394409 98 14521751570137797687
46194498 28 18113894970901350341
59682541 52 18410283715178867231
6004065 56 18410290307184143834
6025842 7 18411136982692488709
70251023 43 18337674105557185481
7164475 11 17904210222167269982
7471813 234 18272088258271886841

> <PUBCHEM_SHAPE_MULTIPOLES>
486.69
12.26
5.57
0.93
37.84
0.51
0.11
-7.62
4.96
-10.58
0.69
0.53
0.27
-0.8

> <PUBCHEM_SHAPE_SELFOVERLAP>
1073.249

> <PUBCHEM_SHAPE_VOLUME>
261.8

> <PUBCHEM_COORDINATE_TYPE>
2
5
10

$$$$
