REMARK  Name = 135410907
REMARK  5 active torsions:
REMARK  status: ('A' for Active; 'I' for Inactive)
REMARK    1  A    between atoms: N_2  and  C1*_16
REMARK    2  A    between atoms: C2*_17  and  O2*_20
REMARK    3  A    between atoms: C3*_18  and  O3*_22
REMARK    4  A    between atoms: C4*_19  and  C5*_24
REMARK    5  A    between atoms: C5*_24  and  O5*_25
REMARK                            x       y       z     vdW  Elec       q    Type
REMARK                         _______ _______ _______ _____ _____    ______ ____
ROOT
ATOM      1  O   UNL     1      -4.355   1.850  -0.416  0.00  0.00    -0.274 OA
ATOM      2  N   UNL     1      -0.024   0.487   0.129  0.00  0.00    -0.240 N 
ATOM      3  N   UNL     1      -1.687  -1.223   0.391  0.00  0.00    -0.362 NA
ATOM      4  N   UNL     1      -3.901  -0.380   0.082  0.00  0.00    -0.247 N 
ATOM      5  N   UNL     1      -3.543  -2.649   0.581  0.00  0.00    -0.321 N 
ATOM      6  C   UNL     1      -1.323   0.058   0.142  0.00  0.00    +0.181 C 
ATOM      7  C   UNL     1       0.005   1.832  -0.152  0.00  0.00    +0.066 C 
ATOM      8  C   UNL     1      -2.127   1.143  -0.134  0.00  0.00    +0.167 C 
ATOM      9  C   UNL     1      -1.294   2.267  -0.321  0.00  0.00    +0.007 C 
ATOM     10  C   UNL     1      -3.556   0.951  -0.179  0.00  0.00    +0.241 C 
ATOM     11  C   UNL     1      -2.985  -1.418   0.355  0.00  0.00    +0.239 C 
ATOM     12  H   UNL     1      -4.858  -0.610   0.074  0.00  0.00    +0.158 HD
ATOM     13  H   UNL     1      -2.967  -3.422   0.778  0.00  0.00    +0.146 HD
ATOM     14  H   UNL     1      -4.521  -2.760   0.547  0.00  0.00    +0.146 HD
ENDROOT
BRANCH   2  16
ATOM     15  O4* UNL     1       2.253   0.396   1.003  0.00  0.00    -0.333 OA
ATOM     16  C1* UNL     1       1.197  -0.365   0.381  0.00  0.00    +0.228 C 
ATOM     17  C2* UNL     1       1.798  -0.937  -0.899  0.00  0.00    +0.187 C 
ATOM     18  C3* UNL     1       3.241  -1.162  -0.496  0.00  0.00    +0.171 C 
ATOM     19  C4* UNL     1       3.516   0.043   0.396  0.00  0.00    +0.175 C 
BRANCH  17  20
ATOM     20  O2* UNL     1       1.154  -2.120  -1.331  0.00  0.00    -0.378 OA
ATOM     21  H2* UNL     1       0.238  -1.918  -1.575  0.00  0.00    +0.211 HD
ENDBRANCH  17  20
BRANCH  18  22
ATOM     22  O3* UNL     1       3.358  -2.337   0.304  0.00  0.00    -0.379 OA
ATOM     23  H3* UNL     1       3.186  -3.119  -0.244  0.00  0.00    +0.211 HD
ENDBRANCH  18  22
BRANCH  19  24
ATOM     24  C5* UNL     1       4.030   1.251  -0.374  0.00  0.00    +0.169 C 
BRANCH  24  25
ATOM     25  O5* UNL     1       4.243   2.314   0.538  0.00  0.00    -0.379 OA
ATOM     26  H5* UNL     1       4.570   3.091   0.059  0.00  0.00    +0.211 HD
ENDBRANCH  24  25
ENDBRANCH  19  24
ENDBRANCH   2  16
TORSDOF 5
