REMARK  Name = 135439721
REMARK  8 active torsions:
REMARK  status: ('A' for Active; 'I' for Inactive)
REMARK    1  A    between atoms: N_1  and  C_2
REMARK    2  A    between atoms: N_1  and  N_16
REMARK    3  A    between atoms: C_2  and  C_4
REMARK    4  A    between atoms: C_5  and  C_12
REMARK    5  A    between atoms: C_6  and  O_10
REMARK    6  A    between atoms: C_12  and  O_13
REMARK    7  A    between atoms: C_17  and  C_19
REMARK    8  A    between atoms: C_22  and  O_25
REMARK                            x       y       z     vdW  Elec       q    Type
REMARK                         _______ _______ _______ _____ _____    ______ ____
ROOT
ATOM      1  N   UNL     1       0.729  -0.473   0.173  0.00  0.00    -0.126 NA
ENDROOT
BRANCH   1   3
ATOM      2  O   UNL     1      -1.280  -2.250   0.711  0.00  0.00    -0.269 OA
ATOM      3  N   UNL     1      -0.579  -0.153   0.029  0.00  0.00    -0.228 N 
ATOM      4  C   UNL     1      -1.560  -1.103   0.319  0.00  0.00    +0.260 C 
ATOM      5  H   UNL     1      -0.837   0.746  -0.280  0.00  0.00    +0.171 HD
BRANCH   4   6
ATOM      6  C   UNL     1      -2.945  -0.690   0.164  0.00  0.00    +0.055 C 
ATOM      7  C   UNL     1      -3.291   0.655   0.301  0.00  0.00    +0.008 C 
ATOM      8  C   UNL     1      -3.928  -1.637  -0.124  0.00  0.00    +0.008 C 
ATOM      9  C   UNL     1      -5.603   0.104  -0.137  0.00  0.00    +0.139 C 
ATOM     10  C   UNL     1      -4.620   1.052   0.151  0.00  0.00    +0.037 C 
ATOM     11  C   UNL     1      -5.256  -1.240  -0.274  0.00  0.00    +0.037 C 
BRANCH   9  12
ATOM     12  O   UNL     1      -6.899   0.491  -0.283  0.00  0.00    -0.471 OA
ATOM     13  C   UNL     1      -7.183   1.881  -0.130  0.00  0.00    +0.252 C 
ENDBRANCH   9  12
ENDBRANCH   4   6
ENDBRANCH   1   3
BRANCH   1  14
ATOM     14  C   UNL     1       1.542   0.488  -0.126  0.00  0.00    +0.141 C 
BRANCH  14  16
ATOM     15  N   UNL     1       5.776   0.026   0.150  0.00  0.00    -0.245 NA
ATOM     16  C   UNL     1       3.003   0.331  -0.030  0.00  0.00    +0.032 C 
ATOM     17  C   UNL     1       3.809   1.427   0.259  0.00  0.00    +0.026 C 
ATOM     18  C   UNL     1       3.583  -0.917  -0.230  0.00  0.00    +0.144 C 
ATOM     19  C   UNL     1       4.961  -1.016  -0.130  0.00  0.00    +0.093 C 
ATOM     20  C   UNL     1       5.177   1.224   0.338  0.00  0.00    +0.096 C 
ATOM     21  C   UNL     1       5.635  -2.333  -0.335  0.00  0.00    +0.055 C 
BRANCH  18  22
ATOM     22  O   UNL     1       2.823  -2.008  -0.514  0.00  0.00    -0.505 OA
ATOM     23  H   UNL     1       1.891  -1.926  -0.579  0.00  0.00    +0.292 HD
ENDBRANCH  18  22
BRANCH  17  24
ATOM     24  C   UNL     1       3.247   2.789   0.482  0.00  0.00    +0.165 C 
BRANCH  24  25
ATOM     25  O   UNL     1       2.860   3.352  -0.766  0.00  0.00    -0.377 OA
ATOM     26  H   UNL     1       2.494   4.239  -0.621  0.00  0.00    +0.211 HD
ENDBRANCH  24  25
ENDBRANCH  17  24
ENDBRANCH  14  16
ENDBRANCH   1  14
TORSDOF 8
