135413514
  -OEChem-03292013293D

 54 57  0     0  0  0  0  0  0999 V2000
   -4.3798   -1.4740   -0.0644 O   0  0  0  0  0  0  0  0  0  0  0  0
   -2.0954   -2.9364   -1.1215 O   0  0  0  0  0  0  0  0  0  0  0  0
    4.1287    3.6079   -0.1294 O   0  0  0  0  0  0  0  0  0  0  0  0
    5.0874   -0.3457    0.3320 O   0  0  0  0  0  0  0  0  0  0  0  0
    5.8206    1.5095   -0.7576 O   0  0  0  0  0  0  0  0  0  0  0  0
   -0.4763    2.4286   -0.0363 N   0  0  0  0  0  0  0  0  0  0  0  0
    0.1870   -0.2296   -0.1529 N   0  0  0  0  0  0  0  0  0  0  0  0
   -0.9327   -2.7230    0.8733 N   0  0  0  0  0  0  0  0  0  0  0  0
    1.3421   -5.6267    0.3572 N   0  0  0  0  0  0  0  0  0  0  0  0
   -1.4545    1.5008   -0.0414 C   0  0  0  0  0  0  0  0  0  0  0  0
   -1.1000    0.1475   -0.1012 C   0  0  0  0  0  0  0  0  0  0  0  0
   -2.8203    1.8610    0.0117 C   0  0  0  0  0  0  0  0  0  0  0  0
   -2.0931   -0.8222   -0.1074 C   0  0  0  0  0  0  0  0  0  0  0  0
   -3.8211    0.8602    0.0042 C   0  0  0  0  0  0  0  0  0  0  0  0
   -3.4410   -0.4799   -0.0558 C   0  0  0  0  0  0  0  0  0  0  0  0
    1.1495    0.7037   -0.1475 C   0  0  0  0  0  0  0  0  0  0  0  0
    0.8121    2.0564   -0.0882 C   0  0  0  0  0  0  0  0  0  0  0  0
   -1.7247   -2.2360   -0.1682 C   0  0  0  0  0  0  0  0  0  0  0  0
   -0.4672   -4.0895    0.9432 C   0  0  0  0  0  0  0  0  0  0  0  0
   -3.2382    3.2076    0.0733 C   0  0  0  0  0  0  0  0  0  0  0  0
   -5.1789    1.2184    0.0569 C   0  0  0  0  0  0  0  0  0  0  0  0
    0.8780   -4.2496    0.2504 C   0  0  0  0  0  0  0  0  0  0  0  0
    2.4934    0.3384   -0.2007 C   0  0  0  0  0  0  0  0  0  0  0  0
    1.8268    3.0114   -0.0833 C   0  0  0  0  0  0  0  0  0  0  0  0
   -4.5909    3.5509    0.1254 C   0  0  0  0  0  0  0  0  0  0  0  0
   -5.5607    2.5567    0.1171 C   0  0  0  0  0  0  0  0  0  0  0  0
    3.5046    1.2972   -0.1957 C   0  0  0  0  0  0  0  0  0  0  0  0
    3.1694    2.6415   -0.1368 C   0  0  0  0  0  0  0  0  0  0  0  0
    0.6645   -6.4775   -0.6232 C   0  0  0  0  0  0  0  0  0  0  0  0
    2.7931   -5.6984    0.1735 C   0  0  0  0  0  0  0  0  0  0  0  0
    4.8952    0.8693   -0.2501 C   0  0  0  0  0  0  0  0  0  0  0  0
    4.6226    4.0215    1.1436 C   0  0  0  0  0  0  0  0  0  0  0  0
   -0.3881   -4.3446    2.0060 H   0  0  0  0  0  0  0  0  0  0  0  0
   -1.2357   -4.7299    0.4996 H   0  0  0  0  0  0  0  0  0  0  0  0
   -2.5090    4.0157    0.0817 H   0  0  0  0  0  0  0  0  0  0  0  0
   -5.9631    0.4643    0.0520 H   0  0  0  0  0  0  0  0  0  0  0  0
    0.8317   -3.9110   -0.7933 H   0  0  0  0  0  0  0  0  0  0  0  0
    1.5822   -3.5726    0.7542 H   0  0  0  0  0  0  0  0  0  0  0  0
   -0.6568   -2.0916    1.6200 H   0  0  0  0  0  0  0  0  0  0  0  0
    2.7346   -0.7220   -0.2590 H   0  0  0  0  0  0  0  0  0  0  0  0
    1.5671    4.0678   -0.0377 H   0  0  0  0  0  0  0  0  0  0  0  0
   -4.8833    4.5959    0.1722 H   0  0  0  0  0  0  0  0  0  0  0  0
   -6.6131    2.8213    0.1575 H   0  0  0  0  0  0  0  0  0  0  0  0
   -3.9700   -2.3528   -0.0844 H   0  0  0  0  0  0  0  0  0  0  0  0
   -0.4155   -6.5145   -0.4517 H   0  0  0  0  0  0  0  0  0  0  0  0
    1.0180   -7.5116   -0.5365 H   0  0  0  0  0  0  0  0  0  0  0  0
    3.3095   -5.1154    0.9443 H   0  0  0  0  0  0  0  0  0  0  0  0
    3.1033   -5.3252   -0.8094 H   0  0  0  0  0  0  0  0  0  0  0  0
    3.1442   -6.7312    0.2777 H   0  0  0  0  0  0  0  0  0  0  0  0
    0.8408   -6.1454   -1.6530 H   0  0  0  0  0  0  0  0  0  0  0  0
    3.8231    4.4859    1.7295 H   0  0  0  0  0  0  0  0  0  0  0  0
    5.0457    3.1743    1.6924 H   0  0  0  0  0  0  0  0  0  0  0  0
    5.4112    4.7611    0.9806 H   0  0  0  0  0  0  0  0  0  0  0  0
    6.0266   -0.6257    0.2908 H   0  0  0  0  0  0  0  0  0  0  0  0
  1 15  1  0  0  0  0
  1 44  1  0  0  0  0
  2 18  2  0  0  0  0
  3 28  1  0  0  0  0
  3 32  1  0  0  0  0
  4 31  1  0  0  0  0
  4 54  1  0  0  0  0
  5 31  2  0  0  0  0
  6 10  2  0  0  0  0
  6 17  1  0  0  0  0
  7 11  2  0  0  0  0
  7 16  1  0  0  0  0
  8 18  1  0  0  0  0
  8 19  1  0  0  0  0
  8 39  1  0  0  0  0
  9 22  1  0  0  0  0
  9 29  1  0  0  0  0
  9 30  1  0  0  0  0
 10 11  1  0  0  0  0
 10 12  1  0  0  0  0
 11 13  1  0  0  0  0
 12 14  1  0  0  0  0
 12 20  2  0  0  0  0
 13 15  2  0  0  0  0
 13 18  1  0  0  0  0
 14 15  1  0  0  0  0
 14 21  2  0  0  0  0
 16 17  2  0  0  0  0
 16 23  1  0  0  0  0
 17 24  1  0  0  0  0
 19 22  1  0  0  0  0
 19 33  1  0  0  0  0
 19 34  1  0  0  0  0
 20 25  1  0  0  0  0
 20 35  1  0  0  0  0
 21 26  1  0  0  0  0
 21 36  1  0  0  0  0
 22 37  1  0  0  0  0
 22 38  1  0  0  0  0
 23 27  2  0  0  0  0
 23 40  1  0  0  0  0
 24 28  2  0  0  0  0
 24 41  1  0  0  0  0
 25 26  2  0  0  0  0
 25 42  1  0  0  0  0
 26 43  1  0  0  0  0
 27 28  1  0  0  0  0
 27 31  1  0  0  0  0
 29 45  1  0  0  0  0
 29 46  1  0  0  0  0
 29 50  1  0  0  0  0
 30 47  1  0  0  0  0
 30 48  1  0  0  0  0
 30 49  1  0  0  0  0
 32 51  1  0  0  0  0
 32 52  1  0  0  0  0
 32 53  1  0  0  0  0
M  END
> <PUBCHEM_COMPOUND_CID>
135413514

> <PUBCHEM_CONFORMER_RMSD>
1

> <PUBCHEM_CONFORMER_DIVERSEORDER>
1
6
7
2
4
9
3
5
8

> <PUBCHEM_MMFF94_PARTIAL_CHARGES>
39
1 -0.53
10 0.31
11 0.31
13 0.09
15 0.08
16 0.31
17 0.31
18 0.54
19 0.3
2 -0.57
20 -0.15
21 -0.15
22 0.27
23 -0.15
24 -0.15
25 -0.15
26 -0.15
27 0.09
28 0.08
29 0.27
3 -0.36
30 0.27
31 0.63
32 0.28
35 0.15
36 0.15
39 0.37
4 -0.65
40 0.15
41 0.15
42 0.15
43 0.15
44 0.45
5 -0.57
54 0.5
6 -0.62
7 -0.62
8 -0.73
9 -0.81

> <PUBCHEM_EFFECTIVE_ROTOR_COUNT>
7

> <PUBCHEM_PHARMACOPHORE_FEATURES>
14
1 1 donor
1 2 acceptor
1 3 acceptor
1 4 acceptor
1 5 acceptor
1 6 acceptor
1 7 acceptor
1 8 donor
1 9 cation
3 4 5 31 anion
6 10 11 12 13 14 15 rings
6 12 14 20 21 25 26 rings
6 16 17 23 24 27 28 rings
6 6 7 10 11 16 17 rings

> <PUBCHEM_HEAVY_ATOM_COUNT>
32

> <PUBCHEM_ATOM_DEF_STEREO_COUNT>
0

> <PUBCHEM_ATOM_UDEF_STEREO_COUNT>
0

> <PUBCHEM_BOND_DEF_STEREO_COUNT>
0

> <PUBCHEM_BOND_UDEF_STEREO_COUNT>
0

> <PUBCHEM_ISOTOPIC_ATOM_COUNT>
0

> <PUBCHEM_COMPONENT_COUNT>
1

> <PUBCHEM_CACTVS_TAUTO_COUNT>
-1

> <PUBCHEM_CONFORMER_ID>
08123F0A00000001

> <PUBCHEM_MMFF94_ENERGY>
115.7812

> <PUBCHEM_FEATURE_SELFOVERLAP>
71.212

> <PUBCHEM_SHAPE_FINGERPRINT>
10411042 1 16825307230298217446
10940486 97 18044666536235783868
1100329 8 17832710071976673587
11049842 53 18043276624335263246
11578080 2 16808129096713639549
12107183 9 18265045847810341152
12788726 201 17977369857288643067
13140716 1 18411416193947809801
138480 1 17833268619108354131
14028597 1 17773895133638782225
140371 6 17617655900835749797
14394314 77 17619635679085393496
14415361 192 16375230422097483726
14659021 117 17837195340361676498
14725015 67 18197495345060573227
14790565 3 18409731742244612345
14844126 61 17758108589635107706
14937079 2 17689156713078966129
14955137 171 17545608855712208867
15196674 1 18339924917154716357
15320467 1 18122063100871348354
15400415 2 18410293644442758932
15684970 41 17333400921376797363
15927050 60 18411984629022809215
15961568 22 17259905118125904263
16719943 64 18409449219511905978
20775438 99 16256130738498393343
21133410 171 17043395237726414002
21133410 221 15598293421173628458
21796203 349 17115830650987494265
23516275 137 18045523940614554778
23559900 14 18200879478847657276
24771750 20 18191603959642188831
283562 15 18269272534211647401
335352 9 18411139112917848140
3380486 145 17398406697813745338
3882209 13 16830059272435912866
4073 2 18192432086073771768
5104073 3 18411419552612352912
5265222 85 18335999643911664500
5385378 56 18266750073806498953
613672 6 16973062866718775070
6700243 42 16971158465693634636
9709674 26 18051133889173227524
9981440 41 18336264639056233785

> <PUBCHEM_SHAPE_MULTIPOLES>
609.27
10.65
8.82
0.76
3.51
14.24
0.05
-9.59
0.05
-11.6
0.68
-0.24
0.14
-0.12

> <PUBCHEM_SHAPE_SELFOVERLAP>
1352.162

> <PUBCHEM_SHAPE_VOLUME>
327.2

> <PUBCHEM_COORDINATE_TYPE>
2
5
10

$$$$
