REMARK  Name = 135464167
REMARK  10 active torsions:
REMARK  status: ('A' for Active; 'I' for Inactive)
REMARK    1  A    between atoms: N_2  and  C_15
REMARK    2  A    between atoms: C_15  and  O_16
REMARK    3  A    between atoms: O_16  and  C_17
REMARK    4  A    between atoms: C_17  and  C_18
REMARK    5  A    between atoms: C_17  and  C_26
REMARK    6  A    between atoms: C_18  and  C_19
REMARK    7  A    between atoms: C_19  and  P_20
REMARK    8  A    between atoms: P_20  and  O_22
REMARK    9  A    between atoms: P_20  and  O_24
REMARK   10  A    between atoms: C_26  and  O_27
REMARK                            x       y       z     vdW  Elec       q    Type
REMARK                         _______ _______ _______ _____ _____    ______ ____
ROOT
ATOM      1  O   UNL     1      -5.203  -0.595   0.593  0.00  0.00    -0.268 OA
ATOM      2  N   UNL     1      -1.338   1.356  -0.699  0.00  0.00    -0.235 N 
ATOM      3  N   UNL     1      -3.517   1.677  -0.310  0.00  0.00    -0.240 NA
ATOM      4  N   UNL     1      -1.137  -1.000  -0.178  0.00  0.00    -0.357 NA
ATOM      5  N   UNL     1      -3.260  -1.887   0.487  0.00  0.00    -0.243 N 
ATOM      6  N   UNL     1      -1.352  -3.264   0.409  0.00  0.00    -0.321 N 
ATOM      7  C   UNL     1      -1.837   0.150  -0.304  0.00  0.00    +0.211 C 
ATOM      8  C   UNL     1      -3.171   0.380  -0.074  0.00  0.00    +0.176 C 
ATOM      9  C   UNL     1      -2.386   2.243  -0.687  0.00  0.00    +0.224 C 
ATOM     10  C   UNL     1      -4.005  -0.706   0.364  0.00  0.00    +0.273 C 
ATOM     11  C   UNL     1      -1.876  -2.011   0.221  0.00  0.00    +0.239 C 
ATOM     12  H   UNL     1      -3.739  -2.695   0.782  0.00  0.00    +0.159 HD
ATOM     13  H   UNL     1      -0.395  -3.428   0.244  0.00  0.00    +0.146 HD
ATOM     14  H   UNL     1      -1.933  -4.001   0.709  0.00  0.00    +0.146 HD
ENDROOT
BRANCH   2  15
ATOM     15  C   UNL     1       0.082   1.672  -1.078  0.00  0.00    +0.244 C 
BRANCH  15  16
ATOM     16  O   UNL     1       0.856   1.743   0.114  0.00  0.00    -0.334 OA
BRANCH  16  17
ATOM     17  C   UNL     1       2.220   2.053  -0.168  0.00  0.00    +0.147 C 
BRANCH  17  18
ATOM     18  C   UNL     1       2.945   0.782  -0.621  0.00  0.00    +0.045 C 
BRANCH  18  19
ATOM     19  C   UNL     1       2.893  -0.338   0.414  0.00  0.00    +0.118 C 
BRANCH  19  20
ATOM     20  P   UNL     1       3.662  -1.882  -0.121  0.00  0.00    +0.337 P 
ATOM     21  O   UNL     1       5.106  -1.746  -0.455  0.00  0.00    -0.258 OA
BRANCH  20  22
ATOM     22  O   UNL     1       3.303  -2.886   1.086  0.00  0.00    -0.324 OA
ATOM     23  H   UNL     1       3.675  -3.762   0.899  0.00  0.00    +0.220 HD
ENDBRANCH  20  22
BRANCH  20  24
ATOM     24  O   UNL     1       2.697  -2.354  -1.320  0.00  0.00    -0.324 OA
ATOM     25  H   UNL     1       3.023  -3.190  -1.688  0.00  0.00    +0.220 HD
ENDBRANCH  20  24
ENDBRANCH  19  20
ENDBRANCH  18  19
ENDBRANCH  17  18
BRANCH  17  26
ATOM     26  C   UNL     1       2.856   2.626   1.096  0.00  0.00    +0.167 C 
BRANCH  26  27
ATOM     27  O   UNL     1       2.463   3.988   1.232  0.00  0.00    -0.379 OA
ATOM     28  H   UNL     1       2.863   4.361   2.033  0.00  0.00    +0.211 HD
ENDBRANCH  26  27
ENDBRANCH  17  26
ENDBRANCH  16  17
ENDBRANCH  15  16
ENDBRANCH   2  15
TORSDOF 10
