REMARK  Name = 135416394
REMARK  8 active torsions:
REMARK  status: ('A' for Active; 'I' for Inactive)
REMARK    1  A    between atoms: C_1  and  C_6
REMARK    2  A    between atoms: C_1  and  C_18
REMARK    3  A    between atoms: N_5  and  C_11
REMARK    4  A    between atoms: C_13  and  C_15
REMARK    5  A    between atoms: C_15  and  O_16
REMARK    6  A    between atoms: C_18  and  C_22
REMARK    7  A    between atoms: C_23  and  C_25
REMARK    8  A    between atoms: C_29  and  O_30
REMARK                            x       y       z     vdW  Elec       q    Type
REMARK                         _______ _______ _______ _____ _____    ______ ____
ROOT
ATOM      1  C   UNL     1       1.639   2.839   0.518  0.00  0.00    +0.079 C 
ATOM      2  C   UNL     1       3.003   3.495   0.215  0.00  0.00    +0.010 C 
ATOM      3  C   UNL     1       0.981   3.657   1.649  0.00  0.00    +0.010 C 
ENDROOT
BRANCH   1   6
ATOM      4  O   UNL     1       1.559   1.028   2.142  0.00  0.00    -0.275 OA
ATOM      5  N   UNL     1       2.462   0.561   0.060  0.00  0.00    -0.287 N 
ATOM      6  C   UNL     1       1.876   1.391   1.008  0.00  0.00    +0.225 C 
ATOM      7  H   UNL     1       2.679   0.943  -0.821  0.00  0.00    +0.155 HD
BRANCH   5  11
ATOM      8  C   UNL     1       3.735  -2.458   1.909  0.00  0.00    +0.006 C 
ATOM      9  C   UNL     1       3.083  -1.088   1.720  0.00  0.00    +0.041 C 
ATOM     10  C   UNL     1       3.025  -3.516   1.075  0.00  0.00    +0.005 C 
ATOM     11  C   UNL     1       2.754  -0.758   0.282  0.00  0.00    +0.030 C 
ATOM     12  C   UNL     1       3.062  -3.152  -0.409  0.00  0.00    +0.034 C 
ATOM     13  C   UNL     1       2.761  -1.700  -0.681  0.00  0.00    +0.063 C 
BRANCH  13  15
ATOM     14  O   UNL     1       1.721  -0.496  -2.447  0.00  0.00    -0.245 OA
ATOM     15  C   UNL     1       2.463  -1.387  -2.090  0.00  0.00    +0.335 C 
BRANCH  15  16
ATOM     16  O   UNL     1       3.137  -2.238  -2.887  0.00  0.00    -0.477 OA
ATOM     17  H   UNL     1       3.688  -2.895  -2.510  0.00  0.00    +0.295 HD
ENDBRANCH  15  16
ENDBRANCH  13  15
ENDBRANCH   5  11
ENDBRANCH   1   6
BRANCH   1  18
ATOM     18  C   UNL     1       0.771   2.879  -0.772  0.00  0.00    +0.111 C 
BRANCH  18  22
ATOM     19  O   UNL     1      -1.653   3.097  -0.972  0.00  0.00    -0.316 OA
ATOM     20  N   UNL     1      -0.969   1.073  -0.300  0.00  0.00    -0.311 NA
ATOM     21  N   UNL     1      -2.813   2.333  -0.795  0.00  0.00    -0.006 NA
ATOM     22  C   UNL     1      -0.613   2.281  -0.660  0.00  0.00    +0.294 C 
ATOM     23  C   UNL     1      -2.328   1.153  -0.398  0.00  0.00    +0.145 C 
BRANCH  23  25
ATOM     24  N   UNL     1      -4.500   0.247  -0.232  0.00  0.00    -0.230 NA
ATOM     25  C   UNL     1      -3.172   0.034  -0.094  0.00  0.00    +0.158 C 
ATOM     26  C   UNL     1      -2.618  -1.169   0.313  0.00  0.00    +0.034 C 
ATOM     27  C   UNL     1      -3.482  -2.221   0.595  0.00  0.00    +0.041 C 
ATOM     28  C   UNL     1      -5.309  -0.798   0.052  0.00  0.00    +0.136 C 
ATOM     29  C   UNL     1      -4.855  -2.040   0.465  0.00  0.00    +0.153 C 
BRANCH  29  30
ATOM     30  O   UNL     1      -5.721  -3.048   0.734  0.00  0.00    -0.504 OA
ATOM     31  H   UNL     1      -5.397  -3.882   1.012  0.00  0.00    +0.292 HD
ENDBRANCH  29  30
ENDBRANCH  23  25
ENDBRANCH  18  22
ENDBRANCH   1  18
TORSDOF 8
