REMARK  Name = 135400184
REMARK  2 active torsions:
REMARK  status: ('A' for Active; 'I' for Inactive)
REMARK    1  A    between atoms: C_6  and  S_17
REMARK    2  A    between atoms: S_17  and  C_19
REMARK                            x       y       z     vdW  Elec       q    Type
REMARK                         _______ _______ _______ _____ _____    ______ ____
ROOT
ATOM      1  O   UNL     1      -0.537  -1.641  -1.669  0.00  0.00    -0.274 OA
ATOM      2  N   UNL     1      -2.499  -1.732  -0.532  0.00  0.00    -0.247 N 
ATOM      3  N   UNL     1      -3.324   0.009   0.817  0.00  0.00    -0.377 NA
ATOM      4  N   UNL     1      -4.542  -1.978   0.575  0.00  0.00    -0.321 N 
ATOM      5  C   UNL     1      -1.173   0.263  -0.353  0.00  0.00    +0.157 C 
ATOM      6  C   UNL     1      -0.043   1.030  -0.656  0.00  0.00    +0.018 C 
ATOM      7  C   UNL     1       0.088   2.304  -0.109  0.00  0.00    -0.019 C 
ATOM      8  C   UNL     1      -2.176   0.755   0.492  0.00  0.00    +0.125 C 
ATOM      9  C   UNL     1      -0.902   2.808   0.734  0.00  0.00    -0.002 C 
ATOM     10  C   UNL     1      -2.028   2.037   1.032  0.00  0.00    +0.028 C 
ATOM     11  C   UNL     1      -1.334  -1.091  -0.919  0.00  0.00    +0.240 C 
ATOM     12  C   UNL     1       1.261   3.197  -0.376  0.00  0.00    +0.031 C 
ATOM     13  C   UNL     1      -3.458  -1.185   0.312  0.00  0.00    +0.237 C 
ATOM     14  H   UNL     1      -2.660  -2.639  -0.880  0.00  0.00    +0.158 HD
ATOM     15  H   UNL     1      -4.605  -2.875   0.173  0.00  0.00    +0.146 HD
ATOM     16  H   UNL     1      -5.259  -1.652   1.166  0.00  0.00    +0.146 HD
ENDROOT
BRANCH   6  17
ATOM     17  S   UNL     1       1.308   0.497  -1.727  0.00  0.00    -0.091 S 
BRANCH  17  19
ATOM     18  N   UNL     1       4.074  -1.486   1.334  0.00  0.00    -0.242 NA
ATOM     19  C   UNL     1       2.385  -0.276  -0.535  0.00  0.00    +0.032 C 
ATOM     20  C   UNL     1       1.935  -1.357   0.215  0.00  0.00    +0.027 C 
ATOM     21  C   UNL     1       3.678   0.201  -0.351  0.00  0.00    +0.027 C 
ATOM     22  C   UNL     1       2.811  -1.922   1.128  0.00  0.00    +0.099 C 
ATOM     23  C   UNL     1       4.476  -0.433   0.587  0.00  0.00    +0.099 C 
ENDBRANCH  17  19
ENDBRANCH   6  17
TORSDOF 2
