REMARK  Name = 135499879
REMARK  8 active torsions:
REMARK  status: ('A' for Active; 'I' for Inactive)
REMARK    1  A    between atoms: C_1  and  C_15
REMARK    2  A    between atoms: C_2  and  O_28
REMARK    3  A    between atoms: C_4  and  S_22
REMARK    4  A    between atoms: C_13  and  C_19
REMARK    5  A    between atoms: C_19  and  C_20
REMARK    6  A    between atoms: S_22  and  N_25
REMARK    7  A    between atoms: O_28  and  C_29
REMARK    8  A    between atoms: C_29  and  C_30
REMARK                            x       y       z     vdW  Elec       q    Type
REMARK                         _______ _______ _______ _____ _____    ______ ____
ROOT
ATOM      1  C   UNL     1      -1.350   0.120  -0.118  0.00  0.00    +0.079 C 
ATOM      2  C   UNL     1      -1.560   1.496  -0.204  0.00  0.00    +0.142 C 
ATOM      3  C   UNL     1      -2.430  -0.758  -0.212  0.00  0.00    +0.027 C 
ATOM      4  C   UNL     1      -3.720  -0.259  -0.393  0.00  0.00    +0.122 C 
ATOM      5  C   UNL     1      -2.850   1.995  -0.385  0.00  0.00    +0.038 C 
ATOM      6  C   UNL     1      -3.930   1.117  -0.480  0.00  0.00    +0.023 C 
ENDROOT
BRANCH   1  15
ATOM      7  O   UNL     1       1.597  -2.450   2.620  0.00  0.00    -0.272 OA
ATOM      8  N   UNL     1       3.722  -1.886   0.522  0.00  0.00    -0.217 N 
ATOM      9  N   UNL     1       0.942  -0.186  -0.818  0.00  0.00    -0.388 NA
ATOM     10  N   UNL     1       4.337  -1.417  -0.587  0.00  0.00    -0.183 NA
ATOM     11  N   UNL     1       0.209  -1.191   1.247  0.00  0.00    -0.258 N 
ATOM     12  C   UNL     1       2.174  -0.768  -0.508  0.00  0.00    +0.154 C 
ATOM     13  C   UNL     1       3.375  -0.729  -1.216  0.00  0.00    +0.104 C 
ATOM     14  C   UNL     1       2.414  -1.518   0.610  0.00  0.00    +0.220 C 
ATOM     15  C   UNL     1       0.017  -0.432   0.074  0.00  0.00    +0.188 C 
ATOM     16  C   UNL     1       1.422  -1.790   1.601  0.00  0.00    +0.254 C 
ATOM     17  C   UNL     1       4.472  -2.685   1.461  0.00  0.00    +0.135 C 
ATOM     18  H   UNL     1      -0.557  -1.305   1.854  0.00  0.00    +0.157 HD
BRANCH  13  19
ATOM     19  C   UNL     1       3.667  -0.057  -2.492  0.00  0.00    +0.050 C 
BRANCH  19  20
ATOM     20  C   UNL     1       4.452   1.260  -2.312  0.00  0.00    +0.006 C 
ATOM     21  C   UNL     1       3.685   2.291  -1.498  0.00  0.00    +0.000 C 
ENDBRANCH  19  20
ENDBRANCH  13  19
ENDBRANCH   1  15
BRANCH   4  22
ATOM     22  S   UNL     1      -5.073  -1.357  -0.512  0.00  0.00    +0.057 S 
ATOM     23  O   UNL     1      -6.141  -0.693  -1.247  0.00  0.00    -0.153 OA
ATOM     24  O   UNL     1      -4.579  -2.650  -0.965  0.00  0.00    -0.153 OA
BRANCH  22  25
ATOM     25  N   UNL     1      -5.531  -1.489   1.128  0.00  0.00    -0.203 NA
ATOM     26  H   UNL     1      -6.331  -2.117   1.208  0.00  0.00    +0.144 HD
ATOM     27  H   UNL     1      -5.785  -0.568   1.485  0.00  0.00    +0.144 HD
ENDBRANCH  22  25
ENDBRANCH   4  22
BRANCH   2  28
ATOM     28  O   UNL     1      -0.518   2.370  -0.113  0.00  0.00    -0.475 OA
BRANCH  28  29
ATOM     29  C   UNL     1      -0.561   3.319   0.951  0.00  0.00    +0.205 C 
BRANCH  29  30
ATOM     30  C   UNL     1       0.863   3.674   1.350  0.00  0.00    +0.047 C 
ATOM     31  C   UNL     1       0.897   4.673   2.493  0.00  0.00    +0.004 C 
ENDBRANCH  29  30
ENDBRANCH  28  29
ENDBRANCH   2  28
TORSDOF 8
