REMARK  Name = 135476784
REMARK  4 active torsions:
REMARK  status: ('A' for Active; 'I' for Inactive)
REMARK    1  A    between atoms: C_7  and  C_16
REMARK    2  A    between atoms: C_16  and  O_17
REMARK    3  A    between atoms: C_16  and  C_19
REMARK    4  A    between atoms: C_19  and  O_21
REMARK                            x       y       z     vdW  Elec       q    Type
REMARK                         _______ _______ _______ _____ _____    ______ ____
ROOT
ATOM      1  O   UNL     1       1.855  -2.653  -0.295  0.00  0.00    -0.267 OA
ATOM      2  N   UNL     1      -0.251  -0.918   0.009  0.00  0.00    -0.253 NA
ATOM      3  N   UNL     1       0.375   1.844  -0.470  0.00  0.00    -0.207 NA
ATOM      4  N   UNL     1       2.548   1.412   0.126  0.00  0.00    -0.319 NA
ATOM      5  N   UNL     1       3.298  -0.849   0.064  0.00  0.00    -0.242 N 
ATOM      6  N   UNL     1       4.804   0.894   0.458  0.00  0.00    -0.320 N 
ATOM      7  C   UNL     1      -1.278   0.125   0.114  0.00  0.00    +0.158 C 
ATOM      8  C   UNL     1      -0.937   1.289  -0.809  0.00  0.00    +0.164 C 
ATOM      9  C   UNL     1       0.955  -0.480  -0.096  0.00  0.00    +0.204 C 
ATOM     10  C   UNL     1       1.276   0.980  -0.148  0.00  0.00    +0.108 C 
ATOM     11  C   UNL     1       2.076  -1.467  -0.127  0.00  0.00    +0.280 C 
ATOM     12  C   UNL     1       3.506   0.526   0.214  0.00  0.00    +0.248 C 
ATOM     13  H   UNL     1       4.093  -1.428   0.099  0.00  0.00    +0.159 HD
ATOM     14  H   UNL     1       5.033   1.844   0.575  0.00  0.00    +0.146 HD
ATOM     15  H   UNL     1       5.507   0.207   0.516  0.00  0.00    +0.146 HD
ENDROOT
BRANCH   7  16
ATOM     16  C   UNL     1      -2.620  -0.494  -0.256  0.00  0.00    +0.161 C 
BRANCH  16  17
ATOM     17  O   UNL     1      -2.856  -1.615   0.594  0.00  0.00    -0.380 OA
ATOM     18  H   UNL     1      -2.123  -2.245   0.509  0.00  0.00    +0.211 HD
ENDBRANCH  16  17
BRANCH  16  19
ATOM     19  C   UNL     1      -3.780   0.503  -0.122  0.00  0.00    +0.139 C 
ATOM     20  C   UNL     1      -5.130  -0.115  -0.463  0.00  0.00    +0.034 C 
BRANCH  19  21
ATOM     21  O   UNL     1      -3.842   1.018   1.207  0.00  0.00    -0.382 OA
ATOM     22  H   UNL     1      -2.989   1.416   1.440  0.00  0.00    +0.210 HD
ENDBRANCH  19  21
ENDBRANCH  16  19
ENDBRANCH   7  16
TORSDOF 4
