REMARK  Name = 135410909
REMARK  2 active torsions:
REMARK  status: ('A' for Active; 'I' for Inactive)
REMARK    1  A    between atoms: N_8  and  C_11
REMARK    2  A    between atoms: N_8  and  C_16
REMARK                            x       y       z     vdW  Elec       q    Type
REMARK                         _______ _______ _______ _____ _____    ______ ____
ROOT
ATOM      1 CL   UNL     1       4.177  -2.627   0.078  0.00  0.00    -0.075 Cl
ATOM      2  S   UNL     1       0.846   2.075  -0.052  0.00  0.00    +0.069 S 
ATOM      3  S   UNL     1       3.116   0.149  -0.014  0.00  0.00    -0.054 S 
ATOM      4  O   UNL     1       1.227   2.593  -1.349  0.00  0.00    -0.152 OA
ATOM      5  O   UNL     1       1.271   2.693   1.186  0.00  0.00    -0.152 OA
ATOM      6  N   UNL     1      -0.832   1.771  -0.010  0.00  0.00    -0.147 NA
ATOM      7  N   UNL     1      -0.668  -0.680   0.081  0.00  0.00    -0.305 N 
ATOM      8  C   UNL     1       1.453   0.443   0.002  0.00  0.00    +0.165 C 
ATOM      9  C   UNL     1       0.690  -0.691   0.059  0.00  0.00    +0.073 C 
ATOM     10  C   UNL     1      -1.454   0.469   0.050  0.00  0.00    +0.226 C 
ATOM     11  C   UNL     1       1.501  -1.859   0.091  0.00  0.00    +0.034 C 
ATOM     12  C   UNL     1       2.846  -1.547   0.057  0.00  0.00    +0.089 C 
ATOM     13  H   UNL     1      -1.430   2.553  -0.029  0.00  0.00    +0.152 HD
ATOM     14  H   UNL     1      -1.131  -1.548   0.122  0.00  0.00    +0.149 HD
ENDROOT
BRANCH  10  15
ATOM     15  N   UNL     1      -2.753   0.429   0.073  0.00  0.00    -0.186 NA
BRANCH  15  16
ATOM     16  C   UNL     1      -3.305  -0.913   0.134  0.00  0.00    +0.076 C 
ATOM     17  C   UNL     1      -4.620  -0.871   0.898  0.00  0.00    +0.019 C 
ATOM     18  C   UNL     1      -3.492  -1.435  -1.282  0.00  0.00    +0.019 C 
ENDBRANCH  15  16
ENDBRANCH  10  15
TORSDOF 2
