135492908
  -OEChem-03292013293D

 42 45  0     0  0  0  0  0  0999 V2000
   -8.2396    0.1673   -0.2365 Cl  0  0  0  0  0  0  0  0  0  0  0  0
    1.4208   -4.2626    0.1779 S   0  0  0  0  0  0  0  0  0  0  0  0
    5.6297    2.3947    0.0100 S   0  0  0  0  0  0  0  0  0  0  0  0
   -0.8927   -2.4220   -0.2865 O   0  0  0  0  0  0  0  0  0  0  0  0
    1.0477   -4.8239   -1.3105 O   0  0  0  0  0  0  0  0  0  0  0  0
    5.8216    2.7511    1.5939 O   0  0  0  0  0  0  0  0  0  0  0  0
    2.7664   -4.7232    0.4827 O   0  0  0  0  0  0  0  0  0  0  0  0
    0.3115   -4.5638    1.0676 O   0  0  0  0  0  0  0  0  0  0  0  0
    6.6688    1.4366   -0.3385 O   0  0  0  0  0  0  0  0  0  0  0  0
    5.4980    3.6449   -0.7216 O   0  0  0  0  0  0  0  0  0  0  0  0
   -0.8165    0.3096   -0.5520 N   0  0  0  0  0  0  0  0  0  0  0  0
   -3.8325    2.9486    0.0073 N   0  0  0  0  0  0  0  0  0  0  0  0
   -1.3147    0.6402    0.5469 N   0  0  0  0  0  0  0  0  0  0  0  0
   -2.5298    2.6772    0.1925 N   0  0  0  0  0  0  0  0  0  0  0  0
    2.7914   -0.4771   -0.0407 C   0  0  0  0  0  0  0  0  0  0  0  0
    1.6094    0.2706   -0.2572 C   0  0  0  0  0  0  0  0  0  0  0  0
    0.3778   -0.3995   -0.3371 C   0  0  0  0  0  0  0  0  0  0  0  0
    1.4747   -2.5221    0.0080 C   0  0  0  0  0  0  0  0  0  0  0  0
    2.7068   -1.8727    0.0899 C   0  0  0  0  0  0  0  0  0  0  0  0
    4.0229    0.1930    0.0391 C   0  0  0  0  0  0  0  0  0  0  0  0
    0.3125   -1.7869   -0.2052 C   0  0  0  0  0  0  0  0  0  0  0  0
    4.0885    1.5804   -0.0928 C   0  0  0  0  0  0  0  0  0  0  0  0
    1.6941    1.6664   -0.3877 C   0  0  0  0  0  0  0  0  0  0  0  0
    2.9263    2.3156   -0.3057 C   0  0  0  0  0  0  0  0  0  0  0  0
   -3.7910    0.7680    0.2357 C   0  0  0  0  0  0  0  0  0  0  0  0
   -4.6431    1.8457    0.0224 C   0  0  0  0  0  0  0  0  0  0  0  0
   -2.5085    1.3497    0.3313 C   0  0  0  0  0  0  0  0  0  0  0  0
   -4.3259   -0.5292    0.3039 C   0  0  0  0  0  0  0  0  0  0  0  0
   -6.0242    1.7060   -0.1302 C   0  0  0  0  0  0  0  0  0  0  0  0
   -5.7088   -0.6914    0.1533 C   0  0  0  0  0  0  0  0  0  0  0  0
   -6.5418    0.4084   -0.0600 C   0  0  0  0  0  0  0  0  0  0  0  0
    3.6215   -2.4380    0.2539 H   0  0  0  0  0  0  0  0  0  0  0  0
    4.9307   -0.3814    0.2132 H   0  0  0  0  0  0  0  0  0  0  0  0
    0.8114    2.2782   -0.5577 H   0  0  0  0  0  0  0  0  0  0  0  0
    2.9519    3.3972   -0.4044 H   0  0  0  0  0  0  0  0  0  0  0  0
   -3.6918   -1.3936    0.4738 H   0  0  0  0  0  0  0  0  0  0  0  0
   -4.1052    3.9146   -0.1248 H   0  0  0  0  0  0  0  0  0  0  0  0
   -6.6595    2.5701   -0.2950 H   0  0  0  0  0  0  0  0  0  0  0  0
   -1.5776   -1.7558   -0.4681 H   0  0  0  0  0  0  0  0  0  0  0  0
   -6.1243   -1.6953    0.2074 H   0  0  0  0  0  0  0  0  0  0  0  0
    0.9723   -5.8042   -1.3838 H   0  0  0  0  0  0  0  0  0  0  0  0
    6.6608    3.2161    1.8215 H   0  0  0  0  0  0  0  0  0  0  0  0
  1 31  1  0  0  0  0
  2  5  1  0  0  0  0
  2  7  2  0  0  0  0
  2  8  2  0  0  0  0
  2 18  1  0  0  0  0
  3  6  1  0  0  0  0
  3  9  2  0  0  0  0
  3 10  2  0  0  0  0
  3 22  1  0  0  0  0
  4 21  1  0  0  0  0
  4 39  1  0  0  0  0
  5 41  1  0  0  0  0
  6 42  1  0  0  0  0
 11 13  2  0  0  0  0
 11 17  1  0  0  0  0
 12 14  1  0  0  0  0
 12 26  1  0  0  0  0
 12 37  1  0  0  0  0
 13 27  1  0  0  0  0
 14 27  2  0  0  0  0
 15 16  1  0  0  0  0
 15 19  2  0  0  0  0
 15 20  1  0  0  0  0
 16 17  2  0  0  0  0
 16 23  1  0  0  0  0
 17 21  1  0  0  0  0
 18 19  1  0  0  0  0
 18 21  2  0  0  0  0
 19 32  1  0  0  0  0
 20 22  2  0  0  0  0
 20 33  1  0  0  0  0
 22 24  1  0  0  0  0
 23 24  2  0  0  0  0
 23 34  1  0  0  0  0
 24 35  1  0  0  0  0
 25 26  2  0  0  0  0
 25 27  1  0  0  0  0
 25 28  1  0  0  0  0
 26 29  1  0  0  0  0
 28 30  2  0  0  0  0
 28 36  1  0  0  0  0
 29 31  2  0  0  0  0
 29 38  1  0  0  0  0
 30 31  1  0  0  0  0
 30 40  1  0  0  0  0
M  END
> <PUBCHEM_COMPOUND_CID>
135492908

> <PUBCHEM_CONFORMER_RMSD>
0.8

> <PUBCHEM_CONFORMER_DIVERSEORDER>
1
5
10
6
3
9
8
4
2
7

> <PUBCHEM_MMFF94_PARTIAL_CHARGES>
39
1 -0.18
10 -0.65
11 -0.18
12 0.3
13 -0.12
14 -0.71
17 0.18
18 -0.01
19 -0.15
2 1.49
20 -0.15
21 0.08
22 -0.01
23 -0.15
24 -0.15
26 -0.15
27 0.41
28 -0.15
29 -0.15
3 1.49
30 -0.15
31 0.18
32 0.15
33 0.15
34 0.15
35 0.15
36 0.15
37 0.27
38 0.15
39 0.45
4 -0.53
40 0.15
41 0.5
42 0.5
5 -0.68
6 -0.68
7 -0.65
8 -0.65
9 -0.65

> <PUBCHEM_EFFECTIVE_ROTOR_COUNT>
4

> <PUBCHEM_PHARMACOPHORE_FEATURES>
15
1 10 acceptor
1 12 donor
1 4 donor
1 5 acceptor
1 6 acceptor
1 7 acceptor
1 8 acceptor
1 9 acceptor
3 13 14 27 cation
4 2 5 7 8 anion
4 3 6 9 10 anion
5 12 14 25 26 27 rings
6 15 16 17 18 19 21 rings
6 15 16 20 22 23 24 rings
6 25 26 28 29 30 31 rings

> <PUBCHEM_HEAVY_ATOM_COUNT>
31

> <PUBCHEM_ATOM_DEF_STEREO_COUNT>
0

> <PUBCHEM_ATOM_UDEF_STEREO_COUNT>
0

> <PUBCHEM_BOND_DEF_STEREO_COUNT>
0

> <PUBCHEM_BOND_UDEF_STEREO_COUNT>
0

> <PUBCHEM_ISOTOPIC_ATOM_COUNT>
0

> <PUBCHEM_COMPONENT_COUNT>
1

> <PUBCHEM_CACTVS_TAUTO_COUNT>
-1

> <PUBCHEM_CONFORMER_ID>
0813752C00000001

> <PUBCHEM_MMFF94_ENERGY>
64.8448

> <PUBCHEM_FEATURE_SELFOVERLAP>
76.353

> <PUBCHEM_SHAPE_FINGERPRINT>
10050765 1 18194402191814471613
10074138 170 17977928405169481826
10411042 1 17689434889289029134
10595046 47 18341331098849322417
10835480 77 18334851676990641949
11135926 11 18410285939750458501
11136131 41 18334005082374226858
11719270 70 18409443691757101328
11963148 33 18410003378295740843
12107183 9 17548141026701375961
12788726 201 17323536549454111646
12925494 130 17767396152309884440
12977781 61 17750539349963879859
13140716 1 18408880716572134794
13533116 47 18337112246931775247
1361 2 18408605872550110425
13692114 37 18267014145116432930
138480 1 17905609900432063754
14068700 686 18335985285741204021
1454969 45 18410291454119668869
14790565 3 18337394945710557764
14849402 71 18336548192982238202
15400415 2 18410293597429480177
15890870 6 18338518642130963564
15927050 60 18340205288873510358
16992610 120 18262533610561299132
16992752 21 17401212175581104422
16993438 75 17972605652100140747
17492 89 18195528082956988011
18681886 176 18052250700739952691
19319366 153 18343013402297985247
19427546 62 18336830896060801268
20554085 129 18129930269697228824
21033648 29 18270391832327255296
21049683 118 18195504095490521664
21197605 99 18409453609285493907
21703447 108 18117835508842943347
22149856 69 18265357083269301073
23522609 53 17845670153420876273
23559900 14 18050281467240415091
23569917 315 18341620304466862494
23845131 108 18335419118551225554
239999 70 18129667383038658366
249999 5 18339077095189848282
335352 9 18410862062727610532
3411729 13 18335137570580968386
350125 39 18410292561915230436
4058900 60 18337402577719632928
4073 2 18334301964088873523
4149490 64 18187931639041691155
4403749 210 18120090838613584128
5104073 3 18263652775431550009
59755656 215 18408891715318384501
59755656 520 18337949103807674868
6376802 90 17822004265202205669
67856867 119 18266176132778124115
9658208 31 18199185273542879328
9709674 26 18263935332871809507
9981440 41 18335425711341453339

> <PUBCHEM_SHAPE_MULTIPOLES>
586.52
16.49
5.6
0.8
18.82
7.75
0.06
-14.78
0.23
-7.54
0.15
-0.47
0.12
0.01

> <PUBCHEM_SHAPE_SELFOVERLAP>
1276.438

> <PUBCHEM_SHAPE_VOLUME>
321.9

> <PUBCHEM_COORDINATE_TYPE>
2
5
10

$$$$
