REMARK  Name = 135422933
REMARK  8 active torsions:
REMARK  status: ('A' for Active; 'I' for Inactive)
REMARK    1  A    between atoms: N_2  and  C_15
REMARK    2  A    between atoms: C_15  and  O_16
REMARK    3  A    between atoms: O_16  and  C_17
REMARK    4  A    between atoms: C_17  and  C_18
REMARK    5  A    between atoms: C_18  and  O_19
REMARK    6  A    between atoms: O_19  and  P_20
REMARK    7  A    between atoms: P_20  and  O_22
REMARK    8  A    between atoms: P_20  and  O_24
REMARK                            x       y       z     vdW  Elec       q    Type
REMARK                         _______ _______ _______ _____ _____    ______ ____
ROOT
ATOM      1  O   UNL     1      -4.712  -0.556  -1.832  0.00  0.00    -0.268 OA
ATOM      2  N   UNL     1      -1.131  -1.168   0.855  0.00  0.00    -0.235 N 
ATOM      3  N   UNL     1      -2.567  -2.158  -0.544  0.00  0.00    -0.240 NA
ATOM      4  N   UNL     1      -1.951   1.109   0.794  0.00  0.00    -0.357 NA
ATOM      5  N   UNL     1      -3.843   1.272  -0.667  0.00  0.00    -0.243 N 
ATOM      6  N   UNL     1      -3.034   3.169   0.469  0.00  0.00    -0.321 N 
ATOM      7  C   UNL     1      -1.984  -0.192   0.430  0.00  0.00    +0.211 C 
ATOM      8  C   UNL     1      -2.850  -0.830  -0.424  0.00  0.00    +0.176 C 
ATOM      9  C   UNL     1      -1.522  -2.333   0.241  0.00  0.00    +0.224 C 
ATOM     10  C   UNL     1      -3.895  -0.074  -1.058  0.00  0.00    +0.273 C 
ATOM     11  C   UNL     1      -2.897   1.826   0.228  0.00  0.00    +0.239 C 
ATOM     12  H   UNL     1      -4.518   1.880  -1.046  0.00  0.00    +0.159 HD
ATOM     13  H   UNL     1      -2.412   3.624   1.082  0.00  0.00    +0.146 HD
ATOM     14  H   UNL     1      -3.753   3.677   0.030  0.00  0.00    +0.146 HD
ENDROOT
BRANCH   2  15
ATOM     15  C   UNL     1      -0.026  -1.022   1.771  0.00  0.00    +0.244 C 
BRANCH  15  16
ATOM     16  O   UNL     1       1.049  -0.387   1.085  0.00  0.00    -0.332 OA
BRANCH  16  17
ATOM     17  C   UNL     1       2.183  -0.221   1.925  0.00  0.00    +0.177 C 
BRANCH  17  18
ATOM     18  C   UNL     1       3.287   0.458   1.137  0.00  0.00    +0.186 C 
BRANCH  18  19
ATOM     19  O   UNL     1       3.641  -0.364   0.032  0.00  0.00    -0.271 OA
BRANCH  19  20
ATOM     20  P   UNL     1       4.806   0.151  -0.964  0.00  0.00    +0.473 P 
ATOM     21  O   UNL     1       5.121  -0.772  -2.106  0.00  0.00    -0.227 OA
BRANCH  20  22
ATOM     22  O   UNL     1       6.043   0.474   0.025  0.00  0.00    -0.303 OA
ATOM     23  H   UNL     1       5.748   1.074   0.727  0.00  0.00    +0.222 HD
ENDBRANCH  20  22
BRANCH  20  24
ATOM     24  O   UNL     1       4.282   1.618  -1.397  0.00  0.00    -0.303 OA
ATOM     25  H   UNL     1       4.104   2.145  -0.602  0.00  0.00    +0.222 HD
ENDBRANCH  20  24
ENDBRANCH  19  20
ENDBRANCH  18  19
ENDBRANCH  17  18
ENDBRANCH  16  17
ENDBRANCH  15  16
ENDBRANCH   2  15
TORSDOF 8
