REMARK  Name = 135449289
REMARK  6 active torsions:
REMARK  status: ('A' for Active; 'I' for Inactive)
REMARK    1  A    between atoms: C_1  and  S_7
REMARK    2  A    between atoms: C_2  and  N_14
REMARK    3  A    between atoms: C_3  and  S_10
REMARK    4  A    between atoms: C_5  and  O_12
REMARK    5  A    between atoms: N_14  and  N_15
REMARK    6  A    between atoms: N_15  and  C_18
REMARK                            x       y       z     vdW  Elec       q    Type
REMARK                         _______ _______ _______ _____ _____    ______ ____
ROOT
ATOM      1  C   UNL     1      -0.896   0.938  -0.034  0.00  0.00    +0.076 C 
ATOM      2  C   UNL     1      -0.096  -0.144   0.335  0.00  0.00    +0.103 C 
ATOM      3  C   UNL     1      -0.652  -1.419   0.438  0.00  0.00    +0.046 C 
ATOM      4  C   UNL     1      -2.251   0.745  -0.301  0.00  0.00    +0.047 C 
ATOM      5  C   UNL     1      -2.807  -0.531  -0.198  0.00  0.00    +0.135 C 
ATOM      6  C   UNL     1      -2.008  -1.612   0.171  0.00  0.00    +0.044 C 
ENDROOT
BRANCH   1   7
ATOM      7  S   UNL     1      -0.223   2.602  -0.179  0.00  0.00    +0.067 S 
ATOM      8  O   UNL     1      -1.175   3.370  -1.049  0.00  0.00    -0.251 OA
ATOM      9  C   UNL     1      -0.521   3.120   1.530  0.00  0.00    +0.111 C 
ENDBRANCH   1   7
BRANCH   3  10
ATOM     10  S   UNL     1       0.325  -2.843   0.907  0.00  0.00    -0.111 S 
ATOM     11  C   UNL     1       0.131  -3.909  -0.547  0.00  0.00    +0.074 C 
ENDBRANCH   3  10
BRANCH   5  12
ATOM     12  O   UNL     1      -4.130  -0.719  -0.459  0.00  0.00    -0.505 OA
ATOM     13  H   UNL     1      -4.667   0.007  -0.707  0.00  0.00    +0.292 HD
ENDBRANCH   5  12
BRANCH   2  14
ATOM     14  N   UNL     1       1.268   0.056   0.603  0.00  0.00    -0.123 NA
BRANCH  14  15
ATOM     15  N   UNL     1       1.929  -0.084  -0.448  0.00  0.00    -0.074 NA
BRANCH  15  18
ATOM     16  O   UNL     1       3.810   0.376   0.845  0.00  0.00    -0.250 OA
ATOM     17  N   UNL     1       4.019  -0.049  -1.383  0.00  0.00    -0.311 N 
ATOM     18  C   UNL     1       3.278   0.103  -0.231  0.00  0.00    +0.336 C 
ATOM     19  H   UNL     1       4.997   0.061  -1.357  0.00  0.00    +0.147 HD
ATOM     20  H   UNL     1       3.571  -0.267  -2.232  0.00  0.00    +0.147 HD
ENDBRANCH  15  18
ENDBRANCH  14  15
ENDBRANCH   2  14
TORSDOF 6
