REMARK  Name = 135418361
REMARK  3 active torsions:
REMARK  status: ('A' for Active; 'I' for Inactive)
REMARK    1  A    between atoms: C_6  and  C_19
REMARK    2  A    between atoms: C_9  and  N_16
REMARK    3  A    between atoms: C_19  and  C_21
REMARK                            x       y       z     vdW  Elec       q    Type
REMARK                         _______ _______ _______ _____ _____    ______ ____
ROOT
ATOM      1  O   UNL     1      -3.846  -1.357  -1.129  0.00  0.00    -0.272 OA
ATOM      2  N   UNL     1      -1.052  -2.044  -0.235  0.00  0.00    -0.311 N 
ATOM      3  N   UNL     1      -1.277   1.394   0.646  0.00  0.00    -0.376 NA
ATOM      4  N   UNL     1      -3.374   0.775  -0.344  0.00  0.00    -0.246 N 
ATOM      5  N   UNL     1      -3.003   2.959   0.415  0.00  0.00    -0.321 N 
ATOM      6  C   UNL     1       0.313  -0.548   0.718  0.00  0.00    +0.037 C 
ATOM      7  C   UNL     1      -0.916   0.061   0.411  0.00  0.00    +0.137 C 
ATOM      8  C   UNL     1      -1.743  -0.865  -0.172  0.00  0.00    +0.201 C 
ATOM      9  C   UNL     1       0.202  -1.862   0.305  0.00  0.00    +0.089 C 
ATOM     10  C   UNL     1      -3.073  -0.563  -0.604  0.00  0.00    +0.254 C 
ATOM     11  C   UNL     1      -2.495   1.695   0.257  0.00  0.00    +0.237 C 
ATOM     12  H   UNL     1      -1.396  -2.888  -0.607  0.00  0.00    +0.149 HD
ATOM     13  H   UNL     1      -4.268   1.099  -0.601  0.00  0.00    +0.159 HD
ATOM     14  H   UNL     1      -2.452   3.663   0.828  0.00  0.00    +0.146 HD
ATOM     15  H   UNL     1      -3.919   3.163   0.116  0.00  0.00    +0.146 HD
ENDROOT
BRANCH   9  16
ATOM     16  N   UNL     1       1.063  -2.900   0.346  0.00  0.00    -0.346 N 
ATOM     17  H   UNL     1       0.792  -3.778  -0.007  0.00  0.00    +0.143 HD
ATOM     18  H   UNL     1       1.962  -2.779   0.728  0.00  0.00    +0.143 HD
ENDBRANCH   9  16
BRANCH   6  19
ATOM     19  C   UNL     1       1.487   0.082   1.352  0.00  0.00    +0.058 C 
BRANCH  19  21
ATOM     20  S   UNL     1       4.965   0.439  -0.682  0.00  0.00    -0.086 S 
ATOM     21  C   UNL     1       2.635   0.379   0.398  0.00  0.00    -0.011 C 
ATOM     22  C   UNL     1       2.501   1.158  -0.788  0.00  0.00    +0.004 C 
ATOM     23  C   UNL     1       3.923  -0.075   0.576  0.00  0.00    +0.032 C 
ATOM     24  C   UNL     1       3.693   1.271  -1.470  0.00  0.00    +0.035 C 
ENDBRANCH  19  21
ENDBRANCH   6  19
TORSDOF 3
