REMARK  Name = 135475611
REMARK  5 active torsions:
REMARK  status: ('A' for Active; 'I' for Inactive)
REMARK    1  A    between atoms: N_2  and  C_17
REMARK    2  A    between atoms: C_16  and  O_20
REMARK    3  A    between atoms: C_18  and  O_22
REMARK    4  A    between atoms: C_19  and  C_24
REMARK    5  A    between atoms: C_24  and  N_25
REMARK                            x       y       z     vdW  Elec       q    Type
REMARK                         _______ _______ _______ _____ _____    ______ ____
ROOT
ATOM      1  O   UNL     1      -4.248   1.945  -0.435  0.00  0.00    -0.268 OA
ATOM      2  N   UNL     1      -0.032   0.425   0.142  0.00  0.00    -0.237 N 
ATOM      3  N   UNL     1      -1.292   2.216  -0.314  0.00  0.00    -0.240 NA
ATOM      4  N   UNL     1      -1.743  -1.268   0.397  0.00  0.00    -0.357 NA
ATOM      5  N   UNL     1      -3.914  -0.312   0.064  0.00  0.00    -0.243 N 
ATOM      6  N   UNL     1      -3.671  -2.600   0.563  0.00  0.00    -0.321 N 
ATOM      7  C   UNL     1      -1.326  -0.005   0.155  0.00  0.00    +0.211 C 
ATOM      8  C   UNL     1      -0.064   1.768  -0.145  0.00  0.00    +0.224 C 
ATOM      9  C   UNL     1      -2.072   1.113  -0.127  0.00  0.00    +0.176 C 
ATOM     10  C   UNL     1      -3.503   1.004  -0.191  0.00  0.00    +0.273 C 
ATOM     11  C   UNL     1      -3.051  -1.397   0.346  0.00  0.00    +0.239 C 
ATOM     12  H   UNL     1      -4.881  -0.496   0.044  0.00  0.00    +0.159 HD
ATOM     13  H   UNL     1      -3.136  -3.400   0.765  0.00  0.00    +0.146 HD
ATOM     14  H   UNL     1      -4.653  -2.663   0.517  0.00  0.00    +0.146 HD
ENDROOT
BRANCH   2  17
ATOM     15  O   UNL     1       2.250   0.385   1.007  0.00  0.00    -0.338 OA
ATOM     16  C   UNL     1       1.816  -0.963  -0.889  0.00  0.00    +0.187 C 
ATOM     17  C   UNL     1       1.208  -0.400   0.391  0.00  0.00    +0.225 C 
ATOM     18  C   UNL     1       3.265  -1.155  -0.491  0.00  0.00    +0.166 C 
ATOM     19  C   UNL     1       3.518   0.057   0.397  0.00  0.00    +0.125 C 
BRANCH  16  20
ATOM     20  O   UNL     1       1.196  -2.160  -1.315  0.00  0.00    -0.378 OA
ATOM     21  H   UNL     1       0.274  -1.979  -1.557  0.00  0.00    +0.211 HD
ENDBRANCH  16  20
BRANCH  18  22
ATOM     22  O   UNL     1       3.409  -2.326   0.312  0.00  0.00    -0.380 OA
ATOM     23  H   UNL     1       3.253  -3.113  -0.233  0.00  0.00    +0.211 HD
ENDBRANCH  18  22
BRANCH  19  24
ATOM     24  C   UNL     1       4.003   1.274  -0.379  0.00  0.00    -0.053 C 
BRANCH  24  25
ATOM     25  N   UNL     1       4.253   2.397   0.514  0.00  0.00    +0.382 N 
ATOM     26  H   UNL     1       4.576   3.198  -0.029  0.00  0.00    -0.089 HD
ATOM     27  H   UNL     1       4.966   2.138   1.195  0.00  0.00    -0.089 HD
ATOM     28  H   UNL     1       3.391   2.642   1.001  0.00  0.00    -0.089 HD
ENDBRANCH  24  25
ENDBRANCH  19  24
ENDBRANCH   2  17
TORSDOF 5
