135437126
  -OEChem-03292013293D

 32 34  0     1  0  0  0  0  0999 V2000
    0.0792    4.0494    0.3267 Br  0  0  0  0  0  0  0  0  0  0  0  0
   -1.8432   -0.1885    0.9629 O   0  0  0  0  0  0  0  0  0  0  0  0
   -4.3366    1.1896   -0.1761 O   0  0  0  0  0  0  0  0  0  0  0  0
   -2.1678   -2.9551    0.7199 O   0  0  0  0  0  0  0  0  0  0  0  0
    4.4885    0.3262   -0.1942 O   0  0  0  0  0  0  0  0  0  0  0  0
    0.0587    1.1328    0.1796 N   0  0  0  0  0  0  0  0  0  0  0  0
    2.0913    2.0596    0.0739 N   0  0  0  0  0  0  0  0  0  0  0  0
    0.6315   -1.2134    0.0172 N   0  0  0  0  0  0  0  0  0  0  0  0
    3.0051   -1.4773   -0.1747 N   0  0  0  0  0  0  0  0  0  0  0  0
    1.5850   -3.3540   -0.1641 N   0  0  0  0  0  0  0  0  0  0  0  0
   -1.4411    1.0164    0.2849 C   0  0  1  0  0  0  0  0  0  0  0  0
   -3.4201    0.2657   -0.7581 C   0  0  1  0  0  0  0  0  0  0  0  0
   -2.1362    0.9977   -1.0720 C   0  0  0  0  0  0  0  0  0  0  0  0
   -2.9862   -0.7526    0.2883 C   0  0  1  0  0  0  0  0  0  0  0  0
   -2.5623   -2.0812   -0.3231 C   0  0  0  0  0  0  0  0  0  0  0  0
    0.9424    0.1010    0.0606 C   0  0  0  0  0  0  0  0  0  0  0  0
    0.7976    2.2907    0.1829 C   0  0  0  0  0  0  0  0  0  0  0  0
    2.1770    0.7008   -0.0017 C   0  0  0  0  0  0  0  0  0  0  0  0
    3.3497   -0.1191   -0.1314 C   0  0  0  0  0  0  0  0  0  0  0  0
    1.6876   -1.9885   -0.1016 C   0  0  0  0  0  0  0  0  0  0  0  0
   -1.7749    1.8542    0.9059 H   0  0  0  0  0  0  0  0  0  0  0  0
   -1.5480    0.4294   -1.8021 H   0  0  0  0  0  0  0  0  0  0  0  0
   -2.2858    2.0095   -1.4612 H   0  0  0  0  0  0  0  0  0  0  0  0
   -3.8955   -0.1715   -1.6408 H   0  0  0  0  0  0  0  0  0  0  0  0
   -3.7539   -0.9199    1.0520 H   0  0  0  0  0  0  0  0  0  0  0  0
   -1.7191   -1.9653   -1.0095 H   0  0  0  0  0  0  0  0  0  0  0  0
   -3.3967   -2.5401   -0.8630 H   0  0  0  0  0  0  0  0  0  0  0  0
   -5.1366    0.6918    0.0647 H   0  0  0  0  0  0  0  0  0  0  0  0
   -1.9046   -3.7948    0.3062 H   0  0  0  0  0  0  0  0  0  0  0  0
    3.7627   -2.1480   -0.2658 H   0  0  0  0  0  0  0  0  0  0  0  0
    0.6825   -3.8147   -0.1205 H   0  0  0  0  0  0  0  0  0  0  0  0
    2.4056   -3.9427   -0.2560 H   0  0  0  0  0  0  0  0  0  0  0  0
  1 17  1  0  0  0  0
  2 11  1  0  0  0  0
  2 14  1  0  0  0  0
  3 12  1  0  0  0  0
  3 28  1  0  0  0  0
  4 15  1  0  0  0  0
  4 29  1  0  0  0  0
  5 19  2  0  0  0  0
  6 11  1  0  0  0  0
  6 16  1  0  0  0  0
  6 17  1  0  0  0  0
  7 17  2  0  0  0  0
  7 18  1  0  0  0  0
  8 16  1  0  0  0  0
  8 20  2  0  0  0  0
  9 19  1  0  0  0  0
  9 20  1  0  0  0  0
  9 30  1  0  0  0  0
 10 20  1  0  0  0  0
 10 31  1  0  0  0  0
 10 32  1  0  0  0  0
 11 13  1  0  0  0  0
 11 21  1  0  0  0  0
 12 13  1  0  0  0  0
 12 14  1  0  0  0  0
 12 24  1  0  0  0  0
 13 22  1  0  0  0  0
 13 23  1  0  0  0  0
 14 15  1  0  0  0  0
 14 25  1  0  0  0  0
 15 26  1  0  0  0  0
 15 27  1  0  0  0  0
 16 18  2  0  0  0  0
 18 19  1  0  0  0  0
M  END
> <PUBCHEM_COMPOUND_CID>
135437126

> <PUBCHEM_CONFORMER_RMSD>
0.6

> <PUBCHEM_CONFORMER_DIVERSEORDER>
1
13
6
9
4
11
10
2
12
8
7
3
5

> <PUBCHEM_MMFF94_PARTIAL_CHARGES>
24
1 -0.06
10 -0.85
11 0.54
12 0.28
14 0.28
15 0.28
16 -0.03
17 0.24
18 0.14
19 0.72
2 -0.56
20 0.56
28 0.4
29 0.4
3 -0.68
30 0.37
31 0.4
32 0.4
4 -0.68
5 -0.57
6 0.05
7 -0.57
8 -0.58
9 -0.49

> <PUBCHEM_EFFECTIVE_ROTOR_COUNT>
3

> <PUBCHEM_PHARMACOPHORE_FEATURES>
13
1 1 hydrophobe
1 10 donor
1 2 acceptor
1 3 acceptor
1 3 donor
1 4 acceptor
1 4 donor
1 5 acceptor
1 9 donor
3 6 7 17 cation
5 2 11 12 13 14 rings
5 6 7 16 17 18 rings
6 8 9 16 18 19 20 rings

> <PUBCHEM_HEAVY_ATOM_COUNT>
20

> <PUBCHEM_ATOM_DEF_STEREO_COUNT>
3

> <PUBCHEM_ATOM_UDEF_STEREO_COUNT>
0

> <PUBCHEM_BOND_DEF_STEREO_COUNT>
0

> <PUBCHEM_BOND_UDEF_STEREO_COUNT>
0

> <PUBCHEM_ISOTOPIC_ATOM_COUNT>
0

> <PUBCHEM_COMPONENT_COUNT>
1

> <PUBCHEM_CACTVS_TAUTO_COUNT>
-1

> <PUBCHEM_CONFORMER_ID>
08129B4600000001

> <PUBCHEM_MMFF94_ENERGY>
43.1816

> <PUBCHEM_FEATURE_SELFOVERLAP>
66.154

> <PUBCHEM_SHAPE_FINGERPRINT>
10616163 171 18410294760927988503
10967382 1 18411136892165761986
116883 192 17981043016177877044
12553582 1 18340209596081200808
13140716 1 18339353162807806824
14115302 16 18260558800664857757
14178342 30 18342169020513043153
1420 336 17617378377007301330
14223421 5 17977101589294013363
14790565 3 18339370772316995824
15196674 1 18410855473277152134
16945 1 18339084787433830424
19107657 46 18410575093300707278
193761 8 17475233982473574256
19591789 44 17761498384395289364
19930381 70 18122060901980013655
200 152 18059850679881891253
20201158 50 18408602539454677811
21160774 45 16969131026286046079
221490 88 18192999450435135674
2334 1 18195246856550109000
23559900 14 18411696591715391008
238 59 17979322538442144583
2748010 2 18267020750839456864
2838139 119 16226622921778841540
34934 24 18411694361793739122
350125 39 18049729812497139665
7364860 26 18267864076121233273
81228 2 18047475530330046808
8809292 202 18334013929789889731
9709674 26 18411138073688554607

> <PUBCHEM_SHAPE_MULTIPOLES>
369.15
6.17
3.95
0.77
0.47
1.13
0.03
-1.33
0.77
-0.49
-0.47
0.38
0.04
0.46

> <PUBCHEM_SHAPE_SELFOVERLAP>
785.381

> <PUBCHEM_SHAPE_VOLUME>
210.2

> <PUBCHEM_COORDINATE_TYPE>
2
5
10

$$$$
