REMARK  Name = 135410268
REMARK  5 active torsions:
REMARK  status: ('A' for Active; 'I' for Inactive)
REMARK    1  A    between atoms: C2*_2  and  O2*_17
REMARK    2  A    between atoms: C1*_3  and  N9_7
REMARK    3  A    between atoms: C3*_4  and  O3*_19
REMARK    4  A    between atoms: C4*_5  and  C5*_21
REMARK    5  A    between atoms: C5*_21  and  O5*_22
REMARK                            x       y       z     vdW  Elec       q    Type
REMARK                         _______ _______ _______ _____ _____    ______ ____
ROOT
ATOM      1  O4* I   A   1       1.655  -0.221  -1.031  0.00  0.00    -0.333 OA
ATOM      2  C2* I   A   1       1.907   1.220   0.835  0.00  0.00    +0.187 C 
ATOM      3  C1* I   A   1       1.168   1.020  -0.488  0.00  0.00    +0.225 C 
ATOM      4  C3* I   A   1       3.262   0.616   0.526  0.00  0.00    +0.171 C 
ATOM      5  C4* I   A   1       2.934  -0.523  -0.439  0.00  0.00    +0.175 C 
ENDROOT
BRANCH   3   7
ATOM      6  O6  I   A   1      -4.730   0.102   0.114  0.00  0.00    -0.268 OA
ATOM      7  N9  I   A   1      -0.337   1.056  -0.383  0.00  0.00    -0.247 N 
ATOM      8  N7  I   A   1      -2.412   1.894  -0.383  0.00  0.00    -0.241 NA
ATOM      9  N3  I   A   1      -0.802  -1.276   0.081  0.00  0.00    -0.232 NA
ATOM     10  N1  I   A   1      -3.170  -1.623   0.319  0.00  0.00    -0.279 N 
ATOM     11  C4  I   A   1      -1.171   0.008  -0.129  0.00  0.00    +0.154 C 
ATOM     12  C8  I   A   1      -1.130   2.169  -0.529  0.00  0.00    +0.223 C 
ATOM     13  C5  I   A   1      -2.434   0.553  -0.135  0.00  0.00    +0.162 C 
ATOM     14  C6  I   A   1      -3.572  -0.297   0.105  0.00  0.00    +0.267 C 
ATOM     15  C2  I   A   1      -1.834  -2.039   0.297  0.00  0.00    +0.220 C 
ATOM     16  H1  I   A   1      -3.865  -2.297   0.495  0.00  0.00    +0.152 HD
ENDBRANCH   3   7
BRANCH   2  17
ATOM     17  O2* I   A   1       1.288   0.479   1.880  0.00  0.00    -0.378 OA
ATOM     18  H2* I   A   1       0.421   0.864   2.079  0.00  0.00    +0.211 HD
ENDBRANCH   2  17
BRANCH   4  19
ATOM     19  O3* I   A   1       4.046   1.596  -0.149  0.00  0.00    -0.379 OA
ATOM     20  H3* I   A   1       4.256   2.320   0.461  0.00  0.00    +0.211 HD
ENDBRANCH   4  19
BRANCH   5  21
ATOM     21  C5* I   A   1       2.822  -1.879   0.244  0.00  0.00    +0.169 C 
BRANCH  21  22
ATOM     22  O5* I   A   1       2.507  -2.855  -0.734  0.00  0.00    -0.379 OA
ATOM     23  H5* I   A   1       2.432  -3.725  -0.311  0.00  0.00    +0.211 HD
ENDBRANCH  21  22
ENDBRANCH   5  21
TORSDOF 5
