REMARK  Name = 135435172
REMARK  4 active torsions:
REMARK  status: ('A' for Active; 'I' for Inactive)
REMARK    1  A    between atoms: N_2  and  C_14
REMARK    2  A    between atoms: C_15  and  O_18
REMARK    3  A    between atoms: C_17  and  C_20
REMARK    4  A    between atoms: C_20  and  O_21
REMARK                            x       y       z     vdW  Elec       q    Type
REMARK                         _______ _______ _______ _____ _____    ______ ____
ROOT
ATOM      1  O   UNL     1      -4.591   1.383  -0.738  0.00  0.00    -0.268 OA
ATOM      2  N   UNL     1      -0.328   0.174   0.166  0.00  0.00    -0.247 N 
ATOM      3  N   UNL     1      -1.645   1.768  -0.689  0.00  0.00    -0.241 NA
ATOM      4  N   UNL     1      -1.987  -1.470   0.815  0.00  0.00    -0.232 NA
ATOM      5  N   UNL     1      -4.195  -0.684   0.273  0.00  0.00    -0.279 N 
ATOM      6  C   UNL     1      -1.607  -0.285   0.284  0.00  0.00    +0.154 C 
ATOM      7  C   UNL     1      -0.403   1.412  -0.425  0.00  0.00    +0.223 C 
ATOM      8  C   UNL     1      -2.390   0.714  -0.249  0.00  0.00    +0.162 C 
ATOM      9  C   UNL     1      -3.821   0.548  -0.281  0.00  0.00    +0.267 C 
ATOM     10  C   UNL     1      -3.281  -1.613   0.782  0.00  0.00    +0.220 C 
ATOM     11  H   UNL     1      -5.153  -0.908   0.304  0.00  0.00    +0.152 HD
ENDROOT
BRANCH   2  14
ATOM     12  F   UNL     1       2.122  -2.470   0.058  0.00  0.00    -0.230 F 
ATOM     13  O   UNL     1       1.947   0.416   1.019  0.00  0.00    -0.333 OA
ATOM     14  C   UNL     1       0.939  -0.530   0.596  0.00  0.00    +0.231 C 
ATOM     15  C   UNL     1       2.671  -0.471  -1.028  0.00  0.00    +0.177 C 
ATOM     16  C   UNL     1       1.565  -1.364  -0.516  0.00  0.00    +0.236 C 
ATOM     17  C   UNL     1       3.144   0.177   0.259  0.00  0.00    +0.176 C 
BRANCH  15  18
ATOM     18  O   UNL     1       3.699  -1.192  -1.671  0.00  0.00    -0.379 OA
ATOM     19  H   UNL     1       3.355  -1.589  -2.487  0.00  0.00    +0.211 HD
ENDBRANCH  15  18
BRANCH  17  20
ATOM     20  C   UNL     1       3.887   1.482   0.043  0.00  0.00    +0.169 C 
BRANCH  20  21
ATOM     21  O   UNL     1       4.272   2.005   1.304  0.00  0.00    -0.379 OA
ATOM     22  H   UNL     1       4.749   2.840   1.176  0.00  0.00    +0.211 HD
ENDBRANCH  20  21
ENDBRANCH  17  20
ENDBRANCH   2  14
TORSDOF 4
