135407735
  -OEChem-03292013293D

 36 38  0     1  0  0  0  0  0999 V2000
   -1.9390   -0.1108    0.9604 O   0  0  0  0  0  0  0  0  0  0  0  0
   -4.2236    1.5834   -0.1901 O   0  0  0  0  0  0  0  0  0  0  0  0
   -2.6437   -2.8091    0.7560 O   0  0  0  0  0  0  0  0  0  0  0  0
    0.6242    3.2395    0.2345 O   0  0  0  0  0  0  0  0  0  0  0  0
    4.4088   -0.4597   -0.2129 O   0  0  0  0  0  0  0  0  0  0  0  0
    0.1234    0.9246    0.1536 N   0  0  0  0  0  0  0  0  0  0  0  0
    2.2596    1.5759    0.0368 N   0  0  0  0  0  0  0  0  0  0  0  0
    0.3835   -1.4780    0.0171 N   0  0  0  0  0  0  0  0  0  0  0  0
    2.7018   -2.0528   -0.1725 N   0  0  0  0  0  0  0  0  0  0  0  0
    1.0475   -3.7268   -0.1396 N   0  0  0  0  0  0  0  0  0  0  0  0
   -1.3776    1.0180    0.2648 C   0  0  1  0  0  0  0  0  0  0  0  0
   -2.0751    1.0776   -1.0897 C   0  0  0  0  0  0  0  0  0  0  0  0
   -3.4462    0.5341   -0.7621 C   0  0  1  0  0  0  0  0  0  0  0  0
   -3.1521   -0.5205    0.2969 C   0  0  1  0  0  0  0  0  0  0  0  0
   -2.9188   -1.9028   -0.2977 C   0  0  0  0  0  0  0  0  0  0  0  0
    0.8641   -0.2153    0.0459 C   0  0  0  0  0  0  0  0  0  0  0  0
    1.0077    1.9756    0.1438 C   0  0  0  0  0  0  0  0  0  0  0  0
    2.1664    0.2169   -0.0236 C   0  0  0  0  0  0  0  0  0  0  0  0
    3.2214   -0.7510   -0.1446 C   0  0  0  0  0  0  0  0  0  0  0  0
    1.3288   -2.3861   -0.0934 C   0  0  0  0  0  0  0  0  0  0  0  0
    1.6387    4.2673    0.2164 C   0  0  0  0  0  0  0  0  0  0  0  0
   -1.5800    1.9103    0.8690 H   0  0  0  0  0  0  0  0  0  0  0  0
   -1.5743    0.4241   -1.8138 H   0  0  0  0  0  0  0  0  0  0  0  0
   -2.0841    2.0957   -1.4912 H   0  0  0  0  0  0  0  0  0  0  0  0
   -3.9816    0.1553   -1.6374 H   0  0  0  0  0  0  0  0  0  0  0  0
   -3.9320   -0.5701    1.0650 H   0  0  0  0  0  0  0  0  0  0  0  0
   -3.8107   -2.2492   -0.8294 H   0  0  0  0  0  0  0  0  0  0  0  0
   -2.0700   -1.9131   -0.9871 H   0  0  0  0  0  0  0  0  0  0  0  0
   -5.0835    1.2040    0.0597 H   0  0  0  0  0  0  0  0  0  0  0  0
   -2.4999   -3.6823    0.3530 H   0  0  0  0  0  0  0  0  0  0  0  0
    3.3649   -2.8179   -0.2563 H   0  0  0  0  0  0  0  0  0  0  0  0
    1.1374    5.2352    0.3003 H   0  0  0  0  0  0  0  0  0  0  0  0
    2.1915    4.2340   -0.7275 H   0  0  0  0  0  0  0  0  0  0  0  0
    2.3159    4.1429    1.0671 H   0  0  0  0  0  0  0  0  0  0  0  0
    0.0924   -4.0644   -0.0901 H   0  0  0  0  0  0  0  0  0  0  0  0
    1.7834   -4.4193   -0.2249 H   0  0  0  0  0  0  0  0  0  0  0  0
  1 11  1  0  0  0  0
  1 14  1  0  0  0  0
  2 13  1  0  0  0  0
  2 29  1  0  0  0  0
  3 15  1  0  0  0  0
  3 30  1  0  0  0  0
  4 17  1  0  0  0  0
  4 21  1  0  0  0  0
  5 19  2  0  0  0  0
  6 11  1  0  0  0  0
  6 16  1  0  0  0  0
  6 17  1  0  0  0  0
  7 17  2  0  0  0  0
  7 18  1  0  0  0  0
  8 16  1  0  0  0  0
  8 20  2  0  0  0  0
  9 19  1  0  0  0  0
  9 20  1  0  0  0  0
  9 31  1  0  0  0  0
 10 20  1  0  0  0  0
 10 35  1  0  0  0  0
 10 36  1  0  0  0  0
 11 12  1  0  0  0  0
 11 22  1  0  0  0  0
 12 13  1  0  0  0  0
 12 23  1  0  0  0  0
 12 24  1  0  0  0  0
 13 14  1  0  0  0  0
 13 25  1  0  0  0  0
 14 15  1  0  0  0  0
 14 26  1  0  0  0  0
 15 27  1  0  0  0  0
 15 28  1  0  0  0  0
 16 18  2  0  0  0  0
 18 19  1  0  0  0  0
 21 32  1  0  0  0  0
 21 33  1  0  0  0  0
 21 34  1  0  0  0  0
M  END
> <PUBCHEM_COMPOUND_CID>
135407735

> <PUBCHEM_CONFORMER_RMSD>
0.6

> <PUBCHEM_CONFORMER_DIVERSEORDER>
1
18
31
29
3
19
17
21
20
12
23
32
22
27
15
24
7
2
13
5
30
33
25
14
9
8
28
26
6
16
10
4
11

> <PUBCHEM_MMFF94_PARTIAL_CHARGES>
25
1 -0.56
10 -0.85
11 0.54
13 0.28
14 0.28
15 0.28
16 -0.03
17 0.25
18 0.14
19 0.72
2 -0.68
20 0.56
21 0.28
29 0.4
3 -0.68
30 0.4
31 0.37
35 0.4
36 0.4
4 -0.34
5 -0.57
6 0.05
7 -0.57
8 -0.58
9 -0.49

> <PUBCHEM_EFFECTIVE_ROTOR_COUNT>
4

> <PUBCHEM_PHARMACOPHORE_FEATURES>
12
1 1 acceptor
1 10 donor
1 2 acceptor
1 2 donor
1 3 acceptor
1 3 donor
1 5 acceptor
1 9 donor
3 6 7 17 cation
5 1 11 12 13 14 rings
5 6 7 16 17 18 rings
6 8 9 16 18 19 20 rings

> <PUBCHEM_HEAVY_ATOM_COUNT>
21

> <PUBCHEM_ATOM_DEF_STEREO_COUNT>
3

> <PUBCHEM_ATOM_UDEF_STEREO_COUNT>
0

> <PUBCHEM_BOND_DEF_STEREO_COUNT>
0

> <PUBCHEM_BOND_UDEF_STEREO_COUNT>
0

> <PUBCHEM_ISOTOPIC_ATOM_COUNT>
0

> <PUBCHEM_COMPONENT_COUNT>
1

> <PUBCHEM_CACTVS_TAUTO_COUNT>
-1

> <PUBCHEM_CONFORMER_ID>
0812287700000001

> <PUBCHEM_MMFF94_ENERGY>
48.6394

> <PUBCHEM_FEATURE_SELFOVERLAP>
61.08

> <PUBCHEM_SHAPE_FINGERPRINT>
10616163 171 18410294722389424831
10967382 1 18338797784496612622
11578080 2 16839615840524904393
116883 192 17692530018298311988
12553582 1 18267872678950737594
12788726 201 17761488093442203562
13140716 1 18411699928013397777
14178342 30 18342168968920441257
14223421 5 18120936363266008859
14790565 3 17619354203771969105
16945 1 18339084787101345664
19107657 46 18410575054646151023
193761 8 17763182840730323504
19591789 44 18049728721913232044
20645477 70 18192419982544006543
21634736 98 18056470879738045086
221490 88 18265057014324013426
2334 1 18194682789699377946
23402539 116 18342731906579972870
23559900 14 18340194293519309897
238 59 18049687923981802423
2748010 2 18265331887877811848
2838139 119 16226345814757191846
314173 41 18340495486310639765
34934 24 18339073779121485834
350125 39 18193844970476549953
352729 6 17257647249396328584
458136 41 17833568051338444561
58051976 378 18124591152654101189
7364860 26 18339922730915785084
74978 22 18411418419146570265
81228 2 17831585271259777008
8809292 202 18333734619566457995
9709674 26 18337950203356472303

> <PUBCHEM_SHAPE_MULTIPOLES>
377.92
6.17
4.26
0.75
2.03
1.2
0.04
-0.75
0.56
-2.08
-0.3
0.38
0.03
0.67

> <PUBCHEM_SHAPE_SELFOVERLAP>
816.169

> <PUBCHEM_SHAPE_VOLUME>
204.3

> <PUBCHEM_COORDINATE_TYPE>
2
5
10

$$$$
