135459833
  -OEChem-03292013293D

 43 44  0     1  0  0  0  0  0999 V2000
   -2.7072   -1.1727    0.3500 O   0  0  0  0  0  0  0  0  0  0  0  0
   -0.1130   -2.2171    0.1554 O   0  0  0  0  0  0  0  0  0  0  0  0
   -4.6540   -1.1801   -0.8833 O   0  0  0  0  0  0  0  0  0  0  0  0
    4.8541    1.7386   -1.0167 O   0  0  0  0  0  0  0  0  0  0  0  0
    2.2095   -1.7241    0.1796 N   0  0  0  0  0  0  0  0  0  0  0  0
   -5.2166    1.3826   -0.1698 N   0  0  0  0  0  0  0  0  0  0  0  0
    4.0859   -1.1277   -0.8813 N   0  0  0  0  0  0  0  0  0  0  0  0
    1.4058    0.4392    0.9101 N   0  0  0  0  0  0  0  0  0  0  0  0
    2.9089    2.1657    0.2027 N   0  0  0  0  0  0  0  0  0  0  0  0
    0.9685    2.6885    1.4295 N   0  0  0  0  0  0  0  0  0  0  0  0
   -2.7233    1.6701   -0.1680 C   0  0  0  0  0  0  0  0  0  0  0  0
   -3.9407    0.8363    0.2950 C   0  0  2  0  0  0  0  0  0  0  0  0
   -2.7611    3.1279    0.3053 C   0  0  0  0  0  0  0  0  0  0  0  0
   -2.5672    1.6254   -1.6918 C   0  0  0  0  0  0  0  0  0  0  0  0
   -3.8432   -0.6113   -0.1635 C   0  0  0  0  0  0  0  0  0  0  0  0
    1.1295   -2.6137    0.7275 C   0  0  0  0  0  0  0  0  0  0  0  0
    2.2922   -0.3668    0.2848 C   0  0  0  0  0  0  0  0  0  0  0  0
   -2.4798   -2.5404   -0.0044 C   0  0  0  0  0  0  0  0  0  0  0  0
   -1.1898   -3.0106    0.6398 C   0  0  0  0  0  0  0  0  0  0  0  0
    3.4507   -0.0329   -0.3741 C   0  0  0  0  0  0  0  0  0  0  0  0
    3.3112   -2.1354   -0.5303 C   0  0  0  0  0  0  0  0  0  0  0  0
    3.8408    1.3477   -0.4515 C   0  0  0  0  0  0  0  0  0  0  0  0
    1.7385    1.7107    0.8550 C   0  0  0  0  0  0  0  0  0  0  0  0
   -1.8182    1.2211    0.2626 H   0  0  0  0  0  0  0  0  0  0  0  0
   -3.9722    0.8220    1.3919 H   0  0  0  0  0  0  0  0  0  0  0  0
   -3.4343    2.0572   -2.2024 H   0  0  0  0  0  0  0  0  0  0  0  0
   -2.4291    0.6026   -2.0562 H   0  0  0  0  0  0  0  0  0  0  0  0
   -3.5727    3.6906   -0.1670 H   0  0  0  0  0  0  0  0  0  0  0  0
   -1.6845    2.1967   -2.0009 H   0  0  0  0  0  0  0  0  0  0  0  0
   -1.8217    3.6353    0.0601 H   0  0  0  0  0  0  0  0  0  0  0  0
   -2.8935    3.1778    1.3910 H   0  0  0  0  0  0  0  0  0  0  0  0
   -5.3416    2.3264    0.1930 H   0  0  0  0  0  0  0  0  0  0  0  0
   -5.9838    0.8323    0.2151 H   0  0  0  0  0  0  0  0  0  0  0  0
    1.3878   -3.6405    0.4496 H   0  0  0  0  0  0  0  0  0  0  0  0
    1.1425   -2.4701    1.8129 H   0  0  0  0  0  0  0  0  0  0  0  0
   -3.3173   -3.1549    0.3435 H   0  0  0  0  0  0  0  0  0  0  0  0
   -2.3962   -2.6088   -1.0952 H   0  0  0  0  0  0  0  0  0  0  0  0
   -1.0125   -4.0641    0.3979 H   0  0  0  0  0  0  0  0  0  0  0  0
   -1.2529   -2.8924    1.7276 H   0  0  0  0  0  0  0  0  0  0  0  0
    3.4938   -3.1764   -0.7592 H   0  0  0  0  0  0  0  0  0  0  0  0
    3.0888    3.1656    0.2084 H   0  0  0  0  0  0  0  0  0  0  0  0
    0.1080    2.4610    1.9157 H   0  0  0  0  0  0  0  0  0  0  0  0
    1.2317    3.6666    1.3802 H   0  0  0  0  0  0  0  0  0  0  0  0
  1 15  1  0  0  0  0
  1 18  1  0  0  0  0
  2 16  1  0  0  0  0
  2 19  1  0  0  0  0
  3 15  2  0  0  0  0
  4 22  2  0  0  0  0
  5 16  1  0  0  0  0
  5 17  1  0  0  0  0
  5 21  1  0  0  0  0
  6 12  1  0  0  0  0
  6 32  1  0  0  0  0
  6 33  1  0  0  0  0
  7 20  1  0  0  0  0
  7 21  2  0  0  0  0
  8 17  1  0  0  0  0
  8 23  2  0  0  0  0
  9 22  1  0  0  0  0
  9 23  1  0  0  0  0
  9 41  1  0  0  0  0
 10 23  1  0  0  0  0
 10 42  1  0  0  0  0
 10 43  1  0  0  0  0
 11 12  1  0  0  0  0
 11 13  1  0  0  0  0
 11 14  1  0  0  0  0
 11 24  1  0  0  0  0
 12 15  1  0  0  0  0
 12 25  1  0  0  0  0
 13 28  1  0  0  0  0
 13 30  1  0  0  0  0
 13 31  1  0  0  0  0
 14 26  1  0  0  0  0
 14 27  1  0  0  0  0
 14 29  1  0  0  0  0
 16 34  1  0  0  0  0
 16 35  1  0  0  0  0
 17 20  2  0  0  0  0
 18 19  1  0  0  0  0
 18 36  1  0  0  0  0
 18 37  1  0  0  0  0
 19 38  1  0  0  0  0
 19 39  1  0  0  0  0
 20 22  1  0  0  0  0
 21 40  1  0  0  0  0
M  END
> <PUBCHEM_COMPOUND_CID>
135459833

> <PUBCHEM_CONFORMER_RMSD>
1

> <PUBCHEM_CONFORMER_DIVERSEORDER>
1
118
15
155
30
28
144
96
25
19
21
145
54
157
45
81
122
43
142
78
72
13
92
110
37
89
99
101
126
69
65
91
152
46
150
93
64
131
57
138
140
33
42
95
141
112
158
143
119
103
124
102
139
8
17
98
76
34
107
151
38
74
50
36
11
70
24
120
97
123
9
75
113
154
68
66
56
105
136
130
31
116
62
137
71
149
22
88
39
109
148
12
16
63
104
59
6
20
106
159
133
125
79
146
156
87
48
147
2
67
100
10
47
55
153
35
18
121
23
114
41
58
49
7
134
51
135
60
83
111
127
94
160
86
129
115
82
77
32
90
84
132
14
73
117
53
40
44
85
128
61
3
80
52
4
5
29
108
27
26

> <PUBCHEM_MMFF94_PARTIAL_CHARGES>
26
1 -0.43
10 -0.85
12 0.33
15 0.66
16 0.54
17 -0.03
18 0.28
19 0.28
2 -0.56
20 0.14
21 0.04
22 0.72
23 0.56
3 -0.57
32 0.36
33 0.36
4 -0.57
40 0.15
41 0.37
42 0.4
43 0.4
5 0.05
6 -0.99
7 -0.57
8 -0.58
9 -0.49

> <PUBCHEM_EFFECTIVE_ROTOR_COUNT>
8

> <PUBCHEM_PHARMACOPHORE_FEATURES>
11
1 10 donor
1 2 acceptor
1 3 acceptor
1 4 acceptor
1 6 cation
1 6 donor
1 9 donor
3 11 13 14 hydrophobe
3 5 7 21 cation
5 5 7 17 20 21 rings
6 8 9 17 20 22 23 rings

> <PUBCHEM_HEAVY_ATOM_COUNT>
23

> <PUBCHEM_ATOM_DEF_STEREO_COUNT>
1

> <PUBCHEM_ATOM_UDEF_STEREO_COUNT>
0

> <PUBCHEM_BOND_DEF_STEREO_COUNT>
0

> <PUBCHEM_BOND_UDEF_STEREO_COUNT>
0

> <PUBCHEM_ISOTOPIC_ATOM_COUNT>
0

> <PUBCHEM_COMPONENT_COUNT>
1

> <PUBCHEM_CACTVS_TAUTO_COUNT>
-1

> <PUBCHEM_CONFORMER_ID>
0812F3F900000001

> <PUBCHEM_MMFF94_ENERGY>
38.2807

> <PUBCHEM_FEATURE_SELFOVERLAP>
55.999

> <PUBCHEM_SHAPE_FINGERPRINT>
10366900 7 18340763870406503701
10498660 4 18189608505231009487
10670039 82 18116163336324671150
10764073 3 17769052858676207250
108634 29 18341059574958220470
12633257 1 18267581317265279731
13122387 1 18194115218598678873
13402501 40 18410576210224098339
14117953 113 16681469587003394189
14251757 17 18342745095949674770
14363568 33 16821109268933027361
14617045 38 18410019861909990505
14765038 42 18129404664273904281
14931854 50 18413108363922710925
15322687 12 18120646934210728825
21141583 151 18343023259226882424
21864079 5 18335698304521246907
221357 26 18343022202881478191
23536364 44 18128002808971458564
238 59 17756673405212631807
3524813 1 18261391079506513223
6287921 2 18117566338399435924

> <PUBCHEM_SHAPE_MULTIPOLES>
419.97
9.88
3.98
1.05
2.7
0.56
-0.12
-2.79
-2.82
0.56
0.69
-0.07
-0.4
0.21

> <PUBCHEM_SHAPE_SELFOVERLAP>
870.496

> <PUBCHEM_SHAPE_VOLUME>
237.4

> <PUBCHEM_COORDINATE_TYPE>
2
5
10

$$$$
