135400932
  -OEChem-03292013293D

 31 33  0     0  0  0  0  0  0999 V2000
    2.6180   -1.0383    1.6056 N   0  0  0  0  0  0  0  0  0  0  0  0
   -1.9647    0.7626   -1.4394 N   0  0  0  0  0  0  0  0  0  0  0  0
   -2.0248    2.0948   -1.2731 N   0  0  0  0  0  0  0  0  0  0  0  0
   -1.6914    3.4433    0.6759 N   0  0  0  0  0  0  0  0  0  0  0  0
   -3.6688   -2.7171   -1.1064 N   0  0  0  0  0  0  0  0  0  0  0  0
   -0.9287    0.5836    3.1590 N   0  0  0  0  0  0  0  0  0  0  0  0
    1.6714   -0.6035   -0.3673 C   0  0  0  0  0  0  0  0  0  0  0  0
    0.8372   -1.4962    0.3622 C   0  0  0  0  0  0  0  0  0  0  0  0
    2.7817   -0.3321    0.4351 C   0  0  0  0  0  0  0  0  0  0  0  0
    1.4458   -1.7448    1.5708 C   0  0  0  0  0  0  0  0  0  0  0  0
   -0.3981   -2.0523   -0.0374 C   0  0  0  0  0  0  0  0  0  0  0  0
    1.5882    0.0015   -1.6371 C   0  0  0  0  0  0  0  0  0  0  0  0
    3.8171    0.5175    0.0296 C   0  0  0  0  0  0  0  0  0  0  0  0
   -1.5692   -1.3937   -0.3658 C   0  0  0  0  0  0  0  0  0  0  0  0
   -1.6622    0.0778   -0.2991 C   0  0  0  0  0  0  0  0  0  0  0  0
    2.6165    0.8536   -2.0562 C   0  0  0  0  0  0  0  0  0  0  0  0
    3.7128    1.1062   -1.2339 C   0  0  0  0  0  0  0  0  0  0  0  0
   -1.5138    1.0283    0.6811 C   0  0  0  0  0  0  0  0  0  0  0  0
   -1.7486    2.2511    0.0244 C   0  0  0  0  0  0  0  0  0  0  0  0
   -2.7272   -2.1254   -0.7744 C   0  0  0  0  0  0  0  0  0  0  0  0
   -1.1914    0.7833    2.0464 C   0  0  0  0  0  0  0  0  0  0  0  0
    1.1540   -2.3589    2.4121 H   0  0  0  0  0  0  0  0  0  0  0  0
    3.2693   -1.0347    2.3784 H   0  0  0  0  0  0  0  0  0  0  0  0
   -0.4271   -3.1421   -0.0632 H   0  0  0  0  0  0  0  0  0  0  0  0
    0.7501   -0.1916   -2.3000 H   0  0  0  0  0  0  0  0  0  0  0  0
    4.6710    0.7148    0.6689 H   0  0  0  0  0  0  0  0  0  0  0  0
    2.5590    1.3207   -3.0357 H   0  0  0  0  0  0  0  0  0  0  0  0
    4.5004    1.7710   -1.5796 H   0  0  0  0  0  0  0  0  0  0  0  0
   -2.1392    0.3909   -2.3652 H   0  0  0  0  0  0  0  0  0  0  0  0
   -1.4779    3.5261    1.6651 H   0  0  0  0  0  0  0  0  0  0  0  0
   -1.8615    4.3222    0.1971 H   0  0  0  0  0  0  0  0  0  0  0  0
  1  9  1  0  0  0  0
  1 10  1  0  0  0  0
  1 23  1  0  0  0  0
  2  3  1  0  0  0  0
  2 15  1  0  0  0  0
  2 29  1  0  0  0  0
  3 19  2  0  0  0  0
  4 19  1  0  0  0  0
  4 30  1  0  0  0  0
  4 31  1  0  0  0  0
  5 20  3  0  0  0  0
  6 21  3  0  0  0  0
  7  8  1  0  0  0  0
  7  9  1  0  0  0  0
  7 12  2  0  0  0  0
  8 10  2  0  0  0  0
  8 11  1  0  0  0  0
  9 13  2  0  0  0  0
 10 22  1  0  0  0  0
 11 14  2  0  0  0  0
 11 24  1  0  0  0  0
 12 16  1  0  0  0  0
 12 25  1  0  0  0  0
 13 17  1  0  0  0  0
 13 26  1  0  0  0  0
 14 15  1  0  0  0  0
 14 20  1  0  0  0  0
 15 18  2  0  0  0  0
 16 17  2  0  0  0  0
 16 27  1  0  0  0  0
 17 28  1  0  0  0  0
 18 19  1  0  0  0  0
 18 21  1  0  0  0  0
M  END
> <PUBCHEM_COMPOUND_CID>
135400932

> <PUBCHEM_CONFORMER_RMSD>
0.6

> <PUBCHEM_CONFORMER_DIVERSEORDER>
1
14
19
13
3
17
7
8
6
15
5
4
2
16
18
20
10
9
11
12

> <PUBCHEM_MMFF94_PARTIAL_CHARGES>
30
1 0.03
10 -0.3
11 -0.1
12 -0.15
13 -0.15
14 0.11
15 -0.2
16 -0.15
17 -0.15
18 0.02
19 0.37
2 0.3
20 0.49
21 0.54
22 0.15
23 0.27
24 0.15
25 0.15
26 0.15
27 0.15
28 0.15
29 0.27
3 -0.71
30 0.4
31 0.4
4 -0.88
5 -0.56
6 -0.56
8 -0.05
9 -0.15

> <PUBCHEM_EFFECTIVE_ROTOR_COUNT>
2

> <PUBCHEM_PHARMACOPHORE_FEATURES>
10
1 1 cation
1 1 donor
1 2 donor
1 4 donor
1 5 acceptor
1 6 acceptor
3 3 4 19 cation
5 1 7 8 9 10 rings
5 2 3 15 18 19 rings
6 7 9 12 13 16 17 rings

> <PUBCHEM_HEAVY_ATOM_COUNT>
21

> <PUBCHEM_ATOM_DEF_STEREO_COUNT>
0

> <PUBCHEM_ATOM_UDEF_STEREO_COUNT>
0

> <PUBCHEM_BOND_DEF_STEREO_COUNT>
1

> <PUBCHEM_BOND_UDEF_STEREO_COUNT>
0

> <PUBCHEM_ISOTOPIC_ATOM_COUNT>
0

> <PUBCHEM_COMPONENT_COUNT>
1

> <PUBCHEM_CACTVS_TAUTO_COUNT>
-1

> <PUBCHEM_CONFORMER_ID>
08120DE400000001

> <PUBCHEM_MMFF94_ENERGY>
38.5664

> <PUBCHEM_FEATURE_SELFOVERLAP>
50.838

> <PUBCHEM_SHAPE_FINGERPRINT>
10165383 225 17267837170858843000
11640471 11 18263360296242061628
128993 33 18046659761553348580
13009979 54 18117534302517846058
13693222 7 18335709282372908636
1601671 61 18272656792242332575
16945 1 18199166435130406267
17492 54 17829051257460160799
18981168 100 18055092981151408886
192875 21 17604415427331963452
20600515 1 17842842393279756263
20691752 17 17972860730228370419
20715895 44 17682941212475461677
21756936 100 17462890680462419868
22802520 49 16271658792981477226
23419403 2 17414687042385534985
23557571 272 17846222223514871118
350125 39 18197510523353691183
3797600 57 17610953041666355136
5845 1 17559409143542149171
6992083 37 17756124718687851058
81228 2 18057066767684960487

> <PUBCHEM_SHAPE_MULTIPOLES>
402.28
5.44
2.88
2.14
2.95
0.85
1.12
-0.19
-1.9
-2.87
-0.11
-0.05
0.29
-1.72

> <PUBCHEM_SHAPE_SELFOVERLAP>
894.784

> <PUBCHEM_SHAPE_VOLUME>
210.1

> <PUBCHEM_COORDINATE_TYPE>
2
5
10

$$$$
