REMARK  Name = 135475605
REMARK  4 active torsions:
REMARK  status: ('A' for Active; 'I' for Inactive)
REMARK    1  A    between atoms: N_2  and  C1*_16
REMARK    2  A    between atoms: C3*_18  and  O3*_20
REMARK    3  A    between atoms: C4*_19  and  C5*_22
REMARK    4  A    between atoms: C5*_22  and  O5*_23
REMARK                            x       y       z     vdW  Elec       q    Type
REMARK                         _______ _______ _______ _____ _____    ______ ____
ROOT
ATOM      1  O   UNL     1       1.281   2.318   0.443  0.00  0.00    -0.272 OA
ATOM      2  N   UNL     1       0.001  -0.404   0.068  0.00  0.00    -0.209 NA
ATOM      3  N   UNL     1       1.201  -2.252  -0.274  0.00  0.00    -0.194 NA
ATOM      4  N   UNL     1       3.284   1.183   0.183  0.00  0.00    -0.245 N 
ATOM      5  N   UNL     1       3.434  -1.182  -0.196  0.00  0.00    -0.323 NA
ATOM      6  N   UNL     1       5.363   0.138  -0.067  0.00  0.00    -0.320 N 
ATOM      7  C   UNL     1       1.309  -0.017   0.075  0.00  0.00    +0.236 C 
ATOM      8  C   UNL     1      -0.013  -1.758  -0.145  0.00  0.00    +0.215 C 
ATOM      9  C   UNL     1       2.029  -1.169  -0.137  0.00  0.00    +0.087 C 
ATOM     10  C   UNL     1       1.894   1.273   0.254  0.00  0.00    +0.259 C 
ATOM     11  C   UNL     1       3.999  -0.007  -0.034  0.00  0.00    +0.248 C 
ATOM     12  H   UNL     1       3.801   2.014   0.294  0.00  0.00    +0.159 HD
ATOM     13  H   UNL     1       5.766   1.028   0.057  0.00  0.00    +0.146 HD
ATOM     14  H   UNL     1       5.938  -0.647  -0.215  0.00  0.00    +0.146 HD
ENDROOT
BRANCH   2  16
ATOM     15  O4* UNL     1      -2.289  -0.234   0.908  0.00  0.00    -0.338 OA
ATOM     16  C1* UNL     1      -1.214   0.469   0.257  0.00  0.00    +0.181 C 
ATOM     17  C2* UNL     1      -1.780   0.998  -1.056  0.00  0.00    +0.079 C 
ATOM     18  C3* UNL     1      -3.226   1.249  -0.697  0.00  0.00    +0.144 C 
ATOM     19  C4* UNL     1      -3.537   0.122   0.280  0.00  0.00    +0.173 C 
BRANCH  18  20
ATOM     20  O3* UNL     1      -3.314   2.503  -0.025  0.00  0.00    -0.382 OA
ATOM     21  H3* UNL     1      -3.116   3.219  -0.649  0.00  0.00    +0.210 HD
ENDBRANCH  18  20
BRANCH  19  22
ATOM     22  C5* UNL     1      -4.087  -1.119  -0.409  0.00  0.00    +0.169 C 
BRANCH  22  23
ATOM     23  O5* UNL     1      -4.334  -2.111   0.572  0.00  0.00    -0.379 OA
ATOM     24  H5* UNL     1      -4.686  -2.908   0.146  0.00  0.00    +0.211 HD
ENDBRANCH  22  23
ENDBRANCH  19  22
ENDBRANCH   2  16
TORSDOF 4
