135476793
  -OEChem-03292013293D

 32 34  0     1  0  0  0  0  0999 V2000
    1.7644   -0.6363   -0.8139 O   0  0  0  0  0  0  0  0  0  0  0  0
    1.1195    2.5517    0.6306 O   0  0  0  0  0  0  0  0  0  0  0  0
    3.6314    1.0820    1.7113 O   0  0  0  0  0  0  0  0  0  0  0  0
    4.0935   -2.2060   -1.1748 O   0  0  0  0  0  0  0  0  0  0  0  0
   -0.4505   -0.1500   -0.1213 N   0  0  0  0  0  0  0  0  0  0  0  0
   -1.7770    1.7504   -0.9144 N   0  0  0  0  0  0  0  0  0  0  0  0
   -3.7585    0.8402   -0.4217 N   0  0  0  0  0  0  0  0  0  0  0  0
   -1.7385   -2.0402    0.7393 N   0  0  0  0  0  0  0  0  0  0  0  0
   -4.0676   -1.9212    0.8215 N   0  0  0  0  0  0  0  0  0  0  0  0
    1.4283    1.1707    0.6961 C   0  0  1  0  0  0  0  0  0  0  0  0
    0.8312    0.4063   -0.4771 C   0  0  1  0  0  0  0  0  0  0  0  0
    2.9106    0.9425    0.5025 C   0  0  2  0  0  0  0  0  0  0  0  0
    2.9277   -0.4945    0.0161 C   0  0  2  0  0  0  0  0  0  0  0  0
    4.1718   -0.8463   -0.7793 C   0  0  0  0  0  0  0  0  0  0  0  0
   -1.6136    0.5098   -0.3674 C   0  0  0  0  0  0  0  0  0  0  0  0
   -0.6350   -1.4207    0.4200 C   0  0  0  0  0  0  0  0  0  0  0  0
   -2.8178   -0.0784   -0.0559 C   0  0  0  0  0  0  0  0  0  0  0  0
   -2.9361   -1.3814    0.5216 C   0  0  0  0  0  0  0  0  0  0  0  0
   -3.0838    1.9213   -0.9333 C   0  0  0  0  0  0  0  0  0  0  0  0
    1.0875    0.7958    1.6685 H   0  0  0  0  0  0  0  0  0  0  0  0
    0.7436    1.0410   -1.3681 H   0  0  0  0  0  0  0  0  0  0  0  0
    3.3299    1.6373   -0.2342 H   0  0  0  0  0  0  0  0  0  0  0  0
    2.8195   -1.2036    0.8471 H   0  0  0  0  0  0  0  0  0  0  0  0
    5.0763   -0.7057   -0.1795 H   0  0  0  0  0  0  0  0  0  0  0  0
    4.2402   -0.2394   -1.6881 H   0  0  0  0  0  0  0  0  0  0  0  0
    1.4184    2.8932   -0.2292 H   0  0  0  0  0  0  0  0  0  0  0  0
    3.2549    0.4699    2.3661 H   0  0  0  0  0  0  0  0  0  0  0  0
    0.3127   -1.9491    0.6091 H   0  0  0  0  0  0  0  0  0  0  0  0
    4.8998   -2.4038   -1.6812 H   0  0  0  0  0  0  0  0  0  0  0  0
   -4.7620    0.7455   -0.3373 H   0  0  0  0  0  0  0  0  0  0  0  0
   -3.6043    2.7946   -1.3000 H   0  0  0  0  0  0  0  0  0  0  0  0
   -3.8961   -2.8518    1.2181 H   0  0  0  0  0  0  0  0  0  0  0  0
  1 11  1  0  0  0  0
  1 13  1  0  0  0  0
  2 10  1  0  0  0  0
  2 26  1  0  0  0  0
  3 12  1  0  0  0  0
  3 27  1  0  0  0  0
  4 14  1  0  0  0  0
  4 29  1  0  0  0  0
  5 11  1  0  0  0  0
  5 15  1  0  0  0  0
  5 16  1  0  0  0  0
  6 15  1  0  0  0  0
  6 19  2  0  0  0  0
  7 17  1  0  0  0  0
  7 19  1  0  0  0  0
  7 30  1  0  0  0  0
  8 16  2  0  0  0  0
  8 18  1  0  0  0  0
  9 18  2  0  0  0  0
  9 32  1  0  0  0  0
 10 11  1  0  0  0  0
 10 12  1  0  0  0  0
 10 20  1  0  0  0  0
 11 21  1  0  0  0  0
 12 13  1  0  0  0  0
 12 22  1  0  0  0  0
 13 14  1  0  0  0  0
 13 23  1  0  0  0  0
 14 24  1  0  0  0  0
 14 25  1  0  0  0  0
 15 17  2  0  0  0  0
 16 28  1  0  0  0  0
 17 18  1  0  0  0  0
 19 31  1  0  0  0  0
M  END
> <PUBCHEM_COMPOUND_CID>
135476793

> <PUBCHEM_CONFORMER_RMSD>
0.6

> <PUBCHEM_CONFORMER_DIVERSEORDER>
1
76
22
115
90
102
81
74
11
86
117
109
123
112
65
108
67
70
63
111
105
59
21
120
107
97
104
15
116
99
58
83
39
61
45
32
42
77
82
85
13
51
41
72
68
29
64
4
33
62
3
73
87
106
31
100
12
24
55
110
18
2
71
37
6
30
50
8
49
122
118
75
56
69
52
91
89
92
28
53
27
121
19
66
113
103
10
16
114
79
98
60
7
17
34
96
36
9
78
25
57
119
54
93
47
84
20
43
80
101
23
35
40
14
94
5
26
38
44
95
46
48
88

> <PUBCHEM_MMFF94_PARTIAL_CHARGES>
26
1 -0.56
10 0.28
11 0.65
12 0.28
13 0.28
14 0.28
15 0.31
16 0.44
17 -0.24
18 0.75
19 0.04
2 -0.68
26 0.4
27 0.4
28 0.06
29 0.4
3 -0.68
30 0.27
31 0.15
32 0.4
4 -0.68
5 -0.5
6 -0.57
7 0.03
8 -0.66
9 -0.85

> <PUBCHEM_EFFECTIVE_ROTOR_COUNT>
3

> <PUBCHEM_PHARMACOPHORE_FEATURES>
15
1 1 acceptor
1 2 acceptor
1 2 donor
1 3 acceptor
1 3 donor
1 4 acceptor
1 4 donor
1 7 donor
1 9 donor
3 5 8 16 cation
3 6 7 19 cation
3 8 9 18 cation
5 1 10 11 12 13 rings
5 6 7 15 17 19 rings
6 5 8 15 16 17 18 rings

> <PUBCHEM_HEAVY_ATOM_COUNT>
19

> <PUBCHEM_ATOM_DEF_STEREO_COUNT>
0

> <PUBCHEM_ATOM_UDEF_STEREO_COUNT>
4

> <PUBCHEM_BOND_DEF_STEREO_COUNT>
0

> <PUBCHEM_BOND_UDEF_STEREO_COUNT>
0

> <PUBCHEM_ISOTOPIC_ATOM_COUNT>
0

> <PUBCHEM_COMPONENT_COUNT>
1

> <PUBCHEM_CACTVS_TAUTO_COUNT>
-1

> <PUBCHEM_CONFORMER_ID>
0813363900000001

> <PUBCHEM_MMFF94_ENERGY>
45.0195

> <PUBCHEM_FEATURE_SELFOVERLAP>
76.38

> <PUBCHEM_SHAPE_FINGERPRINT>
10608611 8 18410568530564467536
10922523 26 18412542128313864046
1100329 8 16539330212816840352
11132069 177 18335136514409098241
12236239 1 16298386846620594348
12403259 226 18410856594310946191
12507560 40 18341610447257597584
12623949 98 17913515676577855055
13134695 92 17418084400187603720
13296908 3 18342738520375674494
13464514 151 17909266884448165669
14115302 16 18189347783673001388
14866123 147 17407128655716641058
15219456 202 18343017821924892528
15653759 3 18409167726991095400
16752209 62 17894909650649347363
16945 1 18113893845240149005
17804303 29 18334862722759653975
18186145 218 18339920411675376913
19049666 15 18340483378924517216
19141452 34 18199194056672280871
200 152 17418368078387123807
20510252 161 18336546109695902241
20645477 70 17775279431277684822
20715346 28 18343015618780762440
20871999 31 18187376419359138358
21065201 7 18187643583304449402
22943178 12 18412539920705935536
23175994 123 18059301959054985796
23402539 116 18192978525924617111
23526113 38 18201421567685882152
23557571 272 18262235624558702744
23559900 14 18337671906919116558
25 1 18122337987325665429
2748010 2 18413665816502459804
31174 14 18126850619042367129
43471831 8 17894621539995858531
5104073 3 18411135835714623360
6049 1 18411984684403235456
69090 78 18272079531067153063
7364860 26 18120100743029818652
77492 1 15051732001526248516
81228 2 18041842951699180633
8809292 202 18409733919639550412
9709674 26 18338794619132160743

> <PUBCHEM_SHAPE_MULTIPOLES>
342.63
7.71
2.34
1.09
2.22
0.02
0.1
-2
-0.48
-0.76
0.11
0.67
0.08
2.23

> <PUBCHEM_SHAPE_SELFOVERLAP>
747.531

> <PUBCHEM_SHAPE_VOLUME>
185.5

> <PUBCHEM_COORDINATE_TYPE>
2
5
10

$$$$
