REMARK  Name = 135483765
REMARK  5 active torsions:
REMARK  status: ('A' for Active; 'I' for Inactive)
REMARK    1  A    between atoms: C_2  and  C_10
REMARK    2  A    between atoms: C_3  and  O_18
REMARK    3  A    between atoms: C_4  and  O_20
REMARK    4  A    between atoms: C_5  and  C_22
REMARK    5  A    between atoms: C_22  and  O_23
REMARK                            x       y       z     vdW  Elec       q    Type
REMARK                         _______ _______ _______ _____ _____    ______ ____
ROOT
ATOM      1  O   UNL     1      -2.083   0.491  -0.995  0.00  0.00    -0.347 OA
ATOM      2  C   UNL     1      -1.105  -0.409  -0.433  0.00  0.00    +0.169 C 
ATOM      3  C   UNL     1      -1.745  -0.992   0.822  0.00  0.00    +0.171 C 
ATOM      4  C   UNL     1      -3.217  -1.006   0.459  0.00  0.00    +0.169 C 
ATOM      5  C   UNL     1      -3.362   0.269  -0.362  0.00  0.00    +0.174 C 
ENDROOT
BRANCH   2  10
ATOM      6  O   UNL     1       4.672   1.341   0.425  0.00  0.00    -0.273 OA
ATOM      7  N   UNL     1       1.705   1.869   0.371  0.00  0.00    -0.322 N 
ATOM      8  N   UNL     1       1.848  -1.565  -0.549  0.00  0.00    -0.251 NA
ATOM      9  N   UNL     1       4.115  -0.823  -0.198  0.00  0.00    -0.282 N 
ATOM     10  C   UNL     1       0.203   0.295  -0.155  0.00  0.00    +0.037 C 
ATOM     11  C   UNL     1       1.497  -0.249  -0.216  0.00  0.00    +0.082 C 
ATOM     12  C   UNL     1       0.360   1.617   0.213  0.00  0.00    +0.058 C 
ATOM     13  C   UNL     1       2.410   0.727   0.108  0.00  0.00    +0.187 C 
ATOM     14  C   UNL     1       3.826   0.499   0.141  0.00  0.00    +0.248 C 
ATOM     15  C   UNL     1       3.134  -1.759  -0.516  0.00  0.00    +0.218 C 
ATOM     16  H   UNL     1       2.096   2.734   0.631  0.00  0.00    +0.148 HD
ATOM     17  H   UNL     1       5.057  -1.108  -0.213  0.00  0.00    +0.151 HD
ENDBRANCH   2  10
BRANCH   3  18
ATOM     18  O   UNL     1      -1.242  -2.279   1.123  0.00  0.00    -0.379 OA
ATOM     19  H   UNL     1      -0.300  -2.213   1.348  0.00  0.00    +0.211 HD
ENDBRANCH   3  18
BRANCH   4  20
ATOM     20  O   UNL     1      -3.527  -2.133  -0.361  0.00  0.00    -0.379 OA
ATOM     21  H   UNL     1      -3.435  -2.946   0.159  0.00  0.00    +0.211 HD
ENDBRANCH   4  20
BRANCH   5  22
ATOM     22  C   UNL     1      -3.693   1.489   0.487  0.00  0.00    +0.169 C 
BRANCH  22  23
ATOM     23  O   UNL     1      -3.796   2.618  -0.362  0.00  0.00    -0.379 OA
ATOM     24  H   UNL     1      -4.006   3.403   0.168  0.00  0.00    +0.211 HD
ENDBRANCH  22  23
ENDBRANCH   5  22
TORSDOF 5
