REMARK  Name = 135419190
REMARK  7 active torsions:
REMARK  status: ('A' for Active; 'I' for Inactive)
REMARK    1  A    between atoms: C_1  and  C_7
REMARK    2  A    between atoms: C_2  and  C_11
REMARK    3  A    between atoms: C_3  and  O_15
REMARK    4  A    between atoms: C_6  and  C_17
REMARK    5  A    between atoms: C_18  and  C_20
REMARK    6  A    between atoms: C_18  and  C_25
REMARK    7  A    between atoms: C_20  and  N_21
REMARK                            x       y       z     vdW  Elec       q    Type
REMARK                         _______ _______ _______ _____ _____    ______ ____
ROOT
ATOM      1  C   UNL     1      -1.209   1.178   0.209  0.00  0.00    +0.011 C 
ATOM      2  C   UNL     1      -1.527  -1.213   0.079  0.00  0.00    +0.011 C 
ATOM      3  C   UNL     1      -2.047   0.080   0.021  0.00  0.00    +0.126 C 
ATOM      4  C   UNL     1       0.150   0.984   0.455  0.00  0.00    -0.001 C 
ATOM      5  C   UNL     1      -0.168  -1.407   0.325  0.00  0.00    -0.001 C 
ATOM      6  C   UNL     1       0.671  -0.309   0.513  0.00  0.00    +0.000 C 
ENDROOT
BRANCH   1   7
ATOM      7  C   UNL     1      -1.763   2.611   0.150  0.00  0.00    +0.022 C 
ATOM      8  C   UNL     1      -2.413   2.974  -1.205  0.00  0.00    +0.004 C 
ATOM      9  C   UNL     1      -0.620   3.621   0.392  0.00  0.00    +0.004 C 
ATOM     10  C   UNL     1      -2.843   2.796   1.238  0.00  0.00    +0.004 C 
ENDBRANCH   1   7
BRANCH   2  11
ATOM     11  C   UNL     1      -2.409  -2.401  -0.119  0.00  0.00    +0.022 C 
ATOM     12  C   UNL     1      -1.600  -3.730  -0.009  0.00  0.00    +0.004 C 
ATOM     13  C   UNL     1      -3.584  -2.541   0.904  0.00  0.00    +0.004 C 
ATOM     14  C   UNL     1      -3.083  -2.375  -1.526  0.00  0.00    +0.004 C 
ENDBRANCH   2  11
BRANCH   3  15
ATOM     15  O   UNL     1      -3.376   0.270  -0.221  0.00  0.00    -0.506 OA
ATOM     16  H   UNL     1      -3.726   1.138  -0.260  0.00  0.00    +0.292 HD
ENDBRANCH   3  15
BRANCH   6  17
ATOM     17  C   UNL     1       2.088  -0.512   0.770  0.00  0.00    +0.012 C 
ATOM     18  C   UNL     1       3.114  -0.085  -0.007  0.00  0.00    +0.088 C 
BRANCH  18  20
ATOM     19  S   UNL     1       5.561  -1.394  -0.536  0.00  0.00    -0.034 S 
ATOM     20  C   UNL     1       4.508  -0.467   0.388  0.00  0.00    +0.088 C 
BRANCH  20  21
ATOM     21  N   UNL     1       4.919   0.044   1.597  0.00  0.00    -0.351 N 
ATOM     22  H   UNL     1       5.822  -0.156   1.934  0.00  0.00    +0.143 HD
ATOM     23  H   UNL     1       4.311   0.610   2.125  0.00  0.00    +0.143 HD
ENDBRANCH  20  21
ENDBRANCH  18  20
BRANCH  18  25
ATOM     24  N   UNL     1       2.730   1.234  -2.200  0.00  0.00    -0.191 NA
ATOM     25  C   UNL     1       2.901   0.642  -1.217  0.00  0.00    +0.102 C 
ENDBRANCH  18  25
ENDBRANCH   6  17
TORSDOF 7
