REMARK  Name = 135407139
REMARK  8 active torsions:
REMARK  status: ('A' for Active; 'I' for Inactive)
REMARK    1  A    between atoms: N_2  and  C_15
REMARK    2  A    between atoms: C_15  and  O_16
REMARK    3  A    between atoms: O_16  and  C_17
REMARK    4  A    between atoms: C_17  and  C_18
REMARK    5  A    between atoms: C_18  and  O_19
REMARK    6  A    between atoms: O_19  and  C_21
REMARK    7  A    between atoms: C_21  and  C_22
REMARK    8  A    between atoms: C_22  and  N_23
REMARK                            x       y       z     vdW  Elec       q    Type
REMARK                         _______ _______ _______ _____ _____    ______ ____
ROOT
ATOM      1  O   UNL     1      -4.612   1.343   1.620  0.00  0.00    -0.268 OA
ATOM      2  N   UNL     1      -1.167   0.721  -1.236  0.00  0.00    -0.235 N 
ATOM      3  N   UNL     1      -2.493   2.235  -0.261  0.00  0.00    -0.240 NA
ATOM      4  N   UNL     1      -2.052  -1.322  -0.286  0.00  0.00    -0.357 NA
ATOM      5  N   UNL     1      -3.865  -0.829   1.200  0.00  0.00    -0.243 N 
ATOM      6  N   UNL     1      -3.178  -3.052   0.837  0.00  0.00    -0.321 N 
ATOM      7  C   UNL     1      -2.025   0.020  -0.441  0.00  0.00    +0.211 C 
ATOM      8  C   UNL     1      -2.823   0.974   0.142  0.00  0.00    +0.176 C 
ATOM      9  C   UNL     1      -1.488   2.049  -1.094  0.00  0.00    +0.224 C 
ATOM     10  C   UNL     1      -3.854   0.565   1.055  0.00  0.00    +0.273 C 
ATOM     11  C   UNL     1      -2.988  -1.726   0.545  0.00  0.00    +0.239 C 
ATOM     12  H   UNL     1      -4.537  -1.216   1.807  0.00  0.00    +0.159 HD
ATOM     13  H   UNL     1      -2.606  -3.735   0.418  0.00  0.00    +0.146 HD
ATOM     14  H   UNL     1      -3.888  -3.321   1.463  0.00  0.00    +0.146 HD
ENDROOT
BRANCH   2  15
ATOM     15  C   UNL     1      -0.119   0.186  -2.072  0.00  0.00    +0.244 C 
BRANCH  15  16
ATOM     16  O   UNL     1       0.972  -0.196  -1.238  0.00  0.00    -0.330 OA
BRANCH  16  17
ATOM     17  C   UNL     1       2.053  -0.721  -1.997  0.00  0.00    +0.191 C 
BRANCH  17  18
ATOM     18  C   UNL     1       3.177  -1.107  -1.055  0.00  0.00    +0.240 C 
BRANCH  18  19
ATOM     19  O   UNL     1       3.616   0.052  -0.357  0.00  0.00    -0.447 OA
BRANCH  19  21
ATOM     20  O   UNL     1       5.182  -1.210   0.772  0.00  0.00    -0.253 OA
ATOM     21  C   UNL     1       4.637  -0.140   0.538  0.00  0.00    +0.295 C 
BRANCH  21  22
ATOM     22  C   UNL     1       4.976   1.181   1.183  0.00  0.00    +0.026 C 
BRANCH  22  23
ATOM     23  N   UNL     1       6.051   0.976   2.145  0.00  0.00    +0.388 N 
ATOM     24  H   UNL     1       6.286   1.865   2.586  0.00  0.00    -0.089 HD
ATOM     25  H   UNL     1       6.871   0.607   1.664  0.00  0.00    -0.089 HD
ATOM     26  H   UNL     1       5.747   0.313   2.858  0.00  0.00    -0.089 HD
ENDBRANCH  22  23
ENDBRANCH  21  22
ENDBRANCH  19  21
ENDBRANCH  18  19
ENDBRANCH  17  18
ENDBRANCH  16  17
ENDBRANCH  15  16
ENDBRANCH   2  15
TORSDOF 8
