135476784
  -OEChem-03292013293D

 30 31  0     1  0  0  0  0  0999 V2000
   -2.8559   -1.6147    0.5941 O   0  0  0  0  0  0  0  0  0  0  0  0
   -3.8421    1.0176    1.2066 O   0  0  0  0  0  0  0  0  0  0  0  0
    1.8550   -2.6533   -0.2954 O   0  0  0  0  0  0  0  0  0  0  0  0
   -0.2511   -0.9177    0.0093 N   0  0  0  0  0  0  0  0  0  0  0  0
    0.3752    1.8441   -0.4703 N   0  0  0  0  0  0  0  0  0  0  0  0
    2.5482    1.4117    0.1262 N   0  0  0  0  0  0  0  0  0  0  0  0
    3.2981   -0.8489    0.0644 N   0  0  0  0  0  0  0  0  0  0  0  0
    4.8039    0.8939    0.4580 N   0  0  0  0  0  0  0  0  0  0  0  0
   -1.2775    0.1247    0.1141 C   0  0  2  0  0  0  0  0  0  0  0  0
   -2.6201   -0.4937   -0.2559 C   0  0  2  0  0  0  0  0  0  0  0  0
   -3.7796    0.5034   -0.1222 C   0  0  1  0  0  0  0  0  0  0  0  0
   -0.9370    1.2888   -0.8087 C   0  0  0  0  0  0  0  0  0  0  0  0
    0.9553   -0.4800   -0.0958 C   0  0  0  0  0  0  0  0  0  0  0  0
   -5.1302   -0.1153   -0.4630 C   0  0  0  0  0  0  0  0  0  0  0  0
    1.2755    0.9803   -0.1480 C   0  0  0  0  0  0  0  0  0  0  0  0
    2.0765   -1.4671   -0.1274 C   0  0  0  0  0  0  0  0  0  0  0  0
    3.5057    0.5264    0.2140 C   0  0  0  0  0  0  0  0  0  0  0  0
   -1.2985    0.4558    1.1612 H   0  0  0  0  0  0  0  0  0  0  0  0
   -2.5915   -0.8764   -1.2841 H   0  0  0  0  0  0  0  0  0  0  0  0
   -3.6315    1.3508   -0.7987 H   0  0  0  0  0  0  0  0  0  0  0  0
   -0.9419    0.9875   -1.8635 H   0  0  0  0  0  0  0  0  0  0  0  0
   -1.6590    2.1021   -0.6959 H   0  0  0  0  0  0  0  0  0  0  0  0
   -5.3989   -0.9026    0.2496 H   0  0  0  0  0  0  0  0  0  0  0  0
   -5.9220    0.6395   -0.4031 H   0  0  0  0  0  0  0  0  0  0  0  0
   -5.1305   -0.5370   -1.4727 H   0  0  0  0  0  0  0  0  0  0  0  0
   -2.1097   -2.2282    0.4820 H   0  0  0  0  0  0  0  0  0  0  0  0
   -4.5653    1.6669    1.2378 H   0  0  0  0  0  0  0  0  0  0  0  0
    4.1172   -1.4485    0.1060 H   0  0  0  0  0  0  0  0  0  0  0  0
    5.0596    1.8677    0.5797 H   0  0  0  0  0  0  0  0  0  0  0  0
    5.5456    0.2054    0.5243 H   0  0  0  0  0  0  0  0  0  0  0  0
  1 10  1  0  0  0  0
  1 26  1  0  0  0  0
  2 11  1  0  0  0  0
  2 27  1  0  0  0  0
  3 16  2  0  0  0  0
  4  9  1  0  0  0  0
  4 13  2  0  0  0  0
  5 12  1  0  0  0  0
  5 15  2  0  0  0  0
  6 15  1  0  0  0  0
  6 17  2  0  0  0  0
  7 16  1  0  0  0  0
  7 17  1  0  0  0  0
  7 28  1  0  0  0  0
  8 17  1  0  0  0  0
  8 29  1  0  0  0  0
  8 30  1  0  0  0  0
  9 10  1  0  0  0  0
  9 12  1  0  0  0  0
  9 18  1  0  0  0  0
 10 11  1  0  0  0  0
 10 19  1  0  0  0  0
 11 14  1  0  0  0  0
 11 20  1  0  0  0  0
 12 21  1  0  0  0  0
 12 22  1  0  0  0  0
 13 15  1  0  0  0  0
 13 16  1  0  0  0  0
 14 23  1  0  0  0  0
 14 24  1  0  0  0  0
 14 25  1  0  0  0  0
M  END
> <PUBCHEM_COMPOUND_CID>
135476784

> <PUBCHEM_CONFORMER_RMSD>
0.6

> <PUBCHEM_CONFORMER_DIVERSEORDER>
1
31
12
62
16
70
14
69
3
19
63
49
50
55
51
60
35
48
57
33
64
21
17
34
47
2
36
25
38
59
30
29
68
6
23
28
32
41
71
26
4
52
5
67
58
22
24
10
18
44
20
13
11
45
39
37
8
53
42
7
27
65
9
40
46
61
74
43
15
66
56
73
54
72

> <PUBCHEM_MMFF94_PARTIAL_CHARGES>
21
1 -0.68
10 0.28
11 0.28
12 0.25
13 0.45
15 0.66
16 0.63
17 0.56
2 -0.68
26 0.4
27 0.4
28 0.37
29 0.4
3 -0.57
30 0.4
4 -0.7
5 -0.7
6 -0.66
7 -0.49
8 -0.85
9 0.25

> <PUBCHEM_EFFECTIVE_ROTOR_COUNT>
2.4

> <PUBCHEM_PHARMACOPHORE_FEATURES>
11
1 1 acceptor
1 1 donor
1 2 acceptor
1 2 donor
1 3 acceptor
1 4 acceptor
1 7 donor
1 8 donor
3 5 6 15 cation
6 4 5 9 12 13 15 rings
6 6 7 13 15 16 17 rings

> <PUBCHEM_HEAVY_ATOM_COUNT>
17

> <PUBCHEM_ATOM_DEF_STEREO_COUNT>
0

> <PUBCHEM_ATOM_UDEF_STEREO_COUNT>
3

> <PUBCHEM_BOND_DEF_STEREO_COUNT>
0

> <PUBCHEM_BOND_UDEF_STEREO_COUNT>
0

> <PUBCHEM_ISOTOPIC_ATOM_COUNT>
0

> <PUBCHEM_COMPONENT_COUNT>
1

> <PUBCHEM_CACTVS_TAUTO_COUNT>
-1

> <PUBCHEM_CONFORMER_ID>
0813363000000001

> <PUBCHEM_MMFF94_ENERGY>
39.6394

> <PUBCHEM_FEATURE_SELFOVERLAP>
55.927

> <PUBCHEM_SHAPE_FINGERPRINT>
10967382 1 18409729547357626854
10980938 120 18410856542523250014
11132069 177 18333729139066634960
11471102 20 18411133632459683780
11806522 49 18339357565244204575
12236239 1 17846495929148639085
12251169 10 18410859875792463445
12346645 6 18341894082508003742
12670546 56 17775002362795267577
13140716 1 18191585465597238712
13214271 11 18336542815113114151
13380535 76 18408603690400723482
14115302 16 14634875244666955857
14144814 61 18411422787122723753
14251717 144 18411697686130211287
14252887 29 18334020462361118619
14790565 3 18264778842737121796
15196674 1 18337951195193048941
15219456 202 18335413513502495940
15375358 24 18260828198230357443
15442244 35 18125726677603506249
15501101 241 18408042892347139516
15536298 74 18271808995044922110
16945 1 18335990817268262396
17834072 33 18201712981680814455
19784866 170 18407761447656557396
200 152 18202275940429859711
20201158 50 18334857212158422571
20279233 1 18113901563422954411
20645477 70 18342454794646710247
21267235 1 18410582772776169943
21501502 16 18267586793106066776
22854114 59 18412823598879751169
23402539 116 17821999943341271638
23402655 69 18341885265362222829
23463225 33 18334011718071558332
23557571 272 16805593721030062644
23559900 14 18260549996514884230
2748010 2 18118676617704869060
33824 294 18409164398550092762
34934 24 18335975419979376095
3545911 37 18411138061008815691
4072396 5 18262500551427088874
449060 62 18413671305523411494
5104073 3 18411419475486882419
53812653 166 18413103987503958152
57005193 9 18410848880591854687
581208 293 18411134744893162652
69090 78 18410569592022620495
7364860 26 18271246015327734950
81228 2 17751087903033852205
8809292 202 18113903766398526515
9709674 26 18410578375041135583

> <PUBCHEM_SHAPE_MULTIPOLES>
307.34
8.52
1.87
0.75
3.72
0.68
0.05
-0.73
0.98
-1.02
-0.13
0.39
-0.11
0.16

> <PUBCHEM_SHAPE_SELFOVERLAP>
647.184

> <PUBCHEM_SHAPE_VOLUME>
171

> <PUBCHEM_COORDINATE_TYPE>
2
5
10

$$$$
