REMARK  Name = 135402053
REMARK  13 active torsions:
REMARK  status: ('A' for Active; 'I' for Inactive)
REMARK    1  A    between atoms: C_1  and  N_22
REMARK    2  A    between atoms: C_2  and  C_9
REMARK    3  A    between atoms: N_8  and  CA_11
REMARK    4  A    between atoms: CA_11  and  C_13
REMARK    5  A    between atoms: CA_11  and  CB_16
REMARK    6  A    between atoms: C_13  and  O_14
REMARK    7  A    between atoms: CB_16  and  CG_17
REMARK    8  A    between atoms: CG_17  and  CD_19
REMARK    9  A    between atoms: CD_19  and  OE1_20
REMARK   10  A    between atoms: N_22  and  C_23
REMARK   11  A    between atoms: N_22  and  C_39
REMARK   12  A    between atoms: C_23  and  C_28
REMARK   13  A    between atoms: C_39  and  C_40
REMARK                            x       y       z     vdW  Elec       q    Type
REMARK                         _______ _______ _______ _____ _____    ______ ____
ROOT
ATOM      1  C   UNL     1      -1.543  -2.484  -0.123  0.00  0.00    +0.049 C 
ATOM      2  C   UNL     1       1.230  -2.216  -0.278  0.00  0.00    +0.053 C 
ATOM      3  C   UNL     1      -0.869  -2.865  -1.283  0.00  0.00    +0.015 C 
ATOM      4  C   UNL     1      -0.830  -1.969   0.960  0.00  0.00    +0.015 C 
ATOM      5  C   UNL     1       0.517  -2.731  -1.361  0.00  0.00    +0.006 C 
ATOM      6  C   UNL     1       0.556  -1.835   0.882  0.00  0.00    +0.006 C 
ENDROOT
BRANCH   2   9
ATOM      7  O   UNL     1       3.338  -2.804  -1.119  0.00  0.00    -0.270 OA
ATOM      8  N   UNL     1       3.262  -1.079   0.428  0.00  0.00    -0.293 N 
ATOM      9  C   ACE A   0       2.675  -2.075  -0.360  0.00  0.00    +0.246 C 
ATOM     10  H   UNL     1       2.677  -0.538   1.006  0.00  0.00    +0.150 HD
BRANCH   8  11
ATOM     11  CA  UNL     1       4.680  -0.800   0.439  0.00  0.00    +0.172 C 
BRANCH  11  13
ATOM     12  OXT UNL     1       4.267  -0.206   2.764  0.00  0.00    -0.248 OA
ATOM     13  C   UNL     1       5.058  -0.399   1.850  0.00  0.00    +0.332 C 
BRANCH  13  14
ATOM     14  O   UNL     1       6.404  -0.308   2.008  0.00  0.00    -0.479 OA
ATOM     15  H   UNL     1       6.973  -0.464   1.280  0.00  0.00    +0.295 HD
ENDBRANCH  13  14
ENDBRANCH  11  13
BRANCH  11  16
ATOM     16  CB  UNL     1       5.091   0.223  -0.627  0.00  0.00    +0.043 C 
BRANCH  16  17
ATOM     17  CG  UNL     1       4.479   1.622  -0.482  0.00  0.00    +0.112 C 
BRANCH  17  19
ATOM     18  OE2 UNL     1       5.657   2.328  -2.494  0.00  0.00    -0.250 OA
ATOM     19  CD  UNL     1       4.906   2.589  -1.565  0.00  0.00    +0.314 C 
BRANCH  19  20
ATOM     20  OE1 UNL     1       4.383   3.827  -1.365  0.00  0.00    -0.480 OA
ATOM     21  HE1 UNL     1       3.811   3.982  -0.639  0.00  0.00    +0.295 HD
ENDBRANCH  19  20
ENDBRANCH  17  19
ENDBRANCH  16  17
ENDBRANCH  11  16
ENDBRANCH   8  11
ENDBRANCH   2   9
BRANCH   1  22
ATOM     22  N   UNL     1      -2.934  -2.619  -0.043  0.00  0.00    -0.292 N 
BRANCH  22  23
ATOM     23  C   UNL     1      -3.731  -1.728   0.772  0.00  0.00    +0.118 C 
BRANCH  23  28
ATOM     24  O   UNL     1      -2.208   2.821   2.743  0.00  0.00    -0.270 OA
ATOM     25  N   UNL     1      -3.305   3.643  -1.107  0.00  0.00    -0.377 NA
ATOM     26  N   UNL     1      -2.490   4.307   0.998  0.00  0.00    -0.244 N 
ATOM     27  N   UNL     1      -2.743   5.884  -0.708  0.00  0.00    -0.321 N 
ATOM     28  C   UNL     1      -3.614  -0.320   0.294  0.00  0.00    -0.006 C 
ATOM     29  C   UNL     1      -3.142   0.671   1.154  0.00  0.00    +0.004 C 
ATOM     30  C   UNL     1      -3.037   1.987   0.695  0.00  0.00    +0.079 C 
ATOM     31  C   UNL     1      -3.977   0.004  -1.012  0.00  0.00    -0.021 C 
ATOM     32  C   UNL     1      -3.398   2.329  -0.615  0.00  0.00    +0.121 C 
ATOM     33  C   UNL     1      -3.869   1.321  -1.464  0.00  0.00    +0.085 C 
ATOM     34  C   UNL     1      -2.541   3.054   1.587  0.00  0.00    +0.254 C 
ATOM     35  C   UNL     1      -2.865   4.578  -0.312  0.00  0.00    +0.237 C 
ATOM     36  H   UNL     1      -2.166   5.058   1.547  0.00  0.00    +0.159 HD
ATOM     37  H   UNL     1      -2.992   6.146  -1.624  0.00  0.00    +0.146 HD
ATOM     38  H   UNL     1      -2.408   6.560  -0.076  0.00  0.00    +0.146 HD
ENDBRANCH  23  28
ENDBRANCH  22  23
BRANCH  22  39
ATOM     39  C   UNL     1      -3.615  -3.679  -0.786  0.00  0.00    +0.170 C 
BRANCH  39  40
ATOM     40  C   UNL     1      -3.103  -4.995  -0.394  0.00  0.00    -0.056 C 
ATOM     41  C   UNL     1      -2.686  -6.075  -0.076  0.00  0.00    -0.012 C 
ENDBRANCH  39  40
ENDBRANCH  22  39
ENDBRANCH   1  22
TORSDOF 13
