135437474
  -OEChem-03292013293D

 34 36  0     1  0  0  0  0  0999 V2000
    1.4769   -0.2818    1.1252 O   0  0  0  0  0  0  0  0  0  0  0  0
    1.4759    0.3243   -1.8105 O   0  0  0  0  0  0  0  0  0  0  0  0
    2.3300   -2.9313   -0.5196 O   0  0  0  0  0  0  0  0  0  0  0  0
    3.9982    1.7595   -0.5603 O   0  0  0  0  0  0  0  0  0  0  0  0
   -4.7877    0.6167   -0.1888 O   0  0  0  0  0  0  0  0  0  0  0  0
   -0.6885   -1.1794    0.4644 N   0  0  0  0  0  0  0  0  0  0  0  0
   -2.8891   -1.5822    0.4358 N   0  0  0  0  0  0  0  0  0  0  0  0
   -0.6638    1.1792   -0.0937 N   0  0  0  0  0  0  0  0  0  0  0  0
   -2.9084    1.9839   -0.4103 N   0  0  0  0  0  0  0  0  0  0  0  0
    2.6197   -0.0109    0.2975 C   0  0  1  0  0  0  0  0  0  0  0  0
    2.2824   -0.5849   -1.0720 C   0  0  1  0  0  0  0  0  0  0  0  0
    1.4671   -1.8133   -0.7174 C   0  0  2  0  0  0  0  0  0  0  0  0
    0.7944   -1.4428    0.6105 C   0  0  1  0  0  0  0  0  0  0  0  0
    2.9181    1.4772    0.3260 C   0  0  1  0  0  0  0  0  0  0  0  0
   -1.2885    0.0041    0.1500 C   0  0  0  0  0  0  0  0  0  0  0  0
    3.2819    1.9592    1.7236 C   0  0  0  0  0  0  0  0  0  0  0  0
   -1.6925   -2.1029    0.6263 C   0  0  0  0  0  0  0  0  0  0  0  0
   -2.6360   -0.2751    0.1405 C   0  0  0  0  0  0  0  0  0  0  0  0
   -3.5738    0.7759   -0.1613 C   0  0  0  0  0  0  0  0  0  0  0  0
   -1.5164    2.1246   -0.3656 C   0  0  0  0  0  0  0  0  0  0  0  0
    3.4639   -0.5750    0.7165 H   0  0  0  0  0  0  0  0  0  0  0  0
    3.1851   -0.8026   -1.6515 H   0  0  0  0  0  0  0  0  0  0  0  0
    0.7472   -2.0858   -1.4965 H   0  0  0  0  0  0  0  0  0  0  0  0
    0.8669   -2.2378    1.3620 H   0  0  0  0  0  0  0  0  0  0  0  0
    2.0474    2.0513   -0.0099 H   0  0  0  0  0  0  0  0  0  0  0  0
    4.1765    1.4463    2.0936 H   0  0  0  0  0  0  0  0  0  0  0  0
    2.4655    1.7983    2.4339 H   0  0  0  0  0  0  0  0  0  0  0  0
    3.5190    3.0287    1.7097 H   0  0  0  0  0  0  0  0  0  0  0  0
    1.2451   -0.1070   -2.6509 H   0  0  0  0  0  0  0  0  0  0  0  0
    1.7739   -3.6829   -0.2519 H   0  0  0  0  0  0  0  0  0  0  0  0
   -1.4889   -3.1342    0.8804 H   0  0  0  0  0  0  0  0  0  0  0  0
    4.1543    2.7190   -0.5377 H   0  0  0  0  0  0  0  0  0  0  0  0
   -1.1852    3.1503   -0.5903 H   0  0  0  0  0  0  0  0  0  0  0  0
   -3.4697    2.8004   -0.6348 H   0  0  0  0  0  0  0  0  0  0  0  0
  1 10  1  0  0  0  0
  1 13  1  0  0  0  0
  2 11  1  0  0  0  0
  2 29  1  0  0  0  0
  3 12  1  0  0  0  0
  3 30  1  0  0  0  0
  4 14  1  0  0  0  0
  4 32  1  0  0  0  0
  5 19  2  0  0  0  0
  6 13  1  0  0  0  0
  6 15  1  0  0  0  0
  6 17  1  0  0  0  0
  7 17  2  0  0  0  0
  7 18  1  0  0  0  0
  8 15  1  0  0  0  0
  8 20  2  0  0  0  0
  9 19  1  0  0  0  0
  9 20  1  0  0  0  0
  9 34  1  0  0  0  0
 10 11  1  0  0  0  0
 10 14  1  0  0  0  0
 10 21  1  0  0  0  0
 11 12  1  0  0  0  0
 11 22  1  0  0  0  0
 12 13  1  0  0  0  0
 12 23  1  0  0  0  0
 13 24  1  0  0  0  0
 14 16  1  0  0  0  0
 14 25  1  0  0  0  0
 15 18  2  0  0  0  0
 16 26  1  0  0  0  0
 16 27  1  0  0  0  0
 16 28  1  0  0  0  0
 17 31  1  0  0  0  0
 18 19  1  0  0  0  0
 20 33  1  0  0  0  0
M  END
> <PUBCHEM_COMPOUND_CID>
135437474

> <PUBCHEM_CONFORMER_RMSD>
0.6

> <PUBCHEM_CONFORMER_DIVERSEORDER>
2
283
42
316
157
227
238
263
217
124
262
216
7
96
128
320
12
244
73
278
240
49
245
89
247
212
148
185
261
23
105
228
286
69
141
138
53
234
1
258
169
248
25
315
299
318
94
319
54
230
146
229
211
4
206
87
143
268
72
99
5
259
123
161
60
100
279
112
243
250
264
218
175
153
209
297
111
130
18
35
163
176
309
253
129
28
223
191
108
109
274
151
180
136
215
158
184
103
59
44
32
193
127
93
41
200
19
199
186
122
162
66
196
203
195
139
86
30
181
90
170
306
164
78
6
14
147
137
282
165
213
311
314
155
171
20
13
202
260
27
63
208
292
83
45
257
270
126
289
293
159
225
70
310
190
277
3
120
192
302
113
10
222
287
22
26
160
74
64
280
173
81
255
150
265
24
317
135
11
313
17
269
231
168
88
106
71
179
308
84
92
295
187
98
210
182
254
62
178
33
95
21
189
56
8
205
242
298
194
133
40
204
91
241
267
154
301
266
239
116
15
251
144
50
183
271
188
290
288
29
226
55
221
117
39
36
172
201
220
294
237
219
97
58
177
57
107
80
305
46
174
140
249
272
47
37
166
43
9
65
16
197
224
38
246
312
207
256
119
273
167
131
125
114
275
102
82
300
145
304
68
233
75
79
303
285
152
34
307
121
61
291
76
104
281
132
51
156
198
252
276
67
101
149
236
48
115
110
232
214
118
31
85
77
296
142
284
52
134
235

> <PUBCHEM_MMFF94_PARTIAL_CHARGES>
25
1 -0.56
10 0.28
11 0.28
12 0.28
13 0.54
14 0.28
15 -0.03
17 0.04
18 0.14
19 0.72
2 -0.68
20 0.45
29 0.4
3 -0.68
30 0.4
31 0.15
32 0.4
33 0.06
34 0.37
4 -0.68
5 -0.57
6 0.05
7 -0.57
8 -0.58
9 -0.49

> <PUBCHEM_EFFECTIVE_ROTOR_COUNT>
3

> <PUBCHEM_PHARMACOPHORE_FEATURES>
13
1 1 acceptor
1 2 acceptor
1 2 donor
1 3 acceptor
1 3 donor
1 4 acceptor
1 4 donor
1 5 acceptor
1 9 donor
3 6 7 17 cation
5 1 10 11 12 13 rings
5 6 7 15 17 18 rings
6 8 9 15 18 19 20 rings

> <PUBCHEM_HEAVY_ATOM_COUNT>
20

> <PUBCHEM_ATOM_DEF_STEREO_COUNT>
0

> <PUBCHEM_ATOM_UDEF_STEREO_COUNT>
5

> <PUBCHEM_BOND_DEF_STEREO_COUNT>
0

> <PUBCHEM_BOND_UDEF_STEREO_COUNT>
0

> <PUBCHEM_ISOTOPIC_ATOM_COUNT>
0

> <PUBCHEM_COMPONENT_COUNT>
1

> <PUBCHEM_CACTVS_TAUTO_COUNT>
-1

> <PUBCHEM_CONFORMER_ID>
08129CA200000002

> <PUBCHEM_MMFF94_ENERGY>
46.7073

> <PUBCHEM_FEATURE_SELFOVERLAP>
66.116

> <PUBCHEM_SHAPE_FINGERPRINT>
10498660 4 18335423499391285725
10608611 8 18410855438674456907
10646746 165 18408322198613194332
11132069 177 18336541719891282929
11640471 11 16589164903157267814
11715629 250 18411134736287358285
12382932 28 18334858354809536593
12403259 226 18048313345326030919
12403259 415 18129387179936496712
12553582 1 17829912158418499203
13140716 1 18262242106128615419
13544592 271 18337668740900368025
13764800 53 18113911463311970603
14250199 8 18269273452648930991
15219456 202 18342178881641766802
15375358 24 18411412951537073505
15536298 74 18410856516964442829
16945 1 18190193441000602279
17980427 23 17823973639954784748
18186145 218 18118401744388369221
19786989 88 17418093217311954375
20510252 161 18410016550500449825
20525323 117 18334853973948370639
20715895 44 17533474782853589381
21452121 103 18340195289687725353
21524375 3 18340763832063086354
21618674 68 18411978031767925981
22802520 49 18340218375147704963
23114952 82 18201731600063544246
23557571 272 18265905828763638339
23559900 14 18409732850630517844
2748010 2 18335713736333473099
350125 39 18119534232495488313
3524813 1 18057041522120357232
495365 180 17917134035999386409
5104073 3 18336267843381359769
5262128 65 17629773261781228342
633830 44 18196364828533067917
7097593 13 17824514445288800426
7364860 26 18341048502379589330
81228 2 18188221965381112667
9709674 26 18411420575014567527
9925002 15 16902706230080091254

> <PUBCHEM_SHAPE_MULTIPOLES>
362.32
6.76
2.68
1.14
2.41
0.54
-0.03
-3.15
0.11
-0.83
0.06
-0.96
-0.15
1.21

> <PUBCHEM_SHAPE_SELFOVERLAP>
785.547

> <PUBCHEM_SHAPE_VOLUME>
196.1

> <PUBCHEM_COORDINATE_TYPE>
2
5
10

$$$$
