REMARK  Name = 135422946
REMARK  8 active torsions:
REMARK  status: ('A' for Active; 'I' for Inactive)
REMARK    1  A    between atoms: N_2  and  C_15
REMARK    2  A    between atoms: C_15  and  C_16
REMARK    3  A    between atoms: C_16  and  C_18
REMARK    4  A    between atoms: C_18  and  O_19
REMARK    5  A    between atoms: O_19  and  C_20
REMARK    6  A    between atoms: C_20  and  P_21
REMARK    7  A    between atoms: P_21  and  O_23
REMARK    8  A    between atoms: P_21  and  O_25
REMARK                            x       y       z     vdW  Elec       q    Type
REMARK                         _______ _______ _______ _____ _____    ______ ____
ROOT
ATOM      1  O   UNL     1       4.195  -1.725  -1.074  0.00  0.00    -0.268 OA
ATOM      2  N   UNL     1       1.414   1.460   0.519  0.00  0.00    -0.258 N 
ATOM      3  N   UNL     1       3.354   1.071  -0.523  0.00  0.00    -0.240 NA
ATOM      4  N   UNL     1       0.625  -0.804   0.850  0.00  0.00    -0.357 NA
ATOM      5  N   UNL     1       2.201  -2.372  -0.044  0.00  0.00    -0.243 N 
ATOM      6  N   UNL     1       0.215  -3.114   0.980  0.00  0.00    -0.321 N 
ATOM      7  C   UNL     1       1.523   0.105   0.410  0.00  0.00    +0.210 C 
ATOM      8  C   UNL     1       2.720  -0.101  -0.232  0.00  0.00    +0.176 C 
ATOM      9  C   UNL     1       2.540   1.997  -0.056  0.00  0.00    +0.222 C 
ATOM     10  C   UNL     1       3.146  -1.445  -0.508  0.00  0.00    +0.273 C 
ATOM     11  C   UNL     1       0.990  -2.045   0.610  0.00  0.00    +0.239 C 
ATOM     12  H   UNL     1       2.397  -3.326  -0.184  0.00  0.00    +0.159 HD
ATOM     13  H   UNL     1      -0.642  -2.965   1.439  0.00  0.00    +0.146 HD
ATOM     14  H   UNL     1       0.517  -4.031   0.785  0.00  0.00    +0.146 HD
ENDROOT
BRANCH   2  15
ATOM     15  C   UNL     1       0.333   2.203   1.120  0.00  0.00    +0.120 C 
BRANCH  15  16
ATOM     16  C   UNL     1      -0.618   2.810   0.113  0.00  0.00    +0.005 C 
ATOM     17  C   UNL     1      -0.861   4.131   0.096  0.00  0.00    -0.005 C 
BRANCH  16  18
ATOM     18  C   UNL     1      -1.272   1.891  -0.886  0.00  0.00    +0.167 C 
BRANCH  18  19
ATOM     19  O   UNL     1      -2.064   0.913  -0.223  0.00  0.00    -0.338 OA
BRANCH  19  20
ATOM     20  C   UNL     1      -2.690   0.035  -1.148  0.00  0.00    +0.258 C 
BRANCH  20  21
ATOM     21  P   UNL     1      -3.647  -1.078  -0.142  0.00  0.00    +0.367 P 
ATOM     22  O   UNL     1      -2.847  -1.901   0.823  0.00  0.00    -0.256 OA
BRANCH  21  23
ATOM     23  O   UNL     1      -4.507  -1.923  -1.219  0.00  0.00    -0.322 OA
ATOM     24  H   UNL     1      -5.067  -2.564  -0.755  0.00  0.00    +0.220 HD
ENDBRANCH  21  23
BRANCH  21  25
ATOM     25  O   UNL     1      -4.750  -0.109   0.535  0.00  0.00    -0.322 OA
ATOM     26  H   UNL     1      -5.329  -0.631   1.111  0.00  0.00    +0.220 HD
ENDBRANCH  21  25
ENDBRANCH  20  21
ENDBRANCH  19  20
ENDBRANCH  18  19
ENDBRANCH  16  18
ENDBRANCH  15  16
ENDBRANCH   2  15
TORSDOF 8
