REMARK  Name = 135424953
REMARK  3 active torsions:
REMARK  status: ('A' for Active; 'I' for Inactive)
REMARK    1  A    between atoms: N_1  and  C_7
REMARK    2  A    between atoms: N_2  and  O_21
REMARK    3  A    between atoms: C_3  and  C_17
REMARK                            x       y       z     vdW  Elec       q    Type
REMARK                         _______ _______ _______ _____ _____    ______ ____
ROOT
ATOM      1  N   UNL     1       0.272   0.475  -0.486  0.00  0.00    -0.225 NA
ATOM      2  N   UNL     1       0.670  -1.629   0.600  0.00  0.00    -0.249 N 
ATOM      3  C   UNL     1       1.066  -0.432   0.025  0.00  0.00    +0.184 C 
ATOM      4  H   UNL     1      -0.188  -2.052   0.367  0.00  0.00    +0.196 HD
ENDROOT
BRANCH   1   7
ATOM      5 CL   UNL     1      -4.168   1.059   1.993  0.00  0.00    -0.080 Cl
ATOM      6  F   UNL     1      -5.194  -0.355  -0.402  0.00  0.00    -0.203 F 
ATOM      7  C   UNL     1      -1.111   0.267  -0.460  0.00  0.00    +0.084 C 
ATOM      8  C   UNL     1      -1.864   0.713   0.626  0.00  0.00    +0.033 C 
ATOM      9  C   UNL     1      -1.737  -0.387  -1.522  0.00  0.00    +0.022 C 
ATOM     10  C   UNL     1      -3.244   0.506   0.650  0.00  0.00    +0.087 C 
ATOM     11  C   UNL     1      -3.116  -0.595  -1.497  0.00  0.00    +0.032 C 
ATOM     12  C   UNL     1      -3.869  -0.148  -0.411  0.00  0.00    +0.151 C 
ENDBRANCH   1   7
BRANCH   3  17
ATOM     13  O   UNL     1       4.651  -0.437  -0.215  0.00  0.00    -0.240 OA
ATOM     14  N   UNL     1       3.421  -1.095  -0.156  0.00  0.00    -0.044 NA
ATOM     15  N   UNL     1       4.486   0.949  -0.157  0.00  0.00    -0.033 NA
ATOM     16  N   UNL     1       2.511   2.304   0.023  0.00  0.00    -0.339 N 
ATOM     17  C   UNL     1       2.525  -0.114  -0.061  0.00  0.00    +0.192 A 
ATOM     18  C   UNL     1       3.169   1.122  -0.062  0.00  0.00    +0.191 A 
ATOM     19  H   UNL     1       3.016   3.149   0.019  0.00  0.00    +0.144 HD
ATOM     20  H   UNL     1       1.529   2.317   0.090  0.00  0.00    +0.144 HD
ENDBRANCH   3  17
BRANCH   2  21
ATOM     21  O   UNL     1       1.532  -2.203   1.513  0.00  0.00    -0.288 OA
ATOM     22  H   UNL     1       1.149  -3.031   1.844  0.00  0.00    +0.244 HD
ENDBRANCH   2  21
TORSDOF 3
