REMARK  Name = 135478895
REMARK  5 active torsions:
REMARK  status: ('A' for Active; 'I' for Inactive)
REMARK    1  A    between atoms: N_3  and  C1*_18
REMARK    2  A    between atoms: C2*_19  and  O2*_22
REMARK    3  A    between atoms: C3*_20  and  O3*_24
REMARK    4  A    between atoms: C4*_21  and  C5*_26
REMARK    5  A    between atoms: C5*_26  and  O5*_27
REMARK                            x       y       z     vdW  Elec       q    Type
REMARK                         _______ _______ _______ _____ _____    ______ ____
ROOT
ATOM      1  O   UNL     1       0.825   2.354  -0.300  0.00  0.00    -0.252 OA
ATOM      2  O   UNL     1      -4.454   1.322   0.162  0.00  0.00    -0.272 OA
ATOM      3  N   UNL     1      -0.040   0.140  -0.091  0.00  0.00    -0.194 N 
ATOM      4  N   UNL     1      -1.500   1.857  -0.093  0.00  0.00    -0.249 N 
ATOM      5  N   UNL     1      -1.645  -1.682   0.148  0.00  0.00    -0.360 NA
ATOM      6  N   UNL     1      -3.893  -0.930   0.267  0.00  0.00    -0.246 N 
ATOM      7  N   UNL     1      -3.403  -3.220   0.379  0.00  0.00    -0.321 N 
ATOM      8  C   UNL     1      -1.321  -0.361   0.037  0.00  0.00    +0.199 C 
ATOM      9  C   UNL     1      -0.102   1.567  -0.179  0.00  0.00    +0.315 C 
ATOM     10  C   UNL     1      -2.176   0.670   0.034  0.00  0.00    +0.221 C 
ATOM     11  C   UNL     1      -3.616   0.430   0.158  0.00  0.00    +0.255 C 
ATOM     12  C   UNL     1      -2.083   3.173  -0.136  0.00  0.00    +0.117 C 
ATOM     13  C   UNL     1      -2.923  -1.942   0.260  0.00  0.00    +0.239 C 
ATOM     14  H   UNL     1      -4.836  -1.200   0.355  0.00  0.00    +0.159 HD
ATOM     15  H   UNL     1      -2.779  -3.982   0.382  0.00  0.00    +0.146 HD
ATOM     16  H   UNL     1      -4.371  -3.377   0.462  0.00  0.00    +0.146 HD
ENDROOT
BRANCH   3  18
ATOM     17  O4* UNL     1       1.976  -0.312   1.002  0.00  0.00    -0.333 OA
ATOM     18  C1* UNL     1       1.157  -0.651  -0.129  0.00  0.00    +0.231 C 
ATOM     19  C2* UNL     1       1.985  -0.387  -1.376  0.00  0.00    +0.187 C 
ATOM     20  C3* UNL     1       3.395  -0.567  -0.861  0.00  0.00    +0.171 C 
ATOM     21  C4* UNL     1       3.285   0.041   0.526  0.00  0.00    +0.175 C 
BRANCH  19  22
ATOM     22  O2* UNL     1       1.700  -1.323  -2.400  0.00  0.00    -0.378 OA
ATOM     23  H2* UNL     1       0.792  -1.190  -2.716  0.00  0.00    +0.211 HD
ENDBRANCH  19  22
BRANCH  20  24
ATOM     24  O3* UNL     1       4.342   0.127  -1.649  0.00  0.00    -0.379 OA
ATOM     25  H3* UNL     1       4.393  -0.281  -2.528  0.00  0.00    +0.211 HD
ENDBRANCH  20  24
BRANCH  21  26
ATOM     26  C5* UNL     1       4.338  -0.469   1.493  0.00  0.00    +0.169 C 
BRANCH  26  27
ATOM     27  O5* UNL     1       4.154   0.166   2.748  0.00  0.00    -0.379 OA
ATOM     28  H5* UNL     1       4.823  -0.154   3.373  0.00  0.00    +0.211 HD
ENDBRANCH  26  27
ENDBRANCH  21  26
ENDBRANCH   3  18
TORSDOF 5
