REMARK  Name = 135499520
REMARK  5 active torsions:
REMARK  status: ('A' for Active; 'I' for Inactive)
REMARK    1  A    between atoms: N9_2  and  C1*_17
REMARK    2  A    between atoms: C2*_16  and  O2*_20
REMARK    3  A    between atoms: C3*_18  and  O3*_22
REMARK    4  A    between atoms: C4*_19  and  C5*_24
REMARK    5  A    between atoms: C5*_24  and  O5*_25
REMARK                            x       y       z     vdW  Elec       q    Type
REMARK                         _______ _______ _______ _____ _____    ______ ____
ROOT
ATOM      1  O6  G   A   1      -4.615   0.586   0.078  0.00  0.00    -0.268 OA
ATOM      2  N9  G   A   1      -0.168   1.261  -0.357  0.00  0.00    -0.237 N 
ATOM      3  N7  G   A   1      -2.180   2.238  -0.332  0.00  0.00    -0.240 NA
ATOM      4  N3  G   A   1      -0.793  -1.050   0.001  0.00  0.00    -0.357 NA
ATOM      5  N1  G   A   1      -3.171  -1.245   0.211  0.00  0.00    -0.243 N 
ATOM      6  N2  G   A   1      -1.791  -3.147   0.358  0.00  0.00    -0.321 N 
ATOM      7  C4  G   A   1      -1.075   0.262  -0.153  0.00  0.00    +0.211 C 
ATOM      8  C8  G   A   1      -0.882   2.430  -0.458  0.00  0.00    +0.224 C 
ATOM      9  C5  G   A   1      -2.296   0.892  -0.143  0.00  0.00    +0.176 C 
ATOM     10  C6  G   A   1      -3.486   0.112   0.054  0.00  0.00    +0.273 C 
ATOM     11  C2  G   A   1      -1.866  -1.789   0.183  0.00  0.00    +0.239 C 
ATOM     12  H1  G   A   1      -3.919  -1.870   0.353  0.00  0.00    +0.159 HD
ATOM     13  H21 G   A   1      -0.916  -3.597   0.350  0.00  0.00    +0.146 HD
ATOM     14  H22 G   A   1      -2.613  -3.672   0.492  0.00  0.00    +0.146 HD
ENDROOT
BRANCH   2  17
ATOM     15  O4* G   A   1       1.736  -0.122  -1.050  0.00  0.00    -0.333 OA
ATOM     16  C2* G   A   1       2.072   1.216   0.878  0.00  0.00    +0.187 C 
ATOM     17  C1* G   A   1       1.331   1.125  -0.456  0.00  0.00    +0.226 C 
ATOM     18  C3* G   A   1       3.384   0.534   0.550  0.00  0.00    +0.171 C 
ATOM     19  C4* G   A   1       2.987  -0.537  -0.465  0.00  0.00    +0.175 C 
BRANCH  16  20
ATOM     20  O2* G   A   1       1.395   0.475   1.886  0.00  0.00    -0.378 OA
ATOM     21  H2* G   A   1       0.554   0.910   2.098  0.00  0.00    +0.211 HD
ENDBRANCH  16  20
BRANCH  18  22
ATOM     22  O3* G   A   1       4.239   1.486  -0.078  0.00  0.00    -0.379 OA
ATOM     23  H3* G   A   1       4.493   2.167   0.564  0.00  0.00    +0.211 HD
ENDBRANCH  18  22
BRANCH  19  24
ATOM     24  C5* G   A   1       2.776  -1.910   0.157  0.00  0.00    +0.169 C 
BRANCH  24  25
ATOM     25  O5* G   A   1       2.402  -2.819  -0.863  0.00  0.00    -0.379 OA
ATOM     26  H5* G   A   1       2.265  -3.699  -0.478  0.00  0.00    +0.211 HD
ENDBRANCH  24  25
ENDBRANCH  19  24
ENDBRANCH   2  17
TORSDOF 5
