REMARK  Name = 135472946
REMARK  10 active torsions:
REMARK  status: ('A' for Active; 'I' for Inactive)
REMARK    1  A    between atoms: N_1  and  N_9
REMARK    2  A    between atoms: C_2  and  C_3
REMARK    3  A    between atoms: C_2  and  N_23
REMARK    4  A    between atoms: N_9  and  C_12
REMARK    5  A    between atoms: C_11  and  S_17
REMARK    6  A    between atoms: C_14  and  O_21
REMARK    7  A    between atoms: N_23  and  N_24
REMARK    8  A    between atoms: N_24  and  C_25
REMARK    9  A    between atoms: C_26  and  C_32
REMARK   10  A    between atoms: C_32  and  O_33
REMARK                            x       y       z     vdW  Elec       q    Type
REMARK                         _______ _______ _______ _____ _____    ______ ____
ROOT
ATOM      1  N   UNL     1      -0.196   0.630   0.553  0.00  0.00    -0.163 NA
ATOM      2  C   UNL     1       0.837   1.304   0.081  0.00  0.00    +0.187 C 
ENDROOT
BRANCH   2   3
ATOM      3  C   UNL     1       0.722   2.706  -0.288  0.00  0.00    +0.036 C 
ATOM      4  C   UNL     1      -0.179   3.096  -1.278  0.00  0.00    +0.003 C 
ATOM      5  C   UNL     1       1.513   3.662   0.351  0.00  0.00    +0.003 C 
ATOM      6  C   UNL     1      -0.289   4.441  -1.631  0.00  0.00    +0.000 C 
ATOM      7  C   UNL     1       1.402   5.007  -0.001  0.00  0.00    +0.000 C 
ATOM      8  C   UNL     1       0.501   5.397  -0.992  0.00  0.00    +0.000 C 
ENDBRANCH   2   3
BRANCH   1   9
ATOM      9  N   UNL     1      -1.361   1.294   0.679  0.00  0.00    -0.232 N 
ATOM     10  H   UNL     1      -1.351   2.262   0.861  0.00  0.00    +0.175 HD
BRANCH   9  12
ATOM     11  C   UNL     1      -3.817  -1.414   0.162  0.00  0.00    +0.114 C 
ATOM     12  C   UNL     1      -2.589   0.629   0.556  0.00  0.00    +0.100 C 
ATOM     13  C   UNL     1      -2.602  -0.739   0.286  0.00  0.00    +0.038 C 
ATOM     14  C   UNL     1      -3.790   1.323   0.701  0.00  0.00    +0.148 C 
ATOM     15  C   UNL     1      -5.018  -0.720   0.307  0.00  0.00    +0.022 C 
ATOM     16  C   UNL     1      -5.005   0.648   0.576  0.00  0.00    +0.039 C 
BRANCH  11  17
ATOM     17  S   UNL     1      -3.834  -3.127  -0.176  0.00  0.00    +0.042 S 
ATOM     18  O   UNL     1      -3.848  -3.243  -1.806  0.00  0.00    -0.065 OA
ATOM     19  O   UNL     1      -2.570  -3.688   0.278  0.00  0.00    -0.065 OA
ATOM     20  O   UNL     1      -5.097  -3.645   0.325  0.00  0.00    -0.065 OA
ENDBRANCH  11  17
BRANCH  14  21
ATOM     21  O   UNL     1      -3.799   2.660   0.965  0.00  0.00    -0.504 OA
ATOM     22  H   UNL     1      -2.991   3.126   1.051  0.00  0.00    +0.292 HD
ENDBRANCH  14  21
ENDBRANCH   9  12
ENDBRANCH   1   9
BRANCH   2  23
ATOM     23  N   UNL     1       2.081   0.681  -0.044  0.00  0.00    -0.107 NA
BRANCH  23  24
ATOM     24  N   UNL     1       2.197  -0.226   0.811  0.00  0.00    -0.126 NA
BRANCH  24  25
ATOM     25  C   UNL     1       3.445  -0.854   0.665  0.00  0.00    +0.095 C 
ATOM     26  C   UNL     1       3.598  -1.958  -0.173  0.00  0.00    +0.092 C 
ATOM     27  C   UNL     1       4.540  -0.360   1.374  0.00  0.00    +0.018 C 
ATOM     28  C   UNL     1       4.846  -2.567  -0.303  0.00  0.00    +0.008 C 
ATOM     29  C   UNL     1       5.788  -0.969   1.244  0.00  0.00    +0.001 C 
ATOM     30  C   UNL     1       5.941  -2.073   0.405  0.00  0.00    +0.000 C 
BRANCH  26  32
ATOM     31  O   UNL     1       1.430  -2.937  -0.433  0.00  0.00    -0.245 OA
ATOM     32  C   UNL     1       2.472  -2.495  -0.926  0.00  0.00    +0.339 C 
BRANCH  32  33
ATOM     33  O   UNL     1       2.684  -2.464  -2.269  0.00  0.00    -0.477 OA
ATOM     34  H   UNL     1       3.488  -2.121  -2.609  0.00  0.00    +0.295 HD
ENDBRANCH  32  33
ENDBRANCH  26  32
ENDBRANCH  24  25
ENDBRANCH  23  24
ENDBRANCH   2  23
TORSDOF 10
