135433761
  -OEChem-03292013293D

 28 30  0     1  0  0  0  0  0999 V2000
    6.1388   -0.5917   -0.4632 O   0  0  0  0  0  0  0  0  0  0  0  0
   -4.0569    1.7451   -0.2711 O   0  0  0  0  0  0  0  0  0  0  0  0
    0.2043    0.2955    0.1242 N   0  0  0  0  0  0  0  0  0  0  0  0
   -1.1130    2.0916   -0.0781 N   0  0  0  0  0  0  0  0  0  0  0  0
   -1.4496   -1.4719    0.1092 N   0  0  0  0  0  0  0  0  0  0  0  0
   -3.6500   -0.5485   -0.1052 N   0  0  0  0  0  0  0  0  0  0  0  0
   -3.3336   -2.8755    0.0555 N   0  0  0  0  0  0  0  0  0  0  0  0
    3.9768   -0.2401    0.4612 C   0  0  1  0  0  0  0  0  0  0  0  0
    3.4017    1.2135    0.3473 C   0  0  0  0  0  0  0  0  0  0  0  0
    2.6033    0.0505    0.3326 C   0  0  0  0  0  0  0  0  0  0  0  0
    4.7515   -0.8299   -0.6627 C   0  0  0  0  0  0  0  0  0  0  0  0
    1.3626   -0.4457    0.2522 C   0  0  0  0  0  0  0  0  0  0  0  0
   -1.0743   -0.1747    0.0594 C   0  0  0  0  0  0  0  0  0  0  0  0
    0.1291    1.6644    0.0373 C   0  0  0  0  0  0  0  0  0  0  0  0
   -1.8561    0.9483   -0.0640 C   0  0  0  0  0  0  0  0  0  0  0  0
   -3.2824    0.8033   -0.1590 C   0  0  0  0  0  0  0  0  0  0  0  0
   -2.7522   -1.6345    0.0244 C   0  0  0  0  0  0  0  0  0  0  0  0
    4.3064   -0.5852    1.4328 H   0  0  0  0  0  0  0  0  0  0  0  0
    3.5197    1.7428   -0.5876 H   0  0  0  0  0  0  0  0  0  0  0  0
    3.3803    1.8170    1.2437 H   0  0  0  0  0  0  0  0  0  0  0  0
    4.4654   -0.4052   -1.6313 H   0  0  0  0  0  0  0  0  0  0  0  0
    4.5933   -1.9128   -0.6980 H   0  0  0  0  0  0  0  0  0  0  0  0
    1.2360   -1.5239    0.2947 H   0  0  0  0  0  0  0  0  0  0  0  0
    0.9899    2.3179    0.0600 H   0  0  0  0  0  0  0  0  0  0  0  0
    6.6092   -1.0057   -1.2068 H   0  0  0  0  0  0  0  0  0  0  0  0
   -4.6408   -0.7651   -0.1643 H   0  0  0  0  0  0  0  0  0  0  0  0
   -2.7729   -3.7157    0.1459 H   0  0  0  0  0  0  0  0  0  0  0  0
   -4.3390   -2.9904   -0.0107 H   0  0  0  0  0  0  0  0  0  0  0  0
  1 11  1  0  0  0  0
  1 25  1  0  0  0  0
  2 16  2  0  0  0  0
  3 12  1  0  0  0  0
  3 13  1  0  0  0  0
  3 14  1  0  0  0  0
  4 14  2  0  0  0  0
  4 15  1  0  0  0  0
  5 13  1  0  0  0  0
  5 17  2  0  0  0  0
  6 16  1  0  0  0  0
  6 17  1  0  0  0  0
  6 26  1  0  0  0  0
  7 17  1  0  0  0  0
  7 27  1  0  0  0  0
  7 28  1  0  0  0  0
  8  9  1  0  0  0  0
  8 10  1  0  0  0  0
  8 11  1  0  0  0  0
  8 18  1  0  0  0  0
  9 10  1  0  0  0  0
  9 19  1  0  0  0  0
  9 20  1  0  0  0  0
 10 12  2  0  0  0  0
 11 21  1  0  0  0  0
 11 22  1  0  0  0  0
 12 23  1  0  0  0  0
 13 15  2  0  0  0  0
 14 24  1  0  0  0  0
 15 16  1  0  0  0  0
M  END
> <PUBCHEM_COMPOUND_CID>
135433761

> <PUBCHEM_CONFORMER_RMSD>
0.6

> <PUBCHEM_CONFORMER_DIVERSEORDER>
1
5
4
6
11
9
8
10
2
13
12
3
7

> <PUBCHEM_MMFF94_PARTIAL_CHARGES>
26
1 -0.68
10 -0.08
11 0.38
12 -0.18
13 -0.03
14 0.04
15 0.14
16 0.72
17 0.56
18 0.1
19 0.1
2 -0.57
20 0.1
23 0.15
24 0.15
25 0.4
26 0.37
27 0.4
28 0.4
3 0.33
4 -0.57
5 -0.58
6 -0.49
7 -0.85
8 -0.16
9 -0.16

> <PUBCHEM_EFFECTIVE_ROTOR_COUNT>
2.4

> <PUBCHEM_PHARMACOPHORE_FEATURES>
8
1 1 acceptor
1 1 donor
1 2 acceptor
1 6 donor
1 7 donor
3 3 4 14 cation
5 3 4 13 14 15 rings
6 5 6 13 15 16 17 rings

> <PUBCHEM_HEAVY_ATOM_COUNT>
17

> <PUBCHEM_ATOM_DEF_STEREO_COUNT>
0

> <PUBCHEM_ATOM_UDEF_STEREO_COUNT>
1

> <PUBCHEM_BOND_DEF_STEREO_COUNT>
1

> <PUBCHEM_BOND_UDEF_STEREO_COUNT>
0

> <PUBCHEM_ISOTOPIC_ATOM_COUNT>
0

> <PUBCHEM_COMPONENT_COUNT>
1

> <PUBCHEM_CACTVS_TAUTO_COUNT>
-1

> <PUBCHEM_CONFORMER_ID>
08128E2100000001

> <PUBCHEM_MMFF94_ENERGY>
43.249

> <PUBCHEM_FEATURE_SELFOVERLAP>
40.775

> <PUBCHEM_SHAPE_FINGERPRINT>
10616163 171 18411136935311243886
10680689 15 18334018293355115888
11046707 91 18411136956854145546
11132069 177 18410566297313271184
11458722 379 18335421257587240202
12032990 46 18340206396478342850
12236239 1 17603871074813682900
12390115 104 17983868778537302809
12757275 245 18409449202015519099
12916754 54 18342180011497584720
13214271 11 18343294885859420621
13288520 33 18412265042630297014
13296908 3 18340203089458922536
13760787 19 18114178605866867242
15042514 8 18336833078304958467
15196674 1 18410854403993721784
15242439 84 18272647918301412784
15536298 74 18339359772936834192
17804303 29 18413107268579546824
17834072 33 18261117396265154868
17834074 16 18272373044858338742
17870717 6 18270694077670201078
18186145 218 17894622678124767876
1986462 14 18410294709599000750
200 152 17060332998769416468
20374829 77 18410853257400886650
20645477 56 18335984164822986637
20645477 70 17131832019958250820
20871999 31 18333448763596355374
21267235 1 18408611382998283075
21339142 51 18410569583216531517
221490 88 18338802337720946888
2297311 6 18342186552864645268
23175994 123 17203611488608870152
23402539 116 18335416864151882710
23557571 272 18342464737432268022
23559900 14 18341887490150117664
2748010 2 18194667388437518233
293599 30 18265049137966389925
3004659 81 18262523564564084742
335352 9 18410854322073046757
4214541 1 18411136931142350984
5104073 3 18412822516933017944
559249 180 18335133142701924674
58051976 100 18410853248652716110
67856867 119 18261110833692711676
77779 3 18411419535927530096
8809292 202 18408604785617150298
9709674 26 18343303626318711390

> <PUBCHEM_SHAPE_MULTIPOLES>
313.21
9.85
2.12
0.66
11.18
0.52
0.01
2.52
1.36
-2.55
0.03
0.32
0.02
0.51

> <PUBCHEM_SHAPE_SELFOVERLAP>
683.003

> <PUBCHEM_SHAPE_VOLUME>
170.5

> <PUBCHEM_COORDINATE_TYPE>
2
5
10

$$$$
