REMARK  Name = 135401060
REMARK  5 active torsions:
REMARK  status: ('A' for Active; 'I' for Inactive)
REMARK    1  A    between atoms: C_7  and  C_16
REMARK    2  A    between atoms: C_16  and  N_18
REMARK    3  A    between atoms: N_18  and  C_20
REMARK    4  A    between atoms: C_23  and  C_27
REMARK    5  A    between atoms: C_27  and  O_28
REMARK                            x       y       z     vdW  Elec       q    Type
REMARK                         _______ _______ _______ _____ _____    ______ ____
ROOT
ATOM      1  O   UNL     1      -2.728  -1.352  -2.409  0.00  0.00    -0.266 OA
ATOM      2  N   UNL     1      -1.425   0.668  -1.139  0.00  0.00    -0.391 NA
ATOM      3  N   UNL     1      -2.231   1.245   1.492  0.00  0.00    -0.200 NA
ATOM      4  N   UNL     1      -4.062  -1.731  -0.552  0.00  0.00    -0.241 N 
ATOM      5  N   UNL     1      -3.844  -0.454   1.416  0.00  0.00    -0.318 NA
ATOM      6  N   UNL     1      -5.442  -2.166   1.286  0.00  0.00    -0.320 N 
ATOM      7  C   UNL     1      -0.849   1.647  -0.415  0.00  0.00    +0.133 C 
ATOM      8  C   UNL     1      -2.407  -0.008  -0.513  0.00  0.00    +0.257 C 
ATOM      9  C   UNL     1      -2.817   0.261   0.779  0.00  0.00    +0.121 C 
ATOM     10  C   UNL     1      -1.244   1.930   0.875  0.00  0.00    +0.193 C 
ATOM     11  C   UNL     1      -3.064  -1.084  -1.263  0.00  0.00    +0.293 C 
ATOM     12  C   UNL     1      -4.430  -1.412   0.752  0.00  0.00    +0.248 C 
ATOM     13  H   UNL     1      -4.543  -2.465  -0.999  0.00  0.00    +0.159 HD
ATOM     14  H   UNL     1      -5.858  -2.880   0.752  0.00  0.00    +0.146 HD
ATOM     15  H   UNL     1      -5.752  -1.993   2.205  0.00  0.00    +0.146 HD
ENDROOT
BRANCH   7  16
ATOM     16  C   UNL     1       0.244   2.428  -1.058  0.00  0.00    +0.155 C 
BRANCH  16  18
ATOM     17  O   UNL     1       1.546   4.639   0.134  0.00  0.00    -0.265 OA
ATOM     18  N   UNL     1       1.487   2.335  -0.333  0.00  0.00    -0.245 N 
ATOM     19  C   UNL     1       2.028   3.511   0.211  0.00  0.00    +0.307 C 
BRANCH  18  20
ATOM     20  C   UNL     1       2.135   1.040  -0.189  0.00  0.00    +0.055 C 
ATOM     21  C   UNL     1       1.978   0.068  -1.177  0.00  0.00    +0.015 C 
ATOM     22  C   UNL     1       2.911   0.770   0.938  0.00  0.00    +0.015 C 
ATOM     23  C   UNL     1       3.375  -1.444   0.088  0.00  0.00    +0.076 C 
ATOM     24  C   UNL     1       2.598  -1.174  -1.038  0.00  0.00    +0.008 C 
ATOM     25  C   UNL     1       3.531  -0.471   1.077  0.00  0.00    +0.008 C 
BRANCH  23  27
ATOM     26  O   UNL     1       3.950  -3.669  -0.578  0.00  0.00    -0.245 OA
ATOM     27  C   UNL     1       4.021  -2.739   0.232  0.00  0.00    +0.338 C 
BRANCH  27  28
ATOM     28  O   UNL     1       4.739  -2.837   1.385  0.00  0.00    -0.477 OA
ATOM     29  H   UNL     1       4.773  -2.113   1.979  0.00  0.00    +0.295 HD
ENDBRANCH  27  28
ENDBRANCH  23  27
ENDBRANCH  18  20
ENDBRANCH  16  18
ENDBRANCH   7  16
TORSDOF 5
