REMARK  Name = 135430683
REMARK  4 active torsions:
REMARK  status: ('A' for Active; 'I' for Inactive)
REMARK    1  A    between atoms: C_9  and  O_26
REMARK    2  A    between atoms: C_17  and  O_28
REMARK    3  A    between atoms: C_18  and  O_30
REMARK    4  A    between atoms: C_21  and  O_32
REMARK                            x       y       z     vdW  Elec       q    Type
REMARK                         _______ _______ _______ _____ _____    ______ ____
ROOT
ATOM      1 CL   UNL     1       1.232  -4.264   0.001  0.00  0.00    -0.079 Cl
ATOM      2  O   UNL     1      -4.864   0.211  -0.002  0.00  0.00    -0.286 OA
ATOM      3  O   UNL     1       2.800   3.578  -0.002  0.00  0.00    -0.286 OA
ATOM      4  C   UNL     1      -1.399  -2.508   0.000  0.00  0.00    +0.070 C 
ATOM      5  C   UNL     1      -0.044  -1.775   0.000  0.00  0.00    -0.003 A 
ATOM      6  C   UNL     1       0.027  -0.366   0.000  0.00  0.00    -0.002 A 
ATOM      7  C   UNL     1      -1.146   0.428   0.000  0.00  0.00    +0.011 A 
ATOM      8  C   UNL     1       1.304   0.268   0.000  0.00  0.00    +0.008 A 
ATOM      9  C   UNL     1      -2.596  -1.548   0.000  0.00  0.00    +0.117 C 
ATOM     10  C   UNL     1      -2.482  -0.204   0.000  0.00  0.00    +0.069 C 
ATOM     11  C   UNL     1      -1.063   1.836   0.001  0.00  0.00    +0.068 A 
ATOM     12  C   UNL     1       2.492  -0.500   0.000  0.00  0.00    +0.031 A 
ATOM     13  C   UNL     1       1.359   1.670   0.000  0.00  0.00    +0.073 A 
ATOM     14  C   UNL     1      -1.585  -3.353   1.289  0.00  0.00    +0.012 C 
ATOM     15  C   UNL     1      -1.584  -3.354  -1.289  0.00  0.00    +0.012 C 
ATOM     16  C   UNL     1       1.150  -2.517   0.000  0.00  0.00    +0.088 A 
ATOM     17  C   UNL     1       0.197   2.444   0.000  0.00  0.00    +0.139 A 
ATOM     18  C   UNL     1       2.393  -1.893   0.000  0.00  0.00    +0.143 A 
ATOM     19  C   UNL     1      -3.718   0.648  -0.001  0.00  0.00    +0.201 C 
ATOM     20  C   UNL     1       3.813   0.177   0.000  0.00  0.00    -0.016 C 
ATOM     21  C   UNL     1      -2.288   2.656   0.001  0.00  0.00    +0.140 C 
ATOM     22  C   UNL     1       2.667   2.360  -0.001  0.00  0.00    +0.198 C 
ATOM     23  C   UNL     1      -3.510   2.112   0.001  0.00  0.00    +0.079 C 
ATOM     24  C   UNL     1       3.881   1.516  -0.001  0.00  0.00    +0.038 C 
ATOM     25  C   UNL     1       5.122  -0.568   0.001  0.00  0.00    +0.031 C 
ENDROOT
BRANCH   9  26
ATOM     26  O   UNL     1      -3.819  -2.208  -0.001  0.00  0.00    -0.509 OA
ATOM     27  H   UNL     1      -3.846  -3.144  -0.001  0.00  0.00    +0.292 HD
ENDBRANCH   9  26
BRANCH  17  28
ATOM     28  O   UNL     1       0.307   3.807   0.000  0.00  0.00    -0.505 OA
ATOM     29  H   UNL     1      -0.463   4.339   0.000  0.00  0.00    +0.292 HD
ENDBRANCH  17  28
BRANCH  18  30
ATOM     30  O   UNL     1       3.506  -2.686   0.000  0.00  0.00    -0.505 OA
ATOM     31  H   UNL     1       4.359  -2.297   0.000  0.00  0.00    +0.292 HD
ENDBRANCH  18  30
BRANCH  21  32
ATOM     32  O   UNL     1      -2.151   4.033   0.003  0.00  0.00    -0.505 OA
ATOM     33  H   UNL     1      -1.297   4.418   0.003  0.00  0.00    +0.292 HD
ENDBRANCH  21  32
TORSDOF 4
