REMARK  Name = 135406950
REMARK  5 active torsions:
REMARK  status: ('A' for Active; 'I' for Inactive)
REMARK    1  A    between atoms: N_2  and  C_17
REMARK    2  A    between atoms: C_16  and  O_20
REMARK    3  A    between atoms: C_18  and  O_22
REMARK    4  A    between atoms: C_19  and  C_24
REMARK    5  A    between atoms: C_24  and  O_25
REMARK                            x       y       z     vdW  Elec       q    Type
REMARK                         _______ _______ _______ _____ _____    ______ ____
ROOT
ATOM      1  O   UNL     1      -4.382   1.813  -0.722  0.00  0.00    -0.268 OA
ATOM      2  N   UNL     1      -0.130   0.577   0.176  0.00  0.00    -0.237 N 
ATOM      3  N   UNL     1      -1.443   2.221  -0.582  0.00  0.00    -0.240 NA
ATOM      4  N   UNL     1      -1.783  -1.125   0.659  0.00  0.00    -0.357 NA
ATOM      5  N   UNL     1      -3.978  -0.323   0.133  0.00  0.00    -0.243 N 
ATOM      6  N   UNL     1      -3.664  -2.493   0.991  0.00  0.00    -0.321 N 
ATOM      7  C   UNL     1      -1.407   0.100   0.230  0.00  0.00    +0.211 C 
ATOM      8  C   UNL     1      -0.203   1.856  -0.319  0.00  0.00    +0.224 C 
ATOM      9  C   UNL     1      -2.186   1.129  -0.241  0.00  0.00    +0.176 C 
ATOM     10  C   UNL     1      -3.610   0.953  -0.316  0.00  0.00    +0.273 C 
ATOM     11  C   UNL     1      -3.083  -1.314   0.600  0.00  0.00    +0.239 C 
ATOM     12  H   UNL     1      -4.937  -0.547   0.122  0.00  0.00    +0.159 HD
ATOM     13  H   UNL     1      -3.104  -3.229   1.327  0.00  0.00    +0.146 HD
ATOM     14  H   UNL     1      -4.641  -2.602   0.934  0.00  0.00    +0.146 HD
ENDROOT
BRANCH   2  17
ATOM     15  O   UNL     1       2.127   0.766   1.085  0.00  0.00    -0.333 OA
ATOM     16  C   UNL     1       1.796  -0.879  -0.584  0.00  0.00    +0.191 C 
ATOM     17  C   UNL     1       1.133  -0.148   0.579  0.00  0.00    +0.226 C 
ATOM     18  C   UNL     1       3.240  -0.947  -0.130  0.00  0.00    +0.171 C 
ATOM     19  C   UNL     1       3.423   0.399   0.561  0.00  0.00    +0.175 C 
BRANCH  16  20
ATOM     20  O   UNL     1       1.234  -2.152  -0.830  0.00  0.00    -0.347 OA
ATOM     21  C   UNL     1       1.615  -2.663  -2.103  0.00  0.00    +0.174 C 
ENDBRANCH  16  20
BRANCH  18  22
ATOM     22  O   UNL     1       3.406  -1.971   0.850  0.00  0.00    -0.379 OA
ATOM     23  H   UNL     1       3.294  -2.839   0.432  0.00  0.00    +0.211 HD
ENDBRANCH  18  22
BRANCH  19  24
ATOM     24  C   UNL     1       3.884   1.498  -0.385  0.00  0.00    +0.169 C 
BRANCH  24  25
ATOM     25  O   UNL     1       4.012   2.704   0.348  0.00  0.00    -0.379 OA
ATOM     26  H   UNL     1       4.305   3.413  -0.244  0.00  0.00    +0.211 HD
ENDBRANCH  24  25
ENDBRANCH  19  24
ENDBRANCH   2  17
TORSDOF 5
