REMARK  Name = 135464337
REMARK  10 active torsions:
REMARK  status: ('A' for Active; 'I' for Inactive)
REMARK    1  A    between atoms: C_7  and  C_28
REMARK    2  A    between atoms: C_8  and  C_19
REMARK    3  A    between atoms: C_13  and  O_25
REMARK    4  A    between atoms: C_20  and  O_23
REMARK    5  A    between atoms: C_28  and  O_29
REMARK    6  A    between atoms: O_29  and  C_30
REMARK    7  A    between atoms: C_30  and  C_31
REMARK    8  A    between atoms: C_31  and  O_32
REMARK    9  A    between atoms: C_31  and  C_34
REMARK   10  A    between atoms: C_34  and  O_35
REMARK                            x       y       z     vdW  Elec       q    Type
REMARK                         _______ _______ _______ _____ _____    ______ ____
ROOT
ATOM      1  N   UNL     1      -0.856  -3.128   0.644  0.00  0.00    -0.291 N 
ATOM      2  N   UNL     1       1.171  -1.869   0.335  0.00  0.00    -0.390 NA
ATOM      3  C   UNL     1      -1.090  -1.053  -0.144  0.00  0.00    +0.119 C 
ATOM      4  C   UNL     1      -2.385  -1.642  -0.026  0.00  0.00    +0.003 C 
ATOM      5  C   UNL     1      -0.168  -2.002   0.280  0.00  0.00    +0.168 C 
ATOM      6  C   UNL     1      -2.208  -2.937   0.469  0.00  0.00    +0.050 C 
ATOM      7  C   UNL     1      -0.586   0.190  -0.566  0.00  0.00    +0.068 C 
ATOM      8  C   UNL     1       1.599  -0.655  -0.082  0.00  0.00    +0.141 C 
ATOM      9  C   UNL     1       0.793   0.382  -0.530  0.00  0.00    +0.035 C 
ATOM     10  C   UNL     1      -3.696  -1.196  -0.294  0.00  0.00    +0.001 C 
ATOM     11  C   UNL     1      -3.277  -3.808   0.708  0.00  0.00    +0.051 C 
ATOM     12  C   UNL     1      -4.775  -2.056  -0.058  0.00  0.00    +0.036 C 
ATOM     13  C   UNL     1      -4.566  -3.341   0.435  0.00  0.00    +0.135 C 
ATOM     14  H   UNL     1      -0.443  -3.955   0.983  0.00  0.00    +0.154 HD
ENDROOT
BRANCH   8  19
ATOM     15  O   UNL     1       5.278  -1.227  -0.672  0.00  0.00    -0.449 OA
ATOM     16  O   UNL     1       3.478  -2.022  -1.779  0.00  0.00    -0.245 OA
ATOM     17  C   UNL     1       5.771  -0.626   0.542  0.00  0.00    +0.177 C 
ATOM     18  C   UNL     1       5.093   0.716   0.766  0.00  0.00    +0.107 C 
ATOM     19  C   UNL     1       3.059  -0.459  -0.042  0.00  0.00    +0.135 C 
ATOM     20  C   UNL     1       3.612   0.515   0.705  0.00  0.00    +0.123 C 
ATOM     21  C   UNL     1       3.938  -1.306  -0.895  0.00  0.00    +0.346 C 
ATOM     22  C   UNL     1       7.279  -0.474   0.408  0.00  0.00    +0.048 C 
BRANCH  20  23
ATOM     23  O   UNL     1       2.849   1.361   1.486  0.00  0.00    -0.509 OA
ATOM     24  H   UNL     1       3.263   2.030   1.995  0.00  0.00    +0.292 HD
ENDBRANCH  20  23
ENDBRANCH   8  19
BRANCH  13  25
ATOM     25  O   UNL     1      -5.635  -4.159   0.656  0.00  0.00    -0.505 OA
ATOM     26  H   UNL     1      -5.501  -5.025   0.988  0.00  0.00    +0.292 HD
ENDBRANCH  13  25
BRANCH   7  28
ATOM     27  O   UNL     1      -2.219   1.171  -2.000  0.00  0.00    -0.245 OA
ATOM     28  C   UNL     1      -1.455   1.257  -1.028  0.00  0.00    +0.338 C 
BRANCH  28  29
ATOM     29  O   UNL     1      -1.331   2.381  -0.255  0.00  0.00    -0.443 OA
BRANCH  29  30
ATOM     30  C   UNL     1      -2.140   3.506  -0.611  0.00  0.00    +0.240 C 
BRANCH  30  31
ATOM     31  C   UNL     1      -1.874   4.660   0.350  0.00  0.00    +0.184 C 
BRANCH  31  32
ATOM     32  O   UNL     1      -0.497   5.029   0.253  0.00  0.00    -0.378 OA
ATOM     33  H   UNL     1       0.059   4.265   0.472  0.00  0.00    +0.211 HD
ENDBRANCH  31  32
BRANCH  31  34
ATOM     34  C   UNL     1      -2.714   5.881   0.000  0.00  0.00    +0.170 C 
BRANCH  34  35
ATOM     35  O   UNL     1      -2.446   6.912   0.944  0.00  0.00    -0.379 OA
ATOM     36  H   UNL     1      -2.977   7.695   0.728  0.00  0.00    +0.211 HD
ENDBRANCH  34  35
ENDBRANCH  31  34
ENDBRANCH  30  31
ENDBRANCH  29  30
ENDBRANCH  28  29
ENDBRANCH   7  28
TORSDOF 10
