135460974
  -OEChem-03292013293D

 28 30  0     0  0  0  0  0  0999 V2000
   -3.8073   -2.3514    0.0003 O   0  0  0  0  0  0  0  0  0  0  0  0
    5.7557    0.8040    0.0007 O   0  0  0  0  0  0  0  0  0  0  0  0
    4.1886    2.4504   -0.0002 O   0  0  0  0  0  0  0  0  0  0  0  0
   -0.1505   -0.3353   -0.0006 N   0  0  0  0  0  0  0  0  0  0  0  0
   -1.0560   -1.3373    0.0000 N   0  0  0  0  0  0  0  0  0  0  0  0
   -0.5956    0.9391   -0.0006 N   0  0  0  0  0  0  0  0  0  0  0  0
   -4.4482   -0.1103   -0.0001 N   0  0  0  0  0  0  0  0  0  0  0  0
   -2.8917    1.7246    0.0002 N   0  0  0  0  0  0  0  0  0  0  0  0
   -5.2010    2.1083    0.0005 N   0  0  0  0  0  0  0  0  0  0  0  0
    1.2148   -0.6117   -0.0009 C   0  0  0  0  0  0  0  0  0  0  0  0
   -2.1942   -0.6399    0.0001 C   0  0  0  0  0  0  0  0  0  0  0  0
   -1.9106    0.7281    0.0000 C   0  0  0  0  0  0  0  0  0  0  0  0
    2.1380    0.4340   -0.0005 C   0  0  0  0  0  0  0  0  0  0  0  0
    1.6589   -1.9341   -0.0006 C   0  0  0  0  0  0  0  0  0  0  0  0
   -3.5288   -1.1591    0.0003 C   0  0  0  0  0  0  0  0  0  0  0  0
    3.5053    0.1575    0.0002 C   0  0  0  0  0  0  0  0  0  0  0  0
   -4.1218    1.2614    0.0001 C   0  0  0  0  0  0  0  0  0  0  0  0
    3.0262   -2.2106    0.0005 C   0  0  0  0  0  0  0  0  0  0  0  0
    3.9494   -1.1649    0.0006 C   0  0  0  0  0  0  0  0  0  0  0  0
    4.4686    1.2472    0.0001 C   0  0  0  0  0  0  0  0  0  0  0  0
    1.8134    1.4718   -0.0007 H   0  0  0  0  0  0  0  0  0  0  0  0
    0.9738   -2.7777   -0.0008 H   0  0  0  0  0  0  0  0  0  0  0  0
   -5.4341   -0.3557   -0.0001 H   0  0  0  0  0  0  0  0  0  0  0  0
    3.3720   -3.2404    0.0009 H   0  0  0  0  0  0  0  0  0  0  0  0
    5.0040   -1.4255    0.0012 H   0  0  0  0  0  0  0  0  0  0  0  0
   -5.0780    3.1150    0.0008 H   0  0  0  0  0  0  0  0  0  0  0  0
   -6.1514    1.7545    0.0006 H   0  0  0  0  0  0  0  0  0  0  0  0
    6.3972    1.5462    0.0007 H   0  0  0  0  0  0  0  0  0  0  0  0
  1 15  2  0  0  0  0
  2 20  1  0  0  0  0
  2 28  1  0  0  0  0
  3 20  2  0  0  0  0
  4  5  1  0  0  0  0
  4  6  1  0  0  0  0
  4 10  1  0  0  0  0
  5 11  2  0  0  0  0
  6 12  2  0  0  0  0
  7 15  1  0  0  0  0
  7 17  1  0  0  0  0
  7 23  1  0  0  0  0
  8 12  1  0  0  0  0
  8 17  2  0  0  0  0
  9 17  1  0  0  0  0
  9 26  1  0  0  0  0
  9 27  1  0  0  0  0
 10 13  1  0  0  0  0
 10 14  2  0  0  0  0
 11 12  1  0  0  0  0
 11 15  1  0  0  0  0
 13 16  2  0  0  0  0
 13 21  1  0  0  0  0
 14 18  1  0  0  0  0
 14 22  1  0  0  0  0
 16 19  1  0  0  0  0
 16 20  1  0  0  0  0
 18 19  2  0  0  0  0
 18 24  1  0  0  0  0
 19 25  1  0  0  0  0
M  END
> <PUBCHEM_COMPOUND_CID>
135460974

> <PUBCHEM_CONFORMER_RMSD>
0.6

> <PUBCHEM_CONFORMER_DIVERSEORDER>
2
1

> <PUBCHEM_MMFF94_PARTIAL_CHARGES>
28
1 -0.57
10 -0.02
11 0.2
12 0.41
13 -0.15
14 -0.15
15 0.72
16 0.09
17 0.56
18 -0.15
19 -0.15
2 -0.65
20 0.63
21 0.15
22 0.15
23 0.37
24 0.15
25 0.15
26 0.4
27 0.4
28 0.5
3 -0.57
4 0.86
5 -0.71
6 -0.71
7 -0.49
8 -0.57
9 -0.85

> <PUBCHEM_EFFECTIVE_ROTOR_COUNT>
2

> <PUBCHEM_PHARMACOPHORE_FEATURES>
11
1 1 acceptor
1 2 acceptor
1 3 acceptor
1 5 acceptor
1 7 donor
1 9 donor
3 2 3 20 anion
3 6 8 12 cation
5 4 5 6 11 12 rings
6 10 13 14 16 18 19 rings
6 7 8 11 12 15 17 rings

> <PUBCHEM_HEAVY_ATOM_COUNT>
20

> <PUBCHEM_ATOM_DEF_STEREO_COUNT>
0

> <PUBCHEM_ATOM_UDEF_STEREO_COUNT>
0

> <PUBCHEM_BOND_DEF_STEREO_COUNT>
0

> <PUBCHEM_BOND_UDEF_STEREO_COUNT>
0

> <PUBCHEM_ISOTOPIC_ATOM_COUNT>
0

> <PUBCHEM_COMPONENT_COUNT>
1

> <PUBCHEM_CACTVS_TAUTO_COUNT>
-1

> <PUBCHEM_CONFORMER_ID>
0812F86E00000002

> <PUBCHEM_MMFF94_ENERGY>
55.8386

> <PUBCHEM_FEATURE_SELFOVERLAP>
56.075

> <PUBCHEM_SHAPE_FINGERPRINT>
10014705 185 18334292042287209989
10411042 1 17473826602752683110
10608611 8 18409446955916188028
10616163 171 18340207487363716991
11405975 8 18337108960459043322
11595378 159 16660915578600751348
12107183 9 17762336916313319458
12788726 201 17274264916336287705
13167823 11 18411134731855754102
13675066 3 17967824807995809369
14528608 73 18413107281659406900
15196674 1 18410856551145066850
15239154 128 18411984645690488048
15375358 24 18333733528507621298
15536298 74 18411702058654825382
17492 89 18410856546845617322
17844677 252 18411991242765302065
18186145 218 17822008666441319022
19050596 39 18336262362396739546
200 152 18060696182875272615
20645477 56 18260830358915522477
20645477 70 18272371915192418766
21065198 57 18338517430511777383
21267235 1 18411146805051034126
21618674 54 18410291410684588511
21709351 56 18409443713500827116
221490 88 18410582764540007522
23402539 116 18335414699061130086
23402655 69 18342736304093565014
23559900 14 18270115695899687498
245318 6 17026859669001787388
300161 21 18409161091403838037
335352 9 18266741268643364342
34797466 226 17846225487357602989
34934 24 18409444761319800995
3545911 37 18410295795835485860
4073 2 18041286538639050650
4214541 1 18410573963702994913
474 4 17822579395023371852
5104073 3 18407760317737410970
543358 83 18340771434044242026
633830 44 18410006607097875614
67856867 119 18410002231190469042
77779 3 18411138021737132935
8272917 22 18342178804749236422
9709674 26 18410017632426812090

> <PUBCHEM_SHAPE_MULTIPOLES>
364.1
11.49
2.4
0.57
0.22
0.09
0
-4.46
0
0.06
0
0.04
0.02
0

> <PUBCHEM_SHAPE_SELFOVERLAP>
811.018

> <PUBCHEM_SHAPE_VOLUME>
191.8

> <PUBCHEM_COORDINATE_TYPE>
2
5
10

$$$$
