135454068
  -OEChem-03292013293D

 37 39  0     1  0  0  0  0  0999 V2000
   -1.7414    0.2307   -0.9850 O   0  0  0  0  0  0  0  0  0  0  0  0
   -1.9649   -2.5447    1.2414 O   0  0  0  0  0  0  0  0  0  0  0  0
   -3.8150   -0.1522    1.9157 O   0  0  0  0  0  0  0  0  0  0  0  0
   -3.5227    2.2771   -1.7763 O   0  0  0  0  0  0  0  0  0  0  0  0
    0.9410   -3.0738   -0.6061 O   0  0  0  0  0  0  0  0  0  0  0  0
    4.5585    0.7196    0.2476 O   0  0  0  0  0  0  0  0  0  0  0  0
    0.3379   -0.8058   -0.2765 N   0  0  0  0  0  0  0  0  0  0  0  0
    2.5014   -1.3704   -0.2258 N   0  0  0  0  0  0  0  0  0  0  0  0
    0.4915    1.5772    0.1194 N   0  0  0  0  0  0  0  0  0  0  0  0
    2.7823    2.2304    0.3757 N   0  0  0  0  0  0  0  0  0  0  0  0
    1.0552    3.8230    0.5199 N   0  0  0  0  0  0  0  0  0  0  0  0
   -1.1596   -0.9533   -0.4010 C   0  0  1  0  0  0  0  0  0  0  0  0
   -1.8516   -1.1641    0.9425 C   0  0  1  0  0  0  0  0  0  0  0  0
   -3.2066   -0.5369    0.6979 C   0  0  2  0  0  0  0  0  0  0  0  0
   -2.8337    0.6620   -0.1564 C   0  0  2  0  0  0  0  0  0  0  0  0
   -3.9709    1.1556   -1.0326 C   0  0  0  0  0  0  0  0  0  0  0  0
    1.0276    0.3475   -0.0444 C   0  0  0  0  0  0  0  0  0  0  0  0
    1.2680   -1.8115   -0.3783 C   0  0  0  0  0  0  0  0  0  0  0  0
    2.3480   -0.0313   -0.0191 C   0  0  0  0  0  0  0  0  0  0  0  0
    3.3592    0.9637    0.2085 C   0  0  0  0  0  0  0  0  0  0  0  0
    1.3957    2.5090    0.3297 C   0  0  0  0  0  0  0  0  0  0  0  0
    2.0001   -4.0516   -0.6968 C   0  0  0  0  0  0  0  0  0  0  0  0
   -1.3134   -1.7834   -1.1006 H   0  0  0  0  0  0  0  0  0  0  0  0
   -1.3215   -0.6801    1.7708 H   0  0  0  0  0  0  0  0  0  0  0  0
   -3.8788   -1.2283    0.1770 H   0  0  0  0  0  0  0  0  0  0  0  0
   -2.4647    1.4940    0.4567 H   0  0  0  0  0  0  0  0  0  0  0  0
   -4.8325    1.4551   -0.4281 H   0  0  0  0  0  0  0  0  0  0  0  0
   -4.2782    0.3846   -1.7469 H   0  0  0  0  0  0  0  0  0  0  0  0
   -2.4362   -2.9790    0.5102 H   0  0  0  0  0  0  0  0  0  0  0  0
   -3.2230    0.4698    2.3717 H   0  0  0  0  0  0  0  0  0  0  0  0
   -4.2681    2.5719   -2.3268 H   0  0  0  0  0  0  0  0  0  0  0  0
    3.4110    3.0107    0.5433 H   0  0  0  0  0  0  0  0  0  0  0  0
    1.5420   -5.0260   -0.8859 H   0  0  0  0  0  0  0  0  0  0  0  0
    2.5532   -4.0960    0.2466 H   0  0  0  0  0  0  0  0  0  0  0  0
    2.6691   -3.8060   -1.5274 H   0  0  0  0  0  0  0  0  0  0  0  0
    0.0861    4.1215    0.5045 H   0  0  0  0  0  0  0  0  0  0  0  0
    1.7599    4.5342    0.6813 H   0  0  0  0  0  0  0  0  0  0  0  0
  1 12  1  0  0  0  0
  1 15  1  0  0  0  0
  2 13  1  0  0  0  0
  2 29  1  0  0  0  0
  3 14  1  0  0  0  0
  3 30  1  0  0  0  0
  4 16  1  0  0  0  0
  4 31  1  0  0  0  0
  5 18  1  0  0  0  0
  5 22  1  0  0  0  0
  6 20  2  0  0  0  0
  7 12  1  0  0  0  0
  7 17  1  0  0  0  0
  7 18  1  0  0  0  0
  8 18  2  0  0  0  0
  8 19  1  0  0  0  0
  9 17  1  0  0  0  0
  9 21  2  0  0  0  0
 10 20  1  0  0  0  0
 10 21  1  0  0  0  0
 10 32  1  0  0  0  0
 11 21  1  0  0  0  0
 11 36  1  0  0  0  0
 11 37  1  0  0  0  0
 12 13  1  0  0  0  0
 12 23  1  0  0  0  0
 13 14  1  0  0  0  0
 13 24  1  0  0  0  0
 14 15  1  0  0  0  0
 14 25  1  0  0  0  0
 15 16  1  0  0  0  0
 15 26  1  0  0  0  0
 16 27  1  0  0  0  0
 16 28  1  0  0  0  0
 17 19  2  0  0  0  0
 19 20  1  0  0  0  0
 22 33  1  0  0  0  0
 22 34  1  0  0  0  0
 22 35  1  0  0  0  0
M  END
> <PUBCHEM_COMPOUND_CID>
135454068

> <PUBCHEM_CONFORMER_RMSD>
0.6

> <PUBCHEM_CONFORMER_DIVERSEORDER>
1
138
123
121
101
25
71
135
206
61
188
55
176
152
78
156
186
133
199
69
191
99
145
143
173
171
72
122
136
103
37
126
196
201
74
183
185
120
198
73
204
64
197
187
194
82
56
81
154
107
161
92
178
139
63
165
85
89
23
95
131
44
192
41
60
39
15
109
172
150
68
115
164
124
67
75
112
177
200
80
162
182
110
189
132
70
8
50
117
77
42
58
10
160
30
180
12
83
113
98
21
140
2
7
36
203
40
127
125
43
155
88
87
116
65
190
157
51
31
175
9
163
142
168
166
90
94
167
54
205
19
179
52
174
129
14
3
84
144
29
159
4
13
202
45
16
114
134
169
170
20
62
22
137
181
5
93
47
108
49
118
97
128
130
11
193
104
57
149
153
102
105
66
32
100
33
26
46
146
34
59
151
38
91
141
18
6
96
17
27
28
53
106
147
24
111
158
76
35
48
119
148
79
195
86
184

> <PUBCHEM_MMFF94_PARTIAL_CHARGES>
28
1 -0.56
10 -0.49
11 -0.85
12 0.54
13 0.28
14 0.28
15 0.28
16 0.28
17 -0.03
18 0.25
19 0.14
2 -0.68
20 0.72
21 0.56
22 0.28
29 0.4
3 -0.68
30 0.4
31 0.4
32 0.37
36 0.4
37 0.4
4 -0.68
5 -0.34
6 -0.57
7 0.05
8 -0.57
9 -0.58

> <PUBCHEM_EFFECTIVE_ROTOR_COUNT>
4

> <PUBCHEM_PHARMACOPHORE_FEATURES>
14
1 1 acceptor
1 10 donor
1 11 donor
1 2 acceptor
1 2 donor
1 3 acceptor
1 3 donor
1 4 acceptor
1 4 donor
1 6 acceptor
3 7 8 18 cation
5 1 12 13 14 15 rings
5 7 8 17 18 19 rings
6 9 10 17 19 20 21 rings

> <PUBCHEM_HEAVY_ATOM_COUNT>
22

> <PUBCHEM_ATOM_DEF_STEREO_COUNT>
0

> <PUBCHEM_ATOM_UDEF_STEREO_COUNT>
4

> <PUBCHEM_BOND_DEF_STEREO_COUNT>
0

> <PUBCHEM_BOND_UDEF_STEREO_COUNT>
0

> <PUBCHEM_ISOTOPIC_ATOM_COUNT>
0

> <PUBCHEM_COMPONENT_COUNT>
1

> <PUBCHEM_CACTVS_TAUTO_COUNT>
-1

> <PUBCHEM_CONFORMER_ID>
0812DD7400000001

> <PUBCHEM_MMFF94_ENERGY>
53.2696

> <PUBCHEM_FEATURE_SELFOVERLAP>
71.232

> <PUBCHEM_SHAPE_FINGERPRINT>
10366900 7 18116161136995596315
10608611 8 18335416902516561333
10906281 52 18194968444259548906
10967382 1 18412824655789644766
11640471 11 17131570374449958867
116883 192 17622439437698789534
12077114 3 18114174259428580713
12553582 1 17910126715342053550
12633257 1 18263091053368841707
12654215 9 18337666426002776628
12788726 201 17544476354055848442
13140716 1 18197504128020455849
13294875 104 17535162489940763491
13464514 151 18336538305302566245
13583140 156 17098865508583051032
14790565 3 18268727150448516384
14866123 147 15670413601195456427
15219456 202 18335141968590419631
15309172 13 18269840972263023306
16945 1 18341335521773684431
18186145 218 18129670819286489372
18219364 16 18410858789034070297
19049666 15 18189338974605483931
19591789 44 18267592488697009502
20642791 13 17405131942806425382
20645477 70 18268421352475364191
21524375 3 18057606675143996822
21731228 192 18195532712362047154
23175994 123 17908153083401210735
2334 1 17979635963364175212
23493267 7 18040708178110596128
23526113 38 18191859033850016919
23558518 356 17547288900578221164
23559900 14 18265048034127970890
238 59 18194651926518154645
25 1 18337378358108997845
266924 87 18196939873093256740
2748010 2 18412267272150911854
350125 39 18052260892464184875
474 4 18272094932624444411
6049 1 18115888312352090487
633830 44 17631189604809962760
81228 2 17475513872306646530

> <PUBCHEM_SHAPE_MULTIPOLES>
392.63
6.63
4
1.13
2.32
1.07
0.08
-2.13
0.04
-2.84
-0.33
1.44
0.01
1.93

> <PUBCHEM_SHAPE_SELFOVERLAP>
847.577

> <PUBCHEM_SHAPE_VOLUME>
213

> <PUBCHEM_COORDINATE_TYPE>
2
5
10

$$$$
