REMARK  Name = 135400932
REMARK  4 active torsions:
REMARK  status: ('A' for Active; 'I' for Inactive)
REMARK    1  A    between atoms: C_1  and  C_5
REMARK    2  A    between atoms: C_2  and  C_16
REMARK    3  A    between atoms: C_2  and  C_25
REMARK    4  A    between atoms: C_17  and  C_23
REMARK                            x       y       z     vdW  Elec       q    Type
REMARK                         _______ _______ _______ _____ _____    ______ ____
ROOT
ATOM      1  C   UNL     1      -0.398  -2.052  -0.037  0.00  0.00    +0.013 C 
ATOM      2  C   UNL     1      -1.569  -1.394  -0.366  0.00  0.00    +0.086 C 
ENDROOT
BRANCH   1   5
ATOM      3  N   UNL     1       2.618  -1.038   1.606  0.00  0.00    -0.312 N 
ATOM      4  C   UNL     1       1.671  -0.604  -0.367  0.00  0.00    +0.015 C 
ATOM      5  C   UNL     1       0.837  -1.496   0.362  0.00  0.00    +0.017 C 
ATOM      6  C   UNL     1       2.782  -0.332   0.435  0.00  0.00    +0.048 C 
ATOM      7  C   UNL     1       1.446  -1.745   1.571  0.00  0.00    +0.062 C 
ATOM      8  C   UNL     1       1.588   0.002  -1.637  0.00  0.00    +0.001 C 
ATOM      9  C   UNL     1       3.817   0.517   0.030  0.00  0.00    +0.015 C 
ATOM     10  C   UNL     1       2.616   0.854  -2.056  0.00  0.00    +0.000 C 
ATOM     11  C   UNL     1       3.713   1.106  -1.234  0.00  0.00    +0.001 C 
ATOM     12  H   UNL     1       3.252  -1.036   2.359  0.00  0.00    +0.152 HD
ENDBRANCH   1   5
BRANCH   2  16
ATOM     13  N   UNL     1      -1.965   0.763  -1.439  0.00  0.00    -0.273 N 
ATOM     14  N   UNL     1      -2.025   2.095  -1.273  0.00  0.00    -0.157 NA
ATOM     15  N   UNL     1      -1.691   3.443   0.676  0.00  0.00    -0.341 N 
ATOM     16  C   UNL     1      -1.662   0.078  -0.299  0.00  0.00    +0.096 A 
ATOM     17  C   UNL     1      -1.514   1.028   0.681  0.00  0.00    +0.119 A 
ATOM     18  C   UNL     1      -1.749   2.251   0.024  0.00  0.00    +0.156 A 
ATOM     19  H   UNL     1      -2.124   0.321  -2.305  0.00  0.00    +0.189 HD
ATOM     20  H   UNL     1      -1.861   4.280   0.186  0.00  0.00    +0.144 HD
ATOM     21  H   UNL     1      -1.480   3.469   1.637  0.00  0.00    +0.144 HD
BRANCH  17  23
ATOM     22  N   UNL     1      -0.929   0.584   3.159  0.00  0.00    -0.191 NA
ATOM     23  C   UNL     1      -1.191   0.783   2.046  0.00  0.00    +0.105 C 
ENDBRANCH  17  23
ENDBRANCH   2  16
BRANCH   2  25
ATOM     24  N   UNL     1      -3.669  -2.717  -1.106  0.00  0.00    -0.191 NA
ATOM     25  C   UNL     1      -2.727  -2.125  -0.774  0.00  0.00    +0.102 C 
ENDBRANCH   2  25
TORSDOF 4
