135406970
  -OEChem-03292013293D

 30 32  0     0  0  0  0  0  0999 V2000
    4.0817   -3.1350    0.0133 Cl  0  0  0  0  0  0  0  0  0  0  0  0
    1.5972    2.0649    0.1122 S   0  0  0  0  0  0  0  0  0  0  0  0
    3.5050   -0.2201    0.1264 S   0  0  0  0  0  0  0  0  0  0  0  0
    1.9980    2.4848    1.4383 O   0  0  0  0  0  0  0  0  0  0  0  0
    2.1732    2.6176   -1.0951 O   0  0  0  0  0  0  0  0  0  0  0  0
   -2.2193    1.0608   -0.2093 N   0  0  0  0  0  0  0  0  0  0  0  0
   -0.1049    2.0529   -0.0064 N   0  0  0  0  0  0  0  0  0  0  0  0
   -0.3561   -0.3881   -0.1553 N   0  0  0  0  0  0  0  0  0  0  0  0
   -2.9702   -0.1790   -0.3283 C   0  0  0  0  0  0  0  0  0  0  0  0
   -4.4181    0.0105    0.1940 C   0  0  0  0  0  0  0  0  0  0  0  0
   -2.7243   -1.0927    0.9006 C   0  0  0  0  0  0  0  0  0  0  0  0
   -4.2493   -1.3131    0.9674 C   0  0  0  0  0  0  0  0  0  0  0  0
   -2.8074   -0.7996   -1.7012 C   0  0  0  0  0  0  0  0  0  0  0  0
   -0.9359    0.8774   -0.1287 C   0  0  0  0  0  0  0  0  0  0  0  0
    0.9777   -0.6315   -0.0741 C   0  0  0  0  0  0  0  0  0  0  0  0
    1.9190    0.3541    0.0445 C   0  0  0  0  0  0  0  0  0  0  0  0
    1.5789   -1.9201   -0.0997 C   0  0  0  0  0  0  0  0  0  0  0  0
    2.9549   -1.8437    0.0014 C   0  0  0  0  0  0  0  0  0  0  0  0
   -2.3424   -0.5944    1.8010 H   0  0  0  0  0  0  0  0  0  0  0  0
   -2.2006   -2.0455    0.7742 H   0  0  0  0  0  0  0  0  0  0  0  0
   -5.2096    0.0100   -0.5608 H   0  0  0  0  0  0  0  0  0  0  0  0
   -4.5615    0.8784    0.8494 H   0  0  0  0  0  0  0  0  0  0  0  0
   -4.5947   -2.1935    0.4134 H   0  0  0  0  0  0  0  0  0  0  0  0
   -4.6823   -1.3346    1.9708 H   0  0  0  0  0  0  0  0  0  0  0  0
   -3.3271   -0.1860   -2.4474 H   0  0  0  0  0  0  0  0  0  0  0  0
   -3.2651   -1.7946   -1.7408 H   0  0  0  0  0  0  0  0  0  0  0  0
   -1.7832   -0.9044   -2.0651 H   0  0  0  0  0  0  0  0  0  0  0  0
   -0.5834    2.9626    0.0088 H   0  0  0  0  0  0  0  0  0  0  0  0
   -0.9132   -1.2092   -0.3334 H   0  0  0  0  0  0  0  0  0  0  0  0
    1.0375   -2.8543   -0.1871 H   0  0  0  0  0  0  0  0  0  0  0  0
  1 18  1  0  0  0  0
  2  4  2  0  0  0  0
  2  5  2  0  0  0  0
  2  7  1  0  0  0  0
  2 16  1  0  0  0  0
  3 16  1  0  0  0  0
  3 18  1  0  0  0  0
  6  9  1  0  0  0  0
  6 14  2  0  0  0  0
  7 14  1  0  0  0  0
  7 28  1  0  0  0  0
  8 14  1  0  0  0  0
  8 15  1  0  0  0  0
  8 29  1  0  0  0  0
  9 10  1  0  0  0  0
  9 11  1  0  0  0  0
  9 13  1  0  0  0  0
 10 12  1  0  0  0  0
 10 21  1  0  0  0  0
 10 22  1  0  0  0  0
 11 12  1  0  0  0  0
 11 19  1  0  0  0  0
 11 20  1  0  0  0  0
 12 23  1  0  0  0  0
 12 24  1  0  0  0  0
 13 25  1  0  0  0  0
 13 26  1  0  0  0  0
 13 27  1  0  0  0  0
 15 16  2  0  0  0  0
 15 17  1  0  0  0  0
 17 18  2  0  0  0  0
 17 30  1  0  0  0  0
M  END
> <PUBCHEM_COMPOUND_CID>
135406970

> <PUBCHEM_CONFORMER_RMSD>
0.6

> <PUBCHEM_CONFORMER_DIVERSEORDER>
1
2

> <PUBCHEM_MMFF94_PARTIAL_CHARGES>
17
1 -0.12
14 0.74
15 0.08
16 -0.02
17 -0.15
18 0.16
2 1.5
28 0.42
29 0.4
3 -0.08
30 0.15
4 -0.65
5 -0.65
6 -0.74
7 -0.79
8 -0.53
9 0.29

> <PUBCHEM_EFFECTIVE_ROTOR_COUNT>
2.2

> <PUBCHEM_PHARMACOPHORE_FEATURES>
7
1 4 acceptor
1 5 acceptor
1 7 donor
1 8 donor
4 9 10 11 12 rings
5 3 15 16 17 18 rings
6 2 7 8 14 15 16 rings

> <PUBCHEM_HEAVY_ATOM_COUNT>
18

> <PUBCHEM_ATOM_DEF_STEREO_COUNT>
0

> <PUBCHEM_ATOM_UDEF_STEREO_COUNT>
0

> <PUBCHEM_BOND_DEF_STEREO_COUNT>
0

> <PUBCHEM_BOND_UDEF_STEREO_COUNT>
0

> <PUBCHEM_ISOTOPIC_ATOM_COUNT>
0

> <PUBCHEM_COMPONENT_COUNT>
1

> <PUBCHEM_CACTVS_TAUTO_COUNT>
-1

> <PUBCHEM_CONFORMER_ID>
0812257A00000001

> <PUBCHEM_MMFF94_ENERGY>
50.7402

> <PUBCHEM_FEATURE_SELFOVERLAP>
35.613

> <PUBCHEM_SHAPE_FINGERPRINT>
10967382 1 18410575132224295262
10980938 120 18267867361918414081
11543360 7 16009047059152979558
12032990 46 18338238142084980982
12553582 1 18342734070769087294
13134695 92 18272641329763616924
13140716 1 18124308578534781130
13296908 3 18186800318358177259
13533116 47 18340492265982291475
15042514 8 17762341310318271650
15219456 202 18188770668917573793
15375462 189 18273496792479858407
15475509 84 18057905571009552225
15502722 9 18262525917161255404
16945 1 18339917224872771540
1813 80 18129957658698653662
18186145 218 17748820813594989647
19591789 44 17615983539449412884
20559304 39 18413392042328407104
20645477 70 18335411413738235279
20671657 53 18336552611912417150
20871998 22 18338797819230715520
21029758 27 18338519625709525398
21041028 32 18271812254872475888
21267235 1 18338526222436679694
221490 88 18334022700102682058
2255824 54 18339082708685483588
22854114 111 18271245048701533001
23175994 123 18263648376952456639
2334 1 17762613293464652934
23402539 116 18192147088838554910
23526113 38 17821739329310991946
23557571 272 17839182909824745174
23559900 14 18260264140148980475
2748010 2 18196357135919268172
3091708 16 8997583506355951032
458136 41 18120666974137540460
5104073 3 18339923697488818122
5493415 88 18337108960590638978
58807428 26 17982712354629560712
6049 1 18113611283789641669
633830 44 17842005673595072781
7364860 26 18342174496743804152
77492 1 17560802186319912375
81228 2 17692819181503787712
8809292 202 18189340069527037779
9709674 26 18261116309237853011

> <PUBCHEM_SHAPE_MULTIPOLES>
353.32
7.85
2.99
1.03
3.87
0.65
0.12
-5.01
-0.72
-3.73
-0.18
0.57
0.08
0.36

> <PUBCHEM_SHAPE_SELFOVERLAP>
725.449

> <PUBCHEM_SHAPE_VOLUME>
205.6

> <PUBCHEM_COORDINATE_TYPE>
2
5
10

$$$$
