REMARK  Name = 135452425
REMARK  4 active torsions:
REMARK  status: ('A' for Active; 'I' for Inactive)
REMARK    1  A    between atoms: C_5  and  N_13
REMARK    2  A    between atoms: N_12  and  N_13
REMARK    3  A    between atoms: N_12  and  C_14
REMARK    4  A    between atoms: C_17  and  O_20
REMARK                            x       y       z     vdW  Elec       q    Type
REMARK                         _______ _______ _______ _____ _____    ______ ____
ROOT
ATOM      1  O   UNL     1      -4.525  -2.097  -0.468  0.00  0.00    -0.274 OA
ATOM      2  N   UNL     1      -4.181   0.145  -0.012  0.00  0.00    -0.247 N 
ATOM      3  N   UNL     1      -2.010   1.002   0.287  0.00  0.00    -0.359 NA
ATOM      4  N   UNL     1      -3.876   2.414   0.445  0.00  0.00    -0.321 N 
ATOM      5  C   UNL     1      -1.528  -0.271   0.071  0.00  0.00    +0.209 C 
ATOM      6  C   UNL     1      -2.310  -1.334  -0.182  0.00  0.00    +0.163 C 
ATOM      7  C   UNL     1      -3.301   1.186   0.243  0.00  0.00    +0.239 C 
ATOM      8  C   UNL     1      -3.775  -1.154  -0.239  0.00  0.00    +0.237 C 
ATOM      9  H   UNL     1      -5.145   0.343  -0.033  0.00  0.00    +0.158 HD
ATOM     10  H   UNL     1      -4.854   2.512   0.404  0.00  0.00    +0.146 HD
ATOM     11  H   UNL     1      -3.310   3.198   0.632  0.00  0.00    +0.146 HD
ENDROOT
BRANCH   5  12
ATOM     12  N   UNL     1      -0.169  -0.425   0.127  0.00  0.00    -0.100 NA
BRANCH  12  13
ATOM     13  N   UNL     1       0.469   0.587  -0.218  0.00  0.00    -0.126 NA
BRANCH  13  14
ATOM     14  C   UNL     1       1.848   0.325  -0.126  0.00  0.00    +0.089 C 
ATOM     15  C   UNL     1       2.324  -0.579   0.824  0.00  0.00    +0.021 C 
ATOM     16  C   UNL     1       2.739   0.970  -0.984  0.00  0.00    +0.021 C 
ATOM     17  C   UNL     1       4.582  -0.194   0.058  0.00  0.00    +0.134 C 
ATOM     18  C   UNL     1       3.691  -0.838   0.916  0.00  0.00    +0.038 C 
ATOM     19  C   UNL     1       4.106   0.710  -0.892  0.00  0.00    +0.038 C 
BRANCH  17  20
ATOM     20  O   UNL     1       5.917  -0.447   0.148  0.00  0.00    -0.506 OA
ATOM     21  H   UNL     1       6.237  -1.054   0.786  0.00  0.00    +0.292 HD
ENDBRANCH  17  20
ENDBRANCH  13  14
ENDBRANCH  12  13
ENDBRANCH   5  12
TORSDOF 4
