REMARK  Name = 135410303
REMARK  5 active torsions:
REMARK  status: ('A' for Active; 'I' for Inactive)
REMARK    1  A    between atoms: C2*_2  and  O2*_17
REMARK    2  A    between atoms: C1*_3  and  N_7
REMARK    3  A    between atoms: C3*_4  and  O3*_19
REMARK    4  A    between atoms: C4*_5  and  C5*_21
REMARK    5  A    between atoms: C5*_21  and  O5*_22
REMARK                            x       y       z     vdW  Elec       q    Type
REMARK                         _______ _______ _______ _____ _____    ______ ____
ROOT
ATOM      1  O4* UNL     1       2.063   0.501   0.979  0.00  0.00    -0.332 OA
ATOM      2  C2* UNL     1       1.733  -0.985  -0.834  0.00  0.00    +0.188 C 
ATOM      3  C1* UNL     1       1.093  -0.415   0.428  0.00  0.00    +0.243 C 
ATOM      4  C3* UNL     1       3.201  -1.014  -0.457  0.00  0.00    +0.171 C 
ATOM      5  C4* UNL     1       3.347   0.264   0.359  0.00  0.00    +0.176 C 
ENDROOT
BRANCH   3   7
ATOM      6  S   UNL     1      -4.871   1.607  -0.491  0.00  0.00    +0.011 S 
ATOM      7  N   UNL     1      -0.226   0.271   0.162  0.00  0.00    -0.170 N 
ATOM      8  N   UNL     1      -0.245   1.576  -0.181  0.00  0.00    -0.172 NA
ATOM      9  N   UNL     1      -1.814  -1.516   0.526  0.00  0.00    -0.299 N 
ATOM     10  N   UNL     1      -4.125  -0.927   0.223  0.00  0.00    -0.208 NA
ATOM     11  C   UNL     1      -1.467  -0.259   0.221  0.00  0.00    +0.130 C 
ATOM     12  C   UNL     1      -2.373   0.721  -0.094  0.00  0.00    +0.101 C 
ATOM     13  C   UNL     1      -1.552   1.843  -0.335  0.00  0.00    +0.129 C 
ATOM     14  C   UNL     1      -3.792   0.391  -0.101  0.00  0.00    -0.010 C 
ATOM     15  C   UNL     1      -3.170  -1.770   0.505  0.00  0.00    +0.227 C 
ATOM     16  H   UNL     1      -1.150  -2.207   0.750  0.00  0.00    +0.150 HD
ENDBRANCH   3   7
BRANCH   2  17
ATOM     17  O2* UNL     1       1.227  -2.259  -1.182  0.00  0.00    -0.378 OA
ATOM     18  H2* UNL     1       0.288  -2.182  -1.413  0.00  0.00    +0.211 HD
ENDBRANCH   2  17
BRANCH   4  19
ATOM     19  O3* UNL     1       3.472  -2.119   0.404  0.00  0.00    -0.379 OA
ATOM     20  H3* UNL     1       3.385  -2.946  -0.095  0.00  0.00    +0.211 HD
ENDBRANCH   4  19
BRANCH   5  21
ATOM     21  C5* UNL     1       3.697   1.478  -0.490  0.00  0.00    +0.169 C 
BRANCH  21  22
ATOM     22  O5* UNL     1       3.800   2.610   0.357  0.00  0.00    -0.379 OA
ATOM     23  H5* UNL     1       4.023   3.391  -0.173  0.00  0.00    +0.211 HD
ENDBRANCH  21  22
ENDBRANCH   5  21
TORSDOF 5
