REMARK  Name = 135400908
REMARK  2 active torsions:
REMARK  status: ('A' for Active; 'I' for Inactive)
REMARK    1  A    between atoms: N_2  and  C_18
REMARK    2  A    between atoms: C_18  and  C_20
REMARK                            x       y       z     vdW  Elec       q    Type
REMARK                         _______ _______ _______ _____ _____    ______ ____
ROOT
ATOM      1  O   UNL     1      -3.792   1.348   1.155  0.00  0.00    -0.267 OA
ATOM      2  N   UNL     1       0.254   0.563  -0.696  0.00  0.00    -0.219 N 
ATOM      3  N   UNL     1      -1.054   2.094   0.276  0.00  0.00    -0.364 NA
ATOM      4  N   UNL     1      -1.217  -1.359  -0.669  0.00  0.00    -0.355 NA
ATOM      5  N   UNL     1      -3.313  -0.787   0.339  0.00  0.00    -0.242 N 
ATOM      6  N   UNL     1       1.160   2.719  -0.429  0.00  0.00    -0.320 N 
ATOM      7  N   UNL     1      -2.917  -2.967  -0.457  0.00  0.00    -0.321 N 
ATOM      8  C   UNL     1      -0.921  -0.067  -0.409  0.00  0.00    +0.227 C 
ATOM      9  C   UNL     1      -1.700   0.897   0.185  0.00  0.00    +0.232 C 
ATOM     10  C   UNL     1       0.125   1.861  -0.265  0.00  0.00    +0.241 C 
ATOM     11  C   UNL     1      -3.027   0.557   0.617  0.00  0.00    +0.286 C 
ATOM     12  C   UNL     1      -2.428  -1.698  -0.283  0.00  0.00    +0.240 C 
ATOM     13  H   UNL     1      -4.202  -1.123   0.597  0.00  0.00    +0.159 HD
ATOM     14  H   UNL     1       1.993   2.411  -0.853  0.00  0.00    +0.146 HD
ATOM     15  H   UNL     1       1.079   3.652  -0.124  0.00  0.00    +0.146 HD
ATOM     16  H   UNL     1      -2.358  -3.656  -0.883  0.00  0.00    +0.146 HD
ATOM     17  H   UNL     1      -3.828  -3.189  -0.157  0.00  0.00    +0.146 HD
ENDROOT
BRANCH   2  18
ATOM     18  C   UNL     1       1.407  -0.034  -1.333  0.00  0.00    +0.135 C 
BRANCH  18  20
ATOM     19  S   UNL     1       4.074   0.273  -0.600  0.00  0.00    -0.089 S 
ATOM     20  C   UNL     1       2.510  -0.383  -0.366  0.00  0.00    +0.028 C 
ATOM     21  C   UNL     1       2.452  -1.199   0.742  0.00  0.00    +0.004 C 
ATOM     22  C   UNL     1       3.708  -1.286   1.409  0.00  0.00    +0.007 C 
ATOM     23  C   UNL     1       4.678  -0.533   0.785  0.00  0.00    +0.035 C 
ENDBRANCH  18  20
ENDBRANCH   2  18
TORSDOF 2
