135409474
  -OEChem-03292013293D

 33 35  0     1  0  0  0  0  0999 V2000
    1.4682   -2.5714   -0.2178 S   0  0  0  0  0  0  0  0  0  0  0  0
   -2.0522   -0.2019    1.1944 O   0  0  0  0  0  0  0  0  0  0  0  0
   -1.0473    2.1283   -1.3393 O   0  0  0  0  0  0  0  0  0  0  0  0
   -3.1883    2.4323    0.3226 O   0  0  0  0  0  0  0  0  0  0  0  0
   -5.1974   -1.1069   -0.3466 O   0  0  0  0  0  0  0  0  0  0  0  0
   -1.1668   -2.4520    0.0499 O   0  0  0  0  0  0  0  0  0  0  0  0
    4.4877   -1.7116   -0.3875 O   0  0  0  0  0  0  0  0  0  0  0  0
    0.0611   -0.4348    0.2226 N   0  0  0  0  0  0  0  0  0  0  0  0
    1.7698    1.2799    0.3047 N   0  0  0  0  0  0  0  0  0  0  0  0
    3.9926    0.5256   -0.0163 N   0  0  0  0  0  0  0  0  0  0  0  0
    3.5582    2.7975    0.3491 N   0  0  0  0  0  0  0  0  0  0  0  0
   -1.6621    0.9613   -0.8329 C   0  0  1  0  0  0  0  0  0  0  0  0
   -1.0225    0.4766    0.4567 C   0  0  1  0  0  0  0  0  0  0  0  0
   -3.0925    1.2060   -0.4016 C   0  0  1  0  0  0  0  0  0  0  0  0
   -3.3307    0.0637    0.5765 C   0  0  1  0  0  0  0  0  0  0  0  0
   -3.8071   -1.2163   -0.0971 C   0  0  0  0  0  0  0  0  0  0  0  0
    1.3937   -0.0298    0.1537 C   0  0  0  0  0  0  0  0  0  0  0  0
   -0.1250   -1.8149    0.0424 C   0  0  0  0  0  0  0  0  0  0  0  0
    2.2324   -1.0457   -0.0721 C   0  0  0  0  0  0  0  0  0  0  0  0
    3.6771   -0.8177   -0.1790 C   0  0  0  0  0  0  0  0  0  0  0  0
    3.0509    1.5316    0.2177 C   0  0  0  0  0  0  0  0  0  0  0  0
   -1.6250    0.1862   -1.6078 H   0  0  0  0  0  0  0  0  0  0  0  0
   -0.6751    1.3097    1.0793 H   0  0  0  0  0  0  0  0  0  0  0  0
   -3.7969    1.2519   -1.2370 H   0  0  0  0  0  0  0  0  0  0  0  0
   -4.0284    0.3521    1.3711 H   0  0  0  0  0  0  0  0  0  0  0  0
   -3.6523   -2.0768    0.5619 H   0  0  0  0  0  0  0  0  0  0  0  0
   -3.2915   -1.4104   -1.0423 H   0  0  0  0  0  0  0  0  0  0  0  0
   -1.5781    2.4336   -2.0947 H   0  0  0  0  0  0  0  0  0  0  0  0
   -4.1133    2.5311    0.6061 H   0  0  0  0  0  0  0  0  0  0  0  0
   -5.4799   -1.9378   -0.7654 H   0  0  0  0  0  0  0  0  0  0  0  0
    4.9710    0.7928   -0.0724 H   0  0  0  0  0  0  0  0  0  0  0  0
    2.9508    3.5914    0.5203 H   0  0  0  0  0  0  0  0  0  0  0  0
    4.5536    2.9785    0.2791 H   0  0  0  0  0  0  0  0  0  0  0  0
  1 18  1  0  0  0  0
  1 19  1  0  0  0  0
  2 13  1  0  0  0  0
  2 15  1  0  0  0  0
  3 12  1  0  0  0  0
  3 28  1  0  0  0  0
  4 14  1  0  0  0  0
  4 29  1  0  0  0  0
  5 16  1  0  0  0  0
  5 30  1  0  0  0  0
  6 18  2  0  0  0  0
  7 20  2  0  0  0  0
  8 13  1  0  0  0  0
  8 17  1  0  0  0  0
  8 18  1  0  0  0  0
  9 17  1  0  0  0  0
  9 21  2  0  0  0  0
 10 20  1  0  0  0  0
 10 21  1  0  0  0  0
 10 31  1  0  0  0  0
 11 21  1  0  0  0  0
 11 32  1  0  0  0  0
 11 33  1  0  0  0  0
 12 13  1  0  0  0  0
 12 14  1  0  0  0  0
 12 22  1  0  0  0  0
 13 23  1  0  0  0  0
 14 15  1  0  0  0  0
 14 24  1  0  0  0  0
 15 16  1  0  0  0  0
 15 25  1  0  0  0  0
 16 26  1  0  0  0  0
 16 27  1  0  0  0  0
 17 19  2  0  0  0  0
 19 20  1  0  0  0  0
M  END
> <PUBCHEM_COMPOUND_CID>
135409474

> <PUBCHEM_CONFORMER_RMSD>
0.6

> <PUBCHEM_CONFORMER_DIVERSEORDER>
1
8
7
13
14
5
9
12
3
2
10
4
11
6

> <PUBCHEM_MMFF94_PARTIAL_CHARGES>
27
1 -0.24
10 -0.49
11 -0.85
12 0.28
13 0.58
14 0.28
15 0.28
16 0.28
17 0.28
18 0.77
19 0.12
2 -0.56
20 0.62
21 0.56
28 0.4
29 0.4
3 -0.68
30 0.4
31 0.37
32 0.4
33 0.4
4 -0.68
5 -0.68
6 -0.57
7 -0.57
8 -0.47
9 -0.62

> <PUBCHEM_EFFECTIVE_ROTOR_COUNT>
3

> <PUBCHEM_PHARMACOPHORE_FEATURES>
13
1 10 donor
1 11 donor
1 2 acceptor
1 3 acceptor
1 3 donor
1 4 acceptor
1 4 donor
1 5 acceptor
1 5 donor
1 7 acceptor
5 1 8 17 18 19 rings
5 2 12 13 14 15 rings
6 9 10 17 19 20 21 rings

> <PUBCHEM_HEAVY_ATOM_COUNT>
21

> <PUBCHEM_ATOM_DEF_STEREO_COUNT>
4

> <PUBCHEM_ATOM_UDEF_STEREO_COUNT>
0

> <PUBCHEM_BOND_DEF_STEREO_COUNT>
0

> <PUBCHEM_BOND_UDEF_STEREO_COUNT>
0

> <PUBCHEM_ISOTOPIC_ATOM_COUNT>
0

> <PUBCHEM_COMPONENT_COUNT>
1

> <PUBCHEM_CACTVS_TAUTO_COUNT>
-1

> <PUBCHEM_CONFORMER_ID>
08122F4200000001

> <PUBCHEM_MMFF94_ENERGY>
58.3887

> <PUBCHEM_FEATURE_SELFOVERLAP>
66.109

> <PUBCHEM_SHAPE_FINGERPRINT>
10366900 7 17894638023985056914
10608611 8 18409166593262322920
10871710 139 17183071774110589276
10967382 1 18411138082188227146
1100329 8 16536512160547119192
11615757 297 18201725024315516266
12403259 226 18336260133566896532
12403259 415 18408040706119179860
12403260 363 18410285904705131826
12633257 1 18118962494812113473
12916754 54 18341896285815566507
13140716 1 18408887321524551760
14787075 74 18058166305488280577
15196674 1 18411138017441912288
15219456 202 18408605837915805632
15375462 6 18335139778109664903
15536298 74 18341895212020975418
16945 1 18339922611141685722
17802600 8 18408602552440001358
18186145 218 18201728314455559232
19591789 44 18410575080553215190
19930381 70 18269270330081814617
200 152 18131347501536006787
20510252 161 18341895216516779969
21267235 1 18412272726337800174
21501502 16 18190738631448825627
21524375 3 18408323298114571538
21709351 56 18341327799601867198
221490 88 18411143528101679218
2334 1 18195529414185742834
23402539 116 17822010861201041591
23419403 2 15223709132241370818
23557571 272 17530966835337014461
23559900 14 18340198596701584954
238 59 18049408523099612941
25 1 18265614273672516870
2748010 2 18266468774817666186
2871803 45 18408315593122480143
3286 77 18412262826606598412
335352 9 18267305318276874142
350125 39 18411703179319308818
3524813 1 18189052010676614428
5104073 3 18410293592527657528
58051976 378 18342171137952966695
6333272 397 18410290354301644122
69090 78 18412824724129709626
81228 2 17904750429909896690
9709674 26 18411989035152832959

> <PUBCHEM_SHAPE_MULTIPOLES>
380.88
8.2
2.82
0.81
1.06
0.25
0.05
0.2
0.26
-0.95
0.19
0.32
0.18
0.5

> <PUBCHEM_SHAPE_SELFOVERLAP>
816.189

> <PUBCHEM_SHAPE_VOLUME>
212.6

> <PUBCHEM_COORDINATE_TYPE>
2
5
10

$$$$
