135411862
  -OEChem-03292013293D

 33 35  0     0  0  0  0  0  0999 V2000
    5.8501   -2.3530   -0.0004 S   0  0  0  0  0  0  0  0  0  0  0  0
   -8.1667    0.4730   -0.0010 O   0  0  0  0  0  0  0  0  0  0  0  0
    0.4250    1.6650   -0.0004 O   0  0  0  0  0  0  0  0  0  0  0  0
    1.7846   -0.2553    0.0002 N   0  0  0  0  0  0  0  0  0  0  0  0
    4.2520   -1.9020   -0.0003 N   0  0  0  0  0  0  0  0  0  0  0  0
    6.5930   -0.8678   -0.0003 N   0  0  0  0  0  0  0  0  0  0  0  0
   -0.5194   -0.4407    0.0002 N   0  0  0  0  0  0  0  0  0  0  0  0
   -1.7764    0.0583   -0.0003 N   0  0  0  0  0  0  0  0  0  0  0  0
    3.0787    0.2600    0.0002 C   0  0  0  0  0  0  0  0  0  0  0  0
    4.2330   -0.5595    0.0000 C   0  0  0  0  0  0  0  0  0  0  0  0
    5.6133    0.0504   -0.0001 C   0  0  0  0  0  0  0  0  0  0  0  0
    3.3101    1.6461    0.0003 C   0  0  0  0  0  0  0  0  0  0  0  0
    5.7848    1.4555    0.0001 C   0  0  0  0  0  0  0  0  0  0  0  0
    4.6043    2.2178    0.0003 C   0  0  0  0  0  0  0  0  0  0  0  0
   -4.1318   -0.5015    0.0008 C   0  0  0  0  0  0  0  0  0  0  0  0
    0.5597    0.4434    0.0001 C   0  0  0  0  0  0  0  0  0  0  0  0
   -5.0935   -1.5119    0.0008 C   0  0  0  0  0  0  0  0  0  0  0  0
   -4.5262    0.8365    0.0004 C   0  0  0  0  0  0  0  0  0  0  0  0
   -6.4493   -1.1845    0.0001 C   0  0  0  0  0  0  0  0  0  0  0  0
   -5.8820    1.1641   -0.0002 C   0  0  0  0  0  0  0  0  0  0  0  0
   -6.8435    0.1535   -0.0004 C   0  0  0  0  0  0  0  0  0  0  0  0
   -2.6996   -0.8476   -0.0001 C   0  0  0  0  0  0  0  0  0  0  0  0
    2.5026    2.3692    0.0006 H   0  0  0  0  0  0  0  0  0  0  0  0
    6.7625    1.9232    0.0000 H   0  0  0  0  0  0  0  0  0  0  0  0
    4.6901    3.3037    0.0004 H   0  0  0  0  0  0  0  0  0  0  0  0
    1.7196   -1.2702    0.0003 H   0  0  0  0  0  0  0  0  0  0  0  0
   -4.8012   -2.5588    0.0009 H   0  0  0  0  0  0  0  0  0  0  0  0
   -3.7992    1.6442    0.0003 H   0  0  0  0  0  0  0  0  0  0  0  0
   -7.1939   -1.9759    0.0000 H   0  0  0  0  0  0  0  0  0  0  0  0
   -6.1764    2.2102   -0.0006 H   0  0  0  0  0  0  0  0  0  0  0  0
   -2.4569   -1.9268   -0.0001 H   0  0  0  0  0  0  0  0  0  0  0  0
   -0.3936   -1.4477    0.0007 H   0  0  0  0  0  0  0  0  0  0  0  0
   -8.2569    1.4415   -0.0013 H   0  0  0  0  0  0  0  0  0  0  0  0
  1  5  1  0  0  0  0
  1  6  1  0  0  0  0
  2 21  1  0  0  0  0
  2 33  1  0  0  0  0
  3 16  2  0  0  0  0
  4  9  1  0  0  0  0
  4 16  1  0  0  0  0
  4 26  1  0  0  0  0
  5 10  2  0  0  0  0
  6 11  2  0  0  0  0
  7  8  1  0  0  0  0
  7 16  1  0  0  0  0
  7 32  1  0  0  0  0
  8 22  2  0  0  0  0
  9 10  1  0  0  0  0
  9 12  2  0  0  0  0
 10 11  1  0  0  0  0
 11 13  1  0  0  0  0
 12 14  1  0  0  0  0
 12 23  1  0  0  0  0
 13 14  2  0  0  0  0
 13 24  1  0  0  0  0
 14 25  1  0  0  0  0
 15 17  2  0  0  0  0
 15 18  1  0  0  0  0
 15 22  1  0  0  0  0
 17 19  1  0  0  0  0
 17 27  1  0  0  0  0
 18 20  2  0  0  0  0
 18 28  1  0  0  0  0
 19 21  2  0  0  0  0
 19 29  1  0  0  0  0
 20 21  1  0  0  0  0
 20 30  1  0  0  0  0
 22 31  1  0  0  0  0
M  END
> <PUBCHEM_COMPOUND_CID>
135411862

> <PUBCHEM_CONFORMER_RMSD>
0.8

> <PUBCHEM_CONFORMER_DIVERSEORDER>
1
18
16
14
17
13
7
9
4
12
8
15
2
11
3
5
10
6

> <PUBCHEM_MMFF94_PARTIAL_CHARGES>
33
1 0.44
10 0.29
11 0.29
12 -0.15
13 -0.15
14 -0.15
15 0.09
16 0.69
17 -0.15
18 -0.15
19 -0.15
2 -0.53
20 -0.15
21 0.08
22 0.3
23 0.15
24 0.15
25 0.15
26 0.37
27 0.15
28 0.15
29 0.15
3 -0.57
30 0.15
31 0.06
32 0.37
33 0.45
4 -0.55
5 -0.51
6 -0.51
7 -0.37
8 -0.51
9 0.12

> <PUBCHEM_EFFECTIVE_ROTOR_COUNT>
5

> <PUBCHEM_PHARMACOPHORE_FEATURES>
10
1 2 donor
1 3 acceptor
1 4 donor
1 5 acceptor
1 6 acceptor
1 7 donor
1 8 acceptor
5 1 5 6 10 11 rings
6 15 17 18 19 20 21 rings
6 9 10 11 12 13 14 rings

> <PUBCHEM_HEAVY_ATOM_COUNT>
22

> <PUBCHEM_ATOM_DEF_STEREO_COUNT>
0

> <PUBCHEM_ATOM_UDEF_STEREO_COUNT>
0

> <PUBCHEM_BOND_DEF_STEREO_COUNT>
1

> <PUBCHEM_BOND_UDEF_STEREO_COUNT>
0

> <PUBCHEM_ISOTOPIC_ATOM_COUNT>
0

> <PUBCHEM_COMPONENT_COUNT>
1

> <PUBCHEM_CACTVS_TAUTO_COUNT>
-1

> <PUBCHEM_CONFORMER_ID>
0812389600000001

> <PUBCHEM_MMFF94_ENERGY>
61.7976

> <PUBCHEM_FEATURE_SELFOVERLAP>
50.913

> <PUBCHEM_SHAPE_FINGERPRINT>
10299344 5 18412265034193408135
10411042 1 18122626055995475718
10595046 47 18341332287742607217
10835480 77 18336825406776332808
11315181 36 18202285823497826009
11524674 6 16773795918318098039
11719270 70 17775004570176667862
12107183 9 17837215870109952312
12166972 35 18408606976193577869
12236239 1 18343302582720363699
12516196 113 18201718465821561368
12616971 3 17917702517976212908
13073987 5 18413109476398504417
13167372 99 18343305833805326905
13533116 47 18342457041388872354
13685833 64 18408605855079954483
14251752 14 18343019978283383345
14251764 18 18272089409539159597
14251764 46 18411135839888211984
14933364 13 18408604773101532781
15183329 4 18411983546474097241
15419008 42 17841711803300113413
15716309 27 18342738520708107431
17844677 252 18410017628068210029
19427546 62 18190744335745526304
20157964 124 18412265051837299608
20281389 69 18334574638208427181
21267235 1 18341897356111827278
21315763 28 18411981356225327305
21792934 111 18272077280251264544
220451 1 17988926712154495367
22224240 67 12391509780689274421
23081809 10 18060416941434361413
23536379 177 18411419514231069745
23559900 14 18340199813011137033
23569943 247 17532926100011477043
255183 451 18127982897915226318
28498 318 18410009901806893727
29717793 49 18131637777053486612
3004659 81 18334294262695423442
3014965 18 18410571764864576638
328311 84 18187089446977380059
4073 2 18041564757597956306
4463277 17 18409729573407070333
465052 167 18272091583014495558
59755656 520 17894908560149887899

> <PUBCHEM_SHAPE_MULTIPOLES>
419.96
23.07
2.03
0.59
20.95
0.17
0
2.53
0
-3.12
0
-0.02
0.01
0

> <PUBCHEM_SHAPE_SELFOVERLAP>
896.405

> <PUBCHEM_SHAPE_VOLUME>
232.5

> <PUBCHEM_COORDINATE_TYPE>
2
5
10

$$$$
