REMARK  Name = 135400182
REMARK  11 active torsions:
REMARK  status: ('A' for Active; 'I' for Inactive)
REMARK    1  A    between atoms: C_2  and  N_21
REMARK    2  A    between atoms: C_3  and  C_8
REMARK    3  A    between atoms: N_7  and  CA_10
REMARK    4  A    between atoms: CA_10  and  C_12
REMARK    5  A    between atoms: CA_10  and  CB_15
REMARK    6  A    between atoms: C_12  and  O_13
REMARK    7  A    between atoms: CB_15  and  CG_16
REMARK    8  A    between atoms: CG_16  and  CD_18
REMARK    9  A    between atoms: CD_18  and  OE1_19
REMARK   10  A    between atoms: N_21  and  C_23
REMARK   11  A    between atoms: C_23  and  C_27
REMARK                            x       y       z     vdW  Elec       q    Type
REMARK                         _______ _______ _______ _____ _____    ______ ____
ROOT
ATOM      1  S   UNL     1      -0.720   2.350  -1.346  0.00  0.00    -0.068 S 
ATOM      2  C   UNL     1       0.476   2.374  -0.120  0.00  0.00    +0.079 C 
ATOM      3  C   UNL     1      -1.863   1.633  -0.292  0.00  0.00    +0.084 C 
ATOM      4  C   UNL     1       0.012   1.847   1.065  0.00  0.00    +0.022 C 
ATOM      5  C   UNL     1      -1.343   1.418   0.966  0.00  0.00    +0.013 C 
ENDROOT
BRANCH   3   8
ATOM      6  O   UNL     1      -3.498   1.580  -1.972  0.00  0.00    -0.270 OA
ATOM      7  N   UNL     1      -4.095   0.752   0.110  0.00  0.00    -0.293 N 
ATOM      8  C   ACE A   0      -3.171   1.342  -0.780  0.00  0.00    +0.252 C 
ATOM      9  H   UNL     1      -3.798   0.584   1.033  0.00  0.00    +0.150 HD
BRANCH   7  10
ATOM     10  CA  UNL     1      -5.447   0.379  -0.239  0.00  0.00    +0.172 C 
BRANCH  10  12
ATOM     11  OXT UNL     1      -5.911   0.938   2.085  0.00  0.00    -0.248 OA
ATOM     12  C   UNL     1      -6.319   0.623   0.975  0.00  0.00    +0.332 C 
BRANCH  12  13
ATOM     13  O   UNL     1      -7.640   0.490   0.686  0.00  0.00    -0.479 OA
ATOM     14  H   UNL     1      -7.908   0.247  -0.178  0.00  0.00    +0.295 HD
ENDBRANCH  12  13
ENDBRANCH  10  12
BRANCH  10  15
ATOM     15  CB  UNL     1      -5.543  -1.048  -0.793  0.00  0.00    +0.043 C 
BRANCH  15  16
ATOM     16  CG  UNL     1      -5.130  -2.168   0.170  0.00  0.00    +0.112 C 
BRANCH  16  18
ATOM     17  OE2 UNL     1      -5.592  -3.811  -1.569  0.00  0.00    -0.250 OA
ATOM     18  CD  UNL     1      -5.231  -3.554  -0.428  0.00  0.00    +0.314 C 
BRANCH  18  19
ATOM     19  OE1 UNL     1      -4.906  -4.515   0.476  0.00  0.00    -0.480 OA
ATOM     20  HE1 UNL     1      -4.635  -4.272   1.340  0.00  0.00    +0.295 HD
ENDBRANCH  18  19
ENDBRANCH  16  18
ENDBRANCH  15  16
ENDBRANCH  10  15
ENDBRANCH   7  10
ENDBRANCH   3   8
BRANCH   2  21
ATOM     21  N   UNL     1       1.758   2.883  -0.360  0.00  0.00    -0.297 N 
ATOM     22  C   UNL     1       2.106   3.412  -1.679  0.00  0.00    +0.113 C 
BRANCH  21  23
ATOM     23  C   UNL     1       2.764   2.908   0.679  0.00  0.00    +0.118 C 
BRANCH  23  27
ATOM     24  O   UNL     1       5.498  -0.237  -2.405  0.00  0.00    -0.270 OA
ATOM     25  N   UNL     1       6.020  -2.036  -1.057  0.00  0.00    -0.259 N 
ATOM     26  N   UNL     1       5.330  -2.163   1.200  0.00  0.00    -0.395 NA
ATOM     27  C   UNL     1       3.439   1.583   0.801  0.00  0.00    -0.006 C 
ATOM     28  C   UNL     1       4.732  -0.206  -0.170  0.00  0.00    +0.079 C 
ATOM     29  C   UNL     1       4.103   1.036  -0.295  0.00  0.00    +0.004 C 
ATOM     30  C   UNL     1       3.405   0.894   2.013  0.00  0.00    -0.021 C 
ATOM     31  C   UNL     1       4.706  -0.911   1.043  0.00  0.00    +0.119 C 
ATOM     32  C   UNL     1       4.035  -0.346   2.133  0.00  0.00    +0.085 C 
ATOM     33  C   UNL     1       5.443  -0.805  -1.321  0.00  0.00    +0.253 C 
ATOM     34  C   UNL     1       5.944  -2.658   0.172  0.00  0.00    +0.163 C 
ATOM     35  C   UNL     1       6.635  -3.986   0.252  0.00  0.00    +0.084 C 
ATOM     36  H   UNL     1       6.509  -2.489  -1.781  0.00  0.00    +0.157 HD
ENDBRANCH  23  27
ENDBRANCH  21  23
ENDBRANCH   2  21
TORSDOF 11
