135449517
  -OEChem-03292013293D

 28 29  0     1  0  0  0  0  0999 V2000
    3.1265    0.0533   -1.8135 O   0  0  0  0  0  0  0  0  0  0  0  0
    3.1016   -1.6847    0.4518 O   0  0  0  0  0  0  0  0  0  0  0  0
   -1.0533   -2.5625   -0.3131 O   0  0  0  0  0  0  0  0  0  0  0  0
    0.6319   -0.4279   -0.3265 N   0  0  0  0  0  0  0  0  0  0  0  0
   -0.5268    2.1088    0.0230 N   0  0  0  0  0  0  0  0  0  0  0  0
   -2.8858   -1.1815    0.0152 N   0  0  0  0  0  0  0  0  0  0  0  0
   -2.6630    1.1588    0.1880 N   0  0  0  0  0  0  0  0  0  0  0  0
   -4.7771    0.1551    0.3456 N   0  0  0  0  0  0  0  0  0  0  0  0
    2.8420    0.5582   -0.4977 C   0  0  2  0  0  0  0  0  0  0  0  0
    3.5683   -0.3400    0.5373 C   0  0  1  0  0  0  0  0  0  0  0  0
    1.3707    0.6976   -0.3160 C   0  0  0  0  0  0  0  0  0  0  0  0
    3.3912    0.1362    1.9723 C   0  0  0  0  0  0  0  0  0  0  0  0
   -0.6927   -0.2494   -0.1584 C   0  0  0  0  0  0  0  0  0  0  0  0
    0.8024    1.9419   -0.1445 C   0  0  0  0  0  0  0  0  0  0  0  0
   -1.2803    0.9898    0.0146 C   0  0  0  0  0  0  0  0  0  0  0  0
   -1.5375   -1.4479   -0.1627 C   0  0  0  0  0  0  0  0  0  0  0  0
   -3.4182    0.0944    0.1845 C   0  0  0  0  0  0  0  0  0  0  0  0
    3.3053    1.5523   -0.4531 H   0  0  0  0  0  0  0  0  0  0  0  0
    4.6363   -0.3644    0.2898 H   0  0  0  0  0  0  0  0  0  0  0  0
    2.3499    0.0479    2.2999 H   0  0  0  0  0  0  0  0  0  0  0  0
    3.9818   -0.4853    2.6545 H   0  0  0  0  0  0  0  0  0  0  0  0
    3.7130    1.1755    2.0883 H   0  0  0  0  0  0  0  0  0  0  0  0
    1.3867    2.8546   -0.1338 H   0  0  0  0  0  0  0  0  0  0  0  0
    4.0931    0.0410   -1.9192 H   0  0  0  0  0  0  0  0  0  0  0  0
    3.6134   -2.2157    1.0857 H   0  0  0  0  0  0  0  0  0  0  0  0
   -3.5268   -1.9695    0.0222 H   0  0  0  0  0  0  0  0  0  0  0  0
   -5.2515    1.0421    0.4752 H   0  0  0  0  0  0  0  0  0  0  0  0
   -5.3484   -0.6828    0.3402 H   0  0  0  0  0  0  0  0  0  0  0  0
  1  9  1  0  0  0  0
  1 24  1  0  0  0  0
  2 10  1  0  0  0  0
  2 25  1  0  0  0  0
  3 16  2  0  0  0  0
  4 11  1  0  0  0  0
  4 13  2  0  0  0  0
  5 14  1  0  0  0  0
  5 15  2  0  0  0  0
  6 16  1  0  0  0  0
  6 17  1  0  0  0  0
  6 26  1  0  0  0  0
  7 15  1  0  0  0  0
  7 17  2  0  0  0  0
  8 17  1  0  0  0  0
  8 27  1  0  0  0  0
  8 28  1  0  0  0  0
  9 10  1  0  0  0  0
  9 11  1  0  0  0  0
  9 18  1  0  0  0  0
 10 12  1  0  0  0  0
 10 19  1  0  0  0  0
 11 14  2  0  0  0  0
 12 20  1  0  0  0  0
 12 21  1  0  0  0  0
 12 22  1  0  0  0  0
 13 15  1  0  0  0  0
 13 16  1  0  0  0  0
 14 23  1  0  0  0  0
M  END
> <PUBCHEM_COMPOUND_CID>
135449517

> <PUBCHEM_CONFORMER_RMSD>
0.6

> <PUBCHEM_CONFORMER_DIVERSEORDER>
1
6
11
15
10
8
4
12
17
5
3
16
2
13
7
9
14

> <PUBCHEM_MMFF94_PARTIAL_CHARGES>
22
1 -0.68
10 0.28
11 0.17
13 0.4
14 0.16
15 0.49
16 0.54
17 0.56
2 -0.68
23 0.15
24 0.4
25 0.4
26 0.37
27 0.4
28 0.4
3 -0.57
4 -0.62
5 -0.62
6 -0.49
7 -0.63
8 -0.85
9 0.42

> <PUBCHEM_EFFECTIVE_ROTOR_COUNT>
2

> <PUBCHEM_PHARMACOPHORE_FEATURES>
11
1 1 acceptor
1 1 donor
1 2 acceptor
1 2 donor
1 3 acceptor
1 4 acceptor
1 6 donor
1 8 donor
3 5 7 15 cation
6 4 5 11 13 14 15 rings
6 6 7 13 15 16 17 rings

> <PUBCHEM_HEAVY_ATOM_COUNT>
17

> <PUBCHEM_ATOM_DEF_STEREO_COUNT>
2

> <PUBCHEM_ATOM_UDEF_STEREO_COUNT>
0

> <PUBCHEM_BOND_DEF_STEREO_COUNT>
0

> <PUBCHEM_BOND_UDEF_STEREO_COUNT>
0

> <PUBCHEM_ISOTOPIC_ATOM_COUNT>
0

> <PUBCHEM_COMPONENT_COUNT>
1

> <PUBCHEM_CACTVS_TAUTO_COUNT>
-1

> <PUBCHEM_CONFORMER_ID>
0812CBAD00000001

> <PUBCHEM_MMFF94_ENERGY>
41.5994

> <PUBCHEM_FEATURE_SELFOVERLAP>
55.921

> <PUBCHEM_SHAPE_FINGERPRINT>
10130415 120 18334293197042536401
10967382 1 18411141320440730503
11132069 177 18272650151742214661
11578080 2 17533184627494986756
12236239 1 17822013103564236684
12251169 10 18341324565591869280
12382932 28 18341325669408935914
12553582 1 18408603690537587804
12633257 1 17986644109230801554
13083527 12 17121947667447673438
13140716 1 18267583696455628745
13538477 17 18261115201009235262
13760787 19 17458636656361521563
13862211 1 18411980287158675063
14022347 108 18337690649438945484
14144814 61 18409168830776545938
14178342 30 18196636596446112506
14289901 80 15698277823996709823
15375462 189 18040710381228138178
15669948 3 18339365282968119790
16752209 62 18336264535497126173
16945 1 18411419518267782021
1813 80 17168984466479969106
18186145 218 17917436384564816625
18522853 295 18410580573678879510
19786989 88 15141252099830170476
20510252 161 18130227051589664128
20559304 39 18334296453128861156
20645476 183 17750253549796494863
21267235 1 18336557044308240570
21501502 16 18124032596636736021
21501925 9 18340479062371757777
2255824 54 17969509397217315684
22892500 29 16200153205388774528
22959321 94 18334847312501353240
23184049 29 17980194506702444863
232386 152 18335977657883930806
2334 1 17907581676598615485
23402539 116 18201146698790683957
23419403 2 16835098196470214605
23463225 33 18335703818947641782
23552423 10 17901953263591025029
23559900 14 18202291303433114036
23598291 2 17387144078557438724
2748010 2 18051136891191454125
34934 24 18338237197123519852
4072396 5 18335974265049671161
43471831 8 18265052431805282003
465052 167 18041293144483023859
474 4 17097788025969306276
5104073 3 18339367486845486441
53812654 25 18410006650136764356
5902787 121 18337387274402932464
69090 78 17775560953478033935
7364860 26 17984146125923607300
74978 22 18266179611464159575
77492 1 17822013107627101884
81228 2 18200610089434313240
90316 7 18261383399947290888

> <PUBCHEM_SHAPE_MULTIPOLES>
307.34
6.94
1.92
1.06
1.7
0.31
0.14
0.87
1.47
0.43
-0.11
-1.41
0
-0.34

> <PUBCHEM_SHAPE_SELFOVERLAP>
657.492

> <PUBCHEM_SHAPE_VOLUME>
169.4

> <PUBCHEM_COORDINATE_TYPE>
2
5
10

$$$$
