REMARK  Name = 135465363
REMARK  2 active torsions:
REMARK  status: ('A' for Active; 'I' for Inactive)
REMARK    1  A    between atoms: C_15  and  O_28
REMARK    2  A    between atoms: C_25  and  O_30
REMARK                            x       y       z     vdW  Elec       q    Type
REMARK                         _______ _______ _______ _____ _____    ______ ____
ROOT
ATOM      1  O   UNL     1      -0.632  -1.084   1.604  0.00  0.00    -0.428 OA
ATOM      2  O   UNL     1       1.806   3.231   0.448  0.00  0.00    -0.274 OA
ATOM      3  N   UNL     1      -3.991  -0.302  -1.480  0.00  0.00    -0.311 N 
ATOM      4  N   UNL     1      -0.487   3.663   0.372  0.00  0.00    -0.255 N 
ATOM      5  N   UNL     1       1.445  -1.853   0.847  0.00  0.00    -0.368 NA
ATOM      6  C   UNL     1      -1.369   1.605   0.122  0.00  0.00    +0.041 C 
ATOM      7  C   UNL     1      -2.310   0.624  -0.332  0.00  0.00    +0.020 C 
ATOM      8  C   UNL     1       0.101   1.462   0.223  0.00  0.00    +0.131 C 
ATOM      9  C   UNL     1      -2.360  -0.769  -0.043  0.00  0.00    +0.049 C 
ATOM     10  C   UNL     1       0.886   0.377   0.323  0.00  0.00    +0.059 C 
ATOM     11  C   UNL     1      -3.411  -1.327  -0.773  0.00  0.00    +0.051 C 
ATOM     12  C   UNL     1       2.301   0.162  -0.030  0.00  0.00    +0.032 C 
ATOM     13  C   UNL     1      -1.613  -1.622   0.782  0.00  0.00    +0.149 C 
ATOM     14  C   UNL     1       0.503  -0.950   0.876  0.00  0.00    +0.279 C 
ATOM     15  C   UNL     1      -1.623   2.923   0.246  0.00  0.00    +0.189 C 
ATOM     16  C   UNL     1      -3.337   0.874  -1.223  0.00  0.00    +0.062 C 
ATOM     17  C   UNL     1       0.652   2.869   0.327  0.00  0.00    +0.236 C 
ATOM     18  C   UNL     1       2.553  -1.190   0.277  0.00  0.00    +0.138 C 
ATOM     19  C   UNL     1      -3.732  -2.689  -0.717  0.00  0.00    +0.015 C 
ATOM     20  C   UNL     1      -1.923  -2.982   0.880  0.00  0.00    +0.038 C 
ATOM     21  C   UNL     1       3.266   0.913  -0.681  0.00  0.00    +0.006 C 
ATOM     22  C   UNL     1      -2.968  -3.506   0.124  0.00  0.00    +0.004 C 
ATOM     23  C   UNL     1       3.786  -1.775   0.022  0.00  0.00    +0.069 C 
ATOM     24  C   UNL     1       4.513   0.331  -0.938  0.00  0.00    +0.037 C 
ATOM     25  C   UNL     1       4.774  -0.999  -0.581  0.00  0.00    +0.136 C 
ATOM     26  H   UNL     1      -4.764  -0.399  -2.082  0.00  0.00    +0.152 HD
ATOM     27  H   UNL     1      -0.474   4.642   0.481  0.00  0.00    +0.158 HD
ENDROOT
BRANCH  15  28
ATOM     28  O   UNL     1      -2.826   3.557   0.172  0.00  0.00    -0.495 OA
ATOM     29  H   UNL     1      -2.873   4.487   0.276  0.00  0.00    +0.293 HD
ENDBRANCH  15  28
BRANCH  25  30
ATOM     30  O   UNL     1       5.994  -1.542  -0.848  0.00  0.00    -0.505 OA
ATOM     31  H   UNL     1       6.173  -2.431  -0.611  0.00  0.00    +0.292 HD
ENDBRANCH  25  30
TORSDOF 2
