REMARK  Name = 135455548
REMARK  8 active torsions:
REMARK  status: ('A' for Active; 'I' for Inactive)
REMARK    1  A    between atoms: C_2  and  C_19
REMARK    2  A    between atoms: C_3  and  C_11
REMARK    3  A    between atoms: C_4  and  O_8
REMARK    4  A    between atoms: N_10  and  C_11
REMARK    5  A    between atoms: N_10  and  N_12
REMARK    6  A    between atoms: N_12  and  C_15
REMARK    7  A    between atoms: C_15  and  N_16
REMARK    8  A    between atoms: C_19  and  O_20
REMARK                            x       y       z     vdW  Elec       q    Type
REMARK                         _______ _______ _______ _____ _____    ______ ____
ROOT
ATOM      1  N   UNL     1      -2.722   0.379   1.139  0.00  0.00    -0.245 NA
ATOM      2  C   UNL     1      -1.032  -1.199   0.431  0.00  0.00    +0.026 C 
ATOM      3  C   UNL     1      -0.601  -0.309  -0.546  0.00  0.00    +0.032 C 
ATOM      4  C   UNL     1      -1.228   0.924  -0.682  0.00  0.00    +0.144 C 
ATOM      5  C   UNL     1      -2.274   1.218   0.177  0.00  0.00    +0.093 C 
ATOM      6  C   UNL     1      -2.088  -0.810   1.241  0.00  0.00    +0.096 C 
ATOM      7  C   UNL     1      -2.983   2.529   0.075  0.00  0.00    +0.055 C 
ENDROOT
BRANCH   4   8
ATOM      8  O   UNL     1      -0.829   1.816  -1.628  0.00  0.00    -0.505 OA
ATOM      9  H   UNL     1      -0.120   1.603  -2.202  0.00  0.00    +0.292 HD
ENDBRANCH   4   8
BRANCH   3  10
ATOM     10  C   UNL     1       0.506  -0.665  -1.427  0.00  0.00    +0.141 C 
BRANCH  10  11
ATOM     11  N   UNL     1       1.746  -0.395  -1.136  0.00  0.00    -0.127 NA
BRANCH  11  12
ATOM     12  N   UNL     1       1.919   0.240   0.048  0.00  0.00    -0.244 N 
ATOM     13  H   UNL     1       1.135   0.456   0.603  0.00  0.00    +0.170 HD
BRANCH  12  15
ATOM     14  S   UNL     1       3.406   1.370   1.943  0.00  0.00    -0.018 S 
ATOM     15  C   UNL     1       3.174   0.587   0.485  0.00  0.00    +0.143 C 
BRANCH  15  16
ATOM     16  N   UNL     1       4.225   0.261  -0.329  0.00  0.00    -0.340 N 
ATOM     17  H   UNL     1       5.145   0.488  -0.059  0.00  0.00    +0.144 HD
ATOM     18  H   UNL     1       4.062  -0.201  -1.183  0.00  0.00    +0.144 HD
ENDBRANCH  15  16
ENDBRANCH  12  15
ENDBRANCH  11  12
ENDBRANCH  10  11
ENDBRANCH   3  10
BRANCH   2  19
ATOM     19  C   UNL     1      -0.401  -2.534   0.624  0.00  0.00    +0.165 C 
BRANCH  19  20
ATOM     20  O   UNL     1      -0.819  -3.411  -0.415  0.00  0.00    -0.377 OA
ATOM     21  H   UNL     1      -0.408  -4.281  -0.290  0.00  0.00    +0.211 HD
ENDBRANCH  19  20
ENDBRANCH   2  19
TORSDOF 8
