135408506
  -OEChem-03292013293D

 32 34  0     1  0  0  0  0  0999 V2000
   -2.1516    0.6338   -0.7830 O   0  0  0  0  0  0  0  0  0  0  0  0
   -1.2258   -2.4280    0.7908 O   0  0  0  0  0  0  0  0  0  0  0  0
   -3.9614   -1.2632    1.6636 O   0  0  0  0  0  0  0  0  0  0  0  0
   -4.6159    1.8765   -1.3911 O   0  0  0  0  0  0  0  0  0  0  0  0
    4.3400    1.8308    0.7421 O   0  0  0  0  0  0  0  0  0  0  0  0
    0.1419    0.4207   -0.0121 N   0  0  0  0  0  0  0  0  0  0  0  0
    0.1013    1.6564    0.5315 N   0  0  0  0  0  0  0  0  0  0  0  0
    1.3587    2.0486    0.7443 N   0  0  0  0  0  0  0  0  0  0  0  0
    1.8402   -1.1832   -0.6658 N   0  0  0  0  0  0  0  0  0  0  0  0
    4.0136   -0.2834   -0.1994 N   0  0  0  0  0  0  0  0  0  0  0  0
    3.7764   -2.4246   -1.1510 N   0  0  0  0  0  0  0  0  0  0  0  0
   -1.7164   -1.0985    0.7924 C   0  0  2  0  0  0  0  0  0  0  0  0
   -3.1983   -1.0541    0.4909 C   0  0  2  0  0  0  0  0  0  0  0  0
   -1.1339   -0.3024   -0.3717 C   0  0  1  0  0  0  0  0  0  0  0  0
   -3.3542    0.3577   -0.0462 C   0  0  2  0  0  0  0  0  0  0  0  0
   -4.5572    0.5277   -0.9565 C   0  0  0  0  0  0  0  0  0  0  0  0
    1.4249   -0.0032   -0.1586 C   0  0  0  0  0  0  0  0  0  0  0  0
    2.1679    1.0417    0.3257 C   0  0  0  0  0  0  0  0  0  0  0  0
    3.5988    0.9480    0.3296 C   0  0  0  0  0  0  0  0  0  0  0  0
    3.1510   -1.3012   -0.6757 C   0  0  0  0  0  0  0  0  0  0  0  0
   -1.4839   -0.6519    1.7659 H   0  0  0  0  0  0  0  0  0  0  0  0
   -3.4791   -1.8150   -0.2464 H   0  0  0  0  0  0  0  0  0  0  0  0
   -0.8770   -0.9268   -1.2355 H   0  0  0  0  0  0  0  0  0  0  0  0
   -3.4082    1.0943    0.7658 H   0  0  0  0  0  0  0  0  0  0  0  0
   -5.4861    0.2861   -0.4309 H   0  0  0  0  0  0  0  0  0  0  0  0
   -4.4677   -0.1044   -1.8461 H   0  0  0  0  0  0  0  0  0  0  0  0
   -1.4314   -2.8297   -0.0704 H   0  0  0  0  0  0  0  0  0  0  0  0
   -3.7200   -0.5809    2.3128 H   0  0  0  0  0  0  0  0  0  0  0  0
   -5.3927    1.9571   -1.9704 H   0  0  0  0  0  0  0  0  0  0  0  0
    5.0133   -0.4586   -0.2446 H   0  0  0  0  0  0  0  0  0  0  0  0
    3.2442   -3.2081   -1.5135 H   0  0  0  0  0  0  0  0  0  0  0  0
    4.7873   -2.5059   -1.1545 H   0  0  0  0  0  0  0  0  0  0  0  0
  1 14  1  0  0  0  0
  1 15  1  0  0  0  0
  2 12  1  0  0  0  0
  2 27  1  0  0  0  0
  3 13  1  0  0  0  0
  3 28  1  0  0  0  0
  4 16  1  0  0  0  0
  4 29  1  0  0  0  0
  5 19  2  0  0  0  0
  6  7  1  0  0  0  0
  6 14  1  0  0  0  0
  6 17  1  0  0  0  0
  7  8  2  0  0  0  0
  8 18  1  0  0  0  0
  9 17  1  0  0  0  0
  9 20  2  0  0  0  0
 10 19  1  0  0  0  0
 10 20  1  0  0  0  0
 10 30  1  0  0  0  0
 11 20  1  0  0  0  0
 11 31  1  0  0  0  0
 11 32  1  0  0  0  0
 12 13  1  0  0  0  0
 12 14  1  0  0  0  0
 12 21  1  0  0  0  0
 13 15  1  0  0  0  0
 13 22  1  0  0  0  0
 14 23  1  0  0  0  0
 15 16  1  0  0  0  0
 15 24  1  0  0  0  0
 16 25  1  0  0  0  0
 16 26  1  0  0  0  0
 17 18  2  0  0  0  0
 18 19  1  0  0  0  0
M  END
> <PUBCHEM_COMPOUND_CID>
135408506

> <PUBCHEM_CONFORMER_RMSD>
0.6

> <PUBCHEM_CONFORMER_DIVERSEORDER>
1
69
102
135
123
85
11
141
105
120
30
44
46
101
138
103
37
20
56
31
136
63
52
67
8
7
27
19
53
40
90
142
70
66
97
134
119
116
74
107
35
83
14
21
75
143
64
2
4
96
49
54
111
86
41
100
104
98
39
91
108
28
71
12
59
93
33
16
24
114
77
94
109
129
10
47
88
78
13
9
76
133
80
25
34
112
126
118
140
3
81
6
45
92
26
5
38
117
124
42
99
23
122
128
130
79
15
131
115
61
18
22
17
121
125
65
50
55
89
57
60
58
87
137
32
127
95
113
72
82
139
62
43
68
106
29
36
110
84
48
51
73
132

> <PUBCHEM_MMFF94_PARTIAL_CHARGES>
26
1 -0.56
10 -0.49
11 -0.85
12 0.28
13 0.28
14 0.54
15 0.28
16 0.28
17 -0.03
18 0.14
19 0.72
2 -0.68
20 0.56
27 0.4
28 0.4
29 0.4
3 -0.68
30 0.37
31 0.4
32 0.4
4 -0.68
5 -0.57
6 0.31
7 -0.42
8 -0.23
9 -0.58

> <PUBCHEM_EFFECTIVE_ROTOR_COUNT>
3

> <PUBCHEM_PHARMACOPHORE_FEATURES>
13
1 1 acceptor
1 10 donor
1 11 donor
1 2 acceptor
1 2 donor
1 3 acceptor
1 3 donor
1 4 acceptor
1 4 donor
1 5 acceptor
5 1 12 13 14 15 rings
5 6 7 8 17 18 rings
6 9 10 17 18 19 20 rings

> <PUBCHEM_HEAVY_ATOM_COUNT>
20

> <PUBCHEM_ATOM_DEF_STEREO_COUNT>
0

> <PUBCHEM_ATOM_UDEF_STEREO_COUNT>
4

> <PUBCHEM_BOND_DEF_STEREO_COUNT>
0

> <PUBCHEM_BOND_UDEF_STEREO_COUNT>
0

> <PUBCHEM_ISOTOPIC_ATOM_COUNT>
0

> <PUBCHEM_COMPONENT_COUNT>
1

> <PUBCHEM_CACTVS_TAUTO_COUNT>
-1

> <PUBCHEM_CONFORMER_ID>
08122B7A00000001

> <PUBCHEM_MMFF94_ENERGY>
47.5048

> <PUBCHEM_FEATURE_SELFOVERLAP>
66.153

> <PUBCHEM_SHAPE_FINGERPRINT>
10608611 8 18336824303059245969
1100329 8 16895674264915237627
11471102 20 18273210911267823668
11796584 16 17749389209673048538
12236239 1 16415479358927038957
12403259 415 18335145276121192135
12500047 106 18335132141757850987
13134695 92 17846775200216867952
13296908 3 18411423912024561466
13464514 151 18049157775041805589
13544592 145 18335140838913742310
13571099 22 18273211984714047165
13675066 3 18334861644728046507
14115302 16 18186813452072932118
14252887 29 18339652221391007946
14386348 63 18409449197651700694
14866123 147 17405439801461267514
15219456 202 18410857689253157170
15375358 24 18410849988535090024
18186145 218 18334298621818196833
19049666 15 18409450258645798995
200 152 17489582368645011605
20279233 1 18410292540244792814
20645477 56 18261391187070742357
20645477 70 18202279173902177294
21065201 7 17821729429237359403
21521239 73 18199728316364906975
221357 26 18270669875883429157
22943178 12 18408323315209654859
23402539 116 18261376884423432541
23402655 69 18130498678512157605
23526113 38 18342165644673951465
23557571 272 17968099754205810716
23559900 14 18336266760923175230
474 4 16198441364742766216
495365 180 18059277821296467362
5104073 3 18410013230026591275
5161694 15 18335702715330944495
6049 1 18334585680516285889
633830 44 18337941291299145197
77492 1 16415483756968359679
9709674 26 18338237166831979735

> <PUBCHEM_SHAPE_MULTIPOLES>
352.36
9.17
2.2
1.1
2.07
0.37
0.02
-0.92
-1.36
-0.98
0.08
0.8
0.15
2.45

> <PUBCHEM_SHAPE_SELFOVERLAP>
761.007

> <PUBCHEM_SHAPE_VOLUME>
190.8

> <PUBCHEM_COORDINATE_TYPE>
2
5
10

$$$$
