REMARK  Name = 135474247
REMARK  7 active torsions:
REMARK  status: ('A' for Active; 'I' for Inactive)
REMARK    1  A    between atoms: N_2  and  C_18
REMARK    2  A    between atoms: C_18  and  O_19
REMARK    3  A    between atoms: O_19  and  C_20
REMARK    4  A    between atoms: C_20  and  C_21
REMARK    5  A    between atoms: C_20  and  C_24
REMARK    6  A    between atoms: C_21  and  O_22
REMARK    7  A    between atoms: C_24  and  O_25
REMARK                            x       y       z     vdW  Elec       q    Type
REMARK                         _______ _______ _______ _____ _____    ______ ____
ROOT
ATOM      1  O   UNL     1      -4.281   1.219  -0.843  0.00  0.00    -0.267 OA
ATOM      2  N   UNL     1      -0.016   0.683   0.548  0.00  0.00    -0.197 N 
ATOM      3  N   UNL     1      -1.551   2.156  -0.141  0.00  0.00    -0.364 NA
ATOM      4  N   UNL     1      -1.297  -1.368   0.457  0.00  0.00    -0.355 NA
ATOM      5  N   UNL     1      -3.527  -0.922  -0.296  0.00  0.00    -0.242 N 
ATOM      6  N   UNL     1       0.655   2.937   0.422  0.00  0.00    -0.320 N 
ATOM      7  N   UNL     1      -2.853  -3.115   0.235  0.00  0.00    -0.321 N 
ATOM      8  C   UNL     1      -1.150  -0.034   0.305  0.00  0.00    +0.229 C 
ATOM      9  C   UNL     1      -2.070   0.896  -0.115  0.00  0.00    +0.232 C 
ATOM     10  C   UNL     1      -0.307   1.996   0.265  0.00  0.00    +0.243 C 
ATOM     11  C   UNL     1      -3.397   0.464  -0.460  0.00  0.00    +0.286 C 
ATOM     12  C   UNL     1      -2.503  -1.792   0.148  0.00  0.00    +0.240 C 
ATOM     13  H   UNL     1      -4.402  -1.322  -0.505  0.00  0.00    +0.159 HD
ATOM     14  H   UNL     1       1.551   2.677   0.736  0.00  0.00    +0.146 HD
ATOM     15  H   UNL     1       0.458   3.880   0.222  0.00  0.00    +0.146 HD
ATOM     16  H   UNL     1      -2.192  -3.780   0.537  0.00  0.00    +0.146 HD
ATOM     17  H   UNL     1      -3.765  -3.399  -0.003  0.00  0.00    +0.146 HD
ENDROOT
BRANCH   2  18
ATOM     18  C   UNL     1       1.245   0.151   1.014  0.00  0.00    +0.249 C 
BRANCH  18  19
ATOM     19  O   UNL     1       2.152   0.114  -0.085  0.00  0.00    -0.331 OA
BRANCH  19  20
ATOM     20  C   UNL     1       3.416  -0.414   0.296  0.00  0.00    +0.175 C 
BRANCH  20  21
ATOM     21  C   UNL     1       4.441   0.030  -0.738  0.00  0.00    +0.169 C 
BRANCH  21  22
ATOM     22  O   UNL     1       4.818   1.376  -0.468  0.00  0.00    -0.379 OA
ATOM     23  H   UNL     1       5.472   1.667  -1.123  0.00  0.00    +0.211 HD
ENDBRANCH  21  22
ENDBRANCH  20  21
BRANCH  20  24
ATOM     24  C   UNL     1       3.312  -1.933   0.362  0.00  0.00    +0.169 C 
BRANCH  24  25
ATOM     25  O   UNL     1       2.913  -2.446  -0.905  0.00  0.00    -0.379 OA
ATOM     26  H   UNL     1       2.849  -3.412  -0.857  0.00  0.00    +0.211 HD
ENDBRANCH  24  25
ENDBRANCH  20  24
ENDBRANCH  19  20
ENDBRANCH  18  19
ENDBRANCH   2  18
TORSDOF 7
