REMARK  Name = 135407854
REMARK  8 active torsions:
REMARK  status: ('A' for Active; 'I' for Inactive)
REMARK    1  A    between atoms: C_2  and  O_17
REMARK    2  A    between atoms: C_3  and  N_7
REMARK    3  A    between atoms: C_4  and  O_19
REMARK    4  A    between atoms: C_5  and  C_21
REMARK    5  A    between atoms: C_21  and  O_22
REMARK    6  A    between atoms: O_22  and  P_23
REMARK    7  A    between atoms: P_23  and  O_25
REMARK    8  A    between atoms: P_23  and  O_27
REMARK                            x       y       z     vdW  Elec       q    Type
REMARK                         _______ _______ _______ _____ _____    ______ ____
ROOT
ATOM      1  O   UNL     1       1.052  -0.773   1.083  0.00  0.00    -0.333 OA
ATOM      2  C   UNL     1       0.218  -1.908  -0.819  0.00  0.00    +0.187 C 
ATOM      3  C   UNL     1      -0.184  -1.174   0.456  0.00  0.00    +0.227 C 
ATOM      4  C   UNL     1       1.521  -2.564  -0.408  0.00  0.00    +0.171 C 
ATOM      5  C   UNL     1       2.148  -1.500   0.484  0.00  0.00    +0.176 C 
ENDROOT
BRANCH   3   7
ATOM      6  O   UNL     1      -4.781   2.647  -0.374  0.00  0.00    -0.274 OA
ATOM      7  N   UNL     1      -1.083   0.011   0.196  0.00  0.00    -0.250 N 
ATOM      8  N   UNL     1      -3.196  -1.103   0.452  0.00  0.00    -0.237 NA
ATOM      9  N   UNL     1      -5.047   0.389   0.129  0.00  0.00    -0.283 N 
ATOM     10  C   UNL     1      -2.450   0.003   0.204  0.00  0.00    +0.123 C 
ATOM     11  C   UNL     1      -0.640   1.281  -0.087  0.00  0.00    +0.065 C 
ATOM     12  C   UNL     1      -2.881   1.284  -0.079  0.00  0.00    +0.154 C 
ATOM     13  C   UNL     1      -1.741   2.095  -0.264  0.00  0.00    +0.006 C 
ATOM     14  C   UNL     1      -4.303   1.545  -0.130  0.00  0.00    +0.235 C 
ATOM     15  C   UNL     1      -4.471  -0.852   0.402  0.00  0.00    +0.220 C 
ATOM     16  H   UNL     1      -6.029   0.455   0.119  0.00  0.00    +0.151 HD
ENDBRANCH   3   7
BRANCH   2  17
ATOM     17  O   UNL     1      -0.755  -2.837  -1.252  0.00  0.00    -0.378 OA
ATOM     18  H   UNL     1      -1.565  -2.364  -1.502  0.00  0.00    +0.211 HD
ENDBRANCH   2  17
BRANCH   4  19
ATOM     19  O   UNL     1       1.266  -3.716   0.395  0.00  0.00    -0.379 OA
ATOM     20  H   UNL     1       0.865  -4.409  -0.153  0.00  0.00    +0.211 HD
ENDBRANCH   4  19
BRANCH   5  21
ATOM     21  C   UNL     1       3.013  -0.510  -0.286  0.00  0.00    +0.186 C 
BRANCH  21  22
ATOM     22  O   UNL     1       3.537   0.439   0.626  0.00  0.00    -0.271 OA
BRANCH  22  23
ATOM     23  P   UNL     1       4.498   1.610   0.055  0.00  0.00    +0.473 P 
ATOM     24  O   UNL     1       5.009   2.571   1.089  0.00  0.00    -0.227 OA
BRANCH  23  25
ATOM     25  O   UNL     1       5.642   0.786  -0.737  0.00  0.00    -0.303 OA
ATOM     26  H   UNL     1       5.226   0.193  -1.381  0.00  0.00    +0.222 HD
ENDBRANCH  23  25
BRANCH  23  27
ATOM     27  O   UNL     1       3.627   2.274  -1.135  0.00  0.00    -0.303 OA
ATOM     28  H   UNL     1       3.341   1.582  -1.752  0.00  0.00    +0.222 HD
ENDBRANCH  23  27
ENDBRANCH  22  23
ENDBRANCH  21  22
ENDBRANCH   5  21
TORSDOF 8
