REMARK  Name = 135432358
REMARK  5 active torsions:
REMARK  status: ('A' for Active; 'I' for Inactive)
REMARK    1  A    between atoms: C2*_2  and  O2*_17
REMARK    2  A    between atoms: C3*_3  and  O3*_19
REMARK    3  A    between atoms: C1*_4  and  N_7
REMARK    4  A    between atoms: C4*_5  and  C5*_21
REMARK    5  A    between atoms: C5*_21  and  O5*_22
REMARK                            x       y       z     vdW  Elec       q    Type
REMARK                         _______ _______ _______ _____ _____    ______ ____
ROOT
ATOM      1  O4* UNL     1      -1.940   0.782  -0.655  0.00  0.00    -0.332 OA
ATOM      2  C2* UNL     1      -1.564  -1.219   0.582  0.00  0.00    +0.188 C 
ATOM      3  C3* UNL     1      -3.048  -1.049   0.340  0.00  0.00    +0.171 C 
ATOM      4  C1* UNL     1      -0.965  -0.261  -0.444  0.00  0.00    +0.243 C 
ATOM      5  C4* UNL     1      -3.139   0.441   0.060  0.00  0.00    +0.176 C 
ENDROOT
BRANCH   4   7
ATOM      6  O   UNL     1       4.751   1.180   0.728  0.00  0.00    -0.274 OA
ATOM      7  N   UNL     1       0.355   0.324  -0.005  0.00  0.00    -0.170 N 
ATOM      8  N   UNL     1       0.368   1.446   0.745  0.00  0.00    -0.177 NA
ATOM      9  N   UNL     1       1.869  -1.264  -1.010  0.00  0.00    -0.236 NA
ATOM     10  N   UNL     1       4.153  -0.684  -0.540  0.00  0.00    -0.283 N 
ATOM     11  C   UNL     1       1.600  -0.156  -0.280  0.00  0.00    +0.141 C 
ATOM     12  C   UNL     1       2.479   0.709   0.330  0.00  0.00    +0.174 C 
ATOM     13  C   UNL     1       1.672   1.675   0.946  0.00  0.00    +0.108 C 
ATOM     14  C   UNL     1       3.896   0.465   0.219  0.00  0.00    +0.236 C 
ATOM     15  C   UNL     1       3.150  -1.476  -1.105  0.00  0.00    +0.220 C 
ATOM     16  H   UNL     1       5.091  -0.947  -0.682  0.00  0.00    +0.151 HD
ENDBRANCH   4   7
BRANCH   2  17
ATOM     17  O2* UNL     1      -1.146  -2.550   0.335  0.00  0.00    -0.378 OA
ATOM     18  H2* UNL     1      -1.538  -3.140   0.998  0.00  0.00    +0.211 HD
ENDBRANCH   2  17
BRANCH   3  19
ATOM     19  O3* UNL     1      -3.795  -1.422   1.482  0.00  0.00    -0.379 OA
ATOM     20  H3* UNL     1      -3.711  -2.377   1.625  0.00  0.00    +0.211 HD
ENDBRANCH   3  19
BRANCH   5  21
ATOM     21  C5* UNL     1      -4.351   0.827  -0.768  0.00  0.00    +0.169 C 
BRANCH  21  22
ATOM     22  O5* UNL     1      -4.346   2.232  -0.961  0.00  0.00    -0.379 OA
ATOM     23  H5* UNL     1      -5.117   2.488  -1.490  0.00  0.00    +0.211 HD
ENDBRANCH  21  22
ENDBRANCH   5  21
TORSDOF 5
