135422733
  -OEChem-03292013293D

 28 30  0     0  0  0  0  0  0999 V2000
   -3.7281   -2.5552   -0.0007 O   0  0  0  0  0  0  0  0  0  0  0  0
   -1.0028   -1.2418   -0.0004 N   0  0  0  0  0  0  0  0  0  0  0  0
   -4.5494   -0.3859    0.0007 N   0  0  0  0  0  0  0  0  0  0  0  0
   -0.7408    0.9727   -0.0012 N   0  0  0  0  0  0  0  0  0  0  0  0
   -3.1472    1.5621    0.0001 N   0  0  0  0  0  0  0  0  0  0  0  0
    1.2020   -0.4568   -0.0004 N   0  0  0  0  0  0  0  0  0  0  0  0
   -5.4794    1.7625    0.0016 N   0  0  0  0  0  0  0  0  0  0  0  0
    1.9000    0.6043   -0.0008 N   0  0  0  0  0  0  0  0  0  0  0  0
   -2.2585   -0.7087   -0.0005 C   0  0  0  0  0  0  0  0  0  0  0  0
   -2.0732    0.6541   -0.0006 C   0  0  0  0  0  0  0  0  0  0  0  0
   -3.5367   -1.3442   -0.0002 C   0  0  0  0  0  0  0  0  0  0  0  0
   -0.1233   -0.1905   -0.0006 C   0  0  0  0  0  0  0  0  0  0  0  0
   -4.3363    1.0042    0.0008 C   0  0  0  0  0  0  0  0  0  0  0  0
    3.2779    0.3281    0.0000 C   0  0  0  0  0  0  0  0  0  0  0  0
    3.7243   -0.9934    0.0011 C   0  0  0  0  0  0  0  0  0  0  0  0
    4.1993    1.3754   -0.0008 C   0  0  0  0  0  0  0  0  0  0  0  0
    5.0920   -1.2677    0.0015 C   0  0  0  0  0  0  0  0  0  0  0  0
    5.5668    1.1012   -0.0004 C   0  0  0  0  0  0  0  0  0  0  0  0
    6.0132   -0.2204    0.0008 C   0  0  0  0  0  0  0  0  0  0  0  0
   -0.7618   -2.2241   -0.0001 H   0  0  0  0  0  0  0  0  0  0  0  0
   -5.5099   -0.7168    0.0011 H   0  0  0  0  0  0  0  0  0  0  0  0
   -5.4369    2.7758    0.0018 H   0  0  0  0  0  0  0  0  0  0  0  0
   -6.3986    1.3341    0.0021 H   0  0  0  0  0  0  0  0  0  0  0  0
    3.0544   -1.8489    0.0018 H   0  0  0  0  0  0  0  0  0  0  0  0
    3.8603    2.4080   -0.0018 H   0  0  0  0  0  0  0  0  0  0  0  0
    5.4405   -2.2965    0.0024 H   0  0  0  0  0  0  0  0  0  0  0  0
    6.2842    1.9166   -0.0011 H   0  0  0  0  0  0  0  0  0  0  0  0
    7.0781   -0.4338    0.0011 H   0  0  0  0  0  0  0  0  0  0  0  0
  1 11  2  0  0  0  0
  2  9  1  0  0  0  0
  2 12  1  0  0  0  0
  2 20  1  0  0  0  0
  3 11  1  0  0  0  0
  3 13  1  0  0  0  0
  3 21  1  0  0  0  0
  4 10  1  0  0  0  0
  4 12  2  0  0  0  0
  5 10  1  0  0  0  0
  5 13  2  0  0  0  0
  6  8  2  0  0  0  0
  6 12  1  0  0  0  0
  7 13  1  0  0  0  0
  7 22  1  0  0  0  0
  7 23  1  0  0  0  0
  8 14  1  0  0  0  0
  9 10  2  0  0  0  0
  9 11  1  0  0  0  0
 14 15  2  0  0  0  0
 14 16  1  0  0  0  0
 15 17  1  0  0  0  0
 15 24  1  0  0  0  0
 16 18  2  0  0  0  0
 16 25  1  0  0  0  0
 17 19  2  0  0  0  0
 17 26  1  0  0  0  0
 18 19  1  0  0  0  0
 18 27  1  0  0  0  0
 19 28  1  0  0  0  0
M  END
> <PUBCHEM_COMPOUND_CID>
135422733

> <PUBCHEM_CONFORMER_RMSD>
0.6

> <PUBCHEM_CONFORMER_DIVERSEORDER>
1
4
3
2

> <PUBCHEM_MMFF94_PARTIAL_CHARGES>
28
1 -0.57
10 0.35
11 0.71
12 0.31
13 0.56
14 0.18
15 -0.15
16 -0.15
17 -0.15
18 -0.15
19 -0.15
2 0.03
20 0.27
21 0.37
22 0.4
23 0.4
24 0.15
25 0.15
26 0.15
27 0.15
28 0.15
3 -0.49
4 -0.57
5 -0.57
6 -0.13
7 -0.85
8 -0.18
9 -0.24

> <PUBCHEM_EFFECTIVE_ROTOR_COUNT>
2

> <PUBCHEM_PHARMACOPHORE_FEATURES>
8
1 1 acceptor
1 2 donor
1 3 donor
1 7 donor
4 2 4 6 12 cation
5 2 4 9 10 12 rings
6 14 15 16 17 18 19 rings
6 3 5 9 10 11 13 rings

> <PUBCHEM_HEAVY_ATOM_COUNT>
19

> <PUBCHEM_ATOM_DEF_STEREO_COUNT>
0

> <PUBCHEM_ATOM_UDEF_STEREO_COUNT>
0

> <PUBCHEM_BOND_DEF_STEREO_COUNT>
0

> <PUBCHEM_BOND_UDEF_STEREO_COUNT>
0

> <PUBCHEM_ISOTOPIC_ATOM_COUNT>
0

> <PUBCHEM_COMPONENT_COUNT>
1

> <PUBCHEM_CACTVS_TAUTO_COUNT>
-1

> <PUBCHEM_CONFORMER_ID>
0812630D00000001

> <PUBCHEM_MMFF94_ENERGY>
43.6872

> <PUBCHEM_FEATURE_SELFOVERLAP>
40.767

> <PUBCHEM_SHAPE_FINGERPRINT>
10014705 185 18334293158730826061
10411042 1 18050567654192667703
10595046 47 18336828692805628588
10912923 1 17967245425597714584
11287383 113 18411982485944138074
11315181 36 18114462356959817364
12107183 9 17760927338496541800
12236239 1 18040716965518523544
12616971 3 17022908968676083508
13167823 11 18410290333112046838
13214271 11 18343581858826767479
13288520 33 18412826923854370807
13533116 47 13973693776444434500
14251764 18 18272374178982561689
14341114 176 18410862048893129312
15196674 1 18410575102291360482
15250474 111 18336249207070947234
17834072 33 18409730686098836726
17844677 252 18339368555859890568
1813 80 16805326574338473550
200 152 17989203754635103666
20281389 69 18333731286830351509
20645477 56 18408604726041547901
20645477 70 18342460297259367582
20681677 155 18260266339298830539
21065198 57 18412261770118470488
21236236 1 18413107282192357967
21267235 1 18336836367416632666
220451 1 17967534554227505434
23402539 116 18412821395534972932
23536379 177 18409448072750045040
23559900 14 18342451556436391864
239999 70 18272657831872110806
26918003 58 18201718440378480232
29717793 49 17703514312065646700
300161 21 18409724058716431112
3004659 81 18408887305236251714
34797466 226 17774451589248281764
3545911 37 18411420591983180172
4073 2 18113623425973748722
4214541 1 18410856564114221860
42788 4 18410856559977432164
5104073 3 18410572898952065530
542803 24 17530686515648522748
559249 180 18409163285995366026
59755656 520 16877946027133888043
67856867 119 18262240048881783860
7495541 125 17845933047846084008
77779 3 18410575102338813770
9709674 26 18410018749519151206
9971528 1 17894351090579582428

> <PUBCHEM_SHAPE_MULTIPOLES>
350.27
14.45
1.81
0.58
7.42
0.37
0
-1.69
-0.01
-1.57
0
0.08
0
0

> <PUBCHEM_SHAPE_SELFOVERLAP>
776.45

> <PUBCHEM_SHAPE_VOLUME>
184

> <PUBCHEM_COORDINATE_TYPE>
2
5
10

$$$$
