REMARK  Name = 135413546
REMARK  1 active torsions:
REMARK  status: ('A' for Active; 'I' for Inactive)
REMARK    1  A    between atoms: C_9  and  C_14
REMARK                            x       y       z     vdW  Elec       q    Type
REMARK                         _______ _______ _______ _____ _____    ______ ____
ROOT
ATOM      1 BR   UNL     1      -2.538  -4.067  -0.207  0.00  0.00    -0.033 Br
ATOM      2  O   UNL     1      -4.086   1.278   0.264  0.00  0.00    -0.269 OA
ATOM      3  N   UNL     1      -2.162   2.441   0.368  0.00  0.00    -0.300 N 
ATOM      4  N   UNL     1      -2.834  -1.193   0.042  0.00  0.00    -0.304 N 
ATOM      5  C   UNL     1       0.339   0.532  -0.285  0.00  0.00    +0.082 C 
ATOM      6  C   UNL     1       0.040   1.964  -0.643  0.00  0.00    +0.033 C 
ATOM      7  C   UNL     1      -0.796  -0.343  -0.179  0.00  0.00    +0.004 C 
ATOM      8  C   UNL     1      -0.732   2.655   0.467  0.00  0.00    +0.091 C 
ATOM      9  C   UNL     1      -2.130   0.002   0.037  0.00  0.00    +0.099 C 
ATOM     10  C   UNL     1      -2.852   1.252   0.227  0.00  0.00    +0.259 C 
ATOM     11  C   UNL     1      -0.735  -1.768  -0.290  0.00  0.00    +0.019 C 
ATOM     12  C   UNL     1      -2.007  -2.259  -0.148  0.00  0.00    +0.083 C 
ATOM     13  H   UNL     1      -2.717   3.254   0.407  0.00  0.00    +0.150 HD
ATOM     14  H   UNL     1      -3.808  -1.262   0.166  0.00  0.00    +0.153 HD
ENDROOT
BRANCH   5  19
ATOM     15  O   UNL     1       2.739   2.249  -0.481  0.00  0.00    -0.267 OA
ATOM     16  N   UNL     1       2.034  -1.123   0.215  0.00  0.00    -0.373 NA
ATOM     17  N   UNL     1       3.808   0.232   0.051  0.00  0.00    -0.242 N 
ATOM     18  N   UNL     1       4.212  -2.029   0.585  0.00  0.00    -0.321 N 
ATOM     19  C   UNL     1       1.612   0.140  -0.099  0.00  0.00    +0.169 C 
ATOM     20  C   UNL     1       2.756   1.064  -0.216  0.00  0.00    +0.278 C 
ATOM     21  C   UNL     1       3.333  -1.027   0.294  0.00  0.00    +0.238 C 
ATOM     22  H   UNL     1       4.756   0.497   0.065  0.00  0.00    +0.159 HD
ATOM     23  H   UNL     1       3.880  -2.939   0.762  0.00  0.00    +0.146 HD
ATOM     24  H   UNL     1       5.178  -1.842   0.618  0.00  0.00    +0.146 HD
ENDBRANCH   5  19
TORSDOF 1
