135475611
  -OEChem-03292013293D

 34 36  0     1  0  0  0  0  0999 V2000
    2.2496    0.3849    1.0070 O   0  0  0  0  0  0  0  0  0  0  0  0
    1.1962   -2.1600   -1.3153 O   0  0  0  0  0  0  0  0  0  0  0  0
    3.4092   -2.3264    0.3119 O   0  0  0  0  0  0  0  0  0  0  0  0
   -4.2479    1.9454   -0.4353 O   0  0  0  0  0  0  0  0  0  0  0  0
   -0.0322    0.4255    0.1416 N   0  0  0  0  0  0  0  0  0  0  0  0
    4.2528    2.3970    0.5138 N   0  0  0  0  0  0  0  0  0  0  0  0
   -1.2923    2.2162   -0.3140 N   0  0  0  0  0  0  0  0  0  0  0  0
   -1.7430   -1.2677    0.3973 N   0  0  0  0  0  0  0  0  0  0  0  0
   -3.9143   -0.3116    0.0635 N   0  0  0  0  0  0  0  0  0  0  0  0
   -3.6715   -2.5996    0.5628 N   0  0  0  0  0  0  0  0  0  0  0  0
    1.8158   -0.9630   -0.8894 C   0  0  1  0  0  0  0  0  0  0  0  0
    1.2077   -0.4000    0.3910 C   0  0  1  0  0  0  0  0  0  0  0  0
    3.2654   -1.1555   -0.4908 C   0  0  1  0  0  0  0  0  0  0  0  0
    3.5179    0.0566    0.3969 C   0  0  1  0  0  0  0  0  0  0  0  0
    4.0030    1.2737   -0.3786 C   0  0  0  0  0  0  0  0  0  0  0  0
   -1.3261   -0.0053    0.1549 C   0  0  0  0  0  0  0  0  0  0  0  0
   -0.0635    1.7685   -0.1450 C   0  0  0  0  0  0  0  0  0  0  0  0
   -2.0721    1.1133   -0.1273 C   0  0  0  0  0  0  0  0  0  0  0  0
   -3.5034    1.0045   -0.1907 C   0  0  0  0  0  0  0  0  0  0  0  0
   -3.0511   -1.3967    0.3456 C   0  0  0  0  0  0  0  0  0  0  0  0
    1.7430   -0.2306   -1.7026 H   0  0  0  0  0  0  0  0  0  0  0  0
    0.9016   -1.1826    1.0955 H   0  0  0  0  0  0  0  0  0  0  0  0
    3.9418   -1.2489   -1.3452 H   0  0  0  0  0  0  0  0  0  0  0  0
    4.2196   -0.1781    1.2063 H   0  0  0  0  0  0  0  0  0  0  0  0
    3.2588    1.5865   -1.1191 H   0  0  0  0  0  0  0  0  0  0  0  0
    4.9285    1.0339   -0.9124 H   0  0  0  0  0  0  0  0  0  0  0  0
    1.7112   -2.5038   -2.0650 H   0  0  0  0  0  0  0  0  0  0  0  0
    4.3455   -2.3912    0.5668 H   0  0  0  0  0  0  0  0  0  0  0  0
    0.8347    2.3658   -0.2207 H   0  0  0  0  0  0  0  0  0  0  0  0
    3.3929    2.6439    1.0023 H   0  0  0  0  0  0  0  0  0  0  0  0
    4.5156    3.2146   -0.0348 H   0  0  0  0  0  0  0  0  0  0  0  0
   -4.9123   -0.5007    0.0432 H   0  0  0  0  0  0  0  0  0  0  0  0
   -3.1371   -3.4357    0.7722 H   0  0  0  0  0  0  0  0  0  0  0  0
   -4.6808   -2.6893    0.5208 H   0  0  0  0  0  0  0  0  0  0  0  0
  1 12  1  0  0  0  0
  1 14  1  0  0  0  0
  2 11  1  0  0  0  0
  2 27  1  0  0  0  0
  3 13  1  0  0  0  0
  3 28  1  0  0  0  0
  4 19  2  0  0  0  0
  5 12  1  0  0  0  0
  5 16  1  0  0  0  0
  5 17  1  0  0  0  0
  6 15  1  0  0  0  0
  6 30  1  0  0  0  0
  6 31  1  0  0  0  0
  7 17  2  0  0  0  0
  7 18  1  0  0  0  0
  8 16  1  0  0  0  0
  8 20  2  0  0  0  0
  9 19  1  0  0  0  0
  9 20  1  0  0  0  0
  9 32  1  0  0  0  0
 10 20  1  0  0  0  0
 10 33  1  0  0  0  0
 10 34  1  0  0  0  0
 11 12  1  0  0  0  0
 11 13  1  0  0  0  0
 11 21  1  0  0  0  0
 12 22  1  0  0  0  0
 13 14  1  0  0  0  0
 13 23  1  0  0  0  0
 14 15  1  0  0  0  0
 14 24  1  0  0  0  0
 15 25  1  0  0  0  0
 15 26  1  0  0  0  0
 16 18  2  0  0  0  0
 17 29  1  0  0  0  0
 18 19  1  0  0  0  0
M  END
> <PUBCHEM_COMPOUND_CID>
135475611

> <PUBCHEM_CONFORMER_RMSD>
0.6

> <PUBCHEM_CONFORMER_DIVERSEORDER>
1
8
20
9
17
7
2
15
6
18
10
11
13
3
16
5
14
12
4
19

> <PUBCHEM_MMFF94_PARTIAL_CHARGES>
28
1 -0.56
10 -0.85
11 0.28
12 0.54
13 0.28
14 0.28
15 0.27
16 -0.03
17 0.04
18 0.14
19 0.72
2 -0.68
20 0.56
27 0.4
28 0.4
29 0.15
3 -0.68
30 0.36
31 0.36
32 0.37
33 0.4
34 0.4
4 -0.57
5 0.05
6 -0.99
7 -0.57
8 -0.58
9 -0.49

> <PUBCHEM_EFFECTIVE_ROTOR_COUNT>
3

> <PUBCHEM_PHARMACOPHORE_FEATURES>
14
1 1 acceptor
1 10 donor
1 2 acceptor
1 2 donor
1 3 acceptor
1 3 donor
1 4 acceptor
1 6 cation
1 6 donor
1 9 donor
3 5 7 17 cation
5 1 11 12 13 14 rings
5 5 7 16 17 18 rings
6 8 9 16 18 19 20 rings

> <PUBCHEM_HEAVY_ATOM_COUNT>
20

> <PUBCHEM_ATOM_DEF_STEREO_COUNT>
4

> <PUBCHEM_ATOM_UDEF_STEREO_COUNT>
0

> <PUBCHEM_BOND_DEF_STEREO_COUNT>
0

> <PUBCHEM_BOND_UDEF_STEREO_COUNT>
0

> <PUBCHEM_ISOTOPIC_ATOM_COUNT>
0

> <PUBCHEM_COMPONENT_COUNT>
1

> <PUBCHEM_CACTVS_TAUTO_COUNT>
-1

> <PUBCHEM_CONFORMER_ID>
0813319B00000001

> <PUBCHEM_MMFF94_ENERGY>
44.3744

> <PUBCHEM_FEATURE_SELFOVERLAP>
71.237

> <PUBCHEM_SHAPE_FINGERPRINT>
10366900 7 17774997968964628529
10498660 4 18408887334494167772
10608611 8 18411417267842146772
10616163 171 18411703196520562950
11132069 177 18407757032108657641
11405975 8 18337673014345393954
12633257 1 18197784293068889066
13140716 1 18339367370216646099
13214271 11 18411976996506636877
13224815 77 18342181063564085990
13296908 3 18409731755044773923
13544592 145 18125168134397424039
14289901 80 18333735731989030226
15196674 1 18410012134714932355
15219456 202 18342458127424747784
15375358 24 18411979135553240053
15375462 6 18410013243359872222
17492 89 18334858311887114514
18175812 5 18412825759385256438
18186145 218 17603582993602323054
19141452 34 18271533078573966275
19591789 44 16678391590106016813
200 152 17202752701334285237
20645477 56 18261395495081293365
20645477 70 17988640740288997334
20681677 274 18335978680149788706
21065198 57 18337953394110750954
21618674 54 18408602578241206834
221490 88 18411707565072131970
23402539 116 18260542329781606286
23557571 272 18337402611762645606
23559900 14 18339357449343442930
2748010 2 18412833473368351879
296302 2 18343865515409656253
34934 24 18408316692396510085
474 4 17168718538973588452
495365 180 17559371622422754993
5104073 3 18410012121835358129
58051976 378 18343300345248338772
67856867 119 18187363242900666280
7097593 13 17753875135314609458
8809292 202 18337675200404872803
9709674 26 18270121188804033375

> <PUBCHEM_SHAPE_MULTIPOLES>
358.23
8.4
2.64
0.83
0.12
0.25
0.08
-0.76
-0.39
-0.15
0.1
0.33
0.18
0.99

> <PUBCHEM_SHAPE_SELFOVERLAP>
776.977

> <PUBCHEM_SHAPE_VOLUME>
195.3

> <PUBCHEM_COORDINATE_TYPE>
2
5
10

$$$$
