REMARK  Name = 135494321
REMARK  6 active torsions:
REMARK  status: ('A' for Active; 'I' for Inactive)
REMARK    1  A    between atoms: C_1  and  N_3
REMARK    2  A    between atoms: C_1  and  C_16
REMARK    3  A    between atoms: C_17  and  C_22
REMARK    4  A    between atoms: C_23  and  P_24
REMARK    5  A    between atoms: P_24  and  O_26
REMARK    6  A    between atoms: P_24  and  O_28
REMARK                            x       y       z     vdW  Elec       q    Type
REMARK                         _______ _______ _______ _____ _____    ______ ____
ROOT
ATOM      1  C   UNL     1       1.271  -1.308  -1.386  0.00  0.00    +0.122 C 
ENDROOT
BRANCH   1   3
ATOM      2  O   UNL     1      -3.724  -2.073   1.717  0.00  0.00    -0.268 OA
ATOM      3  N   UNL     1       0.198  -1.668  -0.491  0.00  0.00    -0.257 N 
ATOM      4  N   UNL     1      -0.868  -2.696   1.185  0.00  0.00    -0.240 NA
ATOM      5  N   UNL     1      -1.577  -0.264  -1.351  0.00  0.00    -0.357 NA
ATOM      6  N   UNL     1      -3.583  -0.591  -0.082  0.00  0.00    -0.243 N 
ATOM      7  N   UNL     1      -3.531   0.927  -1.882  0.00  0.00    -0.321 N 
ATOM      8  C   UNL     1      -1.077  -1.183  -0.495  0.00  0.00    +0.210 C 
ATOM      9  C   UNL     1      -1.704  -1.832   0.541  0.00  0.00    +0.176 C 
ATOM     10  C   UNL     1       0.274  -2.575   0.538  0.00  0.00    +0.222 C 
ATOM     11  C   UNL     1      -3.084  -1.545   0.816  0.00  0.00    +0.273 C 
ATOM     12  C   UNL     1      -2.841   0.018  -1.123  0.00  0.00    +0.239 C 
ATOM     13  H   UNL     1      -4.525  -0.322   0.019  0.00  0.00    +0.159 HD
ATOM     14  H   UNL     1      -3.081   1.391  -2.624  0.00  0.00    +0.146 HD
ATOM     15  H   UNL     1      -4.477   1.115  -1.685  0.00  0.00    +0.146 HD
ENDBRANCH   1   3
BRANCH   1  16
ATOM     16  C   UNL     1       2.494  -0.788  -0.673  0.00  0.00    -0.002 C 
ATOM     17  C   UNL     1       2.550   0.516  -0.179  0.00  0.00    -0.002 C 
ATOM     18  C   UNL     1       3.586  -1.641  -0.512  0.00  0.00    -0.003 C 
ATOM     19  C   UNL     1       3.697   0.965   0.475  0.00  0.00    -0.000 C 
ATOM     20  C   UNL     1       4.733  -1.192   0.142  0.00  0.00    -0.000 C 
ATOM     21  C   UNL     1       4.788   0.112   0.635  0.00  0.00    -0.000 C 
BRANCH  17  22
ATOM     22  C   UNL     1       1.427   1.431  -0.330  0.00  0.00    +0.007 C 
ATOM     23  C   UNL     1       0.727   2.004   0.672  0.00  0.00    +0.087 C 
BRANCH  23  24
ATOM     24  P   UNL     1      -0.614   3.082   0.362  0.00  0.00    +0.360 P 
ATOM     25  O   UNL     1      -1.046   3.418  -1.040  0.00  0.00    -0.253 OA
BRANCH  24  26
ATOM     26  O   UNL     1      -0.266   4.418   1.219  0.00  0.00    -0.321 OA
ATOM     27  H   UNL     1      -0.972   5.073   1.098  0.00  0.00    +0.220 HD
ENDBRANCH  24  26
BRANCH  24  28
ATOM     28  O   UNL     1      -1.831   2.465   1.244  0.00  0.00    -0.321 OA
ATOM     29  H   UNL     1      -2.624   3.012   1.127  0.00  0.00    +0.220 HD
ENDBRANCH  24  28
ENDBRANCH  23  24
ENDBRANCH  17  22
ENDBRANCH   1  16
TORSDOF 6
