REMARK  Name = 135407853
REMARK  5 active torsions:
REMARK  status: ('A' for Active; 'I' for Inactive)
REMARK    1  A    between atoms: C1*_2  and  N_7
REMARK    2  A    between atoms: C2*_3  and  O2*_17
REMARK    3  A    between atoms: C3*_4  and  O3*_19
REMARK    4  A    between atoms: C4*_5  and  C5*_21
REMARK    5  A    between atoms: C5*_21  and  O5*_22
REMARK                            x       y       z     vdW  Elec       q    Type
REMARK                         _______ _______ _______ _____ _____    ______ ____
ROOT
ATOM      1  O4* UNL     1       2.050   0.501   0.976  0.00  0.00    -0.333 OA
ATOM      2  C1* UNL     1       1.060  -0.389   0.420  0.00  0.00    +0.227 C 
ATOM      3  C2* UNL     1       1.692  -0.979  -0.836  0.00  0.00    +0.187 C 
ATOM      4  C3* UNL     1       3.156  -1.047  -0.449  0.00  0.00    +0.171 C 
ATOM      5  C4* UNL     1       3.332   0.228   0.366  0.00  0.00    +0.175 C 
ENDROOT
BRANCH   2   7
ATOM      6  O   UNL     1      -4.686   1.271  -0.393  0.00  0.00    -0.274 OA
ATOM      7  N   UNL     1      -0.238   0.333   0.143  0.00  0.00    -0.250 N 
ATOM      8  N   UNL     1      -1.737  -1.503   0.537  0.00  0.00    -0.237 NA
ATOM      9  N   UNL     1      -4.032  -0.878   0.223  0.00  0.00    -0.283 N 
ATOM     10  C   UNL     1      -1.491  -0.211   0.208  0.00  0.00    +0.123 C 
ATOM     11  C   UNL     1      -0.337   1.655  -0.216  0.00  0.00    +0.065 C 
ATOM     12  C   UNL     1      -2.398   0.780  -0.115  0.00  0.00    +0.154 C 
ATOM     13  C   UNL     1      -1.672   1.961  -0.384  0.00  0.00    +0.006 C 
ATOM     14  C   UNL     1      -3.808   0.460  -0.120  0.00  0.00    +0.235 C 
ATOM     15  C   UNL     1      -3.008  -1.776   0.528  0.00  0.00    +0.220 C 
ATOM     16  H   UNL     1      -4.961  -1.203   0.250  0.00  0.00    +0.151 HD
ENDBRANCH   2   7
BRANCH   3  17
ATOM     17  O2* UNL     1       1.154  -2.239  -1.185  0.00  0.00    -0.378 OA
ATOM     18  H2* UNL     1       0.220  -2.137  -1.423  0.00  0.00    +0.211 HD
ENDBRANCH   3  17
BRANCH   4  19
ATOM     19  O3* UNL     1       3.391  -2.158   0.416  0.00  0.00    -0.379 OA
ATOM     20  H3* UNL     1       3.285  -2.983  -0.083  0.00  0.00    +0.211 HD
ENDBRANCH   4  19
BRANCH   5  21
ATOM     21  C5* UNL     1       3.721   1.430  -0.483  0.00  0.00    +0.169 C 
BRANCH  21  22
ATOM     22  O5* UNL     1       3.849   2.560   0.362  0.00  0.00    -0.379 OA
ATOM     23  H5* UNL     1       4.097   3.334  -0.167  0.00  0.00    +0.211 HD
ENDBRANCH  21  22
ENDBRANCH   5  21
TORSDOF 5
