135434940
  -OEChem-03292013293D

 32 34  0     1  0  0  0  0  0999 V2000
   -1.4000    0.5748   -1.7922 F   0  0  0  0  0  0  0  0  0  0  0  0
   -1.7532   -0.0902    1.1153 O   0  0  0  0  0  0  0  0  0  0  0  0
   -4.3409    1.3026    0.0380 O   0  0  0  0  0  0  0  0  0  0  0  0
   -2.1080   -2.8351    0.7828 O   0  0  0  0  0  0  0  0  0  0  0  0
    4.5711    0.6013   -0.1371 O   0  0  0  0  0  0  0  0  0  0  0  0
    0.1340    1.2846    0.3729 N   0  0  0  0  0  0  0  0  0  0  0  0
    2.1453    2.2598    0.2977 N   0  0  0  0  0  0  0  0  0  0  0  0
    0.7503   -1.0312    0.0320 N   0  0  0  0  0  0  0  0  0  0  0  0
    3.1245   -1.2300   -0.2207 N   0  0  0  0  0  0  0  0  0  0  0  0
    1.7410   -3.1326   -0.3184 N   0  0  0  0  0  0  0  0  0  0  0  0
   -1.3627    1.1519    0.5012 C   0  0  1  0  0  0  0  0  0  0  0  0
   -3.3669    0.4485   -0.5535 C   0  0  1  0  0  0  0  0  0  0  0  0
   -2.1032    1.2266   -0.8276 C   0  0  2  0  0  0  0  0  0  0  0  0
   -2.9167   -0.6129    0.4443 C   0  0  1  0  0  0  0  0  0  0  0  0
   -2.5186   -1.9235   -0.2210 C   0  0  0  0  0  0  0  0  0  0  0  0
    1.0357    0.2831    0.1642 C   0  0  0  0  0  0  0  0  0  0  0  0
    0.8496    2.4548    0.4462 C   0  0  0  0  0  0  0  0  0  0  0  0
    2.2566    0.9120    0.1232 C   0  0  0  0  0  0  0  0  0  0  0  0
    3.4427    0.1286   -0.0861 C   0  0  0  0  0  0  0  0  0  0  0  0
    1.8192   -1.7731   -0.1610 C   0  0  0  0  0  0  0  0  0  0  0  0
   -1.6753    1.9558    1.1787 H   0  0  0  0  0  0  0  0  0  0  0  0
   -3.8037    0.0207   -1.4612 H   0  0  0  0  0  0  0  0  0  0  0  0
   -2.2626    2.2569   -1.1578 H   0  0  0  0  0  0  0  0  0  0  0  0
   -3.6696   -0.8022    1.2177 H   0  0  0  0  0  0  0  0  0  0  0  0
   -1.6870   -1.7908   -0.9184 H   0  0  0  0  0  0  0  0  0  0  0  0
   -3.3675   -2.3575   -0.7588 H   0  0  0  0  0  0  0  0  0  0  0  0
    0.3721    3.4116    0.6073 H   0  0  0  0  0  0  0  0  0  0  0  0
   -5.1192    0.7571    0.2437 H   0  0  0  0  0  0  0  0  0  0  0  0
   -1.8595   -3.6618    0.3352 H   0  0  0  0  0  0  0  0  0  0  0  0
    3.8935   -1.8762   -0.3732 H   0  0  0  0  0  0  0  0  0  0  0  0
    0.8483   -3.6132   -0.2911 H   0  0  0  0  0  0  0  0  0  0  0  0
    2.5705   -3.6967   -0.4668 H   0  0  0  0  0  0  0  0  0  0  0  0
  1 13  1  0  0  0  0
  2 11  1  0  0  0  0
  2 14  1  0  0  0  0
  3 12  1  0  0  0  0
  3 28  1  0  0  0  0
  4 15  1  0  0  0  0
  4 29  1  0  0  0  0
  5 19  2  0  0  0  0
  6 11  1  0  0  0  0
  6 16  1  0  0  0  0
  6 17  1  0  0  0  0
  7 17  2  0  0  0  0
  7 18  1  0  0  0  0
  8 16  1  0  0  0  0
  8 20  2  0  0  0  0
  9 19  1  0  0  0  0
  9 20  1  0  0  0  0
  9 30  1  0  0  0  0
 10 20  1  0  0  0  0
 10 31  1  0  0  0  0
 10 32  1  0  0  0  0
 11 13  1  0  0  0  0
 11 21  1  0  0  0  0
 12 13  1  0  0  0  0
 12 14  1  0  0  0  0
 12 22  1  0  0  0  0
 13 23  1  0  0  0  0
 14 15  1  0  0  0  0
 14 24  1  0  0  0  0
 15 25  1  0  0  0  0
 15 26  1  0  0  0  0
 16 18  2  0  0  0  0
 17 27  1  0  0  0  0
 18 19  1  0  0  0  0
M  END
> <PUBCHEM_COMPOUND_CID>
135434940

> <PUBCHEM_CONFORMER_RMSD>
0.6

> <PUBCHEM_CONFORMER_DIVERSEORDER>
1
4
15
14
13
11
10
5
17
2
8
7
9
16
12
3
6

> <PUBCHEM_MMFF94_PARTIAL_CHARGES>
26
1 -0.34
10 -0.85
11 0.54
12 0.28
13 0.34
14 0.28
15 0.28
16 -0.03
17 0.04
18 0.14
19 0.72
2 -0.56
20 0.56
27 0.15
28 0.4
29 0.4
3 -0.68
30 0.37
31 0.4
32 0.4
4 -0.68
5 -0.57
6 0.05
7 -0.57
8 -0.58
9 -0.49

> <PUBCHEM_EFFECTIVE_ROTOR_COUNT>
3

> <PUBCHEM_PHARMACOPHORE_FEATURES>
12
1 10 donor
1 2 acceptor
1 3 acceptor
1 3 donor
1 4 acceptor
1 4 donor
1 5 acceptor
1 9 donor
3 6 7 17 cation
5 2 11 12 13 14 rings
5 6 7 16 17 18 rings
6 8 9 16 18 19 20 rings

> <PUBCHEM_HEAVY_ATOM_COUNT>
20

> <PUBCHEM_ATOM_DEF_STEREO_COUNT>
4

> <PUBCHEM_ATOM_UDEF_STEREO_COUNT>
0

> <PUBCHEM_BOND_DEF_STEREO_COUNT>
0

> <PUBCHEM_BOND_UDEF_STEREO_COUNT>
0

> <PUBCHEM_ISOTOPIC_ATOM_COUNT>
0

> <PUBCHEM_COMPONENT_COUNT>
1

> <PUBCHEM_CACTVS_TAUTO_COUNT>
-1

> <PUBCHEM_CONFORMER_ID>
081292BC00000001

> <PUBCHEM_MMFF94_ENERGY>
44.2938

> <PUBCHEM_FEATURE_SELFOVERLAP>
61.08

> <PUBCHEM_SHAPE_FINGERPRINT>
10616163 171 18338800121075041623
10967382 1 18339644430061954266
11132069 177 18410009957556858178
11471102 20 18412259506512553884
12500047 106 18335416868272848141
12553582 1 18197509436826665826
12633257 1 18408599249567823195
12788726 201 17631459955847991641
13140716 1 18340481283080957232
14115302 16 18334023773828688549
14178342 30 18341889684408784544
14251745 187 18335698394488551162
15196674 1 18411982468342541970
15219456 202 18336826484934255009
15375358 24 18411413986275973681
16945 1 18412269414959920840
19107657 46 18411420622111157310
19591789 44 18195249051721463446
19930381 70 18051413968422859847
200 152 18060413634093460445
20201158 50 18409448063854194153
20645477 70 18200029538783592663
21160774 45 17546437242601078207
21501502 16 18336542828129715769
221490 88 18265902534792533330
2334 1 18051975010967112120
23402539 116 16732695065253568460
23559900 14 18411417289965479114
238 59 17903032773819796415
25 1 18336541634055123333
2748010 2 18195242445592445768
2871803 45 18193548098416967367
3312278 4 18341897397969613569
34934 24 18412539882014306746
350125 39 18122631814390883920
69090 78 18335978706109132573
8809292 202 18334859449815317499
9709674 26 18411984671782376567

> <PUBCHEM_SHAPE_MULTIPOLES>
355.93
6.53
2.83
0.88
0.46
1.54
0.16
-0.23
0.44
0.38
-0.24
-0.49
-0.07
0.61

> <PUBCHEM_SHAPE_SELFOVERLAP>
776.971

> <PUBCHEM_SHAPE_VOLUME>
194

> <PUBCHEM_COORDINATE_TYPE>
2
5
10

$$$$
