135402011
  -OEChem-03292013293D

 30 31  0     1  0  0  0  0  0999 V2000
   -2.8961    0.7638   -1.4196 O   0  0  0  0  0  0  0  0  0  0  0  0
   -2.9260    0.9877    1.4079 O   0  0  0  0  0  0  0  0  0  0  0  0
    1.2049    2.5541   -0.2651 O   0  0  0  0  0  0  0  0  0  0  0  0
    0.5625   -2.1014   -0.0341 N   0  0  0  0  0  0  0  0  0  0  0  0
   -0.5270    0.4246   -0.3448 N   0  0  0  0  0  0  0  0  0  0  0  0
    2.7619   -1.1602    0.1880 N   0  0  0  0  0  0  0  0  0  0  0  0
    3.0127    1.1682    0.0635 N   0  0  0  0  0  0  0  0  0  0  0  0
    4.8815   -0.1847    0.3973 N   0  0  0  0  0  0  0  0  0  0  0  0
   -2.7890   -0.3750   -0.5841 C   0  0  1  0  0  0  0  0  0  0  0  0
   -1.3141   -0.6071   -0.3773 C   0  0  0  0  0  0  0  0  0  0  0  0
   -0.8617   -2.0413   -0.2234 C   0  0  0  0  0  0  0  0  0  0  0  0
   -3.5210   -0.1169    0.7280 C   0  0  2  0  0  0  0  0  0  0  0  0
    1.4008   -1.0006    0.0006 C   0  0  0  0  0  0  0  0  0  0  0  0
    0.8173    0.2107   -0.1565 C   0  0  0  0  0  0  0  0  0  0  0  0
   -5.0065    0.1564    0.5312 C   0  0  0  0  0  0  0  0  0  0  0  0
    1.6742    1.4282   -0.1277 C   0  0  0  0  0  0  0  0  0  0  0  0
    3.5258   -0.1066    0.2160 C   0  0  0  0  0  0  0  0  0  0  0  0
   -3.2289   -1.2307   -1.1077 H   0  0  0  0  0  0  0  0  0  0  0  0
   -1.3735   -2.4841    0.6365 H   0  0  0  0  0  0  0  0  0  0  0  0
   -1.1428   -2.5984   -1.1225 H   0  0  0  0  0  0  0  0  0  0  0  0
   -3.4031   -0.9910    1.3795 H   0  0  0  0  0  0  0  0  0  0  0  0
    1.0052   -3.0065    0.0843 H   0  0  0  0  0  0  0  0  0  0  0  0
   -5.1693    1.0828   -0.0299 H   0  0  0  0  0  0  0  0  0  0  0  0
   -5.5007    0.2895    1.4998 H   0  0  0  0  0  0  0  0  0  0  0  0
   -5.4956   -0.6678    0.0034 H   0  0  0  0  0  0  0  0  0  0  0  0
   -2.5318    0.5270   -2.2898 H   0  0  0  0  0  0  0  0  0  0  0  0
    3.6549    1.9544    0.0936 H   0  0  0  0  0  0  0  0  0  0  0  0
   -3.3979    1.1028    2.2503 H   0  0  0  0  0  0  0  0  0  0  0  0
    5.3446   -1.0789    0.5178 H   0  0  0  0  0  0  0  0  0  0  0  0
    5.4614    0.6470    0.4165 H   0  0  0  0  0  0  0  0  0  0  0  0
  1  9  1  0  0  0  0
  1 26  1  0  0  0  0
  2 12  1  0  0  0  0
  2 28  1  0  0  0  0
  3 16  2  0  0  0  0
  4 11  1  0  0  0  0
  4 13  1  0  0  0  0
  4 22  1  0  0  0  0
  5 10  2  0  0  0  0
  5 14  1  0  0  0  0
  6 13  1  0  0  0  0
  6 17  2  0  0  0  0
  7 16  1  0  0  0  0
  7 17  1  0  0  0  0
  7 27  1  0  0  0  0
  8 17  1  0  0  0  0
  8 29  1  0  0  0  0
  8 30  1  0  0  0  0
  9 10  1  0  0  0  0
  9 12  1  0  0  0  0
  9 18  1  0  0  0  0
 10 11  1  0  0  0  0
 11 19  1  0  0  0  0
 11 20  1  0  0  0  0
 12 15  1  0  0  0  0
 12 21  1  0  0  0  0
 13 14  2  0  0  0  0
 14 16  1  0  0  0  0
 15 23  1  0  0  0  0
 15 24  1  0  0  0  0
 15 25  1  0  0  0  0
M  END
> <PUBCHEM_COMPOUND_CID>
135402011

> <PUBCHEM_CONFORMER_RMSD>
0.6

> <PUBCHEM_CONFORMER_DIVERSEORDER>
1
4
16
19
14
3
17
5
20
23
18
22
12
7
24
6
2
21
25
15
8
13
9
11
10

> <PUBCHEM_MMFF94_PARTIAL_CHARGES>
22
1 -0.68
10 0.33
11 0.43
12 0.28
13 0.27
14 0.19
16 0.62
17 0.56
2 -0.68
22 0.4
26 0.4
27 0.37
28 0.4
29 0.4
3 -0.57
30 0.4
4 -0.87
5 -0.62
6 -0.62
7 -0.49
8 -0.85
9 0.34

> <PUBCHEM_EFFECTIVE_ROTOR_COUNT>
2.4

> <PUBCHEM_PHARMACOPHORE_FEATURES>
12
1 1 acceptor
1 1 donor
1 2 acceptor
1 2 donor
1 3 acceptor
1 4 cation
1 4 donor
1 5 acceptor
1 7 donor
1 8 donor
6 4 5 10 11 13 14 rings
6 6 7 13 14 16 17 rings

> <PUBCHEM_HEAVY_ATOM_COUNT>
17

> <PUBCHEM_ATOM_DEF_STEREO_COUNT>
0

> <PUBCHEM_ATOM_UDEF_STEREO_COUNT>
2

> <PUBCHEM_BOND_DEF_STEREO_COUNT>
0

> <PUBCHEM_BOND_UDEF_STEREO_COUNT>
0

> <PUBCHEM_ISOTOPIC_ATOM_COUNT>
0

> <PUBCHEM_COMPONENT_COUNT>
1

> <PUBCHEM_CACTVS_TAUTO_COUNT>
-1

> <PUBCHEM_CONFORMER_ID>
0812121B00000001

> <PUBCHEM_MMFF94_ENERGY>
44.9041

> <PUBCHEM_FEATURE_SELFOVERLAP>
60.997

> <PUBCHEM_SHAPE_FINGERPRINT>
10366900 7 17313105267571237179
10967382 1 18410007728389956998
10980938 120 18408037407853243838
11132069 177 18338784685405386102
11471102 20 18410008827806437919
12236239 1 17847059969807495071
12251169 10 18409732876226384491
12507557 5 18409729577823331161
13140716 1 18265893738588669978
14144814 61 18412261735510656328
14289901 80 16588027917665650515
14943859 89 16559034887311095631
15209294 21 17917430891196052960
15219456 202 18114458960120695367
15295992 7 17845938562278332251
15309172 13 18410009931629110463
15375462 189 17968084318636577122
15653759 3 17240481399190811005
15775835 57 18411422851404808423
16945 1 18410006624430355222
17844478 74 17748824107465673397
18186145 218 18342737429258809182
18219364 16 18261384542650515901
18511873 20 18342738554682671798
200 152 18272641373277604263
20671657 1 18192156112158649244
21501502 16 18121216742983952126
21524375 3 18341614845272849999
21637258 2 15285626708162381874
22094290 62 18338797926420417964
22854114 111 18409451418397777517
22854114 59 18335423461095094179
23184049 59 18411139138618287120
23402539 116 17632289090778373685
23559900 14 18271245028307975180
2748010 2 18049995593884871166
350125 39 18194123151292576243
474 4 18413393141934844203
5104073 3 18265606762064893346
74978 22 18268147737341208068
77492 1 17846775204769771783
7832392 63 18341609390743264982
9981440 41 17192050364329787224

> <PUBCHEM_SHAPE_MULTIPOLES>
307.34
7.92
1.85
0.88
1.64
0.06
0
1.02
-1.82
-0.76
0.13
0.77
0.16
-0.28

> <PUBCHEM_SHAPE_SELFOVERLAP>
652.072

> <PUBCHEM_SHAPE_VOLUME>
169.1

> <PUBCHEM_COORDINATE_TYPE>
2
5
10

$$$$
