135425312
  -OEChem-03292013293D

 31 32  0     0  0  0  0  0  0999 V2000
    4.4683   -0.2310    0.6125 O   0  0  0  0  0  0  0  0  0  0  0  0
   -5.1166    0.1735    1.0233 O   0  0  0  0  0  0  0  0  0  0  0  0
   -2.9887   -1.8293   -0.9392 O   0  0  0  0  0  0  0  0  0  0  0  0
    0.4424    1.5442   -0.4153 N   0  0  0  0  0  0  0  0  0  0  0  0
    2.5810    1.9953    0.0591 N   0  0  0  0  0  0  0  0  0  0  0  0
    0.4595   -0.8728   -0.2874 N   0  0  0  0  0  0  0  0  0  0  0  0
    2.6544   -1.6598    0.2636 N   0  0  0  0  0  0  0  0  0  0  0  0
    0.8825   -3.1739   -0.0707 N   0  0  0  0  0  0  0  0  0  0  0  0
   -1.0045    1.7881   -0.7638 C   0  0  0  0  0  0  0  0  0  0  0  0
    1.0501    0.3403   -0.2122 C   0  0  0  0  0  0  0  0  0  0  0  0
    2.3572    0.6502    0.0760 C   0  0  0  0  0  0  0  0  0  0  0  0
   -1.9420    1.2490    0.2799 C   0  0  0  0  0  0  0  0  0  0  0  0
    1.4042    2.5093   -0.2409 C   0  0  0  0  0  0  0  0  0  0  0  0
   -2.8939    0.3053    0.1365 C   0  0  0  0  0  0  0  0  0  0  0  0
    3.2867   -0.4113    0.3467 C   0  0  0  0  0  0  0  0  0  0  0  0
    1.2884   -1.8648   -0.0437 C   0  0  0  0  0  0  0  0  0  0  0  0
   -3.1794   -0.4344   -1.1455 C   0  0  0  0  0  0  0  0  0  0  0  0
   -3.7495   -0.0780    1.3212 C   0  0  0  0  0  0  0  0  0  0  0  0
   -1.1174    2.8749   -0.8421 H   0  0  0  0  0  0  0  0  0  0  0  0
   -1.1243    1.3574   -1.7601 H   0  0  0  0  0  0  0  0  0  0  0  0
   -1.8278    1.7139    1.2589 H   0  0  0  0  0  0  0  0  0  0  0  0
    1.1885    3.5639   -0.3449 H   0  0  0  0  0  0  0  0  0  0  0  0
    3.2233   -2.4832    0.4382 H   0  0  0  0  0  0  0  0  0  0  0  0
   -3.6287   -1.1417    1.5511 H   0  0  0  0  0  0  0  0  0  0  0  0
   -3.4896    0.4915    2.2199 H   0  0  0  0  0  0  0  0  0  0  0  0
   -2.5367   -0.1334   -1.9741 H   0  0  0  0  0  0  0  0  0  0  0  0
   -4.2165   -0.2665   -1.4544 H   0  0  0  0  0  0  0  0  0  0  0  0
   -0.0783   -3.4211   -0.2811 H   0  0  0  0  0  0  0  0  0  0  0  0
    1.5288   -3.9321    0.1187 H   0  0  0  0  0  0  0  0  0  0  0  0
   -5.6333   -0.1017    1.7998 H   0  0  0  0  0  0  0  0  0  0  0  0
   -3.2098   -2.2744   -1.7750 H   0  0  0  0  0  0  0  0  0  0  0  0
  1 15  2  0  0  0  0
  2 18  1  0  0  0  0
  2 30  1  0  0  0  0
  3 17  1  0  0  0  0
  3 31  1  0  0  0  0
  4  9  1  0  0  0  0
  4 10  1  0  0  0  0
  4 13  1  0  0  0  0
  5 11  1  0  0  0  0
  5 13  2  0  0  0  0
  6 10  1  0  0  0  0
  6 16  2  0  0  0  0
  7 15  1  0  0  0  0
  7 16  1  0  0  0  0
  7 23  1  0  0  0  0
  8 16  1  0  0  0  0
  8 28  1  0  0  0  0
  8 29  1  0  0  0  0
  9 12  1  0  0  0  0
  9 19  1  0  0  0  0
  9 20  1  0  0  0  0
 10 11  2  0  0  0  0
 11 15  1  0  0  0  0
 12 14  2  0  0  0  0
 12 21  1  0  0  0  0
 13 22  1  0  0  0  0
 14 17  1  0  0  0  0
 14 18  1  0  0  0  0
 17 26  1  0  0  0  0
 17 27  1  0  0  0  0
 18 24  1  0  0  0  0
 18 25  1  0  0  0  0
M  END
> <PUBCHEM_COMPOUND_CID>
135425312

> <PUBCHEM_CONFORMER_RMSD>
0.6

> <PUBCHEM_CONFORMER_DIVERSEORDER>
2
76
26
84
62
33
93
74
75
17
65
38
7
27
88
86
37
13
20
70
55
78
8
45
19
16
72
59
10
15
80
69
94
92
43
50
82
12
53
89
41
81
21
24
57
3
14
56
64
71
61
66
44
51
36
85
23
87
28
1
4
79
22
48
47
40
83
39
54
73
11
52
29
63
34
67
31
35
77
9
32
42
58
90
60
5
46
18
91
68
6
49
30
25

> <PUBCHEM_MMFF94_PARTIAL_CHARGES>
25
1 -0.57
10 -0.03
11 0.14
12 -0.29
13 0.04
14 -0.28
15 0.72
16 0.56
17 0.42
18 0.42
2 -0.68
21 0.15
22 0.15
23 0.37
28 0.4
29 0.4
3 -0.68
30 0.4
31 0.4
4 0.05
5 -0.57
6 -0.58
7 -0.49
8 -0.85
9 0.39

> <PUBCHEM_EFFECTIVE_ROTOR_COUNT>
4

> <PUBCHEM_PHARMACOPHORE_FEATURES>
10
1 1 acceptor
1 2 acceptor
1 2 donor
1 3 acceptor
1 3 donor
1 7 donor
1 8 donor
3 4 5 13 cation
5 4 5 10 11 13 rings
6 6 7 10 11 15 16 rings

> <PUBCHEM_HEAVY_ATOM_COUNT>
18

> <PUBCHEM_ATOM_DEF_STEREO_COUNT>
0

> <PUBCHEM_ATOM_UDEF_STEREO_COUNT>
0

> <PUBCHEM_BOND_DEF_STEREO_COUNT>
0

> <PUBCHEM_BOND_UDEF_STEREO_COUNT>
0

> <PUBCHEM_ISOTOPIC_ATOM_COUNT>
0

> <PUBCHEM_COMPONENT_COUNT>
1

> <PUBCHEM_CACTVS_TAUTO_COUNT>
-1

> <PUBCHEM_CONFORMER_ID>
08126D2000000002

> <PUBCHEM_MMFF94_ENERGY>
28.1916

> <PUBCHEM_FEATURE_SELFOVERLAP>
50.925

> <PUBCHEM_SHAPE_FINGERPRINT>
10967382 1 18410006633204867070
11132069 177 18340475712481707762
11471102 22 18335426750623305176
12251169 10 18343586222439868693
12553582 1 18410573950860317319
12596599 1 18059863895390928847
13140716 1 18337674246832274130
14178342 30 18123184611252906792
14251717 144 18410567405261618814
14787075 74 17702085058181156240
15279307 12 18201164351211745951
15375462 189 18343866627990854401
16945 1 18410853231230273300
19050596 39 18272370901490141081
19433438 48 18201147815292315543
19591789 44 18410288095755598742
200 152 18272354374698774325
20028762 73 18200590414184284591
20261772 1 18413389825993498122
20645477 70 18261662745089117237
22445834 79 18341900658303510721
2255824 54 18336836397613500084
2334 1 18049440640954813470
23557571 272 15430032141680565245
2748010 2 18119255210008147406

> <PUBCHEM_SHAPE_MULTIPOLES>
327.92
7.42
2.65
0.94
4.58
0.71
0.04
0.98
2.24
-1.45
-0.42
0.96
0.05
-0.4

> <PUBCHEM_SHAPE_SELFOVERLAP>
692.717

> <PUBCHEM_SHAPE_VOLUME>
182.9

> <PUBCHEM_COORDINATE_TYPE>
2
5
10

$$$$
