REMARK  Name = 135403802
REMARK  4 active torsions:
REMARK  status: ('A' for Active; 'I' for Inactive)
REMARK    1  A    between atoms: C_3  and  O_19
REMARK    2  A    between atoms: C_14  and  O_21
REMARK    3  A    between atoms: C_15  and  O_23
REMARK    4  A    between atoms: C_16  and  O_25
REMARK                            x       y       z     vdW  Elec       q    Type
REMARK                         _______ _______ _______ _____ _____    ______ ____
ROOT
ATOM      1  O   UNL     1       2.338   1.906  -0.089  0.00  0.00    -0.469 OA
ATOM      2  O   UNL     1       4.820  -2.123   0.068  0.00  0.00    -0.283 OA
ATOM      3  C   UNL     1      -0.068   1.881  -0.136  0.00  0.00    +0.151 C 
ATOM      4  C   UNL     1      -1.387   2.257   0.556  0.00  0.00    +0.061 C 
ATOM      5  C   UNL     1      -0.006   0.366  -0.101  0.00  0.00    +0.008 C 
ATOM      6  C   UNL     1      -1.406  -0.079  -0.051  0.00  0.00    -0.002 C 
ATOM      7  C   UNL     1      -2.202   1.016   0.322  0.00  0.00    -0.016 C 
ATOM      8  C   UNL     1       1.170   2.461   0.528  0.00  0.00    +0.237 C 
ATOM      9  C   UNL     1       1.176  -0.278   0.019  0.00  0.00    +0.036 C 
ATOM     10  C   UNL     1       2.418   0.520  -0.005  0.00  0.00    +0.175 C 
ATOM     11  C   UNL     1      -2.004  -1.293  -0.354  0.00  0.00    +0.039 C 
ATOM     12  C   UNL     1      -3.578   0.900   0.461  0.00  0.00    +0.036 C 
ATOM     13  C   UNL     1       1.289  -1.716   0.222  0.00  0.00    +0.006 C 
ATOM     14  C   UNL     1      -3.392  -1.417  -0.227  0.00  0.00    +0.167 C 
ATOM     15  C   UNL     1      -4.173  -0.330   0.186  0.00  0.00    +0.167 C 
ATOM     16  C   UNL     1       3.623  -0.072   0.009  0.00  0.00    +0.207 C 
ATOM     17  C   UNL     1       2.477  -2.331   0.251  0.00  0.00    +0.045 C 
ATOM     18  C   UNL     1       3.733  -1.556   0.099  0.00  0.00    +0.232 C 
ENDROOT
BRANCH   3  19
ATOM     19  O   UNL     1      -0.115   2.300  -1.502  0.00  0.00    -0.379 OA
ATOM     20  H   UNL     1      -0.905   1.931  -1.927  0.00  0.00    +0.211 HD
ENDBRANCH   3  19
BRANCH  14  21
ATOM     21  O   UNL     1      -3.980  -2.613  -0.517  0.00  0.00    -0.503 OA
ATOM     22  H   UNL     1      -3.455  -3.338  -0.793  0.00  0.00    +0.292 HD
ENDBRANCH  14  21
BRANCH  15  23
ATOM     23  O   UNL     1      -5.524  -0.462   0.311  0.00  0.00    -0.503 OA
ATOM     24  H   UNL     1      -6.042   0.268   0.587  0.00  0.00    +0.292 HD
ENDBRANCH  15  23
BRANCH  16  25
ATOM     25  O   UNL     1       4.790   0.661  -0.048  0.00  0.00    -0.501 OA
ATOM     26  H   UNL     1       4.753   1.596  -0.106  0.00  0.00    +0.292 HD
ENDBRANCH  16  25
TORSDOF 4
