135410347
  -OEChem-03292013293D

 31 33  0     1  0  0  0  0  0999 V2000
   -0.3135   -3.5132    0.6433 Cl  0  0  0  0  0  0  0  0  0  0  0  0
    1.6130    0.5156    1.0519 O   0  0  0  0  0  0  0  0  0  0  0  0
    2.1845   -2.1353   -1.3200 O   0  0  0  0  0  0  0  0  0  0  0  0
    4.1399   -0.9102    0.1796 O   0  0  0  0  0  0  0  0  0  0  0  0
    1.9134    3.2575    0.5589 O   0  0  0  0  0  0  0  0  0  0  0  0
   -4.6727   -0.0109   -0.2731 O   0  0  0  0  0  0  0  0  0  0  0  0
   -0.2675   -0.8524    0.3105 N   0  0  0  0  0  0  0  0  0  0  0  0
   -2.3129   -1.7526    0.2029 N   0  0  0  0  0  0  0  0  0  0  0  0
   -0.7950    1.4867   -0.0438 N   0  0  0  0  0  0  0  0  0  0  0  0
   -3.1655    1.7711   -0.3360 N   0  0  0  0  0  0  0  0  0  0  0  0
    1.9680   -0.8109   -0.8757 C   0  0  1  0  0  0  0  0  0  0  0  0
    1.2316   -0.7426    0.4582 C   0  0  1  0  0  0  0  0  0  0  0  0
    3.2544   -0.0731   -0.5628 C   0  0  1  0  0  0  0  0  0  0  0  0
    2.7711    1.0368    0.3621 C   0  0  1  0  0  0  0  0  0  0  0  0
    2.3542    2.2967   -0.3843 C   0  0  0  0  0  0  0  0  0  0  0  0
   -1.1276    0.1816    0.0861 C   0  0  0  0  0  0  0  0  0  0  0  0
   -1.0277   -1.9950    0.3726 C   0  0  0  0  0  0  0  0  0  0  0  0
   -2.3725   -0.4018    0.0254 C   0  0  0  0  0  0  0  0  0  0  0  0
   -3.5301    0.4243   -0.2047 C   0  0  0  0  0  0  0  0  0  0  0  0
   -1.8451    2.2276   -0.2512 C   0  0  0  0  0  0  0  0  0  0  0  0
    1.4070   -0.2759   -1.6518 H   0  0  0  0  0  0  0  0  0  0  0  0
    1.5298   -1.5372    1.1502 H   0  0  0  0  0  0  0  0  0  0  0  0
    3.7859    0.2712   -1.4545 H   0  0  0  0  0  0  0  0  0  0  0  0
    3.5072    1.2895    1.1337 H   0  0  0  0  0  0  0  0  0  0  0  0
    1.5401    2.1084   -1.0888 H   0  0  0  0  0  0  0  0  0  0  0  0
    3.2038    2.7152   -0.9334 H   0  0  0  0  0  0  0  0  0  0  0  0
    2.7498   -2.0888   -2.1098 H   0  0  0  0  0  0  0  0  0  0  0  0
    4.9314   -0.3846    0.3869 H   0  0  0  0  0  0  0  0  0  0  0  0
    1.6570    4.0520    0.0604 H   0  0  0  0  0  0  0  0  0  0  0  0
   -1.7628    3.3178   -0.3807 H   0  0  0  0  0  0  0  0  0  0  0  0
   -3.9021    2.4509   -0.5018 H   0  0  0  0  0  0  0  0  0  0  0  0
  1 17  1  0  0  0  0
  2 12  1  0  0  0  0
  2 14  1  0  0  0  0
  3 11  1  0  0  0  0
  3 27  1  0  0  0  0
  4 13  1  0  0  0  0
  4 28  1  0  0  0  0
  5 15  1  0  0  0  0
  5 29  1  0  0  0  0
  6 19  2  0  0  0  0
  7 12  1  0  0  0  0
  7 16  1  0  0  0  0
  7 17  1  0  0  0  0
  8 17  2  0  0  0  0
  8 18  1  0  0  0  0
  9 16  1  0  0  0  0
  9 20  2  0  0  0  0
 10 19  1  0  0  0  0
 10 20  1  0  0  0  0
 10 31  1  0  0  0  0
 11 12  1  0  0  0  0
 11 13  1  0  0  0  0
 11 21  1  0  0  0  0
 12 22  1  0  0  0  0
 13 14  1  0  0  0  0
 13 23  1  0  0  0  0
 14 15  1  0  0  0  0
 14 24  1  0  0  0  0
 15 25  1  0  0  0  0
 15 26  1  0  0  0  0
 16 18  2  0  0  0  0
 18 19  1  0  0  0  0
 20 30  1  0  0  0  0
M  END
> <PUBCHEM_COMPOUND_CID>
135410347

> <PUBCHEM_CONFORMER_RMSD>
0.6

> <PUBCHEM_CONFORMER_DIVERSEORDER>
1
7
10
12
9
11
2
6
3
8
5
4

> <PUBCHEM_MMFF94_PARTIAL_CHARGES>
25
1 -0.12
10 -0.49
11 0.28
12 0.54
13 0.28
14 0.28
15 0.28
16 -0.03
17 0.31
18 0.14
19 0.72
2 -0.56
20 0.45
27 0.4
28 0.4
29 0.4
3 -0.68
30 0.06
31 0.37
4 -0.68
5 -0.68
6 -0.57
7 0.05
8 -0.57
9 -0.58

> <PUBCHEM_EFFECTIVE_ROTOR_COUNT>
3

> <PUBCHEM_PHARMACOPHORE_FEATURES>
13
1 10 donor
1 2 acceptor
1 3 acceptor
1 3 donor
1 4 acceptor
1 4 donor
1 5 acceptor
1 5 donor
1 6 acceptor
3 7 8 17 cation
5 2 11 12 13 14 rings
5 7 8 16 17 18 rings
6 9 10 16 18 19 20 rings

> <PUBCHEM_HEAVY_ATOM_COUNT>
20

> <PUBCHEM_ATOM_DEF_STEREO_COUNT>
4

> <PUBCHEM_ATOM_UDEF_STEREO_COUNT>
0

> <PUBCHEM_BOND_DEF_STEREO_COUNT>
0

> <PUBCHEM_BOND_UDEF_STEREO_COUNT>
0

> <PUBCHEM_ISOTOPIC_ATOM_COUNT>
0

> <PUBCHEM_COMPONENT_COUNT>
1

> <PUBCHEM_CACTVS_TAUTO_COUNT>
-1

> <PUBCHEM_CONFORMER_ID>
081232AB00000001

> <PUBCHEM_MMFF94_ENERGY>
48.33

> <PUBCHEM_FEATURE_SELFOVERLAP>
66.128

> <PUBCHEM_SHAPE_FINGERPRINT>
10608611 8 18339080509456434576
10616163 171 17977388557428660404
10967382 1 18409729521603582307
12173636 292 18335697282366120221
12403259 226 18335417915949274365
12403260 363 18410002226288723015
13140716 1 18336553810614371123
13897977 150 18268147733020211201
14223421 5 18049446138581543616
14250199 8 18342176669860326853
14648413 74 18339645645811966720
15196674 1 18337107964401040181
15375462 6 17978231887495429798
16945 1 18411708676914494450
17802600 8 18335979796324281916
18186145 218 18339642231318312549
19591789 44 18336828684353065067
200 152 17275101708639652055
20510252 161 18339083812602725227
20905425 154 17905898320038491924
21501502 16 18339644567590442044
21524375 3 18186801335928264635
22802520 49 18340496641683313474
2334 1 18049726513914614689
23402539 116 18339912741074731158
23419403 2 13961275208566423132
23557571 272 18122074366385384422
23559900 14 18341327872948561786
238 59 17976221743811114925
2748010 2 17979924035573961970
495365 180 17703217537608527120
5262128 65 17844823489735992732
633830 44 18341890767278593525
69090 78 18343016696844168071
7097593 13 17970601130870023410
7364860 26 18342457084133342912
74978 22 18336264625970864834
7832392 63 17908706124864897969
81228 2 17899136297805657027
8809292 202 18409733984349091370
9709674 26 18341336659935224159
9981440 41 17465387817377290384

> <PUBCHEM_SHAPE_MULTIPOLES>
364.19
6.29
3.34
0.84
1.56
0.49
-0.07
-1.51
-0.81
-0.38
0.36
-0.42
0.18
0.72

> <PUBCHEM_SHAPE_SELFOVERLAP>
783.543

> <PUBCHEM_SHAPE_VOLUME>
199.3

> <PUBCHEM_COORDINATE_TYPE>
2
5
10

$$$$
