135400895
  -OEChem-03292013293D

 29 31  0     1  0  0  0  0  0999 V2000
    1.9952   -1.2879    0.4045 O   0  0  0  0  0  0  0  0  0  0  0  0
    3.4402    0.0599   -0.8592 O   0  0  0  0  0  0  0  0  0  0  0  0
    4.6871    0.9153    1.5071 O   0  0  0  0  0  0  0  0  0  0  0  0
   -3.5805    2.1946    0.3208 O   0  0  0  0  0  0  0  0  0  0  0  0
    0.2785    0.0360   -0.6085 N   0  0  0  0  0  0  0  0  0  0  0  0
   -0.7150    2.0330   -0.4449 N   0  0  0  0  0  0  0  0  0  0  0  0
   -1.5641   -1.4249   -0.0337 N   0  0  0  0  0  0  0  0  0  0  0  0
   -3.5309   -0.1377    0.4302 N   0  0  0  0  0  0  0  0  0  0  0  0
   -3.5721   -2.4878    0.5645 N   0  0  0  0  0  0  0  0  0  0  0  0
    1.3703   -0.9839   -0.8506 C   0  0  1  0  0  0  0  0  0  0  0  0
    2.5291   -0.5869   -1.7456 C   0  0  0  0  0  0  0  0  0  0  0  0
    3.2750   -0.6441    0.3750 C   0  0  1  0  0  0  0  0  0  0  0  0
   -1.0133   -0.2092   -0.2465 C   0  0  0  0  0  0  0  0  0  0  0  0
    0.4092    1.3991   -0.7156 C   0  0  0  0  0  0  0  0  0  0  0  0
   -1.5945    1.0323   -0.1546 C   0  0  0  0  0  0  0  0  0  0  0  0
    3.3986    0.3216    1.5367 C   0  0  0  0  0  0  0  0  0  0  0  0
   -2.9794    1.1331    0.2144 C   0  0  0  0  0  0  0  0  0  0  0  0
   -2.8333   -1.3625    0.3061 C   0  0  0  0  0  0  0  0  0  0  0  0
    0.8498   -1.8664   -1.2382 H   0  0  0  0  0  0  0  0  0  0  0  0
    3.0322   -1.4720   -2.1515 H   0  0  0  0  0  0  0  0  0  0  0  0
    2.2557    0.0755   -2.5711 H   0  0  0  0  0  0  0  0  0  0  0  0
    4.0540   -1.4134    0.4303 H   0  0  0  0  0  0  0  0  0  0  0  0
    1.3394    1.8776   -0.9885 H   0  0  0  0  0  0  0  0  0  0  0  0
    3.2560   -0.1946    2.4915 H   0  0  0  0  0  0  0  0  0  0  0  0
    2.6516    1.1187    1.4637 H   0  0  0  0  0  0  0  0  0  0  0  0
   -4.5101   -0.1819    0.6971 H   0  0  0  0  0  0  0  0  0  0  0  0
    4.7369    1.5275    2.2609 H   0  0  0  0  0  0  0  0  0  0  0  0
   -3.1600   -3.4123    0.5015 H   0  0  0  0  0  0  0  0  0  0  0  0
   -4.5503   -2.4300    0.8257 H   0  0  0  0  0  0  0  0  0  0  0  0
  1 10  1  0  0  0  0
  1 12  1  0  0  0  0
  2 11  1  0  0  0  0
  2 12  1  0  0  0  0
  3 16  1  0  0  0  0
  3 27  1  0  0  0  0
  4 17  2  0  0  0  0
  5 10  1  0  0  0  0
  5 13  1  0  0  0  0
  5 14  1  0  0  0  0
  6 14  2  0  0  0  0
  6 15  1  0  0  0  0
  7 13  1  0  0  0  0
  7 18  2  0  0  0  0
  8 17  1  0  0  0  0
  8 18  1  0  0  0  0
  8 26  1  0  0  0  0
  9 18  1  0  0  0  0
  9 28  1  0  0  0  0
  9 29  1  0  0  0  0
 10 11  1  0  0  0  0
 10 19  1  0  0  0  0
 11 20  1  0  0  0  0
 11 21  1  0  0  0  0
 12 16  1  0  0  0  0
 12 22  1  0  0  0  0
 13 15  2  0  0  0  0
 14 23  1  0  0  0  0
 15 17  1  0  0  0  0
 16 24  1  0  0  0  0
 16 25  1  0  0  0  0
M  END
> <PUBCHEM_COMPOUND_CID>
135400895

> <PUBCHEM_CONFORMER_RMSD>
0.6

> <PUBCHEM_CONFORMER_DIVERSEORDER>
1
7
5
16
11
9
3
6
17
2
4
12
14
15
13
8
10

> <PUBCHEM_MMFF94_PARTIAL_CHARGES>
23
1 -0.56
10 0.54
11 0.28
12 0.56
13 -0.03
14 0.04
15 0.14
16 0.28
17 0.72
18 0.56
2 -0.56
23 0.15
26 0.37
27 0.4
28 0.4
29 0.4
3 -0.68
4 -0.57
5 0.05
6 -0.57
7 -0.58
8 -0.49
9 -0.85

> <PUBCHEM_EFFECTIVE_ROTOR_COUNT>
3

> <PUBCHEM_PHARMACOPHORE_FEATURES>
11
1 1 acceptor
1 2 acceptor
1 3 acceptor
1 3 donor
1 4 acceptor
1 8 donor
1 9 donor
3 5 6 14 cation
5 1 2 10 11 12 rings
5 5 6 13 14 15 rings
6 7 8 13 15 17 18 rings

> <PUBCHEM_HEAVY_ATOM_COUNT>
18

> <PUBCHEM_ATOM_DEF_STEREO_COUNT>
2

> <PUBCHEM_ATOM_UDEF_STEREO_COUNT>
0

> <PUBCHEM_BOND_DEF_STEREO_COUNT>
0

> <PUBCHEM_BOND_UDEF_STEREO_COUNT>
0

> <PUBCHEM_ISOTOPIC_ATOM_COUNT>
0

> <PUBCHEM_COMPONENT_COUNT>
1

> <PUBCHEM_CACTVS_TAUTO_COUNT>
-1

> <PUBCHEM_CONFORMER_ID>
08120DBF00000001

> <PUBCHEM_MMFF94_ENERGY>
39.6856

> <PUBCHEM_FEATURE_SELFOVERLAP>
56.045

> <PUBCHEM_SHAPE_FINGERPRINT>
11132069 177 18335421235858832221
12382932 28 18411420579045342347
12553582 1 18191883412111561715
12824470 246 16878513465470772587
13083527 12 18052247694414760775
13214271 11 18343012302855059028
13296908 3 18341622498624834478
13538477 17 18114753633109978542
14081887 123 18412540994279045808
14178342 30 18335139769540829427
14341114 328 18113610214696609176
15219456 202 17917711288383807262
15375358 24 18272082760550120117
15375462 189 17821737138666563603
16945 1 18262806155313966037
17804303 29 18049726209310176974
18175812 5 18131634452469296254
200 152 15574706998006700906
20510252 161 18200039413314573049
20528008 55 18270960137724449357
20715346 28 17917438609215425415
21069387 34 15357689791036787890
21452121 199 17904763628687106619
21501502 16 18189630482573362685
21501925 9 18337672030861218815
22959321 60 18131345328213879560
23175994 123 16986607343019547990
23419403 2 17829295297739556205
23532345 42 18338800116874714542
23557571 272 18342186565343469182
23559900 14 18268158569591776438
2748010 2 18269010695271948799
3009799 131 18265030579607629895
474 4 14331967514225580802
495365 180 17344614946866188239
5104073 3 18341333305808190714
53917941 68 18265033762305087757
5902787 121 18188495790657149943
6049 1 17917725569134235878
633830 44 14548473439265678366
7097593 13 17824812348462722202
7615 1 17676493860187234406
77492 1 17386016065120263982
81228 2 18264784172411039237
90316 7 17968372342921839140
9882013 296 18129938004785576674

> <PUBCHEM_SHAPE_MULTIPOLES>
322.05
7.52
2.02
1.22
2.33
0.01
0
0.07
-2.85
-2.23
-0.15
1.59
-0.02
0.78

> <PUBCHEM_SHAPE_SELFOVERLAP>
700.082

> <PUBCHEM_SHAPE_VOLUME>
173.7

> <PUBCHEM_COORDINATE_TYPE>
2
5
10

$$$$
