135449518
  -OEChem-03292013293D

 35 37  0     1  0  0  0  0  0999 V2000
    4.7005   -1.2010    0.6249 O   0  0  0  0  0  0  0  0  0  0  0  0
    5.0462    1.9279    1.0194 O   0  0  0  0  0  0  0  0  0  0  0  0
   -4.9604    0.1938    1.3359 O   0  0  0  0  0  0  0  0  0  0  0  0
    1.5597   -0.8613   -0.3512 N   0  0  2  0  0  0  0  0  0  0  0  0
   -2.5670   -1.6006    0.9656 N   0  0  0  0  0  0  0  0  0  0  0  0
   -1.8026    1.0930   -1.2312 N   0  0  0  0  0  0  0  0  0  0  0  0
   -3.9274    1.5878   -0.2035 N   0  0  0  0  0  0  0  0  0  0  0  0
    3.1245    0.6174    0.4744 C   0  0  2  0  0  0  0  0  0  0  0  0
    3.8961   -0.4656   -0.2848 C   0  0  2  0  0  0  0  0  0  0  0  0
    1.7433    0.5787   -0.1664 C   0  0  0  0  0  0  0  0  0  0  0  0
    2.8217   -1.3548   -0.9157 C   0  0  0  0  0  0  0  0  0  0  0  0
    0.4117   -1.1755   -1.1881 C   0  0  0  0  0  0  0  0  0  0  0  0
    3.7775    1.9888    0.3906 C   0  0  0  0  0  0  0  0  0  0  0  0
   -0.8803   -1.1007   -0.4188 C   0  0  0  0  0  0  0  0  0  0  0  0
   -1.8433   -0.0784   -0.4603 C   0  0  0  0  0  0  0  0  0  0  0  0
   -1.3556   -2.0377    0.4780 C   0  0  0  0  0  0  0  0  0  0  0  0
   -2.8735   -0.3963    0.3928 C   0  0  0  0  0  0  0  0  0  0  0  0
   -4.0224    0.4411    0.5858 C   0  0  0  0  0  0  0  0  0  0  0  0
   -2.8488    1.8434   -1.0475 C   0  0  0  0  0  0  0  0  0  0  0  0
    3.0552    0.3310    1.5342 H   0  0  0  0  0  0  0  0  0  0  0  0
    4.5472   -0.0436   -1.0589 H   0  0  0  0  0  0  0  0  0  0  0  0
    0.9899    1.0131    0.4986 H   0  0  0  0  0  0  0  0  0  0  0  0
    1.7326    1.1223   -1.1201 H   0  0  0  0  0  0  0  0  0  0  0  0
    2.8408   -1.2150   -2.0043 H   0  0  0  0  0  0  0  0  0  0  0  0
    2.9630   -2.4175   -0.6944 H   0  0  0  0  0  0  0  0  0  0  0  0
    0.3694   -0.5433   -2.0844 H   0  0  0  0  0  0  0  0  0  0  0  0
    0.4968   -2.2089   -1.5529 H   0  0  0  0  0  0  0  0  0  0  0  0
    3.1677    2.7372    0.9071 H   0  0  0  0  0  0  0  0  0  0  0  0
    3.9150    2.3062   -0.6485 H   0  0  0  0  0  0  0  0  0  0  0  0
    5.1388   -1.9076    0.1206 H   0  0  0  0  0  0  0  0  0  0  0  0
   -0.9432   -2.9783    0.8161 H   0  0  0  0  0  0  0  0  0  0  0  0
    5.4395    2.8150    0.9569 H   0  0  0  0  0  0  0  0  0  0  0  0
   -3.1360   -2.0944    1.6396 H   0  0  0  0  0  0  0  0  0  0  0  0
   -4.6821    2.2663   -0.1581 H   0  0  0  0  0  0  0  0  0  0  0  0
   -2.9564    2.7977   -1.5865 H   0  0  0  0  0  0  0  0  0  0  0  0
  1  9  1  0  0  0  0
  1 30  1  0  0  0  0
  2 13  1  0  0  0  0
  2 32  1  0  0  0  0
  3 18  2  0  0  0  0
  4 10  1  0  0  0  0
  4 11  1  0  0  0  0
  4 12  1  0  0  0  0
  5 16  1  0  0  0  0
  5 17  1  0  0  0  0
  5 33  1  0  0  0  0
  6 15  1  0  0  0  0
  6 19  2  0  0  0  0
  7 18  1  0  0  0  0
  7 19  1  0  0  0  0
  7 34  1  0  0  0  0
  8  9  1  0  0  0  0
  8 10  1  0  0  0  0
  8 13  1  0  0  0  0
  8 20  1  0  0  0  0
  9 11  1  0  0  0  0
  9 21  1  0  0  0  0
 10 22  1  0  0  0  0
 10 23  1  0  0  0  0
 11 24  1  0  0  0  0
 11 25  1  0  0  0  0
 12 14  1  0  0  0  0
 12 26  1  0  0  0  0
 12 27  1  0  0  0  0
 13 28  1  0  0  0  0
 13 29  1  0  0  0  0
 14 15  1  0  0  0  0
 14 16  2  0  0  0  0
 15 17  2  0  0  0  0
 16 31  1  0  0  0  0
 17 18  1  0  0  0  0
 19 35  1  0  0  0  0
M  END
> <PUBCHEM_COMPOUND_CID>
135449518

> <PUBCHEM_CONFORMER_RMSD>
0.6

> <PUBCHEM_CONFORMER_DIVERSEORDER>
2
59
43
58
42
49
35
37
61
62
47
25
46
55
15
22
11
53
24
16
17
50
28
31
44
5
34
32
14
56
54
57
52
27
7
23
39
4
10
40
60
45
21
18
51
41
36
29
6
8
38
3
26
30
48
1
12
9
19
33
20
13

> <PUBCHEM_MMFF94_PARTIAL_CHARGES>
24
1 -0.68
10 0.27
11 0.27
12 0.45
13 0.28
14 -0.18
15 0.12
16 -0.3
17 -0.24
18 0.71
19 0.45
2 -0.68
3 -0.57
30 0.4
31 0.15
32 0.4
33 0.27
34 0.37
35 0.06
4 -0.81
5 0.03
6 -0.57
7 -0.49
9 0.28

> <PUBCHEM_EFFECTIVE_ROTOR_COUNT>
4

> <PUBCHEM_PHARMACOPHORE_FEATURES>
12
1 1 acceptor
1 1 donor
1 2 acceptor
1 2 donor
1 3 acceptor
1 4 cation
1 5 cation
1 5 donor
1 7 donor
5 4 8 9 10 11 rings
5 5 14 15 16 17 rings
6 6 7 15 17 18 19 rings

> <PUBCHEM_HEAVY_ATOM_COUNT>
19

> <PUBCHEM_ATOM_DEF_STEREO_COUNT>
2

> <PUBCHEM_ATOM_UDEF_STEREO_COUNT>
0

> <PUBCHEM_BOND_DEF_STEREO_COUNT>
0

> <PUBCHEM_BOND_UDEF_STEREO_COUNT>
0

> <PUBCHEM_ISOTOPIC_ATOM_COUNT>
0

> <PUBCHEM_COMPONENT_COUNT>
1

> <PUBCHEM_CACTVS_TAUTO_COUNT>
-1

> <PUBCHEM_CONFORMER_ID>
0812CBAE00000002

> <PUBCHEM_MMFF94_ENERGY>
39.135

> <PUBCHEM_FEATURE_SELFOVERLAP>
61.016

> <PUBCHEM_SHAPE_FINGERPRINT>
10608611 8 18411135844425850556
11132069 177 18333457547326546319
11405975 8 18409163316655989482
11543360 7 11959728321998616610
12236239 1 15482670130719777855
12251169 10 18040723571183590727
12363563 72 11602810285954255376
12403259 415 18336832996257611221
12507560 40 18408319999663648988
12596602 18 16081377383492767116
12633257 1 18409163299138542650
12670546 56 18186791487409888978
12824470 246 14564243833722828227
12892183 10 17749105573725881290
13004483 165 17910381016108525719
13583140 156 17532346778095753148
13675066 3 18187085040013840906
14178342 30 17822573923093157874
14289901 80 17894917386048639754
14341114 176 18260271845700189044
14420673 8 17534619318397059282
15163728 17 14978302140305937425
15219456 202 18412262848260581526
15342168 16 17918281969167741061
15653759 3 18187086143815083430
1813 80 15141249763431986126
18186145 218 18059577944836781926
193927 3 12108054545167267800
19433438 15 16702299035911700308
20645477 56 18408887321435030238
20645477 70 17703516519388862134
20871999 31 12391217289416699037
21033648 29 18114454570305916653
21065198 57 18408603660747389522
21065199 12 18335139821328408866
21637258 2 14563098099883800849
22646028 28 12107776411374276832
23402539 116 18333168371774550647
23559900 14 18188222991630922566
27216 239 18339920527818621129
351380 180 18339638949752152503
4259306 186 10737284662290757696
474 4 17846221024907668071
5104073 3 18411420639391565914
57724786 102 18059864969349283808
633830 44 17346331357557984191
90316 7 17022901220771632517

> <PUBCHEM_SHAPE_MULTIPOLES>
353.48
9.99
2.11
1.12
3.59
0.35
-0.06
3.89
3.32
0.62
0.03
-0.4
0.04
1.37

> <PUBCHEM_SHAPE_SELFOVERLAP>
762.518

> <PUBCHEM_SHAPE_VOLUME>
194.2

> <PUBCHEM_COORDINATE_TYPE>
2
5
10

$$$$
