135465546
  -OEChem-03292013293D

 35 36  0     0  0  0  0  0  0999 V2000
    4.6352    2.5725    0.1166 Cl  0  0  0  0  0  0  0  0  0  0  0  0
    6.7279    0.1106   -0.0609 Cl  0  0  0  0  0  0  0  0  0  0  0  0
   -4.7837    1.5368    0.2873 O   0  0  0  0  0  0  0  0  0  0  0  0
   -2.4975    3.1205   -0.1653 O   0  0  0  0  0  0  0  0  0  0  0  0
   -3.2473   -0.2382    0.0538 N   0  0  0  0  0  0  0  0  0  0  0  0
   -1.4319    1.0328   -0.3071 N   0  0  0  0  0  0  0  0  0  0  0  0
   -1.1421   -1.2879   -0.3020 N   0  0  0  0  0  0  0  0  0  0  0  0
    0.9217   -0.9018    0.5229 N   0  0  0  0  0  0  0  0  0  0  0  0
    0.6257   -0.9580   -1.8602 N   0  0  0  0  0  0  0  0  0  0  0  0
   -4.0775   -1.4146    0.2334 C   0  0  0  0  0  0  0  0  0  0  0  0
   -1.8964   -0.2502   -0.1905 C   0  0  0  0  0  0  0  0  0  0  0  0
   -5.1465   -1.4786   -0.8496 C   0  0  0  0  0  0  0  0  0  0  0  0
   -4.6996   -1.4228    1.6243 C   0  0  0  0  0  0  0  0  0  0  0  0
   -3.6876    1.0526    0.1015 C   0  0  0  0  0  0  0  0  0  0  0  0
   -2.4594    1.9095   -0.1424 C   0  0  0  0  0  0  0  0  0  0  0  0
    0.1929   -1.0305   -0.5513 C   0  0  0  0  0  0  0  0  0  0  0  0
    2.2962   -0.6454    0.3853 C   0  0  0  0  0  0  0  0  0  0  0  0
    2.7589    0.6690    0.3239 C   0  0  0  0  0  0  0  0  0  0  0  0
    3.1983   -1.7067    0.3096 C   0  0  0  0  0  0  0  0  0  0  0  0
    4.1237    0.9224    0.1870 C   0  0  0  0  0  0  0  0  0  0  0  0
    4.5632   -1.4533    0.1724 C   0  0  0  0  0  0  0  0  0  0  0  0
    5.0259   -0.1388    0.1112 C   0  0  0  0  0  0  0  0  0  0  0  0
   -3.4437   -2.3040    0.1391 H   0  0  0  0  0  0  0  0  0  0  0  0
   -5.8537   -0.6453   -0.7832 H   0  0  0  0  0  0  0  0  0  0  0  0
   -5.2594   -2.3494    1.7903 H   0  0  0  0  0  0  0  0  0  0  0  0
   -3.9257   -1.3545    2.3968 H   0  0  0  0  0  0  0  0  0  0  0  0
   -5.3909   -0.5868    1.7729 H   0  0  0  0  0  0  0  0  0  0  0  0
   -5.7212   -2.4076   -0.7688 H   0  0  0  0  0  0  0  0  0  0  0  0
   -4.6929   -1.4500   -1.8465 H   0  0  0  0  0  0  0  0  0  0  0  0
   -0.4742    1.3100   -0.4880 H   0  0  0  0  0  0  0  0  0  0  0  0
    2.0489    1.4911    0.3840 H   0  0  0  0  0  0  0  0  0  0  0  0
    2.8473   -2.7342    0.3568 H   0  0  0  0  0  0  0  0  0  0  0  0
    1.5941   -0.7801   -2.1019 H   0  0  0  0  0  0  0  0  0  0  0  0
   -0.0253   -1.0815   -2.6283 H   0  0  0  0  0  0  0  0  0  0  0  0
    5.2520   -2.2923    0.1146 H   0  0  0  0  0  0  0  0  0  0  0  0
  1 20  1  0  0  0  0
  2 22  1  0  0  0  0
  3 14  2  0  0  0  0
  4 15  2  0  0  0  0
  5 10  1  0  0  0  0
  5 11  1  0  0  0  0
  5 14  1  0  0  0  0
  6 11  1  0  0  0  0
  6 15  1  0  0  0  0
  6 30  1  0  0  0  0
  7 11  2  0  0  0  0
  7 16  1  0  0  0  0
  8 16  2  0  0  0  0
  8 17  1  0  0  0  0
  9 16  1  0  0  0  0
  9 33  1  0  0  0  0
  9 34  1  0  0  0  0
 10 12  1  0  0  0  0
 10 13  1  0  0  0  0
 10 23  1  0  0  0  0
 12 24  1  0  0  0  0
 12 28  1  0  0  0  0
 12 29  1  0  0  0  0
 13 25  1  0  0  0  0
 13 26  1  0  0  0  0
 13 27  1  0  0  0  0
 14 15  1  0  0  0  0
 17 18  2  0  0  0  0
 17 19  1  0  0  0  0
 18 20  1  0  0  0  0
 18 31  1  0  0  0  0
 19 21  2  0  0  0  0
 19 32  1  0  0  0  0
 20 22  2  0  0  0  0
 21 22  1  0  0  0  0
 21 35  1  0  0  0  0
M  END
> <PUBCHEM_COMPOUND_CID>
135465546

> <PUBCHEM_CONFORMER_RMSD>
0.6

> <PUBCHEM_CONFORMER_DIVERSEORDER>
1
17
23
5
21
20
11
9
16
6
22
7
10
14
12
8
13
19
15
2
3
18
4

> <PUBCHEM_MMFF94_PARTIAL_CHARGES>
26
1 -0.18
10 0.3
11 0.57
14 0.63
15 0.63
16 0.71
17 0.18
18 -0.15
19 -0.15
2 -0.18
20 0.18
21 -0.15
22 0.18
3 -0.57
30 0.37
31 0.15
32 0.15
33 0.4
34 0.4
35 0.15
4 -0.57
5 -0.42
6 -0.49
7 -0.66
8 -0.63
9 -0.85

> <PUBCHEM_EFFECTIVE_ROTOR_COUNT>
3.4

> <PUBCHEM_PHARMACOPHORE_FEATURES>
8
1 3 acceptor
1 4 acceptor
1 6 donor
1 9 donor
3 10 12 13 hydrophobe
4 7 8 9 16 cation
5 5 6 11 14 15 rings
6 17 18 19 20 21 22 rings

> <PUBCHEM_HEAVY_ATOM_COUNT>
22

> <PUBCHEM_ATOM_DEF_STEREO_COUNT>
0

> <PUBCHEM_ATOM_UDEF_STEREO_COUNT>
0

> <PUBCHEM_BOND_DEF_STEREO_COUNT>
1

> <PUBCHEM_BOND_UDEF_STEREO_COUNT>
0

> <PUBCHEM_ISOTOPIC_ATOM_COUNT>
0

> <PUBCHEM_COMPONENT_COUNT>
1

> <PUBCHEM_CACTVS_TAUTO_COUNT>
-1

> <PUBCHEM_CONFORMER_ID>
08130A4A00000001

> <PUBCHEM_MMFF94_ENERGY>
52.6715

> <PUBCHEM_FEATURE_SELFOVERLAP>
40.599

> <PUBCHEM_SHAPE_FINGERPRINT>
10366900 7 18260264170113609738
10670039 82 18261684739923173844
11045977 3 18187083996178396331
11315181 36 17603308175777675818
12107183 9 17614836314961595354
12236239 1 18272368668566109018
12403259 118 18340756066577501424
12403259 415 17632285787922214490
12596602 18 17385721439222725048
12670546 56 18335414668985945786
12892183 10 18334012787502681670
12916748 109 18410014351593446274
13073987 5 18335416834340488346
14251764 18 18114176450732054138
14341114 176 18335708182708254600
14787075 74 18115305721106958411
15183329 4 17418100867614118150
15196674 1 18411417319292135560
17349148 13 16226056590926475747
17844677 252 18412831261412591594
17980427 23 18334299764691046085
18222031 100 15791728620504149318
18927931 339 18410017645728218303
21065198 48 18260542282410599602
21065198 57 18266176132477515066
21267235 1 18411143545782409394
21315764 371 16370722690336554736
21652331 79 18339640139468798736
221357 26 18342454863766775464
23402539 116 18411694396580986023
23557571 272 18343868809934363455
23559900 14 18335696122350429706
245318 6 17026858556752892276
350125 39 18411136935627332776
4073 2 18040442079222560386
4214541 1 18410572855786113920
4325135 7 18273213118849372031
474 4 17749954483314143676
5104073 3 18335700516165219288
5281201 14 18272656718995247214
5283173 99 18115571666273477829
54446538 1 18410853287497338668
7495541 125 17917986213519736586
77779 3 18410009910238514154
90127 26 18409738347888268698
9996256 80 18342738554930897022

> <PUBCHEM_SHAPE_MULTIPOLES>
419.85
14.27
2.46
0.95
6.66
1.73
-0.07
-0.02
1.56
-0.79
0.04
-0.68
-0.37
0.22

> <PUBCHEM_SHAPE_SELFOVERLAP>
877.383

> <PUBCHEM_SHAPE_VOLUME>
240.4

> <PUBCHEM_COORDINATE_TYPE>
2
5
10

$$$$
