REMARK  Name = 135410214
REMARK  6 active torsions:
REMARK  status: ('A' for Active; 'I' for Inactive)
REMARK    1  A    between atoms: N_2  and  C_15
REMARK    2  A    between atoms: C_15  and  C_16
REMARK    3  A    between atoms: C_16  and  C_17
REMARK    4  A    between atoms: C_17  and  O_18
REMARK    5  A    between atoms: C_17  and  C_20
REMARK    6  A    between atoms: C_20  and  O_21
REMARK                            x       y       z     vdW  Elec       q    Type
REMARK                         _______ _______ _______ _____ _____    ______ ____
ROOT
ATOM      1  O   UNL     1      -4.343   0.923   0.771  0.00  0.00    -0.268 OA
ATOM      2  N   UNL     1       0.007   0.952  -0.451  0.00  0.00    -0.261 N 
ATOM      3  N   UNL     1      -1.724   2.207   0.206  0.00  0.00    -0.240 NA
ATOM      4  N   UNL     1      -1.012  -1.243  -0.459  0.00  0.00    -0.357 NA
ATOM      5  N   UNL     1      -3.309  -1.094   0.209  0.00  0.00    -0.243 N 
ATOM      6  N   UNL     1      -2.348  -3.172  -0.342  0.00  0.00    -0.321 N 
ATOM      7  C   UNL     1      -1.038   0.095  -0.272  0.00  0.00    +0.210 C 
ATOM      8  C   UNL     1      -2.082   0.893   0.130  0.00  0.00    +0.176 C 
ATOM      9  C   UNL     1      -0.455   2.211  -0.151  0.00  0.00    +0.222 C 
ATOM     10  C   UNL     1      -3.357   0.292   0.409  0.00  0.00    +0.273 C 
ATOM     11  C   UNL     1      -2.168  -1.820  -0.210  0.00  0.00    +0.239 C 
ATOM     12  H   UNL     1      -4.135  -1.605   0.373  0.00  0.00    +0.159 HD
ATOM     13  H   UNL     1      -1.599  -3.743  -0.630  0.00  0.00    +0.146 HD
ATOM     14  H   UNL     1      -3.226  -3.573  -0.148  0.00  0.00    +0.146 HD
ENDROOT
BRANCH   2  15
ATOM     15  C   UNL     1       1.346   0.619  -0.874  0.00  0.00    +0.098 C 
BRANCH  15  16
ATOM     16  C   UNL     1       2.224   0.046   0.248  0.00  0.00    +0.053 C 
BRANCH  16  17
ATOM     17  C   UNL     1       3.678  -0.214  -0.167  0.00  0.00    +0.141 C 
BRANCH  17  18
ATOM     18  O   UNL     1       4.251   1.008  -0.630  0.00  0.00    -0.382 OA
ATOM     19  H   UNL     1       3.736   1.344  -1.380  0.00  0.00    +0.210 HD
ENDBRANCH  17  18
BRANCH  17  20
ATOM     20  C   UNL     1       4.501  -0.727   1.012  0.00  0.00    +0.166 C 
BRANCH  20  21
ATOM     21  O   UNL     1       5.831  -0.975   0.570  0.00  0.00    -0.379 OA
ATOM     22  H   UNL     1       6.363  -1.302   1.313  0.00  0.00    +0.211 HD
ENDBRANCH  20  21
ENDBRANCH  17  20
ENDBRANCH  16  17
ENDBRANCH  15  16
ENDBRANCH   2  15
TORSDOF 6
