135418361
  -OEChem-03292013293D

 29 31  0     0  0  0  0  0  0999 V2000
    4.9652    0.4389   -0.6821 S   0  0  0  0  0  0  0  0  0  0  0  0
   -3.8464   -1.3567   -1.1288 O   0  0  0  0  0  0  0  0  0  0  0  0
   -1.0520   -2.0443   -0.2349 N   0  0  0  0  0  0  0  0  0  0  0  0
   -1.2771    1.3941    0.6462 N   0  0  0  0  0  0  0  0  0  0  0  0
   -3.3744    0.7751   -0.3444 N   0  0  0  0  0  0  0  0  0  0  0  0
    1.0628   -2.8998    0.3456 N   0  0  0  0  0  0  0  0  0  0  0  0
   -3.0034    2.9595    0.4154 N   0  0  0  0  0  0  0  0  0  0  0  0
    0.3125   -0.5484    0.7180 C   0  0  0  0  0  0  0  0  0  0  0  0
   -0.9158    0.0615    0.4115 C   0  0  0  0  0  0  0  0  0  0  0  0
    1.4871    0.0821    1.3519 C   0  0  0  0  0  0  0  0  0  0  0  0
   -1.7431   -0.8652   -0.1716 C   0  0  0  0  0  0  0  0  0  0  0  0
    0.2015   -1.8618    0.3048 C   0  0  0  0  0  0  0  0  0  0  0  0
    2.6347    0.3787    0.3975 C   0  0  0  0  0  0  0  0  0  0  0  0
   -3.0731   -0.5628   -0.6040 C   0  0  0  0  0  0  0  0  0  0  0  0
   -2.4954    1.6954    0.2570 C   0  0  0  0  0  0  0  0  0  0  0  0
    2.5012    1.1579   -0.7879 C   0  0  0  0  0  0  0  0  0  0  0  0
    3.9231   -0.0749    0.5759 C   0  0  0  0  0  0  0  0  0  0  0  0
    3.6926    1.2706   -1.4701 C   0  0  0  0  0  0  0  0  0  0  0  0
    1.8484   -0.5643    2.1631 H   0  0  0  0  0  0  0  0  0  0  0  0
    1.2022    1.0267    1.8334 H   0  0  0  0  0  0  0  0  0  0  0  0
   -1.4010   -2.9130   -0.6160 H   0  0  0  0  0  0  0  0  0  0  0  0
   -4.2967    1.1084   -0.6095 H   0  0  0  0  0  0  0  0  0  0  0  0
    1.9966   -2.8086    0.7335 H   0  0  0  0  0  0  0  0  0  0  0  0
    0.8231   -3.8210   -0.0081 H   0  0  0  0  0  0  0  0  0  0  0  0
    1.5829    1.6190   -1.1290 H   0  0  0  0  0  0  0  0  0  0  0  0
    4.3074   -0.6841    1.3822 H   0  0  0  0  0  0  0  0  0  0  0  0
    3.8766    1.8021   -2.3930 H   0  0  0  0  0  0  0  0  0  0  0  0
   -2.4512    3.6977    0.8382 H   0  0  0  0  0  0  0  0  0  0  0  0
   -3.9434    3.1935    0.1154 H   0  0  0  0  0  0  0  0  0  0  0  0
  1 17  1  0  0  0  0
  1 18  1  0  0  0  0
  2 14  2  0  0  0  0
  3 11  1  0  0  0  0
  3 12  1  0  0  0  0
  3 21  1  0  0  0  0
  4  9  1  0  0  0  0
  4 15  2  0  0  0  0
  5 14  1  0  0  0  0
  5 15  1  0  0  0  0
  5 22  1  0  0  0  0
  6 12  1  0  0  0  0
  6 23  1  0  0  0  0
  6 24  1  0  0  0  0
  7 15  1  0  0  0  0
  7 28  1  0  0  0  0
  7 29  1  0  0  0  0
  8  9  1  0  0  0  0
  8 10  1  0  0  0  0
  8 12  2  0  0  0  0
  9 11  2  0  0  0  0
 10 13  1  0  0  0  0
 10 19  1  0  0  0  0
 10 20  1  0  0  0  0
 11 14  1  0  0  0  0
 13 16  1  0  0  0  0
 13 17  2  0  0  0  0
 16 18  2  0  0  0  0
 16 25  1  0  0  0  0
 17 26  1  0  0  0  0
 18 27  1  0  0  0  0
M  END
> <PUBCHEM_COMPOUND_CID>
135418361

> <PUBCHEM_CONFORMER_RMSD>
0.6

> <PUBCHEM_CONFORMER_DIVERSEORDER>
1
4
6
7
8
5
3
2

> <PUBCHEM_MMFF94_PARTIAL_CHARGES>
27
1 -0.08
10 0.36
11 -0.24
12 -0.07
13 -0.18
14 0.71
15 0.56
16 -0.15
17 -0.11
18 -0.11
2 -0.57
21 0.27
22 0.37
23 0.4
24 0.4
25 0.15
26 0.15
27 0.15
28 0.4
29 0.4
3 0.03
4 -0.57
5 -0.49
6 -0.88
7 -0.85
8 -0.18
9 0.12

> <PUBCHEM_EFFECTIVE_ROTOR_COUNT>
2

> <PUBCHEM_PHARMACOPHORE_FEATURES>
10
1 2 acceptor
1 3 cation
1 3 donor
1 5 donor
1 6 cation
1 6 donor
1 7 donor
5 1 13 16 17 18 rings
5 3 8 9 11 12 rings
6 4 5 9 11 14 15 rings

> <PUBCHEM_HEAVY_ATOM_COUNT>
18

> <PUBCHEM_ATOM_DEF_STEREO_COUNT>
0

> <PUBCHEM_ATOM_UDEF_STEREO_COUNT>
0

> <PUBCHEM_BOND_DEF_STEREO_COUNT>
0

> <PUBCHEM_BOND_UDEF_STEREO_COUNT>
0

> <PUBCHEM_ISOTOPIC_ATOM_COUNT>
0

> <PUBCHEM_COMPONENT_COUNT>
1

> <PUBCHEM_CACTVS_TAUTO_COUNT>
-1

> <PUBCHEM_CONFORMER_ID>
081251F900000001

> <PUBCHEM_MMFF94_ENERGY>
28.9939

> <PUBCHEM_FEATURE_SELFOVERLAP>
50.985

> <PUBCHEM_SHAPE_FINGERPRINT>
10062212 137 18338506439875051138
10498660 4 18410847759489716197
10756046 5 18200031711952869111
11221954 11 16735492080657735413
12173636 292 18337672030961380796
12202030 40 14404316508566131725
13583140 156 16515686675386894114
14787075 74 17896321501179149187
15775835 57 17676768764275438588
16752209 62 18412819213749654202
16945 1 18341597266098106859
18186145 218 17775568645627311184
20300324 65 18343021128933841412
20645476 183 18041837436729648666
20871999 31 18272096032294684664
21501502 16 18268137661474863635
21524375 3 18186800279445028410
21637258 2 15195277681782333391
231179 274 16805594876650421846
23366157 5 18044093441000078514
23402539 116 18342735222030987732
23526113 38 17346313877526568346
23557571 272 17775006799248525312
23559900 14 18060137631727875104
25147074 1 18269543941437038587
2838139 119 16662303179855320693
474 4 18040718021848356904
57096353 35 18340192064330868343
57177213 63 18409162190926242779
5902787 121 9151163268700459674
633830 44 17749963158836578880

> <PUBCHEM_SHAPE_MULTIPOLES>
343.51
7.87
2.42
1.1
4.56
0.2
0.07
-2.79
2.6
-1.77
-0.12
0.45
-0.11
-1.25

> <PUBCHEM_SHAPE_SELFOVERLAP>
747.47

> <PUBCHEM_SHAPE_VOLUME>
190.1

> <PUBCHEM_COORDINATE_TYPE>
2
5
10

$$$$
