REMARK  Name = 135409279
REMARK  3 active torsions:
REMARK  status: ('A' for Active; 'I' for Inactive)
REMARK    1  A    between atoms: C_1  and  C_10
REMARK    2  A    between atoms: C_2  and  C_19
REMARK    3  A    between atoms: C_4  and  O_25
REMARK                            x       y       z     vdW  Elec       q    Type
REMARK                         _______ _______ _______ _____ _____    ______ ____
ROOT
ATOM      1  C   UNL     1       1.084   0.562  -0.258  0.00  0.00    +0.064 C 
ATOM      2  C   UNL     1      -1.309   0.827  -0.051  0.00  0.00    +0.031 C 
ATOM      3  C   UNL     1      -0.172   0.021   0.016  0.00  0.00    +0.008 C 
ATOM      4  C   UNL     1       1.204   1.909  -0.599  0.00  0.00    +0.136 C 
ATOM      5  C   UNL     1      -1.189   2.175  -0.392  0.00  0.00    +0.006 C 
ATOM      6  C   UNL     1       0.067   2.716  -0.666  0.00  0.00    +0.037 C 
ENDROOT
BRANCH   1  10
ATOM      7  N   UNL     1       3.185   0.089   0.713  0.00  0.00    -0.338 NA
ATOM      8  N   UNL     1       4.503  -1.818   0.055  0.00  0.00    -0.170 NA
ATOM      9  N   UNL     1       5.269  -0.336   1.704  0.00  0.00    -0.293 N 
ATOM     10  C   UNL     1       2.252  -0.292  -0.184  0.00  0.00    +0.149 C 
ATOM     11  C   UNL     1       2.371  -1.409  -0.986  0.00  0.00    +0.055 C 
ATOM     12  C   UNL     1       3.529  -2.142  -0.822  0.00  0.00    +0.114 C 
ATOM     13  C   UNL     1       4.269  -0.707   0.779  0.00  0.00    +0.141 C 
ATOM     14  H   UNL     1       5.152   0.468   2.260  0.00  0.00    +0.155 HD
ATOM     15  H   UNL     1       6.085  -0.881   1.792  0.00  0.00    +0.155 HD
ENDBRANCH   1  10
BRANCH   2  19
ATOM     16  N   UNL     1      -2.987  -0.748  -0.575  0.00  0.00    -0.338 NA
ATOM     17  N   UNL     1      -5.052  -0.879   0.661  0.00  0.00    -0.170 NA
ATOM     18  N   UNL     1      -4.628  -2.329  -1.135  0.00  0.00    -0.293 N 
ATOM     19  C   UNL     1      -2.612   0.267   0.232  0.00  0.00    +0.146 C 
ATOM     20  C   UNL     1      -3.391   0.757   1.260  0.00  0.00    +0.055 C 
ATOM     21  C   UNL     1      -4.614   0.140   1.429  0.00  0.00    +0.114 C 
ATOM     22  C   UNL     1      -4.201  -1.267  -0.308  0.00  0.00    +0.141 C 
ATOM     23  H   UNL     1      -4.046  -2.653  -1.859  0.00  0.00    +0.155 HD
ATOM     24  H   UNL     1      -5.508  -2.745  -0.986  0.00  0.00    +0.155 HD
ENDBRANCH   2  19
BRANCH   4  25
ATOM     25  O   UNL     1       2.419   2.464  -0.871  0.00  0.00    -0.505 OA
ATOM     26  H   UNL     1       3.194   1.938  -0.831  0.00  0.00    +0.292 HD
ENDBRANCH   4  25
TORSDOF 3
