REMARK  Name = 135430649
REMARK  5 active torsions:
REMARK  status: ('A' for Active; 'I' for Inactive)
REMARK    1  A    between atoms: N_2  and  C_22
REMARK    2  A    between atoms: N_7  and  C_17
REMARK    3  A    between atoms: C_25  and  O_28
REMARK    4  A    between atoms: C_26  and  O_30
REMARK    5  A    between atoms: C_27  and  O_32
REMARK                            x       y       z     vdW  Elec       q    Type
REMARK                         _______ _______ _______ _____ _____    ______ ____
ROOT
ATOM      1  O   UNL     1       1.547  -3.145  -0.990  0.00  0.00    -0.270 OA
ATOM      2  N   UNL     1      -0.700   0.228   0.145  0.00  0.00    -0.281 N 
ATOM      3  N   UNL     1       3.507  -2.011  -0.591  0.00  0.00    -0.258 N 
ATOM      4  N   UNL     1       5.515  -0.998  -0.133  0.00  0.00    -0.315 NA
ATOM      5  N   UNL     1       5.701   1.421   0.219  0.00  0.00    -0.316 NA
ATOM      6  N   UNL     1       3.974   2.900  -0.115  0.00  0.00    -0.335 N 
ATOM      7  C   UNL     1       2.151   0.366   0.059  0.00  0.00    -0.003 C 
ATOM      8  C   UNL     1       1.424  -0.882  -0.245  0.00  0.00    +0.049 C 
ATOM      9  C   UNL     1       3.499   0.397  -0.053  0.00  0.00    +0.157 C 
ATOM     10  C   UNL     1       0.075  -0.885  -0.205  0.00  0.00    +0.126 C 
ATOM     11  C   UNL     1       1.333   1.502   0.507  0.00  0.00    +0.013 C 
ATOM     12  C   UNL     1      -0.008   1.385   0.516  0.00  0.00    +0.065 C 
ATOM     13  C   UNL     1       4.233  -0.889  -0.261  0.00  0.00    +0.188 C 
ATOM     14  C   UNL     1       2.130  -2.119  -0.652  0.00  0.00    +0.248 C 
ATOM     15  C   UNL     1       4.412   1.606   0.044  0.00  0.00    +0.179 C 
ATOM     16  C   UNL     1       6.191   0.138   0.244  0.00  0.00    +0.218 C 
ATOM     17  H   UNL     1       4.022  -2.822  -0.805  0.00  0.00    +0.157 HD
ATOM     18  H   UNL     1       4.610   3.648  -0.042  0.00  0.00    +0.144 HD
ATOM     19  H   UNL     1       3.024   3.078  -0.302  0.00  0.00    +0.144 HD
ENDROOT
BRANCH   2  20
ATOM     20  C   UNL     1      -2.135   0.180   0.156  0.00  0.00    +0.058 C 
ATOM     21  C   UNL     1      -2.874   1.339  -0.081  0.00  0.00    +0.055 C 
ATOM     22  C   UNL     1      -2.790  -1.026   0.406  0.00  0.00    +0.055 C 
ATOM     23  C   UNL     1      -4.184  -1.073   0.419  0.00  0.00    +0.177 C 
ATOM     24  C   UNL     1      -4.268   1.291  -0.069  0.00  0.00    +0.177 C 
ATOM     25  C   UNL     1      -4.923   0.085   0.181  0.00  0.00    +0.206 C 
BRANCH  23  26
ATOM     26  O   UNL     1      -4.812  -2.257   0.665  0.00  0.00    -0.468 OA
ATOM     27  C   UNL     1      -3.982  -3.394   0.898  0.00  0.00    +0.253 C 
ENDBRANCH  23  26
BRANCH  24  28
ATOM     28  O   UNL     1      -4.978   2.431  -0.301  0.00  0.00    -0.468 OA
ATOM     29  C   UNL     1      -4.231   3.620  -0.548  0.00  0.00    +0.253 C 
ENDBRANCH  24  28
BRANCH  25  30
ATOM     30  O   UNL     1      -6.286   0.040   0.195  0.00  0.00    -0.465 OA
ATOM     31  C   UNL     1      -6.936  -0.237  -1.044  0.00  0.00    +0.253 C 
ENDBRANCH  25  30
ENDBRANCH   2  20
BRANCH  16  32
ATOM     32  N   UNL     1       7.416  -0.012   0.634  0.00  0.00    -0.180 NA
ATOM     33  H   UNL     1       7.815  -0.912   0.669  0.00  0.00    +0.184 HD
ENDBRANCH  16  32
TORSDOF 5
