REMARK  Name = 135465599
REMARK  5 active torsions:
REMARK  status: ('A' for Active; 'I' for Inactive)
REMARK    1  A    between atoms: N_3  and  C1*_18
REMARK    2  A    between atoms: C2*_17  and  O2*_21
REMARK    3  A    between atoms: C3*_19  and  O3*_23
REMARK    4  A    between atoms: C4*_20  and  C5*_25
REMARK    5  A    between atoms: C5*_25  and  O5*_26
REMARK                            x       y       z     vdW  Elec       q    Type
REMARK                         _______ _______ _______ _____ _____    ______ ____
ROOT
ATOM      1 BR   UNL     1       0.171  -3.927   0.586  0.00  0.00    +0.004 Br
ATOM      2  O   UNL     1      -4.546  -0.663  -0.239  0.00  0.00    -0.267 OA
ATOM      3  N   UNL     1      -0.075  -1.031   0.303  0.00  0.00    -0.205 N 
ATOM      4  N   UNL     1      -2.008  -2.150   0.181  0.00  0.00    -0.371 NA
ATOM      5  N   UNL     1      -0.858   1.241   0.013  0.00  0.00    -0.355 NA
ATOM      6  N   UNL     1      -3.238   1.271  -0.261  0.00  0.00    -0.242 N 
ATOM      7  N   UNL     1      -1.999   3.272  -0.297  0.00  0.00    -0.321 N 
ATOM      8  C   UNL     1      -1.046  -0.094   0.109  0.00  0.00    +0.228 C 
ATOM      9  C   UNL     1      -0.703  -2.252   0.339  0.00  0.00    +0.226 C 
ATOM     10  C   UNL     1      -2.217  -0.809   0.039  0.00  0.00    +0.231 C 
ATOM     11  C   UNL     1      -3.456  -0.110  -0.164  0.00  0.00    +0.286 C 
ATOM     12  C   UNL     1      -1.976   1.907  -0.173  0.00  0.00    +0.240 C 
ATOM     13  H   UNL     1      -4.025   1.845  -0.401  0.00  0.00    +0.159 HD
ATOM     14  H   UNL     1      -1.160   3.785  -0.247  0.00  0.00    +0.146 HD
ATOM     15  H   UNL     1      -2.854   3.740  -0.436  0.00  0.00    +0.146 HD
ENDROOT
BRANCH   3  18
ATOM     16  O4* UNL     1       1.657   0.506   1.072  0.00  0.00    -0.333 OA
ATOM     17  C2* UNL     1       2.135  -0.725  -0.892  0.00  0.00    +0.187 C 
ATOM     18  C1* UNL     1       1.405  -0.769   0.447  0.00  0.00    +0.230 C 
ATOM     19  C3* UNL     1       3.340   0.135  -0.565  0.00  0.00    +0.171 C 
ATOM     20  C4* UNL     1       2.750   1.164   0.391  0.00  0.00    +0.175 C 
BRANCH  17  21
ATOM     21  O2* UNL     1       2.486  -2.008  -1.372  0.00  0.00    -0.378 OA
ATOM     22  H2* UNL     1       1.680  -2.513  -1.564  0.00  0.00    +0.211 HD
ENDBRANCH  17  21
BRANCH  19  23
ATOM     23  O3* UNL     1       4.313  -0.624   0.151  0.00  0.00    -0.379 OA
ATOM     24  H3* UNL     1       4.704  -1.288  -0.439  0.00  0.00    +0.211 HD
ENDBRANCH  19  23
BRANCH  20  25
ATOM     25  C5* UNL     1       2.198   2.392  -0.320  0.00  0.00    +0.169 C 
BRANCH  25  26
ATOM     26  O5* UNL     1       1.666   3.277   0.650  0.00  0.00    -0.379 OA
ATOM     27  H5* UNL     1       1.311   4.064   0.209  0.00  0.00    +0.211 HD
ENDBRANCH  25  26
ENDBRANCH  20  25
ENDBRANCH   3  18
TORSDOF 5
