REMARK  Name = 135404346
REMARK  14 active torsions:
REMARK  status: ('A' for Active; 'I' for Inactive)
REMARK    1  A    between atoms: C_2  and  C_34
REMARK    2  A    between atoms: C_3  and  C_6
REMARK    3  A    between atoms: C_5  and  C_8
REMARK    4  A    between atoms: C_6  and  C_20
REMARK    5  A    between atoms: C_8  and  C_12
REMARK    6  A    between atoms: C_14  and  C_17
REMARK    7  A    between atoms: C_21  and  C_28
REMARK    8  A    between atoms: C_23  and  O_26
REMARK    9  A    between atoms: C_28  and  C_29
REMARK   10  A    between atoms: C_29  and  C_31
REMARK   11  A    between atoms: C_31  and  O_32
REMARK   12  A    between atoms: C_34  and  C_35
REMARK   13  A    between atoms: C_35  and  C_37
REMARK   14  A    between atoms: C_37  and  O_38
REMARK                            x       y       z     vdW  Elec       q    Type
REMARK                         _______ _______ _______ _____ _____    ______ ____
ROOT
ATOM      1  N   UNL     1      -0.256  -0.536  -0.703  0.00  0.00    -0.360 N 
ATOM      2  C   UNL     1       0.201   1.503   0.170  0.00  0.00    -0.013 A 
ATOM      3  C   UNL     1      -0.879   0.593  -0.232  0.00  0.00    +0.035 A 
ATOM      4  C   UNL     1       1.385   0.892  -0.072  0.00  0.00    -0.013 A 
ATOM      5  C   UNL     1       1.111  -0.435  -0.639  0.00  0.00    +0.036 A 
ATOM      6  C   UNL     1       2.767   1.397   0.163  0.00  0.00    +0.032 C 
ATOM      7  H   UNL     1      -0.734  -1.325  -1.045  0.00  0.00    +0.165 HD
ENDROOT
BRANCH   3   8
ATOM      8  C   UNL     1      -2.193   0.826  -0.152  0.00  0.00    +0.086 C 
BRANCH   8  10
ATOM      9  N   UNL     1      -3.281  -0.520  -1.867  0.00  0.00    -0.329 N 
ATOM     10  C   UNL     1      -3.260  -0.103  -0.562  0.00  0.00    +0.038 A 
ATOM     11  C   UNL     1      -4.317  -0.700   0.089  0.00  0.00    -0.009 A 
ATOM     12  C   UNL     1      -4.998  -1.503  -0.859  0.00  0.00    +0.026 A 
ATOM     13  C   UNL     1      -4.336  -1.373  -2.060  0.00  0.00    +0.195 A 
ATOM     14  C   UNL     1      -6.198  -2.329  -0.612  0.00  0.00    +0.036 C 
ATOM     15  H   UNL     1      -2.637  -0.249  -2.560  0.00  0.00    +0.168 HD
BRANCH  13  16
ATOM     16  O   UNL     1      -4.559  -1.904  -3.253  0.00  0.00    -0.493 OA
ATOM     17  H   UNL     1      -3.993  -1.698  -3.971  0.00  0.00    +0.294 HD
ENDBRANCH  13  16
BRANCH  11  18
ATOM     18  C   UNL     1      -4.676  -0.534   1.513  0.00  0.00    +0.039 C 
BRANCH  18  19
ATOM     19  C   UNL     1      -4.243  -1.705   2.413  0.00  0.00    +0.114 C 
BRANCH  19  21
ATOM     20  O   UNL     1      -2.199  -2.676   1.568  0.00  0.00    -0.250 OA
ATOM     21  C   UNL     1      -2.750  -1.921   2.359  0.00  0.00    +0.314 C 
BRANCH  21  22
ATOM     22  O   UNL     1      -2.075  -1.167   3.262  0.00  0.00    -0.480 OA
ATOM     23  H   UNL     1      -2.544  -0.604   3.846  0.00  0.00    +0.295 HD
ENDBRANCH  21  22
ENDBRANCH  19  21
ENDBRANCH  18  19
ENDBRANCH  11  18
ENDBRANCH   8  10
ENDBRANCH   3   8
BRANCH   5  24
ATOM     24  C   UNL     1       2.015  -1.348  -1.012  0.00  0.00    +0.103 C 
BRANCH  24  27
ATOM     25  O   UNL     1       6.465  -0.222  -1.886  0.00  0.00    -0.209 OA
ATOM     26  N   UNL     1       4.178  -0.634  -1.831  0.00  0.00    -0.337 NA
ATOM     27  C   UNL     1       3.431  -1.151  -0.906  0.00  0.00    +0.125 C 
ATOM     28  C   UNL     1       4.153  -1.541   0.311  0.00  0.00    +0.017 C 
ATOM     29  C   UNL     1       5.421  -1.210   0.037  0.00  0.00    +0.093 C 
ATOM     30  C   UNL     1       5.457  -0.628  -1.329  0.00  0.00    +0.204 C 
ATOM     31  C   UNL     1       3.545  -2.152   1.517  0.00  0.00    +0.034 C 
BRANCH  29  32
ATOM     32  C   UNL     1       6.584  -1.356   0.855  0.00  0.00    +0.012 C 
ATOM     33  C   UNL     1       6.603  -1.122   2.174  0.00  0.00    +0.001 C 
ENDBRANCH  29  32
ENDBRANCH  24  27
ENDBRANCH   5  24
BRANCH   2  34
ATOM     34  C   UNL     1      -0.057   2.855   0.740  0.00  0.00    +0.039 C 
BRANCH  34  35
ATOM     35  C   UNL     1      -0.476   3.868  -0.319  0.00  0.00    +0.114 C 
BRANCH  35  37
ATOM     36  O   UNL     1      -0.682   5.466   1.481  0.00  0.00    -0.250 OA
ATOM     37  C   UNL     1      -0.768   5.221   0.284  0.00  0.00    +0.314 C 
BRANCH  37  38
ATOM     38  O   UNL     1      -1.112   6.149  -0.642  0.00  0.00    -0.480 OA
ATOM     39  H   UNL     1      -1.164   5.910  -1.547  0.00  0.00    +0.295 HD
ENDBRANCH  37  38
ENDBRANCH  35  37
ENDBRANCH  34  35
ENDBRANCH   2  34
TORSDOF 14
