REMARK  Name = 135408752
REMARK  10 active torsions:
REMARK  status: ('A' for Active; 'I' for Inactive)
REMARK    1  A    between atoms: N_1  and  N_9
REMARK    2  A    between atoms: C_2  and  C_3
REMARK    3  A    between atoms: C_2  and  N_23
REMARK    4  A    between atoms: N_9  and  C_12
REMARK    5  A    between atoms: C_11  and  S_17
REMARK    6  A    between atoms: C_14  and  O_21
REMARK    7  A    between atoms: N_23  and  N_24
REMARK    8  A    between atoms: N_24  and  C_25
REMARK    9  A    between atoms: C_26  and  C_32
REMARK   10  A    between atoms: C_32  and  O_33
REMARK                            x       y       z     vdW  Elec       q    Type
REMARK                         _______ _______ _______ _____ _____    ______ ____
ROOT
ATOM      1  N   UNL     1      -0.686   0.680  -0.018  0.00  0.00    -0.163 NA
ATOM      2  C   UNL     1       0.587   0.979  -0.200  0.00  0.00    +0.187 C 
ENDROOT
BRANCH   2   3
ATOM      3  C   UNL     1       1.077   2.339  -0.042  0.00  0.00    +0.036 C 
ATOM      4  C   UNL     1       0.454   3.205   0.857  0.00  0.00    +0.003 C 
ATOM      5  C   UNL     1       2.171   2.777  -0.788  0.00  0.00    +0.003 C 
ATOM      6  C   UNL     1       0.926   4.509   1.010  0.00  0.00    +0.000 C 
ATOM      7  C   UNL     1       2.642   4.081  -0.636  0.00  0.00    +0.000 C 
ATOM      8  C   UNL     1       2.019   4.947   0.263  0.00  0.00    +0.000 C 
ENDBRANCH   2   3
BRANCH   1   9
ATOM      9  N   UNL     1      -1.043  -0.612  -0.153  0.00  0.00    -0.232 N 
ATOM     10  H   UNL     1      -0.358  -1.283  -0.378  0.00  0.00    +0.175 HD
BRANCH   9  12
ATOM     11  C   UNL     1      -4.733  -0.513  -0.097  0.00  0.00    +0.114 C 
ATOM     12  C   UNL     1      -2.373  -1.016   0.024  0.00  0.00    +0.100 C 
ATOM     13  C   UNL     1      -3.405  -0.123  -0.267  0.00  0.00    +0.038 C 
ATOM     14  C   UNL     1      -2.671  -2.299   0.486  0.00  0.00    +0.148 C 
ATOM     15  C   UNL     1      -5.031  -1.795   0.365  0.00  0.00    +0.022 C 
ATOM     16  C   UNL     1      -3.999  -2.688   0.656  0.00  0.00    +0.039 C 
BRANCH  11  17
ATOM     17  S   UNL     1      -6.025   0.605  -0.461  0.00  0.00    +0.042 S 
ATOM     18  O   UNL     1      -6.305   1.406   0.936  0.00  0.00    -0.065 OA
ATOM     19  O   UNL     1      -5.520   1.580  -1.416  0.00  0.00    -0.065 OA
ATOM     20  O   UNL     1      -7.202  -0.193  -0.768  0.00  0.00    -0.065 OA
ENDBRANCH  11  17
BRANCH  14  21
ATOM     21  O   UNL     1      -1.678  -3.186   0.775  0.00  0.00    -0.504 OA
ATOM     22  H   UNL     1      -0.781  -2.938   0.665  0.00  0.00    +0.292 HD
ENDBRANCH  14  21
ENDBRANCH   9  12
ENDBRANCH   1   9
BRANCH   2  23
ATOM     23  N   UNL     1       1.502  -0.026  -0.522  0.00  0.00    -0.107 NA
BRANCH  23  24
ATOM     24  N   UNL     1       1.968  -0.536   0.522  0.00  0.00    -0.126 NA
BRANCH  24  25
ATOM     25  C   UNL     1       2.875  -1.555   0.185  0.00  0.00    +0.095 C 
ATOM     26  C   UNL     1       4.230  -1.277   0.005  0.00  0.00    +0.092 C 
ATOM     27  C   UNL     1       2.404  -2.859   0.032  0.00  0.00    +0.018 C 
ATOM     28  C   UNL     1       5.114  -2.303  -0.329  0.00  0.00    +0.008 C 
ATOM     29  C   UNL     1       3.288  -3.885  -0.302  0.00  0.00    +0.001 C 
ATOM     30  C   UNL     1       4.643  -3.607  -0.482  0.00  0.00    +0.000 C 
BRANCH  26  32
ATOM     31  O   UNL     1       4.685   0.752   1.188  0.00  0.00    -0.245 OA
ATOM     32  C   UNL     1       4.750   0.076   0.158  0.00  0.00    +0.339 C 
BRANCH  32  33
ATOM     33  O   UNL     1       5.333   0.539  -0.980  0.00  0.00    -0.477 OA
ATOM     34  H   UNL     1       5.364  -0.003  -1.744  0.00  0.00    +0.295 HD
ENDBRANCH  32  33
ENDBRANCH  26  32
ENDBRANCH  24  25
ENDBRANCH  23  24
ENDBRANCH   2  23
TORSDOF 10
