REMARK  Name = 135409438
REMARK  7 active torsions:
REMARK  status: ('A' for Active; 'I' for Inactive)
REMARK    1  A    between atoms: N_2  and  C_15
REMARK    2  A    between atoms: C_15  and  C_16
REMARK    3  A    between atoms: C_16  and  O_17
REMARK    4  A    between atoms: O_17  and  C_18
REMARK    5  A    between atoms: C_18  and  P_19
REMARK    6  A    between atoms: P_19  and  O_21
REMARK    7  A    between atoms: P_19  and  O_23
REMARK                            x       y       z     vdW  Elec       q    Type
REMARK                         _______ _______ _______ _____ _____    ______ ____
ROOT
ATOM      1  O   UNL     1      -3.740  -1.558  -1.226  0.00  0.00    -0.268 OA
ATOM      2  N   UNL     1      -1.141   1.770   0.385  0.00  0.00    -0.259 N 
ATOM      3  N   UNL     1      -2.933   1.278  -0.861  0.00  0.00    -0.240 NA
ATOM      4  N   UNL     1      -0.442  -0.450   1.052  0.00  0.00    -0.357 NA
ATOM      5  N   UNL     1      -1.912  -2.098   0.124  0.00  0.00    -0.243 N 
ATOM      6  N   UNL     1      -0.091  -2.734   1.474  0.00  0.00    -0.321 N 
ATOM      7  C   UNL     1      -1.258   0.411   0.404  0.00  0.00    +0.210 C 
ATOM      8  C   UNL     1      -2.362   0.142  -0.367  0.00  0.00    +0.176 C 
ATOM      9  C   UNL     1      -2.172   2.246  -0.389  0.00  0.00    +0.222 C 
ATOM     10  C   UNL     1      -2.770  -1.223  -0.557  0.00  0.00    +0.273 C 
ATOM     11  C   UNL     1      -0.792  -1.708   0.896  0.00  0.00    +0.239 C 
ATOM     12  H   UNL     1      -2.103  -3.061   0.059  0.00  0.00    +0.159 HD
ATOM     13  H   UNL     1       0.700  -2.540   2.026  0.00  0.00    +0.146 HD
ATOM     14  H   UNL     1      -0.380  -3.665   1.338  0.00  0.00    +0.146 HD
ENDROOT
BRANCH   2  15
ATOM     15  C   UNL     1      -0.137   2.568   1.044  0.00  0.00    +0.127 C 
BRANCH  15  16
ATOM     16  C   UNL     1       1.196   2.551   0.303  0.00  0.00    +0.164 C 
BRANCH  16  17
ATOM     17  O   UNL     1       1.703   1.224   0.257  0.00  0.00    -0.340 OA
BRANCH  17  18
ATOM     18  C   UNL     1       2.947   1.164  -0.427  0.00  0.00    +0.258 C 
BRANCH  18  19
ATOM     19  P   UNL     1       3.394  -0.559  -0.407  0.00  0.00    +0.367 P 
ATOM     20  O   UNL     1       3.578  -1.147   0.960  0.00  0.00    -0.256 OA
BRANCH  19  21
ATOM     21  O   UNL     1       4.694  -0.627  -1.366  0.00  0.00    -0.322 OA
ATOM     22  H   UNL     1       5.012  -1.542  -1.416  0.00  0.00    +0.220 HD
ENDBRANCH  19  21
BRANCH  19  23
ATOM     23  O   UNL     1       2.238  -1.251  -1.300  0.00  0.00    -0.322 OA
ATOM     24  H   UNL     1       2.396  -2.207  -1.350  0.00  0.00    +0.220 HD
ENDBRANCH  19  23
ENDBRANCH  18  19
ENDBRANCH  17  18
ENDBRANCH  16  17
ENDBRANCH  15  16
ENDBRANCH   2  15
TORSDOF 7
