REMARK  Name = 135440068
REMARK  4 active torsions:
REMARK  status: ('A' for Active; 'I' for Inactive)
REMARK    1  A    between atoms: N_2  and  C_16
REMARK    2  A    between atoms: C_17  and  O_20
REMARK    3  A    between atoms: C_19  and  C_22
REMARK    4  A    between atoms: C_22  and  O_23
REMARK                            x       y       z     vdW  Elec       q    Type
REMARK                         _______ _______ _______ _____ _____    ______ ____
ROOT
ATOM      1  O   UNL     1      -3.996   2.087  -0.458  0.00  0.00    -0.268 OA
ATOM      2  N   UNL     1       0.104   0.255   0.039  0.00  0.00    -0.237 N 
ATOM      3  N   UNL     1      -1.026   2.118  -0.464  0.00  0.00    -0.240 NA
ATOM      4  N   UNL     1      -1.726  -1.276   0.450  0.00  0.00    -0.357 NA
ATOM      5  N   UNL     1      -3.825  -0.161   0.148  0.00  0.00    -0.243 N 
ATOM      6  N   UNL     1      -3.747  -2.433   0.760  0.00  0.00    -0.321 N 
ATOM      7  C   UNL     1      -1.219  -0.066   0.124  0.00  0.00    +0.211 C 
ATOM      8  C   UNL     1       0.169   1.579  -0.318  0.00  0.00    +0.224 C 
ATOM      9  C   UNL     1      -1.883   1.095  -0.189  0.00  0.00    +0.176 C 
ATOM     10  C   UNL     1      -3.320   1.102  -0.192  0.00  0.00    +0.273 C 
ATOM     11  C   UNL     1      -3.041  -1.299   0.455  0.00  0.00    +0.239 C 
ATOM     12  H   UNL     1      -4.803  -0.265   0.176  0.00  0.00    +0.159 HD
ATOM     13  H   UNL     1      -3.269  -3.265   0.984  0.00  0.00    +0.146 HD
ATOM     14  H   UNL     1      -4.731  -2.417   0.755  0.00  0.00    +0.146 HD
ENDROOT
BRANCH   2  16
ATOM     15  O   UNL     1       2.384   0.088   0.846  0.00  0.00    -0.335 OA
ATOM     16  C   UNL     1       1.284  -0.658   0.285  0.00  0.00    +0.223 C 
ATOM     17  C   UNL     1       1.796  -1.324  -0.994  0.00  0.00    +0.160 C 
ATOM     18  C   UNL     1       3.076  -0.579  -1.306  0.00  0.00    +0.066 C 
ATOM     19  C   UNL     1       3.564  -0.184   0.077  0.00  0.00    +0.149 C 
BRANCH  17  20
ATOM     20  O   UNL     1       2.081  -2.700  -0.745  0.00  0.00    -0.380 OA
ATOM     21  H   UNL     1       1.256  -3.170  -0.546  0.00  0.00    +0.211 HD
ENDBRANCH  17  20
BRANCH  19  22
ATOM     22  C   UNL     1       4.467   1.035   0.074  0.00  0.00    +0.167 C 
BRANCH  22  23
ATOM     23  O   UNL     1       4.856   1.323   1.408  0.00  0.00    -0.379 OA
ATOM     24  H   UNL     1       5.434   2.101   1.416  0.00  0.00    +0.211 HD
ENDBRANCH  22  23
ENDBRANCH  19  22
ENDBRANCH   2  16
TORSDOF 4
