REMARK  Name = 135449469
REMARK  4 active torsions:
REMARK  status: ('A' for Active; 'I' for Inactive)
REMARK    1  A    between atoms: C_4  and  O_22
REMARK    2  A    between atoms: C_5  and  O_24
REMARK    3  A    between atoms: C_13  and  O_26
REMARK    4  A    between atoms: C_14  and  C_19
REMARK                            x       y       z     vdW  Elec       q    Type
REMARK                         _______ _______ _______ _____ _____    ______ ____
ROOT
ATOM      1  O   UNL     1       2.054   1.711  -0.998  0.00  0.00    -0.351 OA
ATOM      2  O   UNL     1      -0.003  -2.787  -0.342  0.00  0.00    -0.285 OA
ATOM      3  N   UNL     1      -2.654  -2.281  -0.325  0.00  0.00    -0.295 NA
ATOM      4  C   UNL     1       2.107  -0.588  -0.112  0.00  0.00    +0.159 C 
ATOM      5  C   UNL     1       2.615  -0.025   1.239  0.00  0.00    +0.144 C 
ATOM      6  C   UNL     1       1.218   1.782   0.183  0.00  0.00    +0.143 C 
ATOM      7  C   UNL     1       2.545   0.371  -1.254  0.00  0.00    +0.146 C 
ATOM      8  C   UNL     1       2.106   1.425   1.397  0.00  0.00    +0.066 C 
ATOM      9  C   UNL     1       0.591  -0.499  -0.097  0.00  0.00    +0.048 C 
ATOM     10  C   UNL     1       0.111   0.749   0.047  0.00  0.00    +0.040 C 
ATOM     11  C   UNL     1       4.050   0.461  -1.484  0.00  0.00    +0.035 C 
ATOM     12  C   UNL     1      -0.346  -1.622  -0.222  0.00  0.00    +0.211 C 
ATOM     13  C   UNL     1      -1.300   1.069   0.090  0.00  0.00    +0.138 C 
ATOM     14  C   UNL     1      -2.251   0.119  -0.027  0.00  0.00    +0.106 C 
ATOM     15  C   UNL     1      -1.819  -1.301  -0.197  0.00  0.00    +0.118 C 
ATOM     16  H   UNL     1      -2.321  -3.200  -0.435  0.00  0.00    +0.187 HD
ENDROOT
BRANCH  14  19
ATOM     17  O   UNL     1      -4.433  -0.019   0.858  0.00  0.00    -0.270 OA
ATOM     18  N   UNL     1      -4.068   1.310  -0.994  0.00  0.00    -0.325 N 
ATOM     19  C   UNL     1      -3.686   0.449   0.005  0.00  0.00    +0.247 C 
ATOM     20  H   UNL     1      -5.007   1.596  -1.065  0.00  0.00    +0.145 HD
ATOM     21  H   UNL     1      -3.402   1.640  -1.640  0.00  0.00    +0.145 HD
ENDBRANCH  14  19
BRANCH   4  22
ATOM     22  O   UNL     1       2.574  -1.903  -0.337  0.00  0.00    -0.378 OA
ATOM     23  H   UNL     1       3.544  -1.906  -0.337  0.00  0.00    +0.211 HD
ENDBRANCH   4  22
BRANCH   5  24
ATOM     24  O   UNL     1       2.136  -0.836   2.312  0.00  0.00    -0.382 OA
ATOM     25  H   UNL     1       2.462  -1.743   2.202  0.00  0.00    +0.210 HD
ENDBRANCH   5  24
BRANCH  13  26
ATOM     26  O   UNL     1      -1.545   2.415   0.259  0.00  0.00    -0.506 OA
ATOM     27  H   UNL     1      -0.830   3.016   0.333  0.00  0.00    +0.292 HD
ENDBRANCH  13  26
TORSDOF 4
