REMARK  Name = 135449328
REMARK  8 active torsions:
REMARK  status: ('A' for Active; 'I' for Inactive)
REMARK    1  A    between atoms: C_1  and  N_22
REMARK    2  A    between atoms: C_2  and  N_9
REMARK    3  A    between atoms: C_3  and  S_28
REMARK    4  A    between atoms: C_13  and  O_17
REMARK    5  A    between atoms: C_14  and  O_19
REMARK    6  A    between atoms: C_23  and  C_25
REMARK    7  A    between atoms: C_25  and  O_26
REMARK    8  A    between atoms: S_28  and  C_29
REMARK                            x       y       z     vdW  Elec       q    Type
REMARK                         _______ _______ _______ _____ _____    ______ ____
ROOT
ATOM      1  C   UNL     1      -0.271   0.641   1.086  0.00  0.00    +0.069 C 
ATOM      2  C   UNL     1       0.623  -0.309   1.580  0.00  0.00    +0.097 C 
ATOM      3  C   UNL     1      -2.104  -0.546   2.120  0.00  0.00    +0.031 C 
ATOM      4  C   UNL     1      -1.635   0.523   1.356  0.00  0.00    +0.023 C 
ATOM      5  C   UNL     1       0.153  -1.378   2.343  0.00  0.00    +0.021 C 
ATOM      6  C   UNL     1      -1.210  -1.496   2.614  0.00  0.00    +0.008 C 
ENDROOT
BRANCH   2   9
ATOM      7  O   UNL     1       4.635   0.591   1.804  0.00  0.00    -0.226 OA
ATOM      8  O   UNL     1       3.332  -2.203  -2.276  0.00  0.00    -0.226 OA
ATOM      9  N   UNL     1       1.999  -0.210   1.319  0.00  0.00    -0.216 NA
ATOM     10  N   UNL     1       3.874  -0.680  -0.001  0.00  0.00    -0.223 N 
ATOM     11  N   UNL     1       1.766  -1.503  -0.682  0.00  0.00    -0.223 N 
ATOM     12  C   UNL     1       2.507  -0.773   0.264  0.00  0.00    +0.199 C 
ATOM     13  C   UNL     1       4.835  -0.022   0.762  0.00  0.00    +0.407 C 
ATOM     14  C   UNL     1       2.185  -2.151  -1.846  0.00  0.00    +0.407 C 
ATOM     15  H   UNL     1       4.194  -1.129  -0.817  0.00  0.00    +0.161 HD
ATOM     16  H   UNL     1       0.801  -1.568  -0.494  0.00  0.00    +0.161 HD
BRANCH  13  17
ATOM     17  O   UNL     1       6.059  -0.161   0.169  0.00  0.00    -0.430 OA
ATOM     18  C   UNL     1       7.154   0.468   0.843  0.00  0.00    +0.257 C 
ENDBRANCH  13  17
BRANCH  14  19
ATOM     19  O   UNL     1       1.107  -2.733  -2.452  0.00  0.00    -0.430 OA
ATOM     20  C   UNL     1       1.379  -3.441  -3.666  0.00  0.00    +0.257 C 
ENDBRANCH  14  19
ENDBRANCH   2   9
BRANCH   1  22
ATOM     21  O   UNL     1      -1.793   2.905  -0.183  0.00  0.00    -0.272 OA
ATOM     22  N   UNL     1       0.179   1.719   0.319  0.00  0.00    -0.281 N 
ATOM     23  C   UNL     1      -0.577   2.751  -0.248  0.00  0.00    +0.256 C 
ATOM     24  H   UNL     1       1.150   1.757   0.156  0.00  0.00    +0.155 HD
BRANCH  23  25
ATOM     25  C   UNL     1       0.282   3.735  -1.012  0.00  0.00    +0.227 C 
BRANCH  25  26
ATOM     26  O   UNL     1      -0.550   4.739  -1.556  0.00  0.00    -0.342 OA
ATOM     27  C   UNL     1       0.196   5.705  -2.291  0.00  0.00    +0.175 C 
ENDBRANCH  25  26
ENDBRANCH  23  25
ENDBRANCH   1  22
BRANCH   3  28
ATOM     28  S   UNL     1      -3.846  -0.697   2.466  0.00  0.00    -0.087 S 
BRANCH  28  29
ATOM     29  C   UNL     1      -4.520  -0.818   0.816  0.00  0.00    +0.029 C 
ATOM     30  C   UNL     1      -5.437   0.132   0.366  0.00  0.00    +0.006 C 
ATOM     31  C   UNL     1      -4.130  -1.863  -0.022  0.00  0.00    +0.006 C 
ATOM     32  C   UNL     1      -5.963   0.037  -0.923  0.00  0.00    +0.001 C 
ATOM     33  C   UNL     1      -4.656  -1.957  -1.310  0.00  0.00    +0.001 C 
ATOM     34  C   UNL     1      -5.573  -1.007  -1.760  0.00  0.00    +0.000 C 
ENDBRANCH  28  29
ENDBRANCH   3  28
TORSDOF 8
