REMARK  Name = 135468175
REMARK  11 active torsions:
REMARK  status: ('A' for Active; 'I' for Inactive)
REMARK    1  A    between atoms: C_1  and  C_9
REMARK    2  A    between atoms: C_4  and  S_22
REMARK    3  A    between atoms: N_8  and  CA_11
REMARK    4  A    between atoms: CA_11  and  C_13
REMARK    5  A    between atoms: CA_11  and  CB_16
REMARK    6  A    between atoms: C_13  and  O_14
REMARK    7  A    between atoms: CB_16  and  CG_17
REMARK    8  A    between atoms: CG_17  and  CD_19
REMARK    9  A    between atoms: CD_19  and  OE1_20
REMARK   10  A    between atoms: S_22  and  C_23
REMARK   11  A    between atoms: C_23  and  C_30
REMARK                            x       y       z     vdW  Elec       q    Type
REMARK                         _______ _______ _______ _____ _____    ______ ____
ROOT
ATOM      1  C   UNK A   0      -0.793  -2.306  -0.819  0.00  0.00    +0.053 C 
ATOM      2  C   UNK A   0       0.152  -2.378  -1.843  0.00  0.00    +0.005 C 
ATOM      3  C   UNK A   0      -0.435  -2.647   0.485  0.00  0.00    +0.005 C 
ATOM      4  C   UNK A   0       1.812  -3.133  -0.258  0.00  0.00    +0.026 C 
ATOM      5  C   UNK A   0       1.454  -2.792  -1.562  0.00  0.00    +0.006 C 
ATOM      6  C   UNK A   0       0.867  -3.061   0.766  0.00  0.00    +0.006 C 
ENDROOT
BRANCH   1   9
ATOM      7  O   UNK A   0      -2.643  -2.062  -2.239  0.00  0.00    -0.270 OA
ATOM      8  N   GLU A   1      -2.869  -1.273  -0.070  0.00  0.00    -0.293 N 
ATOM      9  C   UNK A   0      -2.180  -1.866  -1.118  0.00  0.00    +0.246 C 
ATOM     10  H   GLU A   1      -2.410  -1.159   0.794  0.00  0.00    +0.150 HD
BRANCH   8  11
ATOM     11  CA  GLU A   1      -4.230  -0.816  -0.196  0.00  0.00    +0.172 C 
BRANCH  11  13
ATOM     12  OXT GLU A   1      -4.397  -0.918   2.232  0.00  0.00    -0.248 OA
ATOM     13  C   GLU A   1      -4.918  -1.056   1.133  0.00  0.00    +0.332 C 
BRANCH  13  14
ATOM     14  O   GLU A   1      -6.219  -1.413   0.973  0.00  0.00    -0.479 OA
ATOM     15  H   GLU A   1      -6.576  -1.507   0.111  0.00  0.00    +0.295 HD
ENDBRANCH  13  14
ENDBRANCH  11  13
BRANCH  11  16
ATOM     16  CB  GLU A   1      -4.331   0.631  -0.691  0.00  0.00    +0.043 C 
BRANCH  16  17
ATOM     17  CG  GLU A   1      -3.733   1.699   0.234  0.00  0.00    +0.112 C 
BRANCH  17  19
ATOM     18  OE2 GLU A   1      -4.406   3.425  -1.348  0.00  0.00    -0.250 OA
ATOM     19  CD  GLU A   1      -3.870   3.110  -0.294  0.00  0.00    +0.314 C 
BRANCH  19  20
ATOM     20  OE1 GLU A   1      -3.280   4.013   0.532  0.00  0.00    -0.480 OA
ATOM     21  HE1 GLU A   1      -2.880   3.727   1.330  0.00  0.00    +0.295 HD
ENDBRANCH  19  20
ENDBRANCH  17  19
ENDBRANCH  16  17
ENDBRANCH  11  16
ENDBRANCH   8  11
ENDBRANCH   1   9
BRANCH   4  22
ATOM     22  S   UNK A   0       3.476  -3.661   0.101  0.00  0.00    -0.106 S 
BRANCH  22  23
ATOM     23  C   UNK A   0       4.009  -2.409   1.302  0.00  0.00    +0.118 C 
BRANCH  23  30
ATOM     24  O   UNK A   0       0.888   1.467   1.839  0.00  0.00    -0.266 OA
ATOM     25  N   UNK A   0       2.883  -0.251   1.156  0.00  0.00    -0.392 NA
ATOM     26  N   UNK A   0       4.807   0.694  -0.662  0.00  0.00    -0.200 NA
ATOM     27  N   UNK A   0       1.764   3.115   0.465  0.00  0.00    -0.241 N 
ATOM     28  N   UNK A   0       3.722   2.767  -0.801  0.00  0.00    -0.318 NA
ATOM     29  N   UNK A   0       2.596   4.822  -0.902  0.00  0.00    -0.320 N 
ATOM     30  C   UNK A   0       3.914  -1.014   0.749  0.00  0.00    +0.124 C 
ATOM     31  C   UNK A   0       2.843   0.990   0.632  0.00  0.00    +0.257 C 
ATOM     32  C   UNK A   0       3.779   1.472  -0.263  0.00  0.00    +0.121 C 
ATOM     33  C   UNK A   0       4.858  -0.551  -0.143  0.00  0.00    +0.192 C 
ATOM     34  C   UNK A   0       1.737   1.858   1.047  0.00  0.00    +0.293 C 
ATOM     35  C   UNK A   0       2.739   3.543  -0.434  0.00  0.00    +0.248 C 
ATOM     36  H   UNK A   0       1.049   3.748   0.703  0.00  0.00    +0.159 HD
ATOM     37  H   UNK A   0       1.840   5.375  -0.600  0.00  0.00    +0.146 HD
ATOM     38  H   UNK A   0       3.249   5.188  -1.541  0.00  0.00    +0.146 HD
ENDBRANCH  23  30
ENDBRANCH  22  23
ENDBRANCH   4  22
TORSDOF 11
