REMARK  Name = 135408656
REMARK  3 active torsions:
REMARK  status: ('A' for Active; 'I' for Inactive)
REMARK    1  A    between atoms: S_1  and  N_5
REMARK    2  A    between atoms: S_1  and  C_15
REMARK    3  A    between atoms: C_20  and  N_21
REMARK                            x       y       z     vdW  Elec       q    Type
REMARK                         _______ _______ _______ _____ _____    ______ ____
ROOT
ATOM      1  S   UNL     1      -0.673  -1.921   0.383  0.00  0.00    +0.076 S 
ATOM      2  O   UNL     1      -0.195  -1.819   1.748  0.00  0.00    -0.150 OA
ATOM      3  O   UNL     1      -1.263  -3.156  -0.098  0.00  0.00    -0.150 OA
ENDROOT
BRANCH   1   5
ATOM      4  O   UNL     1       4.393   0.870  -2.065  0.00  0.00    -0.274 OA
ATOM      5  N   UNL     1       0.561  -1.436  -0.691  0.00  0.00    -0.177 N 
ATOM      6  N   UNL     1       2.500  -0.265  -1.372  0.00  0.00    -0.246 N 
ATOM      7  N   UNL     1       1.712  -0.080   0.847  0.00  0.00    -0.380 NA
ATOM      8  C   UNL     1       1.617  -0.558  -0.353  0.00  0.00    +0.259 C 
ATOM      9  C   UNL     1       2.770   0.769   1.091  0.00  0.00    +0.099 C 
ATOM     10  C   UNL     1       3.579   0.576  -1.196  0.00  0.00    +0.236 C 
ATOM     11  C   UNL     1       3.689   1.122   0.176  0.00  0.00    +0.140 C 
ATOM     12  C   UNL     1       2.843   1.297   2.495  0.00  0.00    +0.062 C 
ATOM     13  H   UNL     1       0.537  -1.792  -1.608  0.00  0.00    +0.178 HD
ATOM     14  H   UNL     1       2.355  -0.671  -2.257  0.00  0.00    +0.159 HD
ENDBRANCH   1   5
BRANCH   1  15
ATOM     15  C   UNL     1      -1.865  -0.642   0.124  0.00  0.00    +0.125 C 
ATOM     16  C   UNL     1      -2.845  -0.790  -0.858  0.00  0.00    +0.021 C 
ATOM     17  C   UNL     1      -1.827   0.514   0.903  0.00  0.00    +0.021 C 
ATOM     18  C   UNL     1      -3.786   0.220  -1.061  0.00  0.00    +0.015 C 
ATOM     19  C   UNL     1      -2.767   1.524   0.699  0.00  0.00    +0.015 C 
ATOM     20  C   UNL     1      -3.747   1.377  -0.283  0.00  0.00    +0.042 C 
BRANCH  20  21
ATOM     21  N   UNL     1      -4.697   2.398  -0.488  0.00  0.00    -0.357 N 
ATOM     22  H   UNL     1      -5.389   2.295  -1.181  0.00  0.00    +0.142 HD
ATOM     23  H   UNL     1      -4.669   3.214   0.061  0.00  0.00    +0.142 HD
ENDBRANCH  20  21
ENDBRANCH   1  15
TORSDOF 3
