135450852
  -OEChem-03292013293D

 60 65  0     1  0  0  0  0  0999 V2000
    2.6468   -1.3533   -2.3244 O   0  0  0  0  0  0  0  0  0  0  0  0
    1.5717   -4.2268   -2.2872 O   0  0  0  0  0  0  0  0  0  0  0  0
    0.7460    0.2909   -3.5503 O   0  0  0  0  0  0  0  0  0  0  0  0
    4.6315    2.4027    2.6713 O   0  0  0  0  0  0  0  0  0  0  0  0
   -3.8170    4.1391   -1.4755 O   0  0  0  0  0  0  0  0  0  0  0  0
    3.6842   -1.0069   -0.1380 N   0  0  0  0  0  0  0  0  0  0  0  0
    5.2529   -0.0754    1.1555 N   0  0  0  0  0  0  0  0  0  0  0  0
    1.8464    0.5278    0.2176 N   0  0  0  0  0  0  0  0  0  0  0  0
    0.3560    2.2078    0.8158 N   0  0  0  0  0  0  0  0  0  0  0  0
    2.5012    2.2725    1.7235 N   0  0  0  0  0  0  0  0  0  0  0  0
   -1.7465    3.5841   -0.4956 N   0  0  0  0  0  0  0  0  0  0  0  0
    3.0427   -1.9833   -1.0917 C   0  0  1  0  0  0  0  0  0  0  0  0
    1.0316   -3.0103   -1.7763 C   0  0  1  0  0  0  0  0  0  0  0  0
    1.7892   -2.6390   -0.5229 C   0  0  0  0  0  0  0  0  0  0  0  0
    1.3601   -1.8658   -2.7262 C   0  0  1  0  0  0  0  0  0  0  0  0
    0.3539   -0.7256   -2.6446 C   0  0  0  0  0  0  0  0  0  0  0  0
    3.1117    0.0982    0.4195 C   0  0  0  0  0  0  0  0  0  0  0  0
    4.9722   -1.0688    0.3350 C   0  0  0  0  0  0  0  0  0  0  0  0
    4.0967    0.6459    1.2052 C   0  0  0  0  0  0  0  0  0  0  0  0
   -3.3319    0.3536    0.1546 C   0  0  0  0  0  0  0  0  0  0  0  0
   -2.2925   -0.3445    0.8095 C   0  0  0  0  0  0  0  0  0  0  0  0
   -4.5622   -0.5209    0.0313 C   0  0  0  0  0  0  0  0  0  0  0  0
   -2.7648   -1.6711    1.1425 C   0  0  0  0  0  0  0  0  0  0  0  0
   -4.0988   -1.8008    0.6950 C   0  0  0  0  0  0  0  0  0  0  0  0
   -0.8925    1.5790    0.5920 C   0  0  0  0  0  0  0  0  0  0  0  0
    1.5627    1.6250    0.8854 C   0  0  0  0  0  0  0  0  0  0  0  0
   -1.0682    0.2634    1.0319 C   0  0  0  0  0  0  0  0  0  0  0  0
    3.8173    1.8445    1.9468 C   0  0  0  0  0  0  0  0  0  0  0  0
   -3.1648    1.6559   -0.2828 C   0  0  0  0  0  0  0  0  0  0  0  0
   -1.9305    2.2682   -0.0585 C   0  0  0  0  0  0  0  0  0  0  0  0
   -2.1317   -2.7240    1.7817 C   0  0  0  0  0  0  0  0  0  0  0  0
   -4.8121   -2.9725    0.8780 C   0  0  0  0  0  0  0  0  0  0  0  0
   -2.8469   -3.9107    1.9698 C   0  0  0  0  0  0  0  0  0  0  0  0
   -4.1737   -4.0336    1.5224 C   0  0  0  0  0  0  0  0  0  0  0  0
   -2.6643    4.4096   -1.1543 C   0  0  0  0  0  0  0  0  0  0  0  0
   -2.0765    5.7652   -1.4562 C   0  0  0  0  0  0  0  0  0  0  0  0
    3.8126   -2.7279   -1.3270 H   0  0  0  0  0  0  0  0  0  0  0  0
   -0.0384   -3.1605   -1.6060 H   0  0  0  0  0  0  0  0  0  0  0  0
    1.1894   -1.9487    0.0763 H   0  0  0  0  0  0  0  0  0  0  0  0
    2.0440   -3.4971    0.1075 H   0  0  0  0  0  0  0  0  0  0  0  0
    1.4626   -2.2009   -3.7643 H   0  0  0  0  0  0  0  0  0  0  0  0
    0.3097   -0.2890   -1.6473 H   0  0  0  0  0  0  0  0  0  0  0  0
   -0.6462   -1.0726   -2.9231 H   0  0  0  0  0  0  0  0  0  0  0  0
    1.1067   -4.4239   -3.1182 H   0  0  0  0  0  0  0  0  0  0  0  0
    5.6547   -1.8569    0.0476 H   0  0  0  0  0  0  0  0  0  0  0  0
   -4.8087   -0.6968   -1.0198 H   0  0  0  0  0  0  0  0  0  0  0  0
   -5.4041   -0.0845    0.5765 H   0  0  0  0  0  0  0  0  0  0  0  0
    0.0888    1.0043   -3.4821 H   0  0  0  0  0  0  0  0  0  0  0  0
   -0.2869   -0.2751    1.5584 H   0  0  0  0  0  0  0  0  0  0  0  0
   -4.0106    2.1117   -0.7731 H   0  0  0  0  0  0  0  0  0  0  0  0
    0.2728    3.1747    1.1156 H   0  0  0  0  0  0  0  0  0  0  0  0
    2.1974    3.1150    2.2032 H   0  0  0  0  0  0  0  0  0  0  0  0
   -1.1076   -2.6448    2.1310 H   0  0  0  0  0  0  0  0  0  0  0  0
   -5.8357   -3.0689    0.5334 H   0  0  0  0  0  0  0  0  0  0  0  0
   -2.3711   -4.7512    2.4684 H   0  0  0  0  0  0  0  0  0  0  0  0
   -4.7074   -4.9670    1.6808 H   0  0  0  0  0  0  0  0  0  0  0  0
   -0.8264    3.9795   -0.3194 H   0  0  0  0  0  0  0  0  0  0  0  0
   -2.8134    6.3806   -1.9797 H   0  0  0  0  0  0  0  0  0  0  0  0
   -1.7961    6.2630   -0.5237 H   0  0  0  0  0  0  0  0  0  0  0  0
   -1.1930    5.6532   -2.0911 H   0  0  0  0  0  0  0  0  0  0  0  0
  1 12  1  0  0  0  0
  1 15  1  0  0  0  0
  2 13  1  0  0  0  0
  2 44  1  0  0  0  0
  3 16  1  0  0  0  0
  3 48  1  0  0  0  0
  4 28  2  0  0  0  0
  5 35  2  0  0  0  0
  6 12  1  0  0  0  0
  6 17  1  0  0  0  0
  6 18  1  0  0  0  0
  7 18  2  0  0  0  0
  7 19  1  0  0  0  0
  8 17  1  0  0  0  0
  8 26  2  0  0  0  0
  9 25  1  0  0  0  0
  9 26  1  0  0  0  0
  9 51  1  0  0  0  0
 10 26  1  0  0  0  0
 10 28  1  0  0  0  0
 10 52  1  0  0  0  0
 11 30  1  0  0  0  0
 11 35  1  0  0  0  0
 11 57  1  0  0  0  0
 12 14  1  0  0  0  0
 12 37  1  0  0  0  0
 13 14  1  0  0  0  0
 13 15  1  0  0  0  0
 13 38  1  0  0  0  0
 14 39  1  0  0  0  0
 14 40  1  0  0  0  0
 15 16  1  0  0  0  0
 15 41  1  0  0  0  0
 16 42  1  0  0  0  0
 16 43  1  0  0  0  0
 17 19  2  0  0  0  0
 18 45  1  0  0  0  0
 19 28  1  0  0  0  0
 20 21  1  0  0  0  0
 20 22  1  0  0  0  0
 20 29  2  0  0  0  0
 21 23  1  0  0  0  0
 21 27  2  0  0  0  0
 22 24  1  0  0  0  0
 22 46  1  0  0  0  0
 22 47  1  0  0  0  0
 23 24  1  0  0  0  0
 23 31  2  0  0  0  0
 24 32  2  0  0  0  0
 25 27  1  0  0  0  0
 25 30  2  0  0  0  0
 27 49  1  0  0  0  0
 29 30  1  0  0  0  0
 29 50  1  0  0  0  0
 31 33  1  0  0  0  0
 31 53  1  0  0  0  0
 32 34  1  0  0  0  0
 32 54  1  0  0  0  0
 33 34  2  0  0  0  0
 33 55  1  0  0  0  0
 34 56  1  0  0  0  0
 35 36  1  0  0  0  0
 36 58  1  0  0  0  0
 36 59  1  0  0  0  0
 36 60  1  0  0  0  0
M  END
> <PUBCHEM_COMPOUND_CID>
135450852

> <PUBCHEM_CONFORMER_RMSD>
1

> <PUBCHEM_CONFORMER_DIVERSEORDER>
1
72
92
2
125
124
53
44
88
5
99
16
81
117
77
18
89
129
121
61
50
86
107
3
98
56
36
103
127
33
122
29
110
94
14
21
106
120
70
108
126
47
25
38
32
57
114
128
19
102
30
34
71
76
113
41
118
101
26
46
104
6
111
85
75
95
119
80
65
4
78
115
35
43
7
15
90
112
20
62
28
96
63
60
39
83
84
109
97
100
42
54
79
31
73
27
49
58
68
123
82
23
24
105
17
12
55
9
87
10
51
48
40
130
91
67
45
116
37
22
64
11
8
59
13
52
69
66
93
74

> <PUBCHEM_MMFF94_PARTIAL_CHARGES>
45
1 -0.56
10 -0.49
11 -0.55
12 0.54
13 0.28
15 0.28
16 0.28
17 -0.03
18 0.04
19 0.14
2 -0.68
20 -0.14
22 0.29
24 -0.14
25 0.1
26 0.56
27 -0.15
28 0.72
29 -0.15
3 -0.68
30 0.12
31 -0.15
32 -0.15
33 -0.15
34 -0.15
35 0.57
36 0.06
4 -0.57
44 0.4
45 0.15
48 0.4
49 0.15
5 -0.57
50 0.15
51 0.4
52 0.37
53 0.15
54 0.15
55 0.15
56 0.15
57 0.37
6 0.05
7 -0.57
8 -0.58
9 -0.55

> <PUBCHEM_EFFECTIVE_ROTOR_COUNT>
7.2

> <PUBCHEM_PHARMACOPHORE_FEATURES>
17
1 1 acceptor
1 10 donor
1 11 donor
1 2 acceptor
1 2 donor
1 3 acceptor
1 3 donor
1 4 acceptor
1 5 acceptor
1 9 donor
3 6 7 18 cation
5 1 12 13 14 15 rings
5 20 21 22 23 24 rings
5 6 7 17 18 19 rings
6 20 21 25 27 29 30 rings
6 23 24 31 32 33 34 rings
6 8 10 17 19 26 28 rings

> <PUBCHEM_HEAVY_ATOM_COUNT>
36

> <PUBCHEM_ATOM_DEF_STEREO_COUNT>
3

> <PUBCHEM_ATOM_UDEF_STEREO_COUNT>
0

> <PUBCHEM_BOND_DEF_STEREO_COUNT>
0

> <PUBCHEM_BOND_UDEF_STEREO_COUNT>
0

> <PUBCHEM_ISOTOPIC_ATOM_COUNT>
0

> <PUBCHEM_COMPONENT_COUNT>
1

> <PUBCHEM_CACTVS_TAUTO_COUNT>
-1

> <PUBCHEM_CONFORMER_ID>
0812D0E400000001

> <PUBCHEM_MMFF94_ENERGY>
117.1606

> <PUBCHEM_FEATURE_SELFOVERLAP>
86.632

> <PUBCHEM_SHAPE_FINGERPRINT>
11488393 25 16986899869031955814
11828532 37 17390509950387186923
12156800 1 12474758311242998420
12422481 6 17988086732431580099
12788726 201 17824290192256085197
13402501 40 18341897419523922403
140371 6 18410013265004280305
14725015 67 18409448085572475275
14747281 78 17772198513529467060
15324884 4 18201141210076330616
15351339 4 16896805658006280027
15664445 248 17687216444132829501
15775530 1 18270689640847950421
16067689 391 16264920805786824782
17980427 26 17255091477794129381
1979834 28 17841455905054577763
20600515 1 17750226070996343159
20764821 26 18118427222071357819
21133410 32 17180875740047540462
23559900 14 18338248101718177030
255183 313 17408512301186063472
469060 322 17839436119099220575
508706 21 18337956688266309999
6669772 16 17906441135459763525
7399639 24 18271801375678286144
9982175 49 16608555013751424464

> <PUBCHEM_SHAPE_MULTIPOLES>
681.63
9.62
6.56
2.7
3.1
5.99
-1.75
-3.51
5.11
-7.46
-2.17
2.22
-0.86
5.86

> <PUBCHEM_SHAPE_SELFOVERLAP>
1522.295

> <PUBCHEM_SHAPE_VOLUME>
361.9

> <PUBCHEM_COORDINATE_TYPE>
2
5
10

$$$$
