REMARK  Name = 135454060
REMARK  6 active torsions:
REMARK  status: ('A' for Active; 'I' for Inactive)
REMARK    1  A    between atoms: C_7  and  C_16
REMARK    2  A    between atoms: C_16  and  C_17
REMARK    3  A    between atoms: C_17  and  N_18
REMARK    4  A    between atoms: N_18  and  C_20
REMARK    5  A    between atoms: C_23  and  C_27
REMARK    6  A    between atoms: C_27  and  O_28
REMARK                            x       y       z     vdW  Elec       q    Type
REMARK                         _______ _______ _______ _____ _____    ______ ____
ROOT
ATOM      1  O   UNL     1       2.764  -1.596  -2.114  0.00  0.00    -0.266 OA
ATOM      2  N   UNL     1       2.025   0.758  -0.971  0.00  0.00    -0.393 NA
ATOM      3  N   UNL     1       3.365   1.505   1.384  0.00  0.00    -0.201 NA
ATOM      4  N   UNL     1       4.337  -1.970  -0.453  0.00  0.00    -0.241 N 
ATOM      5  N   UNL     1       4.667  -0.443   1.313  0.00  0.00    -0.318 NA
ATOM      6  N   UNL     1       5.941  -2.408   1.193  0.00  0.00    -0.320 N 
ATOM      7  C   UNL     1       1.740   1.903  -0.321  0.00  0.00    +0.115 C 
ATOM      8  C   UNL     1       2.992   0.004  -0.413  0.00  0.00    +0.257 C 
ATOM      9  C   UNL     1       2.398   2.269   0.834  0.00  0.00    +0.191 C 
ATOM     10  C   UNL     1       3.662   0.355   0.744  0.00  0.00    +0.121 C 
ATOM     11  C   UNL     1       3.336  -1.252  -1.087  0.00  0.00    +0.293 C 
ATOM     12  C   UNL     1       4.976  -1.562   0.716  0.00  0.00    +0.248 C 
ATOM     13  H   UNL     1       4.616  -2.824  -0.855  0.00  0.00    +0.159 HD
ATOM     14  H   UNL     1       6.144  -3.243   0.713  0.00  0.00    +0.146 HD
ATOM     15  H   UNL     1       6.432  -2.181   2.015  0.00  0.00    +0.146 HD
ENDROOT
BRANCH   7  16
ATOM     16  C   UNL     1       0.678   2.776  -0.894  0.00  0.00    +0.078 C 
BRANCH  16  17
ATOM     17  C   UNL     1      -0.731   2.464  -0.368  0.00  0.00    +0.094 C 
BRANCH  17  18
ATOM     18  N   UNL     1      -1.116   1.114  -0.709  0.00  0.00    -0.332 N 
ATOM     19  H   UNL     1      -0.464   0.550  -1.184  0.00  0.00    +0.147 HD
BRANCH  18  20
ATOM     20  C   UNL     1      -2.353   0.568  -0.405  0.00  0.00    +0.045 C 
ATOM     21  C   UNL     1      -3.307   1.332   0.267  0.00  0.00    +0.015 C 
ATOM     22  C   UNL     1      -2.643  -0.746  -0.771  0.00  0.00    +0.015 C 
ATOM     23  C   UNL     1      -4.841  -0.533   0.207  0.00  0.00    +0.076 C 
ATOM     24  C   UNL     1      -4.551   0.781   0.574  0.00  0.00    +0.008 C 
ATOM     25  C   UNL     1      -3.887  -1.297  -0.465  0.00  0.00    +0.008 C 
BRANCH  23  27
ATOM     26  O   UNL     1      -7.055  -0.523   1.115  0.00  0.00    -0.245 OA
ATOM     27  C   UNL     1      -6.139  -1.107   0.526  0.00  0.00    +0.338 C 
BRANCH  27  28
ATOM     28  O   UNL     1      -6.258  -2.394   0.100  0.00  0.00    -0.477 OA
ATOM     29  H   UNL     1      -5.545  -2.809  -0.345  0.00  0.00    +0.295 HD
ENDBRANCH  27  28
ENDBRANCH  23  27
ENDBRANCH  18  20
ENDBRANCH  17  18
ENDBRANCH  16  17
ENDBRANCH   7  16
TORSDOF 6
