135413535
  -OEChem-03292013293D

 47 48  0     1  0  0  0  0  0999 V2000
   -0.1247   -2.3820   -0.1042 O   0  0  0  0  0  0  0  0  0  0  0  0
    1.9556   -0.5626    0.3757 O   0  0  0  0  0  0  0  0  0  0  0  0
    1.4109   -4.4064   -1.2734 O   0  0  0  0  0  0  0  0  0  0  0  0
    2.7949    0.6740    2.1300 O   0  0  0  0  0  0  0  0  0  0  0  0
   -4.8296    2.0209   -1.0246 O   0  0  0  0  0  0  0  0  0  0  0  0
   -2.2672   -1.4565    0.3005 N   0  0  0  0  0  0  0  0  0  0  0  0
    3.1762    2.8400    0.5318 N   0  0  0  0  0  0  0  0  0  0  0  0
   -4.2081   -0.8576   -0.6356 N   0  0  0  0  0  0  0  0  0  0  0  0
   -1.2758    0.7161    0.6958 N   0  0  0  0  0  0  0  0  0  0  0  0
   -2.7480    2.4500   -0.0568 N   0  0  0  0  0  0  0  0  0  0  0  0
   -0.6659    2.9751    0.9087 N   0  0  0  0  0  0  0  0  0  0  0  0
    3.6413    1.1348   -1.2514 C   0  0  0  0  0  0  0  0  0  0  0  0
    2.7038    1.6178   -0.1204 C   0  0  1  0  0  0  0  0  0  0  0  0
    1.0952   -2.8203    0.4984 C   0  0  2  0  0  0  0  0  0  0  0  0
    1.7074   -1.6548    1.2667 C   0  0  0  0  0  0  0  0  0  0  0  0
    3.7748    2.1932   -2.3516 C   0  0  0  0  0  0  0  0  0  0  0  0
    5.0338    0.7209   -0.7608 C   0  0  0  0  0  0  0  0  0  0  0  0
    2.5072    0.5506    0.9463 C   0  0  0  0  0  0  0  0  0  0  0  0
   -1.1865   -2.3501    0.8407 C   0  0  0  0  0  0  0  0  0  0  0  0
    2.0203   -3.3034   -0.6109 C   0  0  0  0  0  0  0  0  0  0  0  0
   -2.2645   -0.0935    0.2561 C   0  0  0  0  0  0  0  0  0  0  0  0
   -3.4652    0.2419   -0.3216 C   0  0  0  0  0  0  0  0  0  0  0  0
   -3.4571   -1.8697   -0.2474 C   0  0  0  0  0  0  0  0  0  0  0  0
   -3.7858    1.6284   -0.5191 C   0  0  0  0  0  0  0  0  0  0  0  0
   -1.5430    1.9930    0.5272 C   0  0  0  0  0  0  0  0  0  0  0  0
    3.1876    0.2483   -1.7146 H   0  0  0  0  0  0  0  0  0  0  0  0
    1.7132    1.8322   -0.5403 H   0  0  0  0  0  0  0  0  0  0  0  0
    0.8833   -3.6606    1.1723 H   0  0  0  0  0  0  0  0  0  0  0  0
    2.6571   -1.9712    1.7151 H   0  0  0  0  0  0  0  0  0  0  0  0
    1.0502   -1.3068    2.0691 H   0  0  0  0  0  0  0  0  0  0  0  0
    5.5625    1.5587   -0.2944 H   0  0  0  0  0  0  0  0  0  0  0  0
    5.6454    0.3647   -1.5970 H   0  0  0  0  0  0  0  0  0  0  0  0
    4.3320    3.0724   -2.0123 H   0  0  0  0  0  0  0  0  0  0  0  0
    2.7899    2.5215   -2.7000 H   0  0  0  0  0  0  0  0  0  0  0  0
    4.3095    1.7804   -3.2142 H   0  0  0  0  0  0  0  0  0  0  0  0
    4.9730   -0.0927   -0.0312 H   0  0  0  0  0  0  0  0  0  0  0  0
   -1.6255   -3.3460    0.9582 H   0  0  0  0  0  0  0  0  0  0  0  0
   -0.9227   -1.9285    1.8143 H   0  0  0  0  0  0  0  0  0  0  0  0
    2.9848   -3.6279   -0.2082 H   0  0  0  0  0  0  0  0  0  0  0  0
    2.1844   -2.5246   -1.3629 H   0  0  0  0  0  0  0  0  0  0  0  0
    2.4996    3.1363    1.2345 H   0  0  0  0  0  0  0  0  0  0  0  0
    3.2228    3.5994   -0.1457 H   0  0  0  0  0  0  0  0  0  0  0  0
   -3.7179   -2.9154   -0.3366 H   0  0  0  0  0  0  0  0  0  0  0  0
   -2.8720    3.4541   -0.1488 H   0  0  0  0  0  0  0  0  0  0  0  0
    2.0240   -4.6934   -1.9716 H   0  0  0  0  0  0  0  0  0  0  0  0
    0.2199    2.7462    1.3458 H   0  0  0  0  0  0  0  0  0  0  0  0
   -0.8795    3.9571    0.7733 H   0  0  0  0  0  0  0  0  0  0  0  0
  1 14  1  0  0  0  0
  1 19  1  0  0  0  0
  2 15  1  0  0  0  0
  2 18  1  0  0  0  0
  3 20  1  0  0  0  0
  3 45  1  0  0  0  0
  4 18  2  0  0  0  0
  5 24  2  0  0  0  0
  6 19  1  0  0  0  0
  6 21  1  0  0  0  0
  6 23  1  0  0  0  0
  7 13  1  0  0  0  0
  7 41  1  0  0  0  0
  7 42  1  0  0  0  0
  8 22  1  0  0  0  0
  8 23  2  0  0  0  0
  9 21  1  0  0  0  0
  9 25  2  0  0  0  0
 10 24  1  0  0  0  0
 10 25  1  0  0  0  0
 10 44  1  0  0  0  0
 11 25  1  0  0  0  0
 11 46  1  0  0  0  0
 11 47  1  0  0  0  0
 12 13  1  0  0  0  0
 12 16  1  0  0  0  0
 12 17  1  0  0  0  0
 12 26  1  0  0  0  0
 13 18  1  0  0  0  0
 13 27  1  0  0  0  0
 14 15  1  0  0  0  0
 14 20  1  0  0  0  0
 14 28  1  0  0  0  0
 15 29  1  0  0  0  0
 15 30  1  0  0  0  0
 16 33  1  0  0  0  0
 16 34  1  0  0  0  0
 16 35  1  0  0  0  0
 17 31  1  0  0  0  0
 17 32  1  0  0  0  0
 17 36  1  0  0  0  0
 19 37  1  0  0  0  0
 19 38  1  0  0  0  0
 20 39  1  0  0  0  0
 20 40  1  0  0  0  0
 21 22  2  0  0  0  0
 22 24  1  0  0  0  0
 23 43  1  0  0  0  0
M  END
> <PUBCHEM_COMPOUND_CID>
135413535

> <PUBCHEM_CONFORMER_RMSD>
1

> <PUBCHEM_CONFORMER_DIVERSEORDER>
1
176
165
192
129
137
210
38
36
56
226
136
122
159
24
97
95
198
150
74
285
101
19
64
130
144
172
11
13
157
6
27
283
39
162
241
115
218
106
134
113
204
197
258
94
223
35
55
12
267
43
271
182
10
107
124
229
133
48
114
265
126
235
155
243
175
140
240
234
58
156
236
209
194
117
251
170
111
284
70
76
199
187
77
121
65
167
83
41
132
237
87
238
72
61
185
32
255
141
215
4
203
280
266
205
135
69
281
44
286
109
102
86
80
264
227
148
160
103
214
139
149
195
177
231
119
270
256
181
253
42
278
245
100
152
279
242
2
222
232
161
8
257
81
82
91
169
208
60
146
164
20
225
180
200
67
206
190
59
123
174
193
96
219
7
25
201
99
46
196
163
89
49
230
54
68
228
33
186
105
217
116
250
92
51
216
17
263
128
247
142
276
28
145
79
3
66
15
188
173
84
9
178
273
40
249
277
108
104
88
138
127
110
53
31
224
275
233
131
239
22
147
5
151
183
63
166
62
85
221
248
261
153
47
52
98
213
93
45
71
268
90
211
272
154
26
158
18
30
282
23
112
171
220
246
254
120
189
168
14
143
207
34
57
50
125
191
73
29
16
260
184
244
252
262
202
269
37
274
21
212
179
75
259
118
78

> <PUBCHEM_MMFF94_PARTIAL_CHARGES>
29
1 -0.56
10 -0.49
11 -0.85
13 0.33
14 0.28
15 0.28
18 0.66
19 0.54
2 -0.43
20 0.28
21 -0.03
22 0.14
23 0.04
24 0.72
25 0.56
3 -0.68
4 -0.57
41 0.36
42 0.36
43 0.15
44 0.37
45 0.4
46 0.4
47 0.4
5 -0.57
6 0.05
7 -0.99
8 -0.57
9 -0.58

> <PUBCHEM_EFFECTIVE_ROTOR_COUNT>
9

> <PUBCHEM_PHARMACOPHORE_FEATURES>
13
1 1 acceptor
1 10 donor
1 11 donor
1 3 acceptor
1 3 donor
1 4 acceptor
1 5 acceptor
1 7 cation
1 7 donor
3 12 16 17 hydrophobe
3 6 8 23 cation
5 6 8 21 22 23 rings
6 9 10 21 22 24 25 rings

> <PUBCHEM_HEAVY_ATOM_COUNT>
25

> <PUBCHEM_ATOM_DEF_STEREO_COUNT>
1

> <PUBCHEM_ATOM_UDEF_STEREO_COUNT>
1

> <PUBCHEM_BOND_DEF_STEREO_COUNT>
0

> <PUBCHEM_BOND_UDEF_STEREO_COUNT>
0

> <PUBCHEM_ISOTOPIC_ATOM_COUNT>
0

> <PUBCHEM_COMPONENT_COUNT>
1

> <PUBCHEM_CACTVS_TAUTO_COUNT>
-1

> <PUBCHEM_CONFORMER_ID>
08123F1F00000001

> <PUBCHEM_MMFF94_ENERGY>
45.3099

> <PUBCHEM_FEATURE_SELFOVERLAP>
66.153

> <PUBCHEM_SHAPE_FINGERPRINT>
10498660 4 18265894833531004243
10616163 171 18409443713231697451
10670039 82 18261957461270543092
10759866 29 17895188973957777512
12553582 1 18338514265637754401
14114211 80 18054253156342455635
14251757 17 17915488054735472070
14251757 5 17760106385678908788
16752209 62 18337669840206416712
17980427 23 17977626945378029586
18681886 176 18336540621060455456
20715895 44 17827049850583694477
20775438 99 16691862746345619918
21141583 151 18127419058117226936
21860390 5 18196363715477447918
22393880 68 18410571807756513324
23559900 14 18268983194279652499
238 59 18201446886882088774
26353 1 17408266671837463662
3298306 158 18411975880063059829
474 4 18114739318247783411
5048184 11 18334016068699667653
9709674 26 18339916005556175379
9981440 41 18261392286339992146

> <PUBCHEM_SHAPE_MULTIPOLES>
455.26
8.74
4.56
1.43
0.55
3.15
-0.12
-5.43
-3.41
-0.99
-0.89
-1.54
-0.36
-0.21

> <PUBCHEM_SHAPE_SELFOVERLAP>
942.758

> <PUBCHEM_SHAPE_VOLUME>
257.8

> <PUBCHEM_COORDINATE_TYPE>
2
5
10

$$$$
