REMARK  Name = 135431817
REMARK  3 active torsions:
REMARK  status: ('A' for Active; 'I' for Inactive)
REMARK    1  A    between atoms: N_2  and  C_17
REMARK    2  A    between atoms: C_20  and  C_21
REMARK    3  A    between atoms: C_21  and  O_22
REMARK                            x       y       z     vdW  Elec       q    Type
REMARK                         _______ _______ _______ _____ _____    ______ ____
ROOT
ATOM      1  O   UNL     1       4.159  -1.944  -0.304  0.00  0.00    -0.268 OA
ATOM      2  N   UNL     1      -0.040  -0.321   0.086  0.00  0.00    -0.239 N 
ATOM      3  N   UNL     1       1.198  -2.160  -0.212  0.00  0.00    -0.240 NA
ATOM      4  N   UNL     1       1.694   1.361   0.242  0.00  0.00    -0.357 NA
ATOM      5  N   UNL     1       3.855   0.349   0.018  0.00  0.00    -0.243 N 
ATOM      6  N   UNL     1       3.642   2.672   0.339  0.00  0.00    -0.321 N 
ATOM      7  C   UNL     1       1.261   0.090   0.088  0.00  0.00    +0.211 C 
ATOM      8  C   UNL     1      -0.026  -1.682  -0.098  0.00  0.00    +0.224 C 
ATOM      9  C   UNL     1       1.993  -1.058  -0.096  0.00  0.00    +0.176 C 
ATOM     10  C   UNL     1       3.426  -0.976  -0.143  0.00  0.00    +0.273 C 
ATOM     11  C   UNL     1       3.005   1.465   0.203  0.00  0.00    +0.239 C 
ATOM     12  H   UNL     1       4.825   0.516   0.001  0.00  0.00    +0.159 HD
ATOM     13  H   UNL     1       3.116   3.494   0.471  0.00  0.00    +0.146 HD
ATOM     14  H   UNL     1       4.625   2.716   0.305  0.00  0.00    +0.146 HD
ENDROOT
BRANCH   2  17
ATOM     15  F   UNL     1      -3.340   2.475  -0.047  0.00  0.00    -0.234 F 
ATOM     16  O   UNL     1      -2.334  -0.168   0.913  0.00  0.00    -0.335 OA
ATOM     17  C   UNL     1      -1.267   0.538   0.251  0.00  0.00    +0.198 C 
ATOM     18  C   UNL     1      -1.838   1.027  -1.074  0.00  0.00    +0.089 C 
ATOM     19  C   UNL     1      -3.277   1.282  -0.706  0.00  0.00    +0.195 C 
ATOM     20  C   UNL     1      -3.586   0.176   0.287  0.00  0.00    +0.179 C 
BRANCH  20  21
ATOM     21  C   UNL     1      -4.141  -1.077  -0.374  0.00  0.00    +0.170 C 
BRANCH  21  22
ATOM     22  O   UNL     1      -4.386  -2.049   0.627  0.00  0.00    -0.379 OA
ATOM     23  H   UNL     1      -4.740  -2.853   0.217  0.00  0.00    +0.211 HD
ENDBRANCH  21  22
ENDBRANCH  20  21
ENDBRANCH   2  17
TORSDOF 3
