REMARK  Name = 135483447
REMARK  4 active torsions:
REMARK  status: ('A' for Active; 'I' for Inactive)
REMARK    1  A    between atoms: C_5  and  O_14
REMARK    2  A    between atoms: C_7  and  O_16
REMARK    3  A    between atoms: C_11  and  O_18
REMARK    4  A    between atoms: C_12  and  O_20
REMARK                            x       y       z     vdW  Elec       q    Type
REMARK                         _______ _______ _______ _____ _____    ______ ____
ROOT
ATOM      1  O   UNL     1       0.619   2.731   0.000  0.00  0.00    -0.283 OA
ATOM      2  O   UNL     1       1.516  -2.536   0.001  0.00  0.00    -0.283 OA
ATOM      3  C   UNL     1      -0.344   0.565   0.001  0.00  0.00    +0.082 C 
ATOM      4  C   UNL     1      -0.108  -0.811   0.001  0.00  0.00    +0.082 C 
ATOM      5  C   UNL     1      -1.657   1.049   0.001  0.00  0.00    +0.133 C 
ATOM      6  C   UNL     1      -2.729   0.156  -0.001  0.00  0.00    +0.015 C 
ATOM      7  C   UNL     1      -1.187  -1.704   0.000  0.00  0.00    +0.137 C 
ATOM      8  C   UNL     1       0.783   1.517   0.000  0.00  0.00    +0.235 C 
ATOM      9  C   UNL     1       1.270  -1.336   0.001  0.00  0.00    +0.235 C 
ATOM     10  C   UNL     1      -2.494  -1.217  -0.001  0.00  0.00    +0.035 C 
ATOM     11  C   UNL     1       2.159   0.962   0.000  0.00  0.00    +0.211 C 
ATOM     12  C   UNL     1       2.385  -0.358   0.000  0.00  0.00    +0.211 C 
ATOM     13  C   UNL     1      -4.139   0.649  -0.001  0.00  0.00    +0.034 C 
ENDROOT
BRANCH   5  14
ATOM     14  O   UNL     1      -1.936   2.385   0.001  0.00  0.00    -0.506 OA
ATOM     15  H   UNL     1      -1.238   3.010   0.002  0.00  0.00    +0.292 HD
ENDBRANCH   5  14
BRANCH   7  16
ATOM     16  O   UNL     1      -1.024  -3.057   0.000  0.00  0.00    -0.505 OA
ATOM     17  H   UNL     1      -0.163  -3.426   0.001  0.00  0.00    +0.292 HD
ENDBRANCH   7  16
BRANCH  11  18
ATOM     18  O   UNL     1       3.212   1.857   0.000  0.00  0.00    -0.501 OA
ATOM     19  H   UNL     1       3.043   2.779   0.000  0.00  0.00    +0.292 HD
ENDBRANCH  11  18
BRANCH  12  20
ATOM     20  O   UNL     1       3.675  -0.854  -0.002  0.00  0.00    -0.501 OA
ATOM     21  H   UNL     1       3.821  -1.779  -0.002  0.00  0.00    +0.292 HD
ENDBRANCH  12  20
TORSDOF 4
