REMARK  Name = 135440466
REMARK  7 active torsions:
REMARK  status: ('A' for Active; 'I' for Inactive)
REMARK    1  A    between atoms: C_3  and  C_17
REMARK    2  A    between atoms: C_4  and  N_27
REMARK    3  A    between atoms: C_11  and  N_22
REMARK    4  A    between atoms: N_27  and  C_29
REMARK    5  A    between atoms: C_29  and  C_30
REMARK    6  A    between atoms: C_30  and  C_32
REMARK    7  A    between atoms: C_30  and  O_38
REMARK                            x       y       z     vdW  Elec       q    Type
REMARK                         _______ _______ _______ _____ _____    ______ ____
ROOT
ATOM      1  O   UNL     1       3.188  -3.768  -0.990  0.00  0.00    -0.270 OA
ATOM      2  N   UNL     1       5.104  -2.500  -1.002  0.00  0.00    -0.280 N 
ATOM      3  C   UNL     1       2.998  -1.515  -0.218  0.00  0.00    +0.081 C 
ATOM      4  C   UNL     1       3.650  -0.348   0.016  0.00  0.00    +0.050 C 
ATOM      5  C   UNL     1       3.756  -2.700  -0.769  0.00  0.00    +0.250 C 
ATOM      6  C   UNL     1       5.076  -0.265  -0.272  0.00  0.00    +0.030 C 
ATOM      7  C   UNL     1       5.742  -1.316  -0.759  0.00  0.00    +0.065 C 
ATOM      8  H   UNL     1       5.632  -3.249  -1.361  0.00  0.00    +0.155 HD
ENDROOT
BRANCH   3  17
ATOM      9  N   UNL     1       0.775  -0.814  -0.630  0.00  0.00    -0.314 N 
ATOM     10  N   UNL     1       0.978  -2.462   0.847  0.00  0.00    -0.315 N 
ATOM     11  C   UNL     1      -2.868  -1.133   0.031  0.00  0.00    +0.049 C 
ATOM     12  C   UNL     1      -0.504  -1.108  -0.232  0.00  0.00    +0.060 C 
ATOM     13  C   UNL     1      -0.350  -2.140   0.690  0.00  0.00    +0.055 C 
ATOM     14  C   UNL     1      -1.744  -0.577  -0.589  0.00  0.00    +0.030 C 
ATOM     15  C   UNL     1      -1.491  -2.687   1.302  0.00  0.00    -0.006 C 
ATOM     16  C   UNL     1      -2.746  -2.169   0.960  0.00  0.00    +0.012 C 
ATOM     17  C   UNL     1       1.624  -1.649   0.042  0.00  0.00    +0.173 C 
ATOM     18  C   UNL     1      -1.412  -3.795   2.301  0.00  0.00    +0.032 C 
ATOM     19  H   UNL     1       1.035  -0.124  -1.283  0.00  0.00    +0.149 HD
ATOM     20  H   UNL     1       1.362  -3.152   1.435  0.00  0.00    +0.149 HD
BRANCH  11  22
ATOM     21  O   UNL     1      -6.782   0.089  -0.901  0.00  0.00    -0.350 OA
ATOM     22  N   UNL     1      -4.138  -0.640  -0.288  0.00  0.00    -0.303 N 
ATOM     23  C   UNL     1      -5.182  -0.693   0.745  0.00  0.00    +0.123 C 
ATOM     24  C   UNL     1      -4.623  -0.707  -1.670  0.00  0.00    +0.123 C 
ATOM     25  C   UNL     1      -6.282   0.310   0.418  0.00  0.00    +0.164 C 
ATOM     26  C   UNL     1      -5.754   0.296  -1.869  0.00  0.00    +0.164 C 
ENDBRANCH  11  22
ENDBRANCH   3  17
BRANCH   4  27
ATOM     27  N   UNL     1       3.070   0.791   0.514  0.00  0.00    -0.330 N 
ATOM     28  H   UNL     1       2.215   0.710   0.994  0.00  0.00    +0.147 HD
BRANCH  27  29
ATOM     29  C   UNL     1       3.651   2.096   0.367  0.00  0.00    +0.121 C 
BRANCH  29  30
ATOM     30  C   UNL     1       2.736   3.144   1.005  0.00  0.00    +0.152 C 
BRANCH  30  32
ATOM     31 CL   UNL     1      -2.440   2.721   1.498  0.00  0.00    -0.082 Cl
ATOM     32  C   UNL     1       1.369   3.164   0.360  0.00  0.00    +0.007 C 
ATOM     33  C   UNL     1       0.228   2.958   1.136  0.00  0.00    +0.009 C 
ATOM     34  C   UNL     1       1.249   3.389  -1.011  0.00  0.00    -0.002 C 
ATOM     35  C   UNL     1      -1.033   2.977   0.540  0.00  0.00    +0.057 C 
ATOM     36  C   UNL     1      -0.013   3.407  -1.607  0.00  0.00    +0.001 C 
ATOM     37  C   UNL     1      -1.153   3.202  -0.831  0.00  0.00    +0.011 C 
ENDBRANCH  30  32
BRANCH  30  38
ATOM     38  O   UNL     1       3.318   4.441   0.868  0.00  0.00    -0.378 OA
ATOM     39  H   UNL     1       4.197   4.445   1.278  0.00  0.00    +0.211 HD
ENDBRANCH  30  38
ENDBRANCH  29  30
ENDBRANCH  27  29
ENDBRANCH   4  27
TORSDOF 7
