REMARK  Name = 135499684
REMARK  8 active torsions:
REMARK  status: ('A' for Active; 'I' for Inactive)
REMARK    1  A    between atoms: C_2  and  C_19
REMARK    2  A    between atoms: C_3  and  C_6
REMARK    3  A    between atoms: C_9  and  C_14
REMARK    4  A    between atoms: N_13  and  C_14
REMARK    5  A    between atoms: N_13  and  O_17
REMARK    6  A    between atoms: C_22  and  C_27
REMARK    7  A    between atoms: N_26  and  C_27
REMARK    8  A    between atoms: N_26  and  O_30
REMARK                            x       y       z     vdW  Elec       q    Type
REMARK                         _______ _______ _______ _____ _____    ______ ____
ROOT
ATOM      1  O   UNL     1      -0.003   0.669  -0.001  0.00  0.00    -0.453 OA
ATOM      2  C   UNL     1      -1.093   1.480   0.018  0.00  0.00    +0.145 C 
ATOM      3  C   UNL     1       1.087   1.481  -0.019  0.00  0.00    +0.145 C 
ATOM      4  C   UNL     1       0.704   2.803  -0.012  0.00  0.00    +0.041 C 
ATOM      5  C   UNL     1      -0.711   2.802   0.012  0.00  0.00    +0.041 C 
ENDROOT
BRANCH   3   6
ATOM      6  C   UNL     1       2.361   0.806  -0.040  0.00  0.00    +0.035 C 
ATOM      7  C   UNL     1       3.543   1.548  -0.059  0.00  0.00    +0.003 C 
ATOM      8  C   UNL     1       2.413  -0.588  -0.041  0.00  0.00    +0.003 C 
ATOM      9  C   UNL     1       4.826  -0.499  -0.081  0.00  0.00    +0.036 C 
ATOM     10  C   UNL     1       4.775   0.895  -0.079  0.00  0.00    +0.003 C 
ATOM     11  C   UNL     1       3.645  -1.240  -0.061  0.00  0.00    +0.003 C 
BRANCH   9  13
ATOM     12  N   UNL     1       6.224  -2.432  -0.713  0.00  0.00    -0.381 N 
ATOM     13  C   UNL     1       6.112  -1.178  -0.099  0.00  0.00    +0.160 C 
ATOM     14  H   UNL     1       7.092  -2.897  -0.728  0.00  0.00    +0.157 HD
ATOM     15  H   UNL     1       5.436  -2.849  -1.129  0.00  0.00    +0.157 HD
BRANCH  13  16
ATOM     16  N   UNL     1       7.149  -0.582   0.469  0.00  0.00    -0.118 NA
BRANCH  16  17
ATOM     17  O   UNL     1       8.316  -1.347   0.375  0.00  0.00    -0.264 OA
ATOM     18  H   UNL     1       9.117  -1.027   0.742  0.00  0.00    +0.247 HD
ENDBRANCH  16  17
ENDBRANCH  13  16
ENDBRANCH   9  13
ENDBRANCH   3   6
BRANCH   2  19
ATOM     19  C   UNL     1      -2.361   0.808   0.039  0.00  0.00    +0.035 C 
ATOM     20  C   UNL     1      -3.542   1.548   0.060  0.00  0.00    +0.003 C 
ATOM     21  C   UNL     1      -2.411  -0.586   0.039  0.00  0.00    +0.003 C 
ATOM     22  C   UNL     1      -4.825  -0.499   0.081  0.00  0.00    +0.036 C 
ATOM     23  C   UNL     1      -4.775   0.895   0.081  0.00  0.00    +0.003 C 
ATOM     24  C   UNL     1      -3.643  -1.240   0.060  0.00  0.00    +0.003 C 
BRANCH  22  26
ATOM     25  N   UNL     1      -6.221  -2.434   0.712  0.00  0.00    -0.381 N 
ATOM     26  C   UNL     1      -6.110  -1.180   0.099  0.00  0.00    +0.160 C 
ATOM     27  H   UNL     1      -7.089  -2.899   0.728  0.00  0.00    +0.157 HD
ATOM     28  H   UNL     1      -5.432  -2.851   1.128  0.00  0.00    +0.157 HD
BRANCH  26  29
ATOM     29  N   UNL     1      -7.148  -0.583  -0.468  0.00  0.00    -0.118 NA
BRANCH  29  30
ATOM     30  O   UNL     1      -8.314  -1.349  -0.373  0.00  0.00    -0.264 OA
ATOM     31  H   UNL     1      -9.116  -1.030  -0.739  0.00  0.00    +0.247 HD
ENDBRANCH  29  30
ENDBRANCH  26  29
ENDBRANCH  22  26
ENDBRANCH   2  19
TORSDOF 8
