REMARK  Name = 135433664
REMARK  4 active torsions:
REMARK  status: ('A' for Active; 'I' for Inactive)
REMARK    1  A    between atoms: N_2  and  C_18
REMARK    2  A    between atoms: C_19  and  O_22
REMARK    3  A    between atoms: C_21  and  C_24
REMARK    4  A    between atoms: C_24  and  O_25
REMARK                            x       y       z     vdW  Elec       q    Type
REMARK                         _______ _______ _______ _____ _____    ______ ____
ROOT
ATOM      1  O   UNL     1       4.312   1.897   0.849  0.00  0.00    -0.268 OA
ATOM      2  N   UNL     1       0.166   0.405  -0.153  0.00  0.00    -0.234 N 
ATOM      3  N   UNL     1       1.351   2.092   0.712  0.00  0.00    -0.240 NA
ATOM      4  N   UNL     1       1.943  -1.137  -0.726  0.00  0.00    -0.357 NA
ATOM      5  N   UNL     1       4.071  -0.207  -0.136  0.00  0.00    -0.243 N 
ATOM      6  N   UNL     1       3.922  -2.338  -1.125  0.00  0.00    -0.321 N 
ATOM      7  C   UNL     1       1.475   0.029  -0.226  0.00  0.00    +0.211 C 
ATOM      8  C   UNL     1       0.143   1.653   0.418  0.00  0.00    +0.224 C 
ATOM      9  C   UNL     1       2.174   1.082   0.311  0.00  0.00    +0.176 C 
ATOM     10  C   UNL     1       3.607   1.008   0.387  0.00  0.00    +0.273 C 
ATOM     11  C   UNL     1       3.254  -1.232  -0.669  0.00  0.00    +0.239 C 
ATOM     12  H   UNL     1       5.043  -0.360  -0.131  0.00  0.00    +0.159 HD
ATOM     13  H   UNL     1       3.420  -3.093  -1.510  0.00  0.00    +0.146 HD
ATOM     14  H   UNL     1       4.904  -2.378  -1.068  0.00  0.00    +0.146 HD
ENDROOT
BRANCH   2  18
ATOM     15  F   UNL     1      -0.862  -1.492   1.520  0.00  0.00    -0.197 F 
ATOM     16  F   UNL     1      -2.054  -2.427  -0.045  0.00  0.00    -0.197 F 
ATOM     17  O   UNL     1      -2.074   0.502  -1.089  0.00  0.00    -0.331 OA
ATOM     18  C   UNL     1      -1.037  -0.386  -0.608  0.00  0.00    +0.261 C 
ATOM     19  C   UNL     1      -2.886  -0.439   0.902  0.00  0.00    +0.206 C 
ATOM     20  C   UNL     1      -1.678  -1.236   0.482  0.00  0.00    +0.332 C 
ATOM     21  C   UNL     1      -3.305   0.170  -0.423  0.00  0.00    +0.179 C 
BRANCH  19  22
ATOM     22  O   UNL     1      -3.885  -1.266   1.461  0.00  0.00    -0.377 OA
ATOM     23  H   UNL     1      -3.570  -1.629   2.303  0.00  0.00    +0.211 HD
ENDBRANCH  19  22
BRANCH  21  24
ATOM     24  C   UNL     1      -4.156   1.418  -0.276  0.00  0.00    +0.169 C 
BRANCH  24  25
ATOM     25  O   UNL     1      -4.481   1.906  -1.567  0.00  0.00    -0.379 OA
ATOM     26  H   UNL     1      -5.025   2.705  -1.484  0.00  0.00    +0.211 HD
ENDBRANCH  24  25
ENDBRANCH  21  24
ENDBRANCH   2  18
TORSDOF 4
