REMARK  Name = 135457360
REMARK  7 active torsions:
REMARK  status: ('A' for Active; 'I' for Inactive)
REMARK    1  A    between atoms: C_3  and  C_9
REMARK    2  A    between atoms: C_4  and  C_19
REMARK    3  A    between atoms: C_5  and  O_27
REMARK    4  A    between atoms: C_6  and  O_29
REMARK    5  A    between atoms: C_12  and  O_15
REMARK    6  A    between atoms: C_14  and  O_17
REMARK    7  A    between atoms: C_24  and  O_25
REMARK                            x       y       z     vdW  Elec       q    Type
REMARK                         _______ _______ _______ _____ _____    ______ ____
ROOT
ATOM      1  O   UNL     1       1.056  -2.326   0.188  0.00  0.00    -0.283 OA
ATOM      2  O   UNL     1      -1.517   2.333   0.055  0.00  0.00    -0.283 OA
ATOM      3  C   UNL     1       1.214   0.040   0.155  0.00  0.00    +0.079 C 
ATOM      4  C   UNL     1      -1.675  -0.034   0.053  0.00  0.00    +0.079 C 
ATOM      5  C   UNL     1       0.553   1.207   0.118  0.00  0.00    +0.176 C 
ATOM      6  C   UNL     1      -1.013  -1.201   0.083  0.00  0.00    +0.176 C 
ATOM      7  C   UNL     1       0.469  -1.248   0.145  0.00  0.00    +0.232 C 
ATOM      8  C   UNL     1      -0.930   1.254   0.073  0.00  0.00    +0.232 C 
ENDROOT
BRANCH   3   9
ATOM      9  C   UNL     1       2.688   0.020   0.196  0.00  0.00    +0.009 C 
ATOM     10  C   UNL     1       3.418  -0.010  -0.992  0.00  0.00    +0.040 C 
ATOM     11  C   UNL     1       3.352   0.029   1.422  0.00  0.00    +0.004 C 
ATOM     12  C   UNL     1       4.812  -0.030  -0.954  0.00  0.00    +0.167 C 
ATOM     13  C   UNL     1       4.746   0.009   1.461  0.00  0.00    +0.040 C 
ATOM     14  C   UNL     1       5.476  -0.021   0.273  0.00  0.00    +0.167 C 
BRANCH  12  15
ATOM     15  O   UNL     1       5.515  -0.060  -2.120  0.00  0.00    -0.503 OA
ATOM     16  H   UNL     1       5.061  -0.066  -2.940  0.00  0.00    +0.292 HD
ENDBRANCH  12  15
BRANCH  14  17
ATOM     17  O   UNL     1       6.837  -0.042   0.324  0.00  0.00    -0.503 OA
ATOM     18  H   UNL     1       7.335  -0.062  -0.469  0.00  0.00    +0.292 HD
ENDBRANCH  14  17
ENDBRANCH   3   9
BRANCH   4  19
ATOM     19  C   UNL     1      -3.148  -0.013  -0.013  0.00  0.00    +0.006 C 
ATOM     20  C   UNL     1      -3.898  -0.002   1.163  0.00  0.00    +0.003 C 
ATOM     21  C   UNL     1      -3.791  -0.005  -1.251  0.00  0.00    +0.003 C 
ATOM     22  C   UNL     1      -5.292   0.016   1.101  0.00  0.00    +0.037 C 
ATOM     23  C   UNL     1      -5.184   0.013  -1.313  0.00  0.00    +0.037 C 
ATOM     24  C   UNL     1      -5.935   0.024  -0.137  0.00  0.00    +0.134 C 
BRANCH  24  25
ATOM     25  O   UNL     1      -7.294   0.041  -0.198  0.00  0.00    -0.506 OA
ATOM     26  H   UNL     1      -7.798   0.048   0.592  0.00  0.00    +0.292 HD
ENDBRANCH  24  25
ENDBRANCH   4  19
BRANCH   5  27
ATOM     27  O   UNL     1       1.220   2.419   0.116  0.00  0.00    -0.503 OA
ATOM     28  H   UNL     1       2.156   2.439   0.144  0.00  0.00    +0.292 HD
ENDBRANCH   5  27
BRANCH   6  29
ATOM     29  O   UNL     1      -1.678  -2.413   0.054  0.00  0.00    -0.503 OA
ATOM     30  H   UNL     1      -2.614  -2.434   0.015  0.00  0.00    +0.292 HD
ENDBRANCH   6  29
TORSDOF 7
