REMARK  Name = 135493835
REMARK  4 active torsions:
REMARK  status: ('A' for Active; 'I' for Inactive)
REMARK    1  A    between atoms: C_12  and  O_20
REMARK    2  A    between atoms: C_13  and  C_25
REMARK    3  A    between atoms: C_18  and  O_22
REMARK    4  A    between atoms: C_25  and  O_26
REMARK                            x       y       z     vdW  Elec       q    Type
REMARK                         _______ _______ _______ _____ _____    ______ ____
ROOT
ATOM      1  O   UNL     1      -1.166  -3.059  -0.105  0.00  0.00    -0.289 OA
ATOM      2  O   UNL     1       1.129   3.790   0.025  0.00  0.00    -0.284 OA
ATOM      3  N   UNL     1       0.591  -0.930  -0.113  0.00  0.00    -0.320 N 
ATOM      4  N   UNL     1      -0.482   1.639   0.009  0.00  0.00    -0.399 NA
ATOM      5  C   UNL     1      -0.768  -0.730  -0.055  0.00  0.00    +0.185 C 
ATOM      6  C   UNL     1      -1.286   0.513   0.003  0.00  0.00    +0.140 C 
ATOM      7  C   UNL     1       1.487   0.111  -0.115  0.00  0.00    +0.085 C 
ATOM      8  C   UNL     1       0.804   1.453  -0.045  0.00  0.00    +0.183 C 
ATOM      9  C   UNL     1      -2.740   0.712   0.063  0.00  0.00    +0.098 C 
ATOM     10  C   UNL     1      -1.649  -1.930  -0.059  0.00  0.00    +0.197 C 
ATOM     11  C   UNL     1      -3.136  -1.722  -0.004  0.00  0.00    +0.049 C 
ATOM     12  C   UNL     1      -3.624  -0.466   0.059  0.00  0.00    +0.138 C 
ATOM     13  C   UNL     1       2.830   0.094  -0.168  0.00  0.00    +0.091 C 
ATOM     14  C   UNL     1       1.661   2.692  -0.036  0.00  0.00    +0.226 C 
ATOM     15  C   UNL     1       3.635   1.296  -0.163  0.00  0.00    +0.011 C 
ATOM     16  C   UNL     1      -3.944  -2.989  -0.035  0.00  0.00    +0.037 C 
ATOM     17  C   UNL     1       3.122   2.528  -0.102  0.00  0.00    +0.045 C 
ATOM     18  C   UNL     1      -3.259   1.956   0.121  0.00  0.00    +0.173 C 
ATOM     19  H   UNL     1       0.934  -1.852  -0.153  0.00  0.00    +0.148 HD
ENDROOT
BRANCH  12  20
ATOM     20  O   UNL     1      -4.973  -0.175   0.130  0.00  0.00    -0.506 OA
ATOM     21  H   UNL     1      -5.259   0.716   0.172  0.00  0.00    +0.292 HD
ENDBRANCH  12  20
BRANCH  18  22
ATOM     22  O   UNL     1      -4.586   2.232   0.208  0.00  0.00    -0.503 OA
ATOM     23  H   UNL     1      -4.878   3.121   0.245  0.00  0.00    +0.292 HD
ENDBRANCH  18  22
BRANCH  13  25
ATOM     24  O   UNL     1       3.370  -2.000  -1.138  0.00  0.00    -0.245 OA
ATOM     25  C   UNL     1       3.533  -1.199  -0.237  0.00  0.00    +0.343 C 
BRANCH  25  26
ATOM     26  O   UNL     1       4.346  -1.301   0.842  0.00  0.00    -0.441 OA
ATOM     27  C   UNL     1       5.103  -2.513   0.918  0.00  0.00    +0.256 C 
ENDBRANCH  25  26
ENDBRANCH  13  25
TORSDOF 4
