REMARK  Name = 135464871
REMARK  5 active torsions:
REMARK  status: ('A' for Active; 'I' for Inactive)
REMARK    1  A    between atoms: C_1  and  N_7
REMARK    2  A    between atoms: C_2  and  C_21
REMARK    3  A    between atoms: C_4  and  O_17
REMARK    4  A    between atoms: C_5  and  O_19
REMARK    5  A    between atoms: C_21  and  O_22
REMARK                            x       y       z     vdW  Elec       q    Type
REMARK                         _______ _______ _______ _____ _____    ______ ____
ROOT
ATOM      1  C   UNL     1      -0.928  -1.233   0.222  0.00  0.00    +0.105 C 
ATOM      2  C   UNL     1      -3.025  -0.124   0.615  0.00  0.00    +0.060 C 
ATOM      3  C   UNL     1      -1.647  -0.336   1.242  0.00  0.00    +0.027 C 
ATOM      4  C   UNL     1      -1.548  -0.876  -1.152  0.00  0.00    +0.155 C 
ATOM      5  C   UNL     1      -2.688   0.109  -0.862  0.00  0.00    +0.141 C 
ENDROOT
BRANCH   1   7
ATOM      6  O   UNL     1       4.866   0.336   0.163  0.00  0.00    -0.268 OA
ATOM      7  N   UNL     1       0.578  -1.098   0.273  0.00  0.00    -0.271 N 
ATOM      8  N   UNL     1       2.721  -1.686   0.533  0.00  0.00    -0.241 NA
ATOM      9  N   UNL     1       0.828   1.250  -0.276  0.00  0.00    -0.232 NA
ATOM     10  N   UNL     1       3.155   1.858  -0.293  0.00  0.00    -0.279 N 
ATOM     11  C   UNL     1       1.313   0.028   0.044  0.00  0.00    +0.152 C 
ATOM     12  C   UNL     1       1.469  -2.102   0.564  0.00  0.00    +0.221 C 
ATOM     13  C   UNL     1       2.621  -0.365   0.210  0.00  0.00    +0.162 C 
ATOM     14  C   UNL     1       3.677   0.600   0.037  0.00  0.00    +0.267 C 
ATOM     15  C   UNL     1       1.786   2.117  -0.431  0.00  0.00    +0.220 C 
ATOM     16  H   UNL     1       3.786   2.600  -0.437  0.00  0.00    +0.152 HD
ENDBRANCH   1   7
BRANCH   4  17
ATOM     17  O   UNL     1      -2.098  -2.054  -1.738  0.00  0.00    -0.380 OA
ATOM     18  H   UNL     1      -1.384  -2.685  -1.925  0.00  0.00    +0.211 HD
ENDBRANCH   4  17
BRANCH   5  19
ATOM     19  O   UNL     1      -2.220   1.440  -1.058  0.00  0.00    -0.382 OA
ATOM     20  H   UNL     1      -2.938   2.066  -0.875  0.00  0.00    +0.210 HD
ENDBRANCH   5  19
BRANCH   2  21
ATOM     21  C   UNL     1      -3.804   1.002   1.278  0.00  0.00    +0.140 C 
BRANCH  21  22
ATOM     22  O   UNL     1      -5.056   1.133   0.628  0.00  0.00    -0.382 OA
ATOM     23  H   UNL     1      -5.563   1.849   1.043  0.00  0.00    +0.210 HD
ENDBRANCH  21  22
ENDBRANCH   2  21
TORSDOF 5
