REMARK  Name = 135467113
REMARK  5 active torsions:
REMARK  status: ('A' for Active; 'I' for Inactive)
REMARK    1  A    between atoms: C_4  and  O_24
REMARK    2  A    between atoms: C_9  and  O_26
REMARK    3  A    between atoms: C_14  and  O_28
REMARK    4  A    between atoms: C_16  and  O_30
REMARK    5  A    between atoms: C_19  and  O_32
REMARK                            x       y       z     vdW  Elec       q    Type
REMARK                         _______ _______ _______ _____ _____    ______ ____
ROOT
ATOM      1  O   UNL     1      -4.811   0.332  -0.002  0.00  0.00    -0.286 OA
ATOM      2  O   UNL     1       3.007   3.256  -0.098  0.00  0.00    -0.286 OA
ATOM      3  C   UNL     1       0.038  -0.507  -0.001  0.00  0.00    -0.001 A 
ATOM      4  C   UNL     1      -1.496  -2.544  -0.055  0.00  0.00    +0.157 C 
ATOM      5  C   UNL     1      -0.115  -1.908   0.004  0.00  0.00    +0.012 C 
ATOM      6  C   UNL     1      -1.089   0.356  -0.001  0.00  0.00    +0.011 A 
ATOM      7  C   UNL     1       1.351   0.043  -0.002  0.00  0.00    +0.008 A 
ATOM      8  C   UNL     1      -2.462  -0.208   0.013  0.00  0.00    +0.071 C 
ATOM      9  C   UNL     1      -2.638  -1.547   0.013  0.00  0.00    +0.142 C 
ATOM     10  C   UNL     1      -0.924   1.759   0.005  0.00  0.00    +0.068 A 
ATOM     11  C   UNL     1       2.488  -0.800   0.026  0.00  0.00    +0.030 C 
ATOM     12  C   UNL     1       1.489   1.437  -0.034  0.00  0.00    +0.073 A 
ATOM     13  C   UNL     1       1.022  -2.729   0.051  0.00  0.00    +0.035 C 
ATOM     14  C   UNL     1       0.375   2.281  -0.039  0.00  0.00    +0.139 A 
ATOM     15  C   UNL     1      -1.631  -3.387  -1.339  0.00  0.00    +0.042 C 
ATOM     16  C   UNL     1       2.302  -2.185   0.061  0.00  0.00    +0.133 C 
ATOM     17  C   UNL     1       3.848  -0.206   0.020  0.00  0.00    -0.016 C 
ATOM     18  C   UNL     1      -3.645   0.711   0.015  0.00  0.00    +0.201 C 
ATOM     19  C   UNL     1      -2.111   2.641   0.047  0.00  0.00    +0.140 C 
ATOM     20  C   UNL     1       2.839   2.043  -0.055  0.00  0.00    +0.198 C 
ATOM     21  C   UNL     1       3.997   1.127  -0.020  0.00  0.00    +0.038 C 
ATOM     22  C   UNL     1      -3.357   2.159   0.039  0.00  0.00    +0.079 C 
ATOM     23  C   UNL     1       5.057  -1.099   0.056  0.00  0.00    +0.031 C 
ENDROOT
BRANCH   4  24
ATOM     24  O   UNL     1      -1.607  -3.417   1.076  0.00  0.00    -0.376 OA
ATOM     25  H   UNL     1      -1.524  -2.900   1.893  0.00  0.00    +0.211 HD
ENDBRANCH   4  24
BRANCH   9  26
ATOM     26  O   UNL     1      -3.875  -2.168   0.070  0.00  0.00    -0.507 OA
ATOM     27  H   UNL     1      -3.931  -3.103   0.067  0.00  0.00    +0.292 HD
ENDBRANCH   9  26
BRANCH  14  28
ATOM     28  O   UNL     1       0.562   3.636  -0.074  0.00  0.00    -0.505 OA
ATOM     29  H   UNL     1      -0.177   4.211  -0.078  0.00  0.00    +0.292 HD
ENDBRANCH  14  28
BRANCH  16  30
ATOM     30  O   UNL     1       3.320  -3.091   0.102  0.00  0.00    -0.506 OA
ATOM     31  H   UNL     1       4.210  -2.795   0.111  0.00  0.00    +0.292 HD
ENDBRANCH  16  30
BRANCH  19  32
ATOM     32  O   UNL     1      -1.935   4.012   0.122  0.00  0.00    -0.505 OA
ATOM     33  H   UNL     1      -1.070   4.374   0.129  0.00  0.00    +0.292 HD
ENDBRANCH  19  32
TORSDOF 5
