REMARK  Name = 135412736
REMARK  5 active torsions:
REMARK  status: ('A' for Active; 'I' for Inactive)
REMARK    1  A    between atoms: C_7  and  C_14
REMARK    2  A    between atoms: N_13  and  C_14
REMARK    3  A    between atoms: N_13  and  N_16
REMARK    4  A    between atoms: C_17  and  C_19
REMARK    5  A    between atoms: C_19  and  C_21
REMARK                            x       y       z     vdW  Elec       q    Type
REMARK                         _______ _______ _______ _____ _____    ______ ____
ROOT
ATOM      1  O   UNL     1       1.389  -2.424  -0.001  0.00  0.00    -0.163 OA
ATOM      2  O   UNL     1       2.210   2.869  -0.004  0.00  0.00    -0.163 OA
ATOM      3  N   UNL     1       1.614  -1.163  -0.001  0.00  0.00    -0.130 N 
ATOM      4  N   UNL     1       2.053   1.601  -0.002  0.00  0.00    -0.126 N 
ATOM      5  C   UNL     1       2.916  -0.669   0.003  0.00  0.00    +0.121 C 
ATOM      6  C   UNL     1       3.138   0.728   0.002  0.00  0.00    +0.121 C 
ATOM      7  C   UNL     1       0.557  -0.281  -0.005  0.00  0.00    +0.120 C 
ATOM      8  C   UNL     1       0.775   1.089  -0.006  0.00  0.00    +0.139 C 
ATOM      9  C   UNL     1       4.007  -1.546   0.007  0.00  0.00    +0.022 C 
ATOM     10  C   UNL     1       4.446   1.225   0.006  0.00  0.00    +0.022 C 
ATOM     11  C   UNL     1       5.307  -1.039   0.011  0.00  0.00    +0.002 C 
ATOM     12  C   UNL     1       5.526   0.340   0.011  0.00  0.00    +0.002 C 
ENDROOT
BRANCH   7  13
ATOM     13  C   UNL     1      -0.798  -0.806  -0.008  0.00  0.00    +0.160 C 
BRANCH  13  14
ATOM     14  N   UNL     1      -1.851  -0.037  -0.012  0.00  0.00    -0.125 NA
BRANCH  14  16
ATOM     15  O   UNL     1      -4.270   1.264  -0.018  0.00  0.00    -0.273 OA
ATOM     16  N   UNL     1      -3.032  -0.697  -0.013  0.00  0.00    -0.231 N 
ATOM     17  C   UNL     1      -4.206   0.037  -0.017  0.00  0.00    +0.252 C 
ATOM     18  H   UNL     1      -3.056  -1.681  -0.013  0.00  0.00    +0.171 HD
BRANCH  17  19
ATOM     19  C   UNL     1      -5.423  -0.865  -0.016  0.00  0.00    +0.191 C 
BRANCH  19  21
ATOM     20  N   UNL     1      -7.676   0.485   0.045  0.00  0.00    -0.195 NA
ATOM     21  C   UNL     1      -6.680  -0.110   0.018  0.00  0.00    +0.083 C 
ENDBRANCH  19  21
ENDBRANCH  17  19
ENDBRANCH  14  16
ENDBRANCH  13  14
ENDBRANCH   7  13
TORSDOF 5
