REMARK  Name = 135433761
REMARK  3 active torsions:
REMARK  status: ('A' for Active; 'I' for Inactive)
REMARK    1  A    between atoms: N_2  and  C_18
REMARK    2  A    between atoms: C_15  and  C_19
REMARK    3  A    between atoms: C_19  and  O_20
REMARK                            x       y       z     vdW  Elec       q    Type
REMARK                         _______ _______ _______ _____ _____    ______ ____
ROOT
ATOM      1  O   UNL     1      -4.057   1.745  -0.271  0.00  0.00    -0.268 OA
ATOM      2  N   UNL     1       0.204   0.295   0.124  0.00  0.00    -0.239 N 
ATOM      3  N   UNL     1      -1.113   2.092  -0.078  0.00  0.00    -0.239 NA
ATOM      4  N   UNL     1      -1.450  -1.472   0.109  0.00  0.00    -0.356 NA
ATOM      5  N   UNL     1      -3.650  -0.548  -0.105  0.00  0.00    -0.243 N 
ATOM      6  N   UNL     1      -3.334  -2.876   0.056  0.00  0.00    -0.321 N 
ATOM      7  C   UNL     1      -1.074  -0.175   0.059  0.00  0.00    +0.213 C 
ATOM      8  C   UNL     1       0.129   1.664   0.037  0.00  0.00    +0.226 C 
ATOM      9  C   UNL     1      -1.856   0.948  -0.064  0.00  0.00    +0.176 C 
ATOM     10  C   UNL     1      -3.282   0.803  -0.159  0.00  0.00    +0.273 C 
ATOM     11  C   UNL     1      -2.752  -1.635   0.024  0.00  0.00    +0.239 C 
ATOM     12  H   UNL     1      -4.610  -0.759  -0.162  0.00  0.00    +0.159 HD
ATOM     13  H   UNL     1      -2.773  -3.680   0.144  0.00  0.00    +0.146 HD
ATOM     14  H   UNL     1      -4.312  -2.963  -0.011  0.00  0.00    +0.146 HD
ENDROOT
BRANCH   2  18
ATOM     15  C   UNL     1       3.977  -0.240   0.461  0.00  0.00    +0.053 C 
ATOM     16  C   UNL     1       3.402   1.214   0.347  0.00  0.00    +0.030 C 
ATOM     17  C   UNL     1       2.603   0.051   0.333  0.00  0.00    -0.026 C 
ATOM     18  C   UNL     1       1.363  -0.446   0.252  0.00  0.00    +0.061 C 
BRANCH  15  19
ATOM     19  C   UNL     1       4.752  -0.830  -0.663  0.00  0.00    +0.141 C 
BRANCH  19  20
ATOM     20  O   UNL     1       6.139  -0.592  -0.463  0.00  0.00    -0.382 OA
ATOM     21  H   UNL     1       6.642  -0.977  -1.197  0.00  0.00    +0.210 HD
ENDBRANCH  19  20
ENDBRANCH  15  19
ENDBRANCH   2  18
TORSDOF 3
