REMARK  Name = 135463029
REMARK  3 active torsions:
REMARK  status: ('A' for Active; 'I' for Inactive)
REMARK    1  A    between atoms: N_2  and  C_16
REMARK    2  A    between atoms: C_19  and  C_20
REMARK    3  A    between atoms: C_20  and  O_21
REMARK                            x       y       z     vdW  Elec       q    Type
REMARK                         _______ _______ _______ _____ _____    ______ ____
ROOT
ATOM      1  O   UNL     1       3.762  -2.177  -0.245  0.00  0.00    -0.268 OA
ATOM      2  N   UNL     1      -0.232  -0.083   0.032  0.00  0.00    -0.239 N 
ATOM      3  N   UNL     1       0.795  -2.048  -0.261  0.00  0.00    -0.240 NA
ATOM      4  N   UNL     1       1.678   1.382   0.283  0.00  0.00    -0.357 NA
ATOM      5  N   UNL     1       3.714   0.130   0.113  0.00  0.00    -0.243 N 
ATOM      6  N   UNL     1       3.760   2.456   0.474  0.00  0.00    -0.321 N 
ATOM      7  C   UNL     1       1.106   0.174   0.088  0.00  0.00    +0.211 C 
ATOM      8  C   UNL     1      -0.369  -1.433  -0.179  0.00  0.00    +0.224 C 
ATOM      9  C   UNL     1       1.707  -1.049  -0.095  0.00  0.00    +0.176 C 
ATOM     10  C   UNL     1       3.141  -1.133  -0.091  0.00  0.00    +0.273 C 
ATOM     11  C   UNL     1       2.993   1.335   0.291  0.00  0.00    +0.239 C 
ATOM     12  H   UNL     1       4.697   0.184   0.133  0.00  0.00    +0.159 HD
ATOM     13  H   UNL     1       3.328   3.331   0.605  0.00  0.00    +0.146 HD
ATOM     14  H   UNL     1       4.742   2.386   0.475  0.00  0.00    +0.146 HD
ENDROOT
BRANCH   2  16
ATOM     15  O   UNL     1      -2.517   0.302   0.780  0.00  0.00    -0.337 OA
ATOM     16  C   UNL     1      -1.361   0.914   0.173  0.00  0.00    +0.195 C 
ATOM     17  C   UNL     1      -1.816   1.492  -1.165  0.00  0.00    +0.054 C 
ATOM     18  C   UNL     1      -3.070   0.708  -1.472  0.00  0.00    +0.037 C 
ATOM     19  C   UNL     1      -3.646   0.502  -0.085  0.00  0.00    +0.146 C 
BRANCH  19  20
ATOM     20  C   UNL     1      -4.588  -0.682   0.012  0.00  0.00    +0.167 C 
BRANCH  20  21
ATOM     21  O   UNL     1      -5.058  -0.788   1.347  0.00  0.00    -0.379 OA
ATOM     22  H   UNL     1      -5.662  -1.544   1.418  0.00  0.00    +0.211 HD
ENDBRANCH  20  21
ENDBRANCH  19  20
ENDBRANCH   2  16
TORSDOF 3
