REMARK  Name = 135413555
REMARK  1 active torsions:
REMARK  status: ('A' for Active; 'I' for Inactive)
REMARK    1  A    between atoms: C_9  and  C_14
REMARK                            x       y       z     vdW  Elec       q    Type
REMARK                         _______ _______ _______ _____ _____    ______ ____
ROOT
ATOM      1 BR   UNL     1      -2.517  -3.928  -0.125  0.00  0.00    -0.033 Br
ATOM      2  O   UNL     1      -4.034   1.437   0.204  0.00  0.00    -0.269 OA
ATOM      3  N   UNL     1      -2.103   2.592   0.276  0.00  0.00    -0.300 N 
ATOM      4  N   UNL     1      -2.797  -1.046   0.047  0.00  0.00    -0.304 N 
ATOM      5  C   UNL     1       0.386   0.652  -0.328  0.00  0.00    +0.082 C 
ATOM      6  C   UNL     1       0.095   2.075  -0.724  0.00  0.00    +0.033 C 
ATOM      7  C   UNL     1      -0.753  -0.214  -0.198  0.00  0.00    +0.004 C 
ATOM      8  C   UNL     1      -0.672   2.799   0.368  0.00  0.00    +0.091 C 
ATOM      9  C   UNL     1      -2.085   0.144   0.010  0.00  0.00    +0.099 C 
ATOM     10  C   UNL     1      -2.800   1.403   0.167  0.00  0.00    +0.259 C 
ATOM     11  C   UNL     1      -0.701  -1.641  -0.271  0.00  0.00    +0.019 C 
ATOM     12  C   UNL     1      -1.976  -2.121  -0.115  0.00  0.00    +0.083 C 
ATOM     13  H   UNL     1      -2.653   3.408   0.294  0.00  0.00    +0.150 HD
ATOM     14  H   UNL     1      -3.771  -1.106   0.174  0.00  0.00    +0.153 HD
ENDROOT
BRANCH   5  19
ATOM     15  O   UNL     1       1.272  -2.068   0.421  0.00  0.00    -0.267 OA
ATOM     16  N   UNL     1       2.776   1.038  -0.245  0.00  0.00    -0.373 NA
ATOM     17  N   UNL     1       3.377  -1.042   0.322  0.00  0.00    -0.242 N 
ATOM     18  N   UNL     1       5.094   0.552   0.052  0.00  0.00    -0.321 N 
ATOM     19  C   UNL     1       1.657   0.257  -0.133  0.00  0.00    +0.169 C 
ATOM     20  C   UNL     1       2.015  -1.125   0.240  0.00  0.00    +0.278 C 
ATOM     21  C   UNL     1       3.767   0.236   0.031  0.00  0.00    +0.238 C 
ATOM     22  H   UNL     1       3.980  -1.784   0.554  0.00  0.00    +0.159 HD
ATOM     23  H   UNL     1       5.385   1.469  -0.157  0.00  0.00    +0.146 HD
ATOM     24  H   UNL     1       5.760  -0.138   0.275  0.00  0.00    +0.146 HD
ENDBRANCH   5  19
TORSDOF 1
