REMARK  Name = 135403803
REMARK  2 active torsions:
REMARK  status: ('A' for Active; 'I' for Inactive)
REMARK    1  A    between atoms: CA_11  and  C_17
REMARK    2  A    between atoms: C_17  and  O_18
REMARK                            x       y       z     vdW  Elec       q    Type
REMARK                         _______ _______ _______ _____ _____    ______ ____
ROOT
ATOM      1  O   UNL     1      -0.991  -2.623   0.000  0.00  0.00    -0.266 OA
ATOM      2  N   UNL     1      -2.630  -0.984   0.000  0.00  0.00    -0.241 N 
ATOM      3  N   UNL     1       0.976  -0.746   0.000  0.00  0.00    -0.382 NA
ATOM      4  N   UNL     1      -2.091   1.311   0.000  0.00  0.00    -0.318 NA
ATOM      5  N   UNL     1       0.165   1.945   0.001  0.00  0.00    -0.200 NA
ATOM      6  N   UNL     1      -4.333   0.620  -0.001  0.00  0.00    -0.320 N 
ATOM      7  C   UNL     1      -0.320  -0.376   0.000  0.00  0.00    +0.257 C 
ATOM      8  C   UNL     1      -0.737   0.942   0.000  0.00  0.00    +0.121 C 
ATOM      9  C   UNL     1      -1.323  -1.445   0.000  0.00  0.00    +0.293 C 
ATOM     10  C   UNL     1      -2.988   0.362   0.000  0.00  0.00    +0.248 C 
ATOM     11  CA  UNL     1       1.864   0.266   0.000  0.00  0.00    +0.210 C 
ATOM     12  C   UNL     1       1.466   1.586   0.000  0.00  0.00    +0.203 C 
ATOM     13  H   UNL     1      -3.353  -1.652   0.001  0.00  0.00    +0.159 HD
ATOM     14  H   UNL     1      -4.977  -0.125  -0.001  0.00  0.00    +0.146 HD
ATOM     15  H   UNL     1      -4.656   1.550  -0.002  0.00  0.00    +0.146 HD
ENDROOT
BRANCH  11  17
ATOM     16  OXT UNL     1       4.218   0.691   0.000  0.00  0.00    -0.242 OA
ATOM     17  C   UNL     1       3.267  -0.101   0.000  0.00  0.00    +0.366 C 
BRANCH  17  18
ATOM     18  O   UNL     1       3.457  -1.450   0.000  0.00  0.00    -0.476 OA
ATOM     19  H   UNL     1       2.718  -2.027  -0.001  0.00  0.00    +0.295 HD
ENDBRANCH  17  18
ENDBRANCH  11  17
TORSDOF 2
