REMARK  Name = 135400435
REMARK  7 active torsions:
REMARK  status: ('A' for Active; 'I' for Inactive)
REMARK    1  A    between atoms: C_1  and  C_3
REMARK    2  A    between atoms: C_2  and  C_16
REMARK    3  A    between atoms: C_6  and  O_9
REMARK    4  A    between atoms: C_7  and  O_11
REMARK    5  A    between atoms: C_8  and  O_13
REMARK    6  A    between atoms: C_16  and  C_19
REMARK    7  A    between atoms: C_20  and  O_25
REMARK                            x       y       z     vdW  Elec       q    Type
REMARK                         _______ _______ _______ _____ _____    ______ ____
ROOT
ATOM      1  C   UNL     1      -0.605  -1.114  -0.503  0.00  0.00    +0.003 C 
ATOM      2  C   UNL     1       0.577  -0.551  -0.210  0.00  0.00    +0.042 C 
ENDROOT
BRANCH   1   3
ATOM      3  C   UNL     1      -1.916  -0.519  -0.192  0.00  0.00    +0.006 C 
ATOM      4  C   UNL     1      -2.021   0.851   0.054  0.00  0.00    +0.040 C 
ATOM      5  C   UNL     1      -3.054  -1.324  -0.145  0.00  0.00    +0.040 C 
ATOM      6  C   UNL     1      -4.296  -0.760   0.148  0.00  0.00    +0.175 C 
ATOM      7  C   UNL     1      -3.262   1.414   0.347  0.00  0.00    +0.175 C 
ATOM      8  C   UNL     1      -4.400   0.609   0.394  0.00  0.00    +0.202 C 
BRANCH   6   9
ATOM      9  O   UNL     1      -5.399  -1.558   0.191  0.00  0.00    -0.468 OA
ATOM     10  C   UNL     1      -5.206  -2.947  -0.072  0.00  0.00    +0.253 C 
ENDBRANCH   6   9
BRANCH   7  11
ATOM     11  O   UNL     1      -3.350   2.752   0.586  0.00  0.00    -0.468 OA
ATOM     12  C   UNL     1      -3.590   3.597  -0.538  0.00  0.00    +0.253 C 
ENDBRANCH   7  11
BRANCH   8  13
ATOM     13  O   UNL     1      -5.614   1.160   0.680  0.00  0.00    -0.501 OA
ATOM     14  H   UNL     1      -6.378   0.619   0.712  0.00  0.00    +0.292 HD
ENDBRANCH   8  13
ENDBRANCH   1   3
BRANCH   2  16
ATOM     15  O   UNL     1       1.879  -2.333  -1.146  0.00  0.00    -0.286 OA
ATOM     16  C   UNL     1       1.835  -1.247  -0.584  0.00  0.00    +0.205 C 
BRANCH  16  19
ATOM     17  O   UNL     1       4.473   1.470  -0.426  0.00  0.00    -0.425 OA
ATOM     18  O   UNL     1       2.514   1.364  -1.548  0.00  0.00    -0.244 OA
ATOM     19  C   UNL     1       3.067  -0.525  -0.222  0.00  0.00    +0.148 C 
ATOM     20  C   UNL     1       3.976  -1.067   0.610  0.00  0.00    +0.146 C 
ATOM     21  C   UNL     1       5.397   0.862   0.450  0.00  0.00    +0.130 C 
ATOM     22  C   UNL     1       5.176  -0.354   0.958  0.00  0.00    +0.070 C 
ATOM     23  C   UNL     1       3.317   0.833  -0.786  0.00  0.00    +0.352 C 
ATOM     24  C   UNL     1       6.606   1.687   0.742  0.00  0.00    +0.073 C 
BRANCH  20  25
ATOM     25  O   UNL     1       3.898  -2.300   1.212  0.00  0.00    -0.505 OA
ATOM     26  H   UNL     1       3.157  -2.852   1.057  0.00  0.00    +0.292 HD
ENDBRANCH  20  25
ENDBRANCH  16  19
ENDBRANCH   2  16
TORSDOF 7
