REMARK  Name = 135460621
REMARK  6 active torsions:
REMARK  status: ('A' for Active; 'I' for Inactive)
REMARK    1  A    between atoms: C_5  and  C_10
REMARK    2  A    between atoms: C_7  and  C_18
REMARK    3  A    between atoms: C_13  and  O_16
REMARK    4  A    between atoms: C_18  and  S_19
REMARK    5  A    between atoms: S_19  and  C_26
REMARK    6  A    between atoms: C_23  and  C_29
REMARK                            x       y       z     vdW  Elec       q    Type
REMARK                         _______ _______ _______ _____ _____    ______ ____
ROOT
ATOM      1  S   UNL     1      -0.170   1.088   2.709  0.00  0.00    -0.059 S 
ATOM      2  O   UNL     1       1.015   2.472  -1.607  0.00  0.00    -0.274 OA
ATOM      3  N   UNL     1       1.248   2.104   0.702  0.00  0.00    -0.254 N 
ATOM      4  N   UNL     1      -0.999   1.228   0.264  0.00  0.00    -0.384 NA
ATOM      5  C   UNL     1      -2.003   0.646   1.013  0.00  0.00    +0.122 C 
ATOM      6  C   UNL     1       0.015   1.503   1.054  0.00  0.00    +0.213 C 
ATOM      7  C   UNL     1       1.651   2.532  -0.557  0.00  0.00    +0.240 C 
ATOM      8  C   UNL     1      -1.738   0.487   2.357  0.00  0.00    +0.125 C 
ATOM      9  H   UNL     1       1.894   2.233   1.433  0.00  0.00    +0.158 HD
ENDROOT
BRANCH   5  10
ATOM     10  C   UNL     1      -3.241   0.234   0.417  0.00  0.00    +0.027 C 
ATOM     11  C   UNL     1      -4.416   0.245   1.170  0.00  0.00    +0.005 C 
ATOM     12  C   UNL     1      -3.270  -0.178  -0.915  0.00  0.00    +0.005 C 
ATOM     13  C   UNL     1      -5.648  -0.570  -0.742  0.00  0.00    +0.139 C 
ATOM     14  C   UNL     1      -5.619  -0.157   0.590  0.00  0.00    +0.037 C 
ATOM     15  C   UNL     1      -4.473  -0.581  -1.494  0.00  0.00    +0.037 C 
BRANCH  13  16
ATOM     16  O   UNL     1      -6.822  -0.962  -1.308  0.00  0.00    -0.471 OA
ATOM     17  C   UNL     1      -7.985  -0.925  -0.483  0.00  0.00    +0.252 C 
ENDBRANCH  13  16
ENDBRANCH   5  10
BRANCH   7  18
ATOM     18  C   UNL     1       3.052   3.105  -0.540  0.00  0.00    +0.151 C 
BRANCH  18  19
ATOM     19  S   UNL     1       4.089   2.142  -1.661  0.00  0.00    -0.057 S 
BRANCH  19  26
ATOM     20  O   UNL     1       2.736  -2.562  -2.014  0.00  0.00    -0.274 OA
ATOM     21  N   UNL     1       3.398  -0.379  -1.728  0.00  0.00    -0.254 N 
ATOM     22  N   UNL     1       4.313   0.380   0.310  0.00  0.00    -0.389 NA
ATOM     23  C   UNL     1       3.624  -1.930   0.112  0.00  0.00    +0.125 C 
ATOM     24  C   UNL     1       4.149  -0.897   0.809  0.00  0.00    +0.098 C 
ATOM     25  C   UNL     1       3.206  -1.676  -1.305  0.00  0.00    +0.234 C 
ATOM     26  C   UNL     1       3.938   0.578  -0.909  0.00  0.00    +0.213 C 
ATOM     27  C   UNL     1       4.642  -1.036   2.226  0.00  0.00    +0.062 C 
ATOM     28  H   UNL     1       3.140  -0.133  -2.646  0.00  0.00    +0.158 HD
BRANCH  23  29
ATOM     29  C   UNL     1       3.387  -3.323   0.618  0.00  0.00    +0.016 C 
ATOM     30  C   UNL     1       1.921  -3.568   0.913  0.00  0.00    +0.001 C 
ENDBRANCH  23  29
ENDBRANCH  19  26
ENDBRANCH  18  19
ENDBRANCH   7  18
TORSDOF 6
