135410214
  -OEChem-03292013293D

 30 31  0     1  0  0  0  0  0999 V2000
    4.2512    1.0081   -0.6296 O   0  0  0  0  0  0  0  0  0  0  0  0
    5.8313   -0.9754    0.5704 O   0  0  0  0  0  0  0  0  0  0  0  0
   -4.3427    0.9226    0.7710 O   0  0  0  0  0  0  0  0  0  0  0  0
    0.0071    0.9523   -0.4508 N   0  0  0  0  0  0  0  0  0  0  0  0
   -1.7244    2.2065    0.2058 N   0  0  0  0  0  0  0  0  0  0  0  0
   -1.0125   -1.2430   -0.4586 N   0  0  0  0  0  0  0  0  0  0  0  0
   -3.3088   -1.0944    0.2086 N   0  0  0  0  0  0  0  0  0  0  0  0
   -2.3483   -3.1723   -0.3418 N   0  0  0  0  0  0  0  0  0  0  0  0
    1.3459    0.6191   -0.8735 C   0  0  0  0  0  0  0  0  0  0  0  0
    2.2243    0.0459    0.2481 C   0  0  0  0  0  0  0  0  0  0  0  0
    3.6776   -0.2141   -0.1668 C   0  0  2  0  0  0  0  0  0  0  0  0
   -1.0383    0.0952   -0.2715 C   0  0  0  0  0  0  0  0  0  0  0  0
   -2.0823    0.8929    0.1301 C   0  0  0  0  0  0  0  0  0  0  0  0
    4.5008   -0.7267    1.0117 C   0  0  0  0  0  0  0  0  0  0  0  0
   -0.4550    2.2108   -0.1515 C   0  0  0  0  0  0  0  0  0  0  0  0
   -3.3574    0.2923    0.4087 C   0  0  0  0  0  0  0  0  0  0  0  0
   -2.1684   -1.8198   -0.2104 C   0  0  0  0  0  0  0  0  0  0  0  0
    1.2638   -0.0985   -1.6982 H   0  0  0  0  0  0  0  0  0  0  0  0
    1.7923    1.5315   -1.2855 H   0  0  0  0  0  0  0  0  0  0  0  0
    1.7800   -0.8848    0.6222 H   0  0  0  0  0  0  0  0  0  0  0  0
    2.2109    0.7570    1.0854 H   0  0  0  0  0  0  0  0  0  0  0  0
    3.7220   -0.9247   -0.9991 H   0  0  0  0  0  0  0  0  0  0  0  0
    4.0846   -1.6585    1.4070 H   0  0  0  0  0  0  0  0  0  0  0  0
    4.5511    0.0181    1.8128 H   0  0  0  0  0  0  0  0  0  0  0  0
    0.1768    3.0868   -0.2103 H   0  0  0  0  0  0  0  0  0  0  0  0
    4.2126    1.6519    0.0983 H   0  0  0  0  0  0  0  0  0  0  0  0
   -4.1614   -1.6202    0.3782 H   0  0  0  0  0  0  0  0  0  0  0  0
    6.3299   -1.3009    1.3391 H   0  0  0  0  0  0  0  0  0  0  0  0
   -1.5892   -3.7765   -0.6371 H   0  0  0  0  0  0  0  0  0  0  0  0
   -3.2433   -3.6081   -0.1483 H   0  0  0  0  0  0  0  0  0  0  0  0
  1 11  1  0  0  0  0
  1 26  1  0  0  0  0
  2 14  1  0  0  0  0
  2 28  1  0  0  0  0
  3 16  2  0  0  0  0
  4  9  1  0  0  0  0
  4 12  1  0  0  0  0
  4 15  1  0  0  0  0
  5 13  1  0  0  0  0
  5 15  2  0  0  0  0
  6 12  1  0  0  0  0
  6 17  2  0  0  0  0
  7 16  1  0  0  0  0
  7 17  1  0  0  0  0
  7 27  1  0  0  0  0
  8 17  1  0  0  0  0
  8 29  1  0  0  0  0
  8 30  1  0  0  0  0
  9 10  1  0  0  0  0
  9 18  1  0  0  0  0
  9 19  1  0  0  0  0
 10 11  1  0  0  0  0
 10 20  1  0  0  0  0
 10 21  1  0  0  0  0
 11 14  1  0  0  0  0
 11 22  1  0  0  0  0
 12 13  2  0  0  0  0
 13 16  1  0  0  0  0
 14 23  1  0  0  0  0
 14 24  1  0  0  0  0
 15 25  1  0  0  0  0
M  END
> <PUBCHEM_COMPOUND_CID>
135410214

> <PUBCHEM_CONFORMER_RMSD>
0.6

> <PUBCHEM_CONFORMER_DIVERSEORDER>
2
10
57
55
56
46
9
16
5
59
52
50
23
15
40
58
20
28
51
54
14
8
47
32
33
38
25
49
7
37
53
29
12
39
13
11
1
3
36
30
6
42
31
18
27
4
44
48
21
34
45
26
43
35
22
24
41
19
17

> <PUBCHEM_MMFF94_PARTIAL_CHARGES>
22
1 -0.68
11 0.28
12 -0.03
13 0.14
14 0.28
15 0.04
16 0.72
17 0.56
2 -0.68
25 0.15
26 0.4
27 0.37
28 0.4
29 0.4
3 -0.57
30 0.4
4 0.05
5 -0.57
6 -0.58
7 -0.49
8 -0.85
9 0.26

> <PUBCHEM_EFFECTIVE_ROTOR_COUNT>
4

> <PUBCHEM_PHARMACOPHORE_FEATURES>
10
1 1 acceptor
1 1 donor
1 2 acceptor
1 2 donor
1 3 acceptor
1 7 donor
1 8 donor
3 4 5 15 cation
5 4 5 12 13 15 rings
6 6 7 12 13 16 17 rings

> <PUBCHEM_HEAVY_ATOM_COUNT>
17

> <PUBCHEM_ATOM_DEF_STEREO_COUNT>
1

> <PUBCHEM_ATOM_UDEF_STEREO_COUNT>
0

> <PUBCHEM_BOND_DEF_STEREO_COUNT>
0

> <PUBCHEM_BOND_UDEF_STEREO_COUNT>
0

> <PUBCHEM_ISOTOPIC_ATOM_COUNT>
0

> <PUBCHEM_COMPONENT_COUNT>
1

> <PUBCHEM_CACTVS_TAUTO_COUNT>
-1

> <PUBCHEM_CONFORMER_ID>
0812322600000002

> <PUBCHEM_MMFF94_ENERGY>
29.221

> <PUBCHEM_FEATURE_SELFOVERLAP>
50.932

> <PUBCHEM_SHAPE_FINGERPRINT>
10062212 137 18334294309555324947
10616163 171 18410855464972437398
11132069 177 18272376351539713671
12251169 10 18411698760262314876
12633257 1 18060425715720355216
13140716 1 18341333408850384449
13167823 11 18259984856196311154
13551218 46 18264770969555328242
13862211 1 18411981395175795959
14420673 8 18051133588947997090
15042514 8 18410298029719808619
15375462 189 18113897169523633448
16945 1 18270420351030854357
17804303 29 18343304785769730144
17977361 122 18334289881312290995
1813 80 17241056392633697798
18186145 218 13045941313544529420
19050596 39 18410290324695815280
200 152 16081369622834815040
20281475 54 18336262457033485860
20510252 161 18057610871438074809
20645477 70 14490465336895117480
21339142 126 18259980448821621197
21637258 2 16226054444028273905
21650355 55 18413386544591095641
22959321 94 18408037412169115362
2297311 6 18272100357685272756
232386 152 18338243776738799149
23366157 5 17974290120619047445
23402539 116 18272080579128909101
23559900 14 18201176385789374180
23728640 28 18411702097336301267
2838139 119 14116135447366225827
351380 3 17821727209287926306
5104073 3 18340771541281508896
559249 180 17897154733276190746
58807428 26 18268162963375046467
5924683 9 17988067997747168766
67856867 119 18261391226295511220
90316 7 18408887321498775341
9709674 26 18271811181515981790

> <PUBCHEM_SHAPE_MULTIPOLES>
307.34
9.17
2.32
0.81
12.31
0.9
-0.03
2.36
-2.48
-2.2
0.22
0.31
-0.01
-0.94

> <PUBCHEM_SHAPE_SELFOVERLAP>
649.191

> <PUBCHEM_SHAPE_VOLUME>
171.7

> <PUBCHEM_COORDINATE_TYPE>
2
5
10

$$$$
