REMARK  Name = 135464246
REMARK  5 active torsions:
REMARK  status: ('A' for Active; 'I' for Inactive)
REMARK    1  A    between atoms: C_3  and  C_12
REMARK    2  A    between atoms: C_6  and  C_23
REMARK    3  A    between atoms: C_15  and  C_20
REMARK    4  A    between atoms: C_20  and  O_21
REMARK    5  A    between atoms: C_24  and  O_29
REMARK                            x       y       z     vdW  Elec       q    Type
REMARK                         _______ _______ _______ _____ _____    ______ ____
ROOT
ATOM      1  O   UNL     1      -3.066   1.693   0.001  0.00  0.00    -0.425 OA
ATOM      2  N   UNL     1      -1.280   0.298   0.000  0.00  0.00    -0.368 NA
ATOM      3  C   UNL     1       0.447   2.148   0.000  0.00  0.00    +0.167 C 
ATOM      4  C   UNL     1      -0.844   1.601   0.000  0.00  0.00    +0.160 C 
ATOM      5  C   UNL     1      -1.935   2.458   0.001  0.00  0.00    +0.174 C 
ATOM      6  C   UNL     1      -2.589   0.417   0.001  0.00  0.00    +0.285 C 
ATOM      7  C   UNL     1       0.571   3.546   0.000  0.00  0.00    -0.009 C 
ATOM      8  C   UNL     1      -1.853   3.845   0.001  0.00  0.00    +0.040 C 
ATOM      9  C   UNL     1      -0.558   4.375   0.000  0.00  0.00    -0.000 C 
ENDROOT
BRANCH   3  12
ATOM     10  O   UNL     1       2.794   1.886  -0.001  0.00  0.00    -0.428 OA
ATOM     11  N   UNL     1       1.611  -0.048   0.000  0.00  0.00    -0.371 NA
ATOM     12  C   UNL     1       1.580   1.267   0.000  0.00  0.00    +0.267 C 
ATOM     13  C   UNL     1       2.956  -0.332   0.000  0.00  0.00    +0.161 C 
ATOM     14  C   UNL     1       3.683   0.849  -0.001  0.00  0.00    +0.174 C 
ATOM     15  C   UNL     1       3.646  -1.552   0.001  0.00  0.00    +0.176 C 
ATOM     16  C   UNL     1       5.070   0.925  -0.002  0.00  0.00    +0.040 C 
ATOM     17  C   UNL     1       5.048  -1.517   0.000  0.00  0.00    -0.008 C 
ATOM     18  C   UNL     1       5.743  -0.301  -0.002  0.00  0.00    -0.000 C 
BRANCH  15  20
ATOM     19  O   UNL     1       1.704  -2.950   0.003  0.00  0.00    -0.249 OA
ATOM     20  C   UNL     1       2.934  -2.817   0.002  0.00  0.00    +0.324 C 
BRANCH  20  21
ATOM     21  O   UNL     1       3.774  -3.891   0.001  0.00  0.00    -0.480 OA
ATOM     22  H   UNL     1       4.702  -3.760   0.001  0.00  0.00    +0.295 HD
ENDBRANCH  20  21
ENDBRANCH  15  20
ENDBRANCH   3  12
BRANCH   6  23
ATOM     23  C   UNL     1      -3.594  -0.610   0.001  0.00  0.00    +0.100 C 
ATOM     24  C   UNL     1      -3.239  -1.959  -0.001  0.00  0.00    +0.139 C 
ATOM     25  C   UNL     1      -4.940  -0.243   0.002  0.00  0.00    +0.009 C 
ATOM     26  C   UNL     1      -4.229  -2.941  -0.003  0.00  0.00    +0.037 C 
ATOM     27  C   UNL     1      -5.930  -1.226   0.001  0.00  0.00    +0.000 C 
ATOM     28  C   UNL     1      -5.575  -2.575  -0.002  0.00  0.00    +0.003 C 
BRANCH  24  29
ATOM     29  O   UNL     1      -1.931  -2.346  -0.003  0.00  0.00    -0.505 OA
ATOM     30  H   UNL     1      -1.251  -1.702  -0.002  0.00  0.00    +0.292 HD
ENDBRANCH  24  29
ENDBRANCH   6  23
TORSDOF 5
