REMARK  Name = 135400895
REMARK  3 active torsions:
REMARK  status: ('A' for Active; 'I' for Inactive)
REMARK    1  A    between atoms: N_2  and  C_17
REMARK    2  A    between atoms: C_19  and  C_20
REMARK    3  A    between atoms: C_20  and  O_21
REMARK                            x       y       z     vdW  Elec       q    Type
REMARK                         _______ _______ _______ _____ _____    ______ ____
ROOT
ATOM      1  O   UNL     1      -3.580   2.195   0.321  0.00  0.00    -0.268 OA
ATOM      2  N   UNL     1       0.279   0.036  -0.609  0.00  0.00    -0.237 N 
ATOM      3  N   UNL     1      -0.715   2.033  -0.445  0.00  0.00    -0.240 NA
ATOM      4  N   UNL     1      -1.564  -1.425  -0.034  0.00  0.00    -0.357 NA
ATOM      5  N   UNL     1      -3.531  -0.138   0.430  0.00  0.00    -0.243 N 
ATOM      6  N   UNL     1      -3.572  -2.488   0.565  0.00  0.00    -0.321 N 
ATOM      7  C   UNL     1      -1.013  -0.209  -0.246  0.00  0.00    +0.211 C 
ATOM      8  C   UNL     1       0.409   1.399  -0.716  0.00  0.00    +0.224 C 
ATOM      9  C   UNL     1      -1.595   1.032  -0.155  0.00  0.00    +0.176 C 
ATOM     10  C   UNL     1      -2.979   1.133   0.214  0.00  0.00    +0.273 C 
ATOM     11  C   UNL     1      -2.833  -1.363   0.306  0.00  0.00    +0.239 C 
ATOM     12  H   UNL     1      -4.480  -0.181   0.689  0.00  0.00    +0.159 HD
ATOM     13  H   UNL     1      -3.154  -3.377   0.498  0.00  0.00    +0.146 HD
ATOM     14  H   UNL     1      -4.520  -2.407   0.816  0.00  0.00    +0.146 HD
ENDROOT
BRANCH   2  17
ATOM     15  O   UNL     1       1.995  -1.288   0.405  0.00  0.00    -0.309 OA
ATOM     16  O   UNL     1       3.440   0.060  -0.859  0.00  0.00    -0.324 OA
ATOM     17  C   UNL     1       1.370  -0.984  -0.851  0.00  0.00    +0.228 C 
ATOM     18  C   UNL     1       2.529  -0.587  -1.746  0.00  0.00    +0.196 C 
ATOM     19  C   UNL     1       3.275  -0.644   0.375  0.00  0.00    +0.267 C 
BRANCH  19  20
ATOM     20  C   UNL     1       3.399   0.322   1.537  0.00  0.00    +0.199 C 
BRANCH  20  21
ATOM     21  O   UNL     1       4.687   0.915   1.507  0.00  0.00    -0.377 OA
ATOM     22  H   UNL     1       4.775   1.535   2.248  0.00  0.00    +0.211 HD
ENDBRANCH  20  21
ENDBRANCH  19  20
ENDBRANCH   2  17
TORSDOF 3
