REMARK  Name = 135402851
REMARK  4 active torsions:
REMARK  status: ('A' for Active; 'I' for Inactive)
REMARK    1  A    between atoms: C_1  and  C_5
REMARK    2  A    between atoms: C_2  and  C_16
REMARK    3  A    between atoms: C_2  and  C_25
REMARK    4  A    between atoms: C_17  and  C_23
REMARK                            x       y       z     vdW  Elec       q    Type
REMARK                         _______ _______ _______ _____ _____    ______ ____
ROOT
ATOM      1  C   UNL     1      -0.203  -1.058   0.343  0.00  0.00    +0.013 C 
ATOM      2  C   UNL     1       0.738  -0.069   0.121  0.00  0.00    +0.086 C 
ENDROOT
BRANCH   1   5
ATOM      3  N   UNL     1      -3.510  -1.059   1.717  0.00  0.00    -0.312 N 
ATOM      4  C   UNL     1      -2.576  -0.271  -0.150  0.00  0.00    +0.015 C 
ATOM      5  C   UNL     1      -1.577  -0.910   0.636  0.00  0.00    +0.017 C 
ATOM      6  C   UNL     1      -3.779  -0.378   0.551  0.00  0.00    +0.048 C 
ATOM      7  C   UNL     1      -2.182  -1.384   1.778  0.00  0.00    +0.062 C 
ATOM      8  C   UNL     1      -2.572   0.391  -1.394  0.00  0.00    +0.001 C 
ATOM      9  C   UNL     1      -4.984   0.145   0.067  0.00  0.00    +0.015 C 
ATOM     10  C   UNL     1      -3.769   0.919  -1.890  0.00  0.00    +0.000 C 
ATOM     11  C   UNL     1      -4.955   0.797  -1.169  0.00  0.00    +0.001 C 
ATOM     12  H   UNL     1      -4.177  -1.279   2.407  0.00  0.00    +0.152 HD
ENDBRANCH   1   5
BRANCH   2  16
ATOM     13  N   UNL     1       2.413  -1.575  -0.819  0.00  0.00    -0.273 N 
ATOM     14  N   UNL     1       3.722  -1.788  -1.036  0.00  0.00    -0.157 NA
ATOM     15  N   UNL     1       5.635  -0.463  -0.475  0.00  0.00    -0.341 N 
ATOM     16  C   UNL     1       2.145  -0.405  -0.170  0.00  0.00    +0.096 A 
ATOM     17  C   UNL     1       3.364   0.188   0.053  0.00  0.00    +0.119 A 
ATOM     18  C   UNL     1       4.298  -0.708  -0.501  0.00  0.00    +0.156 A 
ATOM     19  H   UNL     1       1.712  -2.206  -1.102  0.00  0.00    +0.189 HD
ATOM     20  H   UNL     1       6.262  -1.111  -0.872  0.00  0.00    +0.144 HD
ATOM     21  H   UNL     1       5.977   0.361  -0.060  0.00  0.00    +0.144 HD
BRANCH  17  23
ATOM     22  N   UNL     1       3.763   2.449   1.238  0.00  0.00    -0.191 NA
ATOM     23  C   UNL     1       3.584   1.434   0.706  0.00  0.00    +0.105 C 
ENDBRANCH  17  23
ENDBRANCH   2  16
BRANCH   2  25
ATOM     24  N   UNL     1       0.076   2.433   0.218  0.00  0.00    -0.191 NA
ATOM     25  C   UNL     1       0.371   1.312   0.175  0.00  0.00    +0.102 C 
ENDBRANCH   2  25
TORSDOF 4
