REMARK  Name = 135437126
REMARK  4 active torsions:
REMARK  status: ('A' for Active; 'I' for Inactive)
REMARK    1  A    between atoms: N_3  and  C1*_17
REMARK    2  A    between atoms: C3*_18  and  O3*_21
REMARK    3  A    between atoms: C4*_20  and  C5*_23
REMARK    4  A    between atoms: C5*_23  and  O5*_24
REMARK                            x       y       z     vdW  Elec       q    Type
REMARK                         _______ _______ _______ _____ _____    ______ ____
ROOT
ATOM      1 BR   UNL     1       0.079   4.049   0.327  0.00  0.00    +0.004 Br
ATOM      2  O   UNL     1       4.489   0.326  -0.194  0.00  0.00    -0.267 OA
ATOM      3  N   UNL     1       0.059   1.133   0.180  0.00  0.00    -0.207 N 
ATOM      4  N   UNL     1       2.091   2.060   0.074  0.00  0.00    -0.371 NA
ATOM      5  N   UNL     1       0.631  -1.213   0.017  0.00  0.00    -0.355 NA
ATOM      6  N   UNL     1       3.005  -1.477  -0.175  0.00  0.00    -0.242 N 
ATOM      7  N   UNL     1       1.585  -3.354  -0.164  0.00  0.00    -0.321 N 
ATOM      8  C   UNL     1       0.942   0.101   0.061  0.00  0.00    +0.228 C 
ATOM      9  C   UNL     1       0.798   2.291   0.183  0.00  0.00    +0.226 C 
ATOM     10  C   UNL     1       2.177   0.701  -0.002  0.00  0.00    +0.231 C 
ATOM     11  C   UNL     1       3.350  -0.119  -0.131  0.00  0.00    +0.286 C 
ATOM     12  C   UNL     1       1.688  -1.988  -0.102  0.00  0.00    +0.240 C 
ATOM     13  H   UNL     1       3.739  -2.128  -0.263  0.00  0.00    +0.159 HD
ATOM     14  H   UNL     1       0.700  -3.784  -0.119  0.00  0.00    +0.146 HD
ATOM     15  H   UNL     1       2.396  -3.905  -0.254  0.00  0.00    +0.146 HD
ENDROOT
BRANCH   3  17
ATOM     16  O4* UNL     1      -1.843  -0.189   0.963  0.00  0.00    -0.335 OA
ATOM     17  C1* UNL     1      -1.441   1.016   0.285  0.00  0.00    +0.203 C 
ATOM     18  C3* UNL     1      -3.420   0.266  -0.758  0.00  0.00    +0.144 C 
ATOM     19  C2* UNL     1      -2.136   0.998  -1.072  0.00  0.00    +0.083 C 
ATOM     20  C4* UNL     1      -2.986  -0.753   0.288  0.00  0.00    +0.173 C 
BRANCH  18  21
ATOM     21  O3* UNL     1      -4.337   1.190  -0.176  0.00  0.00    -0.382 OA
ATOM     22  H3* UNL     1      -4.611   1.837  -0.844  0.00  0.00    +0.210 HD
ENDBRANCH  18  21
BRANCH  20  23
ATOM     23  C5* UNL     1      -2.562  -2.081  -0.323  0.00  0.00    +0.169 C 
BRANCH  23  24
ATOM     24  O5* UNL     1      -2.168  -2.955   0.720  0.00  0.00    -0.379 OA
ATOM     25  H5* UNL     1      -1.895  -3.806   0.343  0.00  0.00    +0.211 HD
ENDBRANCH  23  24
ENDBRANCH  20  23
ENDBRANCH   3  17
TORSDOF 4
