REMARK  Name = 135402036
REMARK  8 active torsions:
REMARK  status: ('A' for Active; 'I' for Inactive)
REMARK    1  A    between atoms: C_2  and  O_17
REMARK    2  A    between atoms: C_3  and  O_19
REMARK    3  A    between atoms: C_4  and  N_7
REMARK    4  A    between atoms: C_5  and  C_21
REMARK    5  A    between atoms: C_21  and  O_22
REMARK    6  A    between atoms: O_22  and  P_23
REMARK    7  A    between atoms: P_23  and  O_25
REMARK    8  A    between atoms: P_23  and  O_27
REMARK                            x       y       z     vdW  Elec       q    Type
REMARK                         _______ _______ _______ _____ _____    ______ ____
ROOT
ATOM      1  O   UNL     1      -1.007  -0.076   0.140  0.00  0.00    -0.333 OA
ATOM      2  C   UNL     1       0.015   2.011  -0.381  0.00  0.00    +0.187 C 
ATOM      3  C   UNL     1      -1.486   2.189  -0.317  0.00  0.00    +0.171 C 
ATOM      4  C   UNL     1       0.206   0.680   0.339  0.00  0.00    +0.225 C 
ATOM      5  C   UNL     1      -1.967   0.763  -0.523  0.00  0.00    +0.176 C 
ENDROOT
BRANCH   4   7
ATOM      6  O   UNL     1       5.496  -1.897  -0.836  0.00  0.00    -0.268 OA
ATOM      7  N   UNL     1       1.404  -0.094  -0.158  0.00  0.00    -0.247 N 
ATOM      8  N   UNL     1       2.609  -1.496  -1.417  0.00  0.00    -0.241 NA
ATOM      9  N   UNL     1       3.097   0.666   1.402  0.00  0.00    -0.232 NA
ATOM     10  N   UNL     1       5.208  -0.379   0.914  0.00  0.00    -0.279 N 
ATOM     11  C   UNL     1       2.670  -0.067   0.348  0.00  0.00    +0.154 C 
ATOM     12  C   UNL     1       1.417  -0.968  -1.218  0.00  0.00    +0.223 C 
ATOM     13  C   UNL     1       3.385  -0.935  -0.445  0.00  0.00    +0.162 C 
ATOM     14  C   UNL     1       4.785  -1.146  -0.180  0.00  0.00    +0.267 C 
ATOM     15  C   UNL     1       4.362   0.471   1.636  0.00  0.00    +0.220 C 
ATOM     16  H   UNL     1       6.151  -0.441   1.189  0.00  0.00    +0.152 HD
ENDBRANCH   4   7
BRANCH   2  17
ATOM     17  O   UNL     1       0.691   3.055   0.299  0.00  0.00    -0.378 OA
ATOM     18  H   UNL     1       0.557   3.890  -0.175  0.00  0.00    +0.211 HD
ENDBRANCH   2  17
BRANCH   3  19
ATOM     19  O   UNL     1      -1.938   3.055  -1.341  0.00  0.00    -0.379 OA
ATOM     20  H   UNL     1      -1.611   3.952  -1.173  0.00  0.00    +0.211 HD
ENDBRANCH   3  19
BRANCH   5  21
ATOM     21  C   UNL     1      -3.349   0.504   0.050  0.00  0.00    +0.186 C 
BRANCH  21  22
ATOM     22  O   UNL     1      -3.704  -0.845  -0.205  0.00  0.00    -0.271 OA
BRANCH  22  23
ATOM     23  P   UNL     1      -5.144  -1.373   0.311  0.00  0.00    +0.473 P 
ATOM     24  O   UNL     1      -5.441  -2.811   0.001  0.00  0.00    -0.227 OA
BRANCH  23  25
ATOM     25  O   UNL     1      -5.120  -1.005   1.886  0.00  0.00    -0.303 OA
ATOM     26  H   UNL     1      -4.922  -0.061   1.994  0.00  0.00    +0.222 HD
ENDBRANCH  23  25
BRANCH  23  27
ATOM     27  O   UNL     1      -6.189  -0.303  -0.305  0.00  0.00    -0.303 OA
ATOM     28  H   UNL     1      -5.919   0.594  -0.054  0.00  0.00    +0.222 HD
ENDBRANCH  23  27
ENDBRANCH  22  23
ENDBRANCH  21  22
ENDBRANCH   5  21
TORSDOF 8
