REMARK  Name = 135455949
REMARK  7 active torsions:
REMARK  status: ('A' for Active; 'I' for Inactive)
REMARK    1  A    between atoms: C_3  and  C_17
REMARK    2  A    between atoms: C_4  and  C_26
REMARK    3  A    between atoms: C_5  and  N_9
REMARK    4  A    between atoms: C_17  and  C_18
REMARK    5  A    between atoms: C_23  and  O_24
REMARK    6  A    between atoms: C_26  and  C_27
REMARK    7  A    between atoms: C_32  and  O_33
REMARK                            x       y       z     vdW  Elec       q    Type
REMARK                         _______ _______ _______ _____ _____    ______ ____
ROOT
ATOM      1  N   UNL     1       1.024   1.264  -0.460  0.00  0.00    -0.262 N 
ATOM      2  N   UNL     1      -0.296   0.416   1.111  0.00  0.00    -0.376 NA
ATOM      3  C   UNL     1       1.408  -0.039  -0.313  0.00  0.00    +0.129 C 
ATOM      4  C   UNL     1       0.579  -0.542   0.662  0.00  0.00    +0.113 C 
ATOM      5  C   UNL     1      -0.001   1.491   0.415  0.00  0.00    +0.274 C 
ATOM      6  C   UNL     1       1.603   2.221  -1.377  0.00  0.00    +0.116 C 
ENDROOT
BRANCH   5   9
ATOM      7  O   UNL     1      -2.214   5.149   0.491  0.00  0.00    -0.266 OA
ATOM      8  O   UNL     1      -4.932   1.591  -0.639  0.00  0.00    -0.252 OA
ATOM      9  N   UNL     1      -0.597   2.766   0.479  0.00  0.00    -0.183 NA
ATOM     10  N   UNL     1      -3.934   3.648  -0.111  0.00  0.00    -0.206 N 
ATOM     11  N   UNL     1      -2.678   1.792  -0.119  0.00  0.00    -0.249 N 
ATOM     12  C   UNL     1      -1.852   2.814   0.215  0.00  0.00    +0.194 C 
ATOM     13  C   UNL     1      -2.676   4.061   0.225  0.00  0.00    +0.288 C 
ATOM     14  C   UNL     1      -3.962   2.271  -0.326  0.00  0.00    +0.315 C 
ATOM     15  C   UNL     1      -5.083   4.522  -0.227  0.00  0.00    +0.125 C 
ATOM     16  H   UNL     1      -2.405   0.850  -0.203  0.00  0.00    +0.158 HD
ENDBRANCH   5   9
BRANCH   3  17
ATOM     17  C   UNL     1       2.495  -0.657  -1.093  0.00  0.00    +0.053 C 
BRANCH  17  18
ATOM     18  C   UNL     1       3.897  -0.302  -0.617  0.00  0.00    -0.020 C 
ATOM     19  C   UNL     1       4.261  -0.533   0.710  0.00  0.00    -0.001 C 
ATOM     20  C   UNL     1       4.816   0.254  -1.506  0.00  0.00    -0.001 C 
ATOM     21  C   UNL     1       5.545  -0.207   1.147  0.00  0.00    +0.036 C 
ATOM     22  C   UNL     1       6.100   0.579  -1.069  0.00  0.00    +0.036 C 
ATOM     23  C   UNL     1       6.464   0.349   0.257  0.00  0.00    +0.134 C 
BRANCH  23  24
ATOM     24  O   UNL     1       7.717   0.667   0.684  0.00  0.00    -0.506 OA
ATOM     25  H   UNL     1       7.962   0.512   1.575  0.00  0.00    +0.292 HD
ENDBRANCH  23  24
ENDBRANCH  17  18
ENDBRANCH   3  17
BRANCH   4  26
ATOM     26  C   UNL     1       0.545  -1.902   1.223  0.00  0.00    +0.082 C 
BRANCH  26  27
ATOM     27  C   UNL     1      -0.579  -2.781   0.690  0.00  0.00    -0.015 C 
ATOM     28  C   UNL     1      -1.871  -2.645   1.197  0.00  0.00    -0.001 C 
ATOM     29  C   UNL     1      -0.316  -3.722  -0.306  0.00  0.00    -0.001 C 
ATOM     30  C   UNL     1      -2.900  -3.450   0.708  0.00  0.00    +0.037 C 
ATOM     31  C   UNL     1      -1.345  -4.527  -0.794  0.00  0.00    +0.037 C 
ATOM     32  C   UNL     1      -2.637  -4.391  -0.287  0.00  0.00    +0.139 C 
BRANCH  32  33
ATOM     33  O   UNL     1      -3.642  -5.175  -0.764  0.00  0.00    -0.471 OA
ATOM     34  C   UNL     1      -4.939  -4.983  -0.202  0.00  0.00    +0.252 C 
ENDBRANCH  32  33
ENDBRANCH  26  27
ENDBRANCH   4  26
TORSDOF 7
