REMARK  Name = 135431427
REMARK  4 active torsions:
REMARK  status: ('A' for Active; 'I' for Inactive)
REMARK    1  A    between atoms: N_2  and  C_15
REMARK    2  A    between atoms: C_15  and  C_16
REMARK    3  A    between atoms: C_16  and  C_18
REMARK    4  A    between atoms: C_16  and  O_19
REMARK                            x       y       z     vdW  Elec       q    Type
REMARK                         _______ _______ _______ _____ _____    ______ ____
ROOT
ATOM      1  O   UNL     1       0.041   2.160  -0.383  0.00  0.00    -0.272 OA
ATOM      2  N   UNL     1      -0.571  -0.809  -0.417  0.00  0.00    -0.230 NA
ATOM      3  N   UNL     1       1.005  -2.357  -0.119  0.00  0.00    -0.194 NA
ATOM      4  N   UNL     1       2.227   1.496   0.000  0.00  0.00    -0.245 N 
ATOM      5  N   UNL     1       2.910  -0.799   0.166  0.00  0.00    -0.323 NA
ATOM      6  N   UNL     1       4.466   0.936   0.388  0.00  0.00    -0.320 N 
ATOM      7  C   UNL     1       0.600  -0.132  -0.237  0.00  0.00    +0.235 C 
ATOM      8  C   UNL     1       1.555  -1.104  -0.055  0.00  0.00    +0.087 C 
ATOM      9  C   UNL     1      -0.276  -2.145  -0.338  0.00  0.00    +0.214 C 
ATOM     10  C   UNL     1       0.869   1.270  -0.223  0.00  0.00    +0.259 C 
ATOM     11  C   UNL     1       3.187   0.485   0.184  0.00  0.00    +0.248 C 
ATOM     12  H   UNL     1       2.535   2.430   0.031  0.00  0.00    +0.159 HD
ATOM     13  H   UNL     1       4.651   1.903   0.398  0.00  0.00    +0.146 HD
ATOM     14  H   UNL     1       5.199   0.293   0.525  0.00  0.00    +0.146 HD
ENDROOT
BRANCH   2  15
ATOM     15  C   UNL     1      -1.881  -0.248  -0.649  0.00  0.00    +0.106 C 
BRANCH  15  16
ATOM     16  C   UNL     1      -2.514   0.300   0.637  0.00  0.00    +0.143 C 
BRANCH  16  18
ATOM     17 CL   UNL     1      -4.924   0.469  -0.628  0.00  0.00    -0.111 Cl
ATOM     18  C   UNL     1      -3.637   1.279   0.303  0.00  0.00    +0.125 C 
ENDBRANCH  16  18
BRANCH  16  19
ATOM     19  O   UNL     1      -3.058  -0.798   1.369  0.00  0.00    -0.382 OA
ATOM     20  H   UNL     1      -2.350  -1.425   1.585  0.00  0.00    +0.210 HD
ENDBRANCH  16  19
ENDBRANCH  15  16
ENDBRANCH   2  15
TORSDOF 4
