135431817
  -OEChem-03292013293D

 31 33  0     1  0  0  0  0  0999 V2000
   -3.3396    2.4747   -0.0472 F   0  0  0  0  0  0  0  0  0  0  0  0
   -2.3338   -0.1684    0.9133 O   0  0  0  0  0  0  0  0  0  0  0  0
   -4.3858   -2.0488    0.6273 O   0  0  0  0  0  0  0  0  0  0  0  0
    4.1592   -1.9438   -0.3036 O   0  0  0  0  0  0  0  0  0  0  0  0
   -0.0396   -0.3210    0.0857 N   0  0  0  0  0  0  0  0  0  0  0  0
    1.1979   -2.1599   -0.2122 N   0  0  0  0  0  0  0  0  0  0  0  0
    1.6945    1.3607    0.2420 N   0  0  0  0  0  0  0  0  0  0  0  0
    3.8548    0.3491    0.0179 N   0  0  0  0  0  0  0  0  0  0  0  0
    3.6418    2.6717    0.3392 N   0  0  0  0  0  0  0  0  0  0  0  0
   -1.2673    0.5381    0.2509 C   0  0  1  0  0  0  0  0  0  0  0  0
   -1.8383    1.0267   -1.0740 C   0  0  0  0  0  0  0  0  0  0  0  0
   -3.2766    1.2823   -0.7058 C   0  0  1  0  0  0  0  0  0  0  0  0
   -3.5857    0.1762    0.2871 C   0  0  1  0  0  0  0  0  0  0  0  0
   -4.1410   -1.0768   -0.3743 C   0  0  0  0  0  0  0  0  0  0  0  0
    1.2608    0.0900    0.0884 C   0  0  0  0  0  0  0  0  0  0  0  0
   -0.0257   -1.6822   -0.0983 C   0  0  0  0  0  0  0  0  0  0  0  0
    1.9928   -1.0580   -0.0960 C   0  0  0  0  0  0  0  0  0  0  0  0
    3.4264   -0.9760   -0.1433 C   0  0  0  0  0  0  0  0  0  0  0  0
    3.0052    1.4654    0.2028 C   0  0  0  0  0  0  0  0  0  0  0  0
   -0.9701    1.3703    0.8999 H   0  0  0  0  0  0  0  0  0  0  0  0
   -1.7744    0.2474   -1.8422 H   0  0  0  0  0  0  0  0  0  0  0  0
   -1.3171    1.9175   -1.4360 H   0  0  0  0  0  0  0  0  0  0  0  0
   -3.9584    1.3353   -1.5580 H   0  0  0  0  0  0  0  0  0  0  0  0
   -4.2598    0.5195    1.0791 H   0  0  0  0  0  0  0  0  0  0  0  0
   -3.4265   -1.5051   -1.0845 H   0  0  0  0  0  0  0  0  0  0  0  0
   -5.0807   -0.8619   -0.8924 H   0  0  0  0  0  0  0  0  0  0  0  0
   -0.9329   -2.2690   -0.1440 H   0  0  0  0  0  0  0  0  0  0  0  0
   -4.7408   -2.8366    0.1816 H   0  0  0  0  0  0  0  0  0  0  0  0
    4.8559    0.5210    0.0004 H   0  0  0  0  0  0  0  0  0  0  0  0
    3.1179    3.5293    0.4759 H   0  0  0  0  0  0  0  0  0  0  0  0
    4.6529    2.7428    0.3076 H   0  0  0  0  0  0  0  0  0  0  0  0
  1 12  1  0  0  0  0
  2 10  1  0  0  0  0
  2 13  1  0  0  0  0
  3 14  1  0  0  0  0
  3 28  1  0  0  0  0
  4 18  2  0  0  0  0
  5 10  1  0  0  0  0
  5 15  1  0  0  0  0
  5 16  1  0  0  0  0
  6 16  2  0  0  0  0
  6 17  1  0  0  0  0
  7 15  1  0  0  0  0
  7 19  2  0  0  0  0
  8 18  1  0  0  0  0
  8 19  1  0  0  0  0
  8 29  1  0  0  0  0
  9 19  1  0  0  0  0
  9 30  1  0  0  0  0
  9 31  1  0  0  0  0
 10 11  1  0  0  0  0
 10 20  1  0  0  0  0
 11 12  1  0  0  0  0
 11 21  1  0  0  0  0
 11 22  1  0  0  0  0
 12 13  1  0  0  0  0
 12 23  1  0  0  0  0
 13 14  1  0  0  0  0
 13 24  1  0  0  0  0
 14 25  1  0  0  0  0
 14 26  1  0  0  0  0
 15 17  2  0  0  0  0
 16 27  1  0  0  0  0
 17 18  1  0  0  0  0
M  END
> <PUBCHEM_COMPOUND_CID>
135431817

> <PUBCHEM_CONFORMER_RMSD>
0.6

> <PUBCHEM_CONFORMER_DIVERSEORDER>
1
10
14
6
7
9
12
3
13
5
11
2
8
4

> <PUBCHEM_MMFF94_PARTIAL_CHARGES>
23
1 -0.34
10 0.54
12 0.34
13 0.28
14 0.28
15 -0.03
16 0.04
17 0.14
18 0.72
19 0.56
2 -0.56
27 0.15
28 0.4
29 0.37
3 -0.68
30 0.4
31 0.4
4 -0.57
5 0.05
6 -0.57
7 -0.58
8 -0.49
9 -0.85

> <PUBCHEM_EFFECTIVE_ROTOR_COUNT>
3

> <PUBCHEM_PHARMACOPHORE_FEATURES>
10
1 2 acceptor
1 3 acceptor
1 3 donor
1 4 acceptor
1 8 donor
1 9 donor
3 5 6 16 cation
5 2 10 11 12 13 rings
5 5 6 15 16 17 rings
6 7 8 15 17 18 19 rings

> <PUBCHEM_HEAVY_ATOM_COUNT>
19

> <PUBCHEM_ATOM_DEF_STEREO_COUNT>
3

> <PUBCHEM_ATOM_UDEF_STEREO_COUNT>
0

> <PUBCHEM_BOND_DEF_STEREO_COUNT>
0

> <PUBCHEM_BOND_UDEF_STEREO_COUNT>
0

> <PUBCHEM_ISOTOPIC_ATOM_COUNT>
0

> <PUBCHEM_COMPONENT_COUNT>
1

> <PUBCHEM_CACTVS_TAUTO_COUNT>
-1

> <PUBCHEM_CONFORMER_ID>
0812868900000001

> <PUBCHEM_MMFF94_ENERGY>
39.1496

> <PUBCHEM_FEATURE_SELFOVERLAP>
50.928

> <PUBCHEM_SHAPE_FINGERPRINT>
10608611 8 18336543837315460389
11405975 8 18338516335574536257
11471102 20 18340201887058081204
11615757 297 18202568362560874019
12403259 226 18408318861297011380
12403259 415 18407478864225109941
12403260 363 18409157818601835266
12500047 106 18116710704152748261
12507557 5 18340763745947326208
12916754 54 18413110558840883259
13583140 156 17387104586047860370
13675066 3 17917138417061291466
14289901 80 18413385445295408049
15196674 1 18411136930820474180
15219456 202 18408040693292131241
15536298 74 18341894099661440524
16945 1 18270121202105412974
18175812 5 18334294236561635925
18186145 218 18202291281604751792
19930381 70 18195523920712250425
200 152 18131343103742579983
20645477 56 18115870694686594205
20645477 70 18271802380710981526
20681677 76 18335696148299743837
21065198 57 18337953389889675597
21524375 3 18268991054359727242
21709351 56 18341044125575520830
221490 88 18410860953534160954
22854114 111 18411981364651803068
23402539 116 17023187067661007638
23557571 272 17531247219402652949
23559900 14 18338791191901323906
2748010 2 18339651147860277574
2838139 119 15194703754203610600
2871803 45 18334569166515063607
3286 77 18408040697761042262
350125 39 18339083795364826846
4214541 1 18338517439486580485
5104073 3 18410572872807728385
5283173 99 18041824148723009333
6333272 397 18337106890458658760
77779 3 18411700976238625213
9709674 26 18335424594665968467

> <PUBCHEM_SHAPE_MULTIPOLES>
341.22
8.64
2.47
0.76
1.61
0.38
0.05
-0.16
-0.12
-0.69
-0.01
0.39
0.05
0.86

> <PUBCHEM_SHAPE_SELFOVERLAP>
742.92

> <PUBCHEM_SHAPE_VOLUME>
187.1

> <PUBCHEM_COORDINATE_TYPE>
2
5
10

$$$$
