REMARK  Name = 135457951
REMARK  6 active torsions:
REMARK  status: ('A' for Active; 'I' for Inactive)
REMARK    1  A    between atoms: C_4  and  C_23
REMARK    2  A    between atoms: C_6  and  O_13
REMARK    3  A    between atoms: C_7  and  O_15
REMARK    4  A    between atoms: C_8  and  O_17
REMARK    5  A    between atoms: C_11  and  O_19
REMARK    6  A    between atoms: C_12  and  O_21
REMARK                            x       y       z     vdW  Elec       q    Type
REMARK                         _______ _______ _______ _____ _____    ______ ____
ROOT
ATOM      1  O   UNL     1       1.234  -2.736  -0.078  0.00  0.00    -0.283 OA
ATOM      2  O   UNL     1       1.797   2.574   0.091  0.00  0.00    -0.283 OA
ATOM      3  C   UNL     1       0.138  -0.634  -0.082  0.00  0.00    +0.082 A 
ATOM      4  C   UNL     1      -2.265  -0.374  -0.205  0.00  0.00    +0.048 A 
ATOM      5  C   UNL     1       0.285   0.753  -0.037  0.00  0.00    +0.085 A 
ATOM      6  C   UNL     1      -1.140  -1.198  -0.166  0.00  0.00    +0.136 A 
ATOM      7  C   UNL     1      -2.118   1.011  -0.160  0.00  0.00    +0.166 A 
ATOM      8  C   UNL     1      -0.846   1.577  -0.076  0.00  0.00    +0.171 A 
ATOM      9  C   UNL     1       1.321  -1.515  -0.041  0.00  0.00    +0.235 C 
ATOM     10  C   UNL     1       1.626   1.361   0.050  0.00  0.00    +0.235 C 
ATOM     11  C   UNL     1       2.657  -0.878   0.048  0.00  0.00    +0.211 C 
ATOM     12  C   UNL     1       2.798   0.453   0.090  0.00  0.00    +0.211 C 
ENDROOT
BRANCH   6  13
ATOM     13  O   UNL     1      -1.332  -2.549  -0.213  0.00  0.00    -0.506 OA
ATOM     14  H   UNL     1      -0.596  -3.128  -0.189  0.00  0.00    +0.292 HD
ENDBRANCH   6  13
BRANCH   7  15
ATOM     15  O   UNL     1      -3.219   1.817  -0.197  0.00  0.00    -0.503 OA
ATOM     16  H   UNL     1      -4.074   1.439  -0.253  0.00  0.00    +0.292 HD
ENDBRANCH   7  15
BRANCH   8  17
ATOM     17  O   UNL     1      -0.755   2.938  -0.035  0.00  0.00    -0.503 OA
ATOM     18  H   UNL     1       0.085   3.351   0.021  0.00  0.00    +0.292 HD
ENDBRANCH   8  17
BRANCH  11  19
ATOM     19  O   UNL     1       3.762  -1.707   0.087  0.00  0.00    -0.501 OA
ATOM     20  H   UNL     1       3.652  -2.637   0.057  0.00  0.00    +0.292 HD
ENDBRANCH  11  19
BRANCH  12  21
ATOM     21  O   UNL     1       4.052   1.027   0.174  0.00  0.00    -0.501 OA
ATOM     22  H   UNL     1       4.139   1.959   0.203  0.00  0.00    +0.292 HD
ENDBRANCH  12  21
BRANCH   4  23
ATOM     23  C   UNL     1      -3.633  -0.973  -0.294  0.00  0.00    +0.033 C 
ATOM     24  C   UNL     1      -4.362  -0.949   1.045  0.00  0.00    +0.005 C 
ENDBRANCH   4  23
TORSDOF 6
