REMARK  Name = 135460974
REMARK  3 active torsions:
REMARK  status: ('A' for Active; 'I' for Inactive)
REMARK    1  A    between atoms: N_2  and  C_15
REMARK    2  A    between atoms: C_18  and  C_22
REMARK    3  A    between atoms: C_22  and  O_23
REMARK                            x       y       z     vdW  Elec       q    Type
REMARK                         _______ _______ _______ _____ _____    ______ ____
ROOT
ATOM      1  O   UNL     1      -3.807  -2.351   0.000  0.00  0.00    -0.267 OA
ATOM      2  N   UNL     1      -0.150  -0.335  -0.001  0.00  0.00    -0.100 N 
ATOM      3  N   UNL     1      -1.056  -1.337   0.000  0.00  0.00    -0.141 NA
ATOM      4  N   UNL     1      -0.596   0.939  -0.001  0.00  0.00    -0.089 NA
ATOM      5  N   UNL     1      -4.448  -0.110   0.000  0.00  0.00    -0.242 N 
ATOM      6  N   UNL     1      -2.892   1.725   0.000  0.00  0.00    -0.317 NA
ATOM      7  N   UNL     1      -5.201   2.108   0.001  0.00  0.00    -0.320 N 
ATOM      8  C   UNL     1      -2.194  -0.640   0.000  0.00  0.00    +0.229 C 
ATOM      9  C   UNL     1      -1.911   0.728   0.000  0.00  0.00    +0.132 C 
ATOM     10  C   UNL     1      -3.529  -1.159   0.000  0.00  0.00    +0.282 C 
ATOM     11  C   UNL     1      -4.122   1.261   0.000  0.00  0.00    +0.248 C 
ATOM     12  H   UNL     1      -5.404  -0.347  -0.001  0.00  0.00    +0.159 HD
ATOM     13  H   UNL     1      -6.115   1.741   0.000  0.00  0.00    +0.146 HD
ATOM     14  H   UNL     1      -5.062   3.083   0.001  0.00  0.00    +0.146 HD
ENDROOT
BRANCH   2  15
ATOM     15  C   UNL     1       1.215  -0.612  -0.001  0.00  0.00    +0.094 C 
ATOM     16  C   UNL     1       2.138   0.434  -0.001  0.00  0.00    +0.025 C 
ATOM     17  C   UNL     1       1.659  -1.934  -0.001  0.00  0.00    +0.018 C 
ATOM     18  C   UNL     1       3.505   0.158   0.000  0.00  0.00    +0.077 C 
ATOM     19  C   UNL     1       3.026  -2.211   0.001  0.00  0.00    +0.002 C 
ATOM     20  C   UNL     1       3.949  -1.165   0.001  0.00  0.00    +0.007 C 
BRANCH  18  22
ATOM     21  O   UNL     1       4.189   2.450   0.000  0.00  0.00    -0.245 OA
ATOM     22  C   UNL     1       4.469   1.247   0.000  0.00  0.00    +0.338 C 
BRANCH  22  23
ATOM     23  O   UNL     1       5.756   0.804   0.001  0.00  0.00    -0.477 OA
ATOM     24  H   UNL     1       5.934  -0.116   0.001  0.00  0.00    +0.295 HD
ENDBRANCH  22  23
ENDBRANCH  18  22
ENDBRANCH   2  15
TORSDOF 3
