135415867
  -OEChem-03292013293D

 54 58  0     0  0  0  0  0  0999 V2000
   -1.2561    1.7423    1.6084 O   0  0  0  0  0  0  0  0  0  0  0  0
   -4.9791   -2.7863    0.8396 O   0  0  0  0  0  0  0  0  0  0  0  0
   -3.5633   -3.1802   -0.8944 O   0  0  0  0  0  0  0  0  0  0  0  0
    2.3179    2.3130   -1.6969 O   0  0  0  0  0  0  0  0  0  0  0  0
    3.2730    4.1086   -0.6400 O   0  0  0  0  0  0  0  0  0  0  0  0
   -2.6620    0.0629    0.7104 N   0  0  0  0  0  0  0  0  0  0  0  0
   -3.0432    2.1842    0.1672 N   0  0  0  0  0  0  0  0  0  0  0  0
    4.0247    1.9457   -0.3427 N   0  0  0  0  0  0  0  0  0  0  0  0
    2.6011    0.9177   -1.6723 N   0  0  0  0  0  0  0  0  0  0  0  0
   -2.0222   -1.0705    1.3397 C   0  0  0  0  0  0  0  0  0  0  0  0
   -3.7458    0.0366   -0.1293 C   0  0  0  0  0  0  0  0  0  0  0  0
   -0.5530   -1.1830    1.0165 C   0  0  0  0  0  0  0  0  0  0  0  0
   -3.9641    1.3725   -0.4546 C   0  0  0  0  0  0  0  0  0  0  0  0
   -2.2789    1.3671    0.8567 C   0  0  0  0  0  0  0  0  0  0  0  0
   -4.5299   -1.0092   -0.6174 C   0  0  0  0  0  0  0  0  0  0  0  0
    2.1640   -1.3914    0.4191 C   0  0  0  0  0  0  0  0  0  0  0  0
   -0.1472   -1.6949   -0.2160 C   0  0  0  0  0  0  0  0  0  0  0  0
    0.3997   -0.7752    1.9504 C   0  0  0  0  0  0  0  0  0  0  0  0
   -5.0232    1.7032   -1.3168 C   0  0  0  0  0  0  0  0  0  0  0  0
    3.5733   -1.4991    0.1091 C   0  0  0  0  0  0  0  0  0  0  0  0
    1.2114   -1.7989   -0.5146 C   0  0  0  0  0  0  0  0  0  0  0  0
    1.7581   -0.8794    1.6516 C   0  0  0  0  0  0  0  0  0  0  0  0
   -5.5797   -0.6620   -1.4742 C   0  0  0  0  0  0  0  0  0  0  0  0
   -5.8237    0.6696   -1.8189 C   0  0  0  0  0  0  0  0  0  0  0  0
    4.2600   -0.4535   -0.5080 C   0  0  0  0  0  0  0  0  0  0  0  0
   -4.2951   -2.3991   -0.2736 C   0  0  0  0  0  0  0  0  0  0  0  0
    4.2454   -2.6760    0.4394 C   0  0  0  0  0  0  0  0  0  0  0  0
   -0.9427    3.1499    1.6882 C   0  0  0  0  0  0  0  0  0  0  0  0
    5.6186   -0.5850   -0.7950 C   0  0  0  0  0  0  0  0  0  0  0  0
    3.5956    0.7933   -0.8697 C   0  0  0  0  0  0  0  0  0  0  0  0
    5.6041   -2.8073    0.1522 C   0  0  0  0  0  0  0  0  0  0  0  0
    6.2908   -1.7618   -0.4649 C   0  0  0  0  0  0  0  0  0  0  0  0
    0.2444    3.3394    2.6084 C   0  0  0  0  0  0  0  0  0  0  0  0
    3.2271    2.9067   -0.8575 C   0  0  0  0  0  0  0  0  0  0  0  0
   -2.5005   -2.0136    1.1059 H   0  0  0  0  0  0  0  0  0  0  0  0
   -2.1643   -0.9357    2.4203 H   0  0  0  0  0  0  0  0  0  0  0  0
   -0.8797   -2.0143   -0.9520 H   0  0  0  0  0  0  0  0  0  0  0  0
    0.0997   -0.3784    2.9166 H   0  0  0  0  0  0  0  0  0  0  0  0
   -5.2209    2.7346   -1.5906 H   0  0  0  0  0  0  0  0  0  0  0  0
    1.5104   -2.2001   -1.4802 H   0  0  0  0  0  0  0  0  0  0  0  0
    2.4877   -0.5564    2.3905 H   0  0  0  0  0  0  0  0  0  0  0  0
   -6.2241   -1.4364   -1.8855 H   0  0  0  0  0  0  0  0  0  0  0  0
   -6.6471    0.9083   -2.4871 H   0  0  0  0  0  0  0  0  0  0  0  0
    3.7269   -3.5019    0.9209 H   0  0  0  0  0  0  0  0  0  0  0  0
   -0.7013    3.5244    0.6868 H   0  0  0  0  0  0  0  0  0  0  0  0
   -1.8093    3.6934    2.0819 H   0  0  0  0  0  0  0  0  0  0  0  0
    6.1683    0.2182   -1.2795 H   0  0  0  0  0  0  0  0  0  0  0  0
    6.1275   -3.7236    0.4090 H   0  0  0  0  0  0  0  0  0  0  0  0
    7.3485   -1.8646   -0.6892 H   0  0  0  0  0  0  0  0  0  0  0  0
    1.1130    2.7880    2.2331 H   0  0  0  0  0  0  0  0  0  0  0  0
    0.5079    4.3971    2.6947 H   0  0  0  0  0  0  0  0  0  0  0  0
    0.0251    2.9456    3.6062 H   0  0  0  0  0  0  0  0  0  0  0  0
    4.7874    2.0823    0.3102 H   0  0  0  0  0  0  0  0  0  0  0  0
   -4.8098   -3.7265    1.0623 H   0  0  0  0  0  0  0  0  0  0  0  0
  1 14  1  0  0  0  0
  1 28  1  0  0  0  0
  2 26  1  0  0  0  0
  2 54  1  0  0  0  0
  3 26  2  0  0  0  0
  4  9  1  0  0  0  0
  4 34  1  0  0  0  0
  5 34  2  0  0  0  0
  6 10  1  0  0  0  0
  6 11  1  0  0  0  0
  6 14  1  0  0  0  0
  7 13  1  0  0  0  0
  7 14  2  0  0  0  0
  8 30  1  0  0  0  0
  8 34  1  0  0  0  0
  8 53  1  0  0  0  0
  9 30  2  0  0  0  0
 10 12  1  0  0  0  0
 10 35  1  0  0  0  0
 10 36  1  0  0  0  0
 11 13  1  0  0  0  0
 11 15  2  0  0  0  0
 12 17  2  0  0  0  0
 12 18  1  0  0  0  0
 13 19  2  0  0  0  0
 15 23  1  0  0  0  0
 15 26  1  0  0  0  0
 16 20  1  0  0  0  0
 16 21  2  0  0  0  0
 16 22  1  0  0  0  0
 17 21  1  0  0  0  0
 17 37  1  0  0  0  0
 18 22  2  0  0  0  0
 18 38  1  0  0  0  0
 19 24  1  0  0  0  0
 19 39  1  0  0  0  0
 20 25  1  0  0  0  0
 20 27  2  0  0  0  0
 21 40  1  0  0  0  0
 22 41  1  0  0  0  0
 23 24  2  0  0  0  0
 23 42  1  0  0  0  0
 24 43  1  0  0  0  0
 25 29  2  0  0  0  0
 25 30  1  0  0  0  0
 27 31  1  0  0  0  0
 27 44  1  0  0  0  0
 28 33  1  0  0  0  0
 28 45  1  0  0  0  0
 28 46  1  0  0  0  0
 29 32  1  0  0  0  0
 29 47  1  0  0  0  0
 31 32  2  0  0  0  0
 31 48  1  0  0  0  0
 32 49  1  0  0  0  0
 33 50  1  0  0  0  0
 33 51  1  0  0  0  0
 33 52  1  0  0  0  0
M  END
> <PUBCHEM_COMPOUND_CID>
135415867

> <PUBCHEM_CONFORMER_RMSD>
1

> <PUBCHEM_CONFORMER_DIVERSEORDER>
1
46
3
50
32
40
37
14
51
39
18
22
23
19
15
12
53
11
47
24
28
17
45
2
42
36
35
38
48
20
33
34
43
6
49
30
27
5
44
4
41
16
25
26
10
31
7
8
52
29
9
21
13

> <PUBCHEM_MMFF94_PARTIAL_CHARGES>
44
1 -0.34
10 0.4
11 -0.15
12 -0.14
13 0.23
14 0.25
15 0.09
17 -0.15
18 -0.15
19 -0.15
2 -0.65
21 -0.15
22 -0.15
23 -0.15
24 -0.15
25 0.09
26 0.63
27 -0.15
28 0.28
29 -0.15
3 -0.57
30 0.42
31 -0.15
32 -0.15
34 0.78
37 0.15
38 0.15
39 0.15
4 -0.09
40 0.15
41 0.15
42 0.15
43 0.15
44 0.15
47 0.15
48 0.15
49 0.15
5 -0.57
53 0.37
54 0.5
6 0.05
7 -0.57
8 -0.49
9 -0.51

> <PUBCHEM_EFFECTIVE_ROTOR_COUNT>
7

> <PUBCHEM_PHARMACOPHORE_FEATURES>
11
1 2 acceptor
1 3 acceptor
1 5 acceptor
1 8 donor
3 2 3 26 anion
3 6 7 14 cation
5 4 8 9 30 34 rings
5 6 7 11 13 14 rings
6 11 13 15 19 23 24 rings
6 12 16 17 18 21 22 rings
6 20 25 27 29 31 32 rings

> <PUBCHEM_HEAVY_ATOM_COUNT>
34

> <PUBCHEM_ATOM_DEF_STEREO_COUNT>
0

> <PUBCHEM_ATOM_UDEF_STEREO_COUNT>
0

> <PUBCHEM_BOND_DEF_STEREO_COUNT>
0

> <PUBCHEM_BOND_UDEF_STEREO_COUNT>
0

> <PUBCHEM_ISOTOPIC_ATOM_COUNT>
0

> <PUBCHEM_COMPONENT_COUNT>
1

> <PUBCHEM_CACTVS_TAUTO_COUNT>
-1

> <PUBCHEM_CONFORMER_ID>
0812483B00000001

> <PUBCHEM_MMFF94_ENERGY>
103.95

> <PUBCHEM_FEATURE_SELFOVERLAP>
55.987

> <PUBCHEM_SHAPE_FINGERPRINT>
12166972 35 18411134706243952488
12422481 6 9799429822832080793
12645989 146 18122911924333489790
13583140 156 17749966469929830139
14068700 675 18270674252217512312
15064981 194 18115040645101367709
15183329 4 18261673662864906598
15420108 30 17403180296760895296
15968369 26 17979893210610224497
16989378 47 17344654551630817622
17349148 13 18340775840633422802
17844677 252 18334581264937133943
18681886 176 18411408493361293202
20775438 99 17481670433322291439
21033648 29 16588031216290172164
21133410 127 17389106946904596180
2132832 1 18412543176607722304
22393880 68 17967526874598945023
23559900 14 18341037562950135331
249057 3 18335699382573732735
3388396 114 18270689774150971624
3493558 16 17752211848740878087
44317340 157 18261960738425665003
469060 322 16558168446199737909
508706 21 17095242510089021565
6086070 43 17458345239015673178
6669772 16 17626936831051503336
77296 10 18335422408416988174

> <PUBCHEM_SHAPE_MULTIPOLES>
650.43
13.99
4.22
1.82
0.28
2.69
0.57
-6.08
-6.95
1.37
0.61
-0.73
1.17
-1.07

> <PUBCHEM_SHAPE_SELFOVERLAP>
1454.838

> <PUBCHEM_SHAPE_VOLUME>
345.3

> <PUBCHEM_COORDINATE_TYPE>
2
5
10

$$$$
