135459120
  -OEChem-03292013293D

 32 33  0     0  0  0  0  0  0999 V2000
    3.3642    2.5104   -0.4782 O   0  0  0  0  0  0  0  0  0  0  0  0
   -4.2504   -2.1049   -0.7108 O   0  0  0  0  0  0  0  0  0  0  0  0
    6.7479   -0.7943    0.0979 O   0  0  0  0  0  0  0  0  0  0  0  0
   -1.8369   -1.8809    0.4226 O   0  0  0  0  0  0  0  0  0  0  0  0
   -0.8846    0.1902    0.0196 N   0  0  0  0  0  0  0  0  0  0  0  0
    0.3741   -0.3039    0.0937 N   0  0  0  0  0  0  0  0  0  0  0  0
    2.7299    0.2385   -0.0415 C   0  0  0  0  0  0  0  0  0  0  0  0
   -3.2985   -0.0685    0.1274 C   0  0  0  0  0  0  0  0  0  0  0  0
    3.7079    1.2135   -0.2385 C   0  0  0  0  0  0  0  0  0  0  0  0
    3.1023   -1.0835    0.2026 C   0  0  0  0  0  0  0  0  0  0  0  0
   -4.3933   -0.8059   -0.3234 C   0  0  0  0  0  0  0  0  0  0  0  0
   -3.4660    1.2597    0.5194 C   0  0  0  0  0  0  0  0  0  0  0  0
    5.0580    0.8664   -0.1917 C   0  0  0  0  0  0  0  0  0  0  0  0
    5.4304   -0.4556    0.0520 C   0  0  0  0  0  0  0  0  0  0  0  0
    4.4525   -1.4306    0.2491 C   0  0  0  0  0  0  0  0  0  0  0  0
   -1.9452   -0.6781    0.1984 C   0  0  0  0  0  0  0  0  0  0  0  0
    1.3147    0.5793   -0.0861 C   0  0  0  0  0  0  0  0  0  0  0  0
   -5.6556   -0.2152   -0.3825 C   0  0  0  0  0  0  0  0  0  0  0  0
   -4.7284    1.8504    0.4605 C   0  0  0  0  0  0  0  0  0  0  0  0
   -5.8231    1.1131    0.0094 C   0  0  0  0  0  0  0  0  0  0  0  0
    2.3649   -1.8661    0.3603 H   0  0  0  0  0  0  0  0  0  0  0  0
   -2.6452    1.8587    0.9031 H   0  0  0  0  0  0  0  0  0  0  0  0
    5.8215    1.6254   -0.3451 H   0  0  0  0  0  0  0  0  0  0  0  0
    4.7367   -2.4620    0.4395 H   0  0  0  0  0  0  0  0  0  0  0  0
    1.0554    1.6360   -0.2807 H   0  0  0  0  0  0  0  0  0  0  0  0
   -6.5175   -0.7777   -0.7314 H   0  0  0  0  0  0  0  0  0  0  0  0
   -4.8606    2.8825    0.7719 H   0  0  0  0  0  0  0  0  0  0  0  0
   -6.8061    1.5727   -0.0350 H   0  0  0  0  0  0  0  0  0  0  0  0
   -0.9901    1.1753   -0.1996 H   0  0  0  0  0  0  0  0  0  0  0  0
    4.1731    3.0389   -0.5888 H   0  0  0  0  0  0  0  0  0  0  0  0
   -5.1154   -2.4499   -0.9910 H   0  0  0  0  0  0  0  0  0  0  0  0
    7.2841    0.0018   -0.0593 H   0  0  0  0  0  0  0  0  0  0  0  0
  1  9  1  0  0  0  0
  1 30  1  0  0  0  0
  2 11  1  0  0  0  0
  2 31  1  0  0  0  0
  3 14  1  0  0  0  0
  3 32  1  0  0  0  0
  4 16  2  0  0  0  0
  5  6  1  0  0  0  0
  5 16  1  0  0  0  0
  5 29  1  0  0  0  0
  6 17  2  0  0  0  0
  7  9  2  0  0  0  0
  7 10  1  0  0  0  0
  7 17  1  0  0  0  0
  8 11  1  0  0  0  0
  8 12  2  0  0  0  0
  8 16  1  0  0  0  0
  9 13  1  0  0  0  0
 10 15  2  0  0  0  0
 10 21  1  0  0  0  0
 11 18  2  0  0  0  0
 12 19  1  0  0  0  0
 12 22  1  0  0  0  0
 13 14  2  0  0  0  0
 13 23  1  0  0  0  0
 14 15  1  0  0  0  0
 15 24  1  0  0  0  0
 17 25  1  0  0  0  0
 18 20  1  0  0  0  0
 18 26  1  0  0  0  0
 19 20  2  0  0  0  0
 19 27  1  0  0  0  0
 20 28  1  0  0  0  0
M  END
> <PUBCHEM_COMPOUND_CID>
135459120

> <PUBCHEM_CONFORMER_RMSD>
0.6

> <PUBCHEM_CONFORMER_DIVERSEORDER>
1
39
28
13
32
38
30
20
8
23
37
35
26
4
36
14
27
7
31
2
18
33
34
12
40
10
41
21
29
24
9
15
11
25
16
17
5
22
3
6
19

> <PUBCHEM_MMFF94_PARTIAL_CHARGES>
32
1 -0.53
10 -0.15
11 0.08
12 -0.15
13 -0.15
14 0.08
15 -0.15
16 0.54
17 0.3
18 -0.15
19 -0.15
2 -0.53
20 -0.15
21 0.15
22 0.15
23 0.15
24 0.15
25 0.06
26 0.15
27 0.15
28 0.15
29 0.37
3 -0.53
30 0.45
31 0.45
32 0.45
4 -0.57
5 -0.37
6 -0.51
7 0.09
8 0.09
9 0.08

> <PUBCHEM_EFFECTIVE_ROTOR_COUNT>
4

> <PUBCHEM_PHARMACOPHORE_FEATURES>
8
1 1 donor
1 2 donor
1 3 donor
1 4 acceptor
1 5 donor
1 6 acceptor
6 7 9 10 13 14 15 rings
6 8 11 12 18 19 20 rings

> <PUBCHEM_HEAVY_ATOM_COUNT>
20

> <PUBCHEM_ATOM_DEF_STEREO_COUNT>
0

> <PUBCHEM_ATOM_UDEF_STEREO_COUNT>
0

> <PUBCHEM_BOND_DEF_STEREO_COUNT>
1

> <PUBCHEM_BOND_UDEF_STEREO_COUNT>
0

> <PUBCHEM_ISOTOPIC_ATOM_COUNT>
0

> <PUBCHEM_COMPONENT_COUNT>
1

> <PUBCHEM_CACTVS_TAUTO_COUNT>
-1

> <PUBCHEM_CONFORMER_ID>
0812F13000000001

> <PUBCHEM_MMFF94_ENERGY>
55.2098

> <PUBCHEM_FEATURE_SELFOVERLAP>
40.603

> <PUBCHEM_SHAPE_FINGERPRINT>
10595046 47 18339923813368349869
11089746 13 18409165515330994192
11315181 36 17917713508707865361
11405975 8 18260268585614114594
12107183 9 17762619486475022619
12166972 35 18409171038480212361
12236239 1 18411136943700081796
13167372 99 18411702045548734784
13167823 11 18412260661864174207
13533116 47 17845935113699602866
14251764 18 18409730664027920749
14528608 73 18410858801955726612
15183329 4 18408602539338561842
15196674 1 18410575110591326657
15250474 111 18339909489685092639
15788980 27 18409732871641123979
17834072 33 18411981385815403222
17844677 252 18338243755469807529
17857418 61 18409726253386749098
18681886 176 18272928350049346842
19489759 90 17847061065039960553
20281389 69 18260266339156860021
20645477 70 18410856534477115102
21033648 29 16805589391835020397
21267235 1 18409455794806058339
21709351 56 18410851066508552268
23402539 116 18342735217661985533
23536379 177 18412262817831885106
23559900 14 18272362109507574137
29717793 49 18130793343739141974
300161 21 18410288116518148832
3004659 81 18410011022951418624
335352 9 18407762526247464270
34797466 226 17274548722979007836
351380 180 18411700988917857233
3545911 37 18410857650566835536
4073 2 18041003989799105770
4214541 1 18411138039122555057
5104073 3 18408323314924806105
542803 24 18411138034627049743
54446538 1 18410573981178620481
559249 180 18413105048171313919
59755656 520 17530965791702549467
6327066 14 18047748197252389301
67856867 119 18341047523085042816
7495541 125 17703787071730833032
77779 3 18410294739268041881
9965369 4 18410854317751276843
9971528 1 17894912957774185132

> <PUBCHEM_SHAPE_MULTIPOLES>
378.15
16.83
1.9
0.68
3.43
0.24
0
0.58
-0.57
-0.42
-0.09
-0.2
0
-1.03

> <PUBCHEM_SHAPE_SELFOVERLAP>
816.234

> <PUBCHEM_SHAPE_VOLUME>
205.8

> <PUBCHEM_COORDINATE_TYPE>
2
5
10

$$$$
