135400182
  -OEChem-03292013293D

 54 56  0     1  0  0  0  0  0999 V2000
   -0.7196    2.3500   -1.3460 S   0  0  0  0  0  0  0  0  0  0  0  0
   -7.6401    0.4901    0.6859 O   0  0  0  0  0  0  0  0  0  0  0  0
   -3.4977    1.5804   -1.9715 O   0  0  0  0  0  0  0  0  0  0  0  0
   -5.9107    0.9381    2.0854 O   0  0  0  0  0  0  0  0  0  0  0  0
    5.4983   -0.2366   -2.4048 O   0  0  0  0  0  0  0  0  0  0  0  0
   -4.9064   -4.5148    0.4763 O   0  0  0  0  0  0  0  0  0  0  0  0
   -5.5916   -3.8110   -1.5687 O   0  0  0  0  0  0  0  0  0  0  0  0
    1.7585    2.8830   -0.3603 N   0  0  3  0  0  0  0  0  0  0  0  0
   -4.0952    0.7523    0.1103 N   0  0  0  0  0  0  0  0  0  0  0  0
    6.0203   -2.0362   -1.0567 N   0  0  0  0  0  0  0  0  0  0  0  0
    5.3302   -2.1625    1.2000 N   0  0  0  0  0  0  0  0  0  0  0  0
   -5.4470    0.3789   -0.2393 C   0  0  1  0  0  0  0  0  0  0  0  0
    2.7644    2.9078    0.6794 C   0  0  0  0  0  0  0  0  0  0  0  0
   -5.5428   -1.0477   -0.7933 C   0  0  0  0  0  0  0  0  0  0  0  0
    3.4388    1.5830    0.8015 C   0  0  0  0  0  0  0  0  0  0  0  0
    0.4763    2.3740   -0.1205 C   0  0  0  0  0  0  0  0  0  0  0  0
    4.7324   -0.2057   -0.1701 C   0  0  0  0  0  0  0  0  0  0  0  0
    4.1028    1.0361   -0.2954 C   0  0  0  0  0  0  0  0  0  0  0  0
   -5.1299   -2.1680    0.1697 C   0  0  0  0  0  0  0  0  0  0  0  0
    3.4047    0.8939    2.0130 C   0  0  0  0  0  0  0  0  0  0  0  0
    4.7062   -0.9107    1.0426 C   0  0  0  0  0  0  0  0  0  0  0  0
   -1.8628    1.6333   -0.2917 C   0  0  0  0  0  0  0  0  0  0  0  0
   -3.1715    1.3424   -0.7803 C   0  0  0  0  0  0  0  0  0  0  0  0
    2.1058    3.4118   -1.6788 C   0  0  0  0  0  0  0  0  0  0  0  0
    0.0124    1.8472    1.0648 C   0  0  0  0  0  0  0  0  0  0  0  0
    4.0351   -0.3463    2.1327 C   0  0  0  0  0  0  0  0  0  0  0  0
   -1.3425    1.4181    0.9656 C   0  0  0  0  0  0  0  0  0  0  0  0
   -6.3191    0.6234    0.9751 C   0  0  0  0  0  0  0  0  0  0  0  0
    5.4430   -0.8048   -1.3205 C   0  0  0  0  0  0  0  0  0  0  0  0
    5.9437   -2.6581    0.1723 C   0  0  0  0  0  0  0  0  0  0  0  0
   -5.2306   -3.5545   -0.4285 C   0  0  0  0  0  0  0  0  0  0  0  0
    6.6346   -3.9864    0.2515 C   0  0  0  0  0  0  0  0  0  0  0  0
   -5.7835    1.0793   -1.0140 H   0  0  0  0  0  0  0  0  0  0  0  0
    2.3312    3.2315    1.6345 H   0  0  0  0  0  0  0  0  0  0  0  0
    3.5302    3.6652    0.4642 H   0  0  0  0  0  0  0  0  0  0  0  0
   -6.5737   -1.2354   -1.1207 H   0  0  0  0  0  0  0  0  0  0  0  0
   -4.9225   -1.1191   -1.6967 H   0  0  0  0  0  0  0  0  0  0  0  0
    4.1462    1.5739   -1.2373 H   0  0  0  0  0  0  0  0  0  0  0  0
   -5.7725   -2.1433    1.0568 H   0  0  0  0  0  0  0  0  0  0  0  0
   -4.0908   -2.0199    0.4838 H   0  0  0  0  0  0  0  0  0  0  0  0
   -3.7981    0.5464    1.0586 H   0  0  0  0  0  0  0  0  0  0  0  0
    2.8955    1.3105    2.8780 H   0  0  0  0  0  0  0  0  0  0  0  0
    3.1359    3.7846   -1.7060 H   0  0  0  0  0  0  0  0  0  0  0  0
    1.4615    4.2573   -1.9441 H   0  0  0  0  0  0  0  0  0  0  0  0
    2.0275    2.6356   -2.4480 H   0  0  0  0  0  0  0  0  0  0  0  0
    0.5850    1.7666    1.9783 H   0  0  0  0  0  0  0  0  0  0  0  0
    3.9999   -0.8701    3.0849 H   0  0  0  0  0  0  0  0  0  0  0  0
   -1.8846    0.9787    1.7927 H   0  0  0  0  0  0  0  0  0  0  0  0
    6.5204   -2.4900   -1.8158 H   0  0  0  0  0  0  0  0  0  0  0  0
    5.9026   -4.7539    0.5198 H   0  0  0  0  0  0  0  0  0  0  0  0
    7.3958   -3.9469    1.0364 H   0  0  0  0  0  0  0  0  0  0  0  0
    7.1104   -4.2625   -0.6928 H   0  0  0  0  0  0  0  0  0  0  0  0
   -8.2048    0.6640    1.4688 H   0  0  0  0  0  0  0  0  0  0  0  0
   -4.9881   -5.4161    0.0977 H   0  0  0  0  0  0  0  0  0  0  0  0
  1 16  1  0  0  0  0
  1 22  1  0  0  0  0
  2 28  1  0  0  0  0
  2 53  1  0  0  0  0
  3 23  2  0  0  0  0
  4 28  2  0  0  0  0
  5 29  2  0  0  0  0
  6 31  1  0  0  0  0
  6 54  1  0  0  0  0
  7 31  2  0  0  0  0
  8 13  1  0  0  0  0
  8 16  1  0  0  0  0
  8 24  1  0  0  0  0
  9 12  1  0  0  0  0
  9 23  1  0  0  0  0
  9 41  1  0  0  0  0
 10 29  1  0  0  0  0
 10 30  1  0  0  0  0
 10 49  1  0  0  0  0
 11 21  1  0  0  0  0
 11 30  2  0  0  0  0
 12 14  1  0  0  0  0
 12 28  1  0  0  0  0
 12 33  1  0  0  0  0
 13 15  1  0  0  0  0
 13 34  1  0  0  0  0
 13 35  1  0  0  0  0
 14 19  1  0  0  0  0
 14 36  1  0  0  0  0
 14 37  1  0  0  0  0
 15 18  2  0  0  0  0
 15 20  1  0  0  0  0
 16 25  2  0  0  0  0
 17 18  1  0  0  0  0
 17 21  2  0  0  0  0
 17 29  1  0  0  0  0
 18 38  1  0  0  0  0
 19 31  1  0  0  0  0
 19 39  1  0  0  0  0
 19 40  1  0  0  0  0
 20 26  2  0  0  0  0
 20 42  1  0  0  0  0
 21 26  1  0  0  0  0
 22 23  1  0  0  0  0
 22 27  2  0  0  0  0
 24 43  1  0  0  0  0
 24 44  1  0  0  0  0
 24 45  1  0  0  0  0
 25 27  1  0  0  0  0
 25 46  1  0  0  0  0
 26 47  1  0  0  0  0
 27 48  1  0  0  0  0
 30 32  1  0  0  0  0
 32 50  1  0  0  0  0
 32 51  1  0  0  0  0
 32 52  1  0  0  0  0
M  END
> <PUBCHEM_COMPOUND_CID>
135400182

> <PUBCHEM_CONFORMER_RMSD>
1

> <PUBCHEM_CONFORMER_DIVERSEORDER>
1
87
172
251
260
98
131
149
196
157
181
159
37
286
161
65
111
206
222
195
173
197
234
233
27
281
271
55
182
133
193
94
121
46
221
12
117
26
283
255
115
294
155
38
185
151
299
143
215
199
276
97
275
296
166
259
270
33
287
69
242
293
278
9
240
189
194
241
289
250
146
282
274
54
142
118
127
24
107
188
269
5
227
247
231
93
186
212
229
61
257
49
246
141
190
236
137
95
230
63
53
91
144
89
225
238
16
165
179
150
124
187
86
243
122
29
213
226
34
39
71
20
176
84
25
163
209
132
245
77
79
265
244
175
200
198
214
31
153
60
191
126
167
158
139
183
70
82
66
208
207
288
120
92
254
178
224
114
4
211
148
113
90
174
56
164
15
262
277
216
106
162
169
103
57
11
130
201
80
232
40
105
44
252
17
112
168
99
134
204
42
249
290
147
285
217
218
62
72
220
48
154
116
108
291
184
292
22
47
264
75
177
258
104
235
52
74
267
35
268
128
180
156
280
203
67
171
13
7
297
284
10
23
192
228
78
68
210
18
136
145
58
8
119
41
110
279
138
263
96
101
261
14
140
50
135
272
51
2
266
45
85
219
273
256
129
295
76
205
100
102
253
123
81
109
21
237
301
73
32
30
83
36
64
88
298
19
152
160
59
223
300
28
239
202
43
170
125
3
6
248

> <PUBCHEM_MMFF94_PARTIAL_CHARGES>
40
1 -0.08
10 -0.49
11 -0.63
12 0.36
13 0.51
15 -0.14
16 0.12
17 0.09
18 -0.15
19 0.06
2 -0.65
20 -0.15
21 0.18
22 -0.05
23 0.71
24 0.37
25 -0.15
26 -0.15
27 -0.15
28 0.66
29 0.54
3 -0.57
30 0.45
31 0.66
32 0.06
38 0.15
4 -0.57
41 0.37
42 0.15
46 0.15
47 0.15
48 0.15
49 0.37
5 -0.57
53 0.5
54 0.5
6 -0.65
7 -0.57
8 -0.82
9 -0.73

> <PUBCHEM_EFFECTIVE_ROTOR_COUNT>
10

> <PUBCHEM_PHARMACOPHORE_FEATURES>
14
1 10 donor
1 2 acceptor
1 3 acceptor
1 4 acceptor
1 5 acceptor
1 6 acceptor
1 7 acceptor
1 8 cation
1 9 donor
3 2 4 28 anion
3 6 7 31 anion
5 1 16 22 25 27 rings
6 10 11 17 21 29 30 rings
6 15 17 18 20 21 26 rings

> <PUBCHEM_HEAVY_ATOM_COUNT>
32

> <PUBCHEM_ATOM_DEF_STEREO_COUNT>
1

> <PUBCHEM_ATOM_UDEF_STEREO_COUNT>
0

> <PUBCHEM_BOND_DEF_STEREO_COUNT>
0

> <PUBCHEM_BOND_UDEF_STEREO_COUNT>
0

> <PUBCHEM_ISOTOPIC_ATOM_COUNT>
0

> <PUBCHEM_COMPONENT_COUNT>
1

> <PUBCHEM_CACTVS_TAUTO_COUNT>
-1

> <PUBCHEM_CONFORMER_ID>
08120AF600000001

> <PUBCHEM_MMFF94_ENERGY>
76.2035

> <PUBCHEM_FEATURE_SELFOVERLAP>
71.195

> <PUBCHEM_SHAPE_FINGERPRINT>
10319926 262 16558475179678746672
10622 236 18052810632016543711
10677351 27 18041851743640063227
10928967 22 18041832922460090456
11387372 6 18411420618739680859
117089 54 18191590959224998427
11991303 11 16953363587469219101
12422481 6 17775286105583088015
12633046 712 18200020893801000033
13533116 47 18413107285897248536
1361 4 18339077202252456463
13690498 29 17894910677072873429
13782708 43 18409724063075033493
14211702 104 18267865163238212279
14251764 30 18410008797921222796
15001296 14 18188761885556453595
15019793 15 18267862967925167278
15289351 153 9583517612711540248
15352257 5 18412827966930205871
15467298 65 18050848016066025975
19438510 23 10339252073449828768
20501277 246 17273721783130043934
20775438 99 17969783163012164050
21599406 157 14707202219544234907
21814621 53 17632291281391037113
25222932 49 18335691802362442180
32027 91 18411408514799232429
34797466 226 12540691501388066897
3862424 121 17749969867644762323
439807 62 18188778232191328342
4435113 14 18340778142588830415
44880168 125 18408599250190354001
46194498 28 17095528422121033324
50009960 94 18194374845351613802
57091435 61 9727636111574451468
57816373 69 18410289242322339549
7970288 3 18338513020144704458
86090 222 17703238308619205310
8863177 126 18411979182724053244
9849439 229 9943510922027146176

> <PUBCHEM_SHAPE_MULTIPOLES>
607.25
20.67
5.03
1.83
12.28
4.99
-0.04
20.6
0.54
0.4
-1.15
-0.97
-0.46
-1.03

> <PUBCHEM_SHAPE_SELFOVERLAP>
1280.852

> <PUBCHEM_SHAPE_VOLUME>
341.1

> <PUBCHEM_COORDINATE_TYPE>
2
5
10

$$$$
