REMARK  Name = 135433651
REMARK  6 active torsions:
REMARK  status: ('A' for Active; 'I' for Inactive)
REMARK    1  A    between atoms: C_2  and  S_13
REMARK    2  A    between atoms: C_3  and  O_16
REMARK    3  A    between atoms: C_4  and  C_8
REMARK    4  A    between atoms: C_5  and  C_19
REMARK    5  A    between atoms: N_18  and  C_19
REMARK    6  A    between atoms: N_18  and  O_20
REMARK                            x       y       z     vdW  Elec       q    Type
REMARK                         _______ _______ _______ _____ _____    ______ ____
ROOT
ATOM      1  N   UNL     1      -0.230   1.000   0.092  0.00  0.00    -0.406 NA
ATOM      2  C   UNL     1       1.844  -0.242   0.118  0.00  0.00    +0.113 C 
ATOM      3  C   UNL     1       1.138  -1.437   0.039  0.00  0.00    +0.133 C 
ATOM      4  C   UNL     1      -0.882  -0.182   0.016  0.00  0.00    +0.134 C 
ATOM      5  C   UNL     1       1.119   0.939   0.141  0.00  0.00    +0.139 C 
ATOM      6  C   UNL     1      -0.251  -1.416  -0.014  0.00  0.00    +0.125 C 
ENDROOT
BRANCH   4   8
ATOM      7  N   UNL     1      -2.986  -1.127   0.507  0.00  0.00    -0.242 NA
ATOM      8  C   UNL     1      -2.321  -0.082  -0.035  0.00  0.00    +0.107 C 
ATOM      9  C   UNL     1      -2.940   1.018  -0.607  0.00  0.00    +0.021 C 
ATOM     10  C   UNL     1      -4.330   1.048  -0.622  0.00  0.00    +0.003 C 
ATOM     11  C   UNL     1      -4.336  -1.063   0.474  0.00  0.00    +0.099 C 
ATOM     12  C   UNL     1      -5.049  -0.009  -0.073  0.00  0.00    +0.021 C 
ENDBRANCH   4   8
BRANCH   2  13
ATOM     13  S   UNL     1       3.641  -0.245   0.186  0.00  0.00    +0.071 S 
ATOM     14  O   UNL     1       4.048  -1.616   0.645  0.00  0.00    -0.251 OA
ATOM     15  C   UNL     1       3.941  -0.167  -1.599  0.00  0.00    +0.111 C 
ENDBRANCH   2  13
BRANCH   3  16
ATOM     16  O   UNL     1       1.776  -2.642   0.011  0.00  0.00    -0.475 OA
ATOM     17  C   UNL     1       0.956  -3.806  -0.072  0.00  0.00    +0.252 C 
ENDBRANCH   3  16
BRANCH   5  18
ATOM     18  C   UNL     1       1.765   2.242   0.223  0.00  0.00    +0.180 C 
BRANCH  18  19
ATOM     19  N   UNL     1       1.099   3.360   0.245  0.00  0.00    -0.080 NA
BRANCH  19  20
ATOM     20  O   UNL     1       1.996   4.428   0.325  0.00  0.00    -0.295 OA
ATOM     21  H   UNL     1       1.675   5.308   0.350  0.00  0.00    +0.238 HD
ENDBRANCH  19  20
ENDBRANCH  18  19
ENDBRANCH   5  18
TORSDOF 6
