REMARK  Name = 135424854
REMARK  5 active torsions:
REMARK  status: ('A' for Active; 'I' for Inactive)
REMARK    1  A    between atoms: C_2  and  C_12
REMARK    2  A    between atoms: C_3  and  O_21
REMARK    3  A    between atoms: O_21  and  P_22
REMARK    4  A    between atoms: P_22  and  O_24
REMARK    5  A    between atoms: P_22  and  O_26
REMARK                            x       y       z     vdW  Elec       q    Type
REMARK                         _______ _______ _______ _____ _____    ______ ____
ROOT
ATOM      1 CL   UNL     1      -4.080   3.891   0.551  0.00  0.00    -0.082 Cl
ATOM      2  C   UNL     1      -1.431   0.926   0.112  0.00  0.00    +0.079 C 
ATOM      3  C   UNL     1      -2.251  -0.198   0.024  0.00  0.00    +0.153 C 
ATOM      4  C   UNL     1      -1.996   2.191   0.274  0.00  0.00    +0.018 C 
ATOM      5  C   UNL     1      -3.637  -0.058   0.098  0.00  0.00    +0.038 C 
ATOM      6  C   UNL     1      -3.382   2.331   0.348  0.00  0.00    +0.058 C 
ATOM      7  C   UNL     1      -4.202   1.207   0.261  0.00  0.00    +0.015 C 
ENDROOT
BRANCH   2  12
ATOM      8 CL   UNL     1       6.546  -0.702   0.121  0.00  0.00    -0.083 Cl
ATOM      9  O   UNL     1       2.737   2.842  -1.143  0.00  0.00    -0.270 OA
ATOM     10  N   UNL     1       0.739   1.872  -0.515  0.00  0.00    -0.256 N 
ATOM     11  N   UNL     1       0.636  -0.278   0.455  0.00  0.00    -0.391 NA
ATOM     12  C   UNL     1       0.047   0.799   0.034  0.00  0.00    +0.188 C 
ATOM     13  C   UNL     1       2.809   0.692  -0.172  0.00  0.00    +0.080 C 
ATOM     14  C   UNL     1       2.037  -0.350   0.361  0.00  0.00    +0.119 C 
ATOM     15  C   UNL     1       2.118   1.903  -0.657  0.00  0.00    +0.253 C 
ATOM     16  C   UNL     1       4.201   0.591  -0.250  0.00  0.00    +0.018 C 
ATOM     17  C   UNL     1       2.688  -1.501   0.817  0.00  0.00    +0.086 C 
ATOM     18  C   UNL     1       4.833  -0.564   0.210  0.00  0.00    +0.054 C 
ATOM     19  C   UNL     1       4.078  -1.608   0.743  0.00  0.00    -0.007 C 
ATOM     20  H   UNL     1       0.222   2.652  -0.820  0.00  0.00    +0.158 HD
ENDBRANCH   2  12
BRANCH   3  21
ATOM     21  O   UNL     1      -1.718  -1.442  -0.135  0.00  0.00    -0.403 OA
BRANCH  21  22
ATOM     22  P   UNL     1      -2.570  -2.813  -0.248  0.00  0.00    +0.528 P 
ATOM     23  O   UNL     1      -3.434  -3.131   0.937  0.00  0.00    -0.216 OA
BRANCH  22  24
ATOM     24  O   UNL     1      -3.342  -2.683  -1.664  0.00  0.00    -0.293 OA
ATOM     25  H   UNL     1      -2.702  -2.477  -2.363  0.00  0.00    +0.223 HD
ENDBRANCH  22  24
BRANCH  22  26
ATOM     26  O   UNL     1      -1.428  -3.917  -0.559  0.00  0.00    -0.293 OA
ATOM     27  H   UNL     1      -0.914  -3.642  -1.335  0.00  0.00    +0.223 HD
ENDBRANCH  22  26
ENDBRANCH  21  22
ENDBRANCH   3  21
TORSDOF 5
