REMARK  Name = 135436455
REMARK  7 active torsions:
REMARK  status: ('A' for Active; 'I' for Inactive)
REMARK    1  A    between atoms: N_2  and  C_15
REMARK    2  A    between atoms: C_15  and  C_16
REMARK    3  A    between atoms: C_16  and  C_17
REMARK    4  A    between atoms: C_16  and  C_21
REMARK    5  A    between atoms: C_17  and  C_18
REMARK    6  A    between atoms: C_18  and  O_19
REMARK    7  A    between atoms: C_21  and  O_22
REMARK                            x       y       z     vdW  Elec       q    Type
REMARK                         _______ _______ _______ _____ _____    ______ ____
ROOT
ATOM      1  O   UNL     1       4.354  -1.228   0.715  0.00  0.00    -0.268 OA
ATOM      2  N   UNL     1       0.021  -0.921  -0.529  0.00  0.00    -0.261 N 
ATOM      3  N   UNL     1       1.653  -2.309   0.113  0.00  0.00    -0.240 NA
ATOM      4  N   UNL     1       1.196   1.195  -0.491  0.00  0.00    -0.357 NA
ATOM      5  N   UNL     1       3.471   0.868   0.185  0.00  0.00    -0.243 N 
ATOM      6  N   UNL     1       2.667   3.020  -0.331  0.00  0.00    -0.321 N 
ATOM      7  C   UNL     1       1.124  -0.145  -0.329  0.00  0.00    +0.210 C 
ATOM      8  C   UNL     1       0.389  -2.215  -0.251  0.00  0.00    +0.222 C 
ATOM      9  C   UNL     1       2.106  -1.024   0.063  0.00  0.00    +0.176 C 
ATOM     10  C   UNL     1       3.419  -0.522   0.359  0.00  0.00    +0.273 C 
ATOM     11  C   UNL     1       2.389   1.682  -0.226  0.00  0.00    +0.239 C 
ATOM     12  H   UNL     1       4.331   1.315   0.363  0.00  0.00    +0.159 HD
ATOM     13  H   UNL     1       1.963   3.648  -0.612  0.00  0.00    +0.146 HD
ATOM     14  H   UNL     1       3.570   3.353  -0.126  0.00  0.00    +0.146 HD
ENDROOT
BRANCH   2  15
ATOM     15  C   UNL     1      -1.348  -0.465  -0.972  0.00  0.00    +0.098 C 
BRANCH  15  16
ATOM     16  C   UNL     1      -2.377  -0.342   0.179  0.00  0.00    +0.052 C 
BRANCH  16  17
ATOM     17  C   UNL     1      -3.791  -0.267  -0.438  0.00  0.00    +0.036 C 
BRANCH  17  18
ATOM     18  C   UNL     1      -4.911  -0.172   0.592  0.00  0.00    +0.137 C 
BRANCH  18  19
ATOM     19  O   UNL     1      -6.154  -0.089  -0.095  0.00  0.00    -0.382 OA
ATOM     20  H   UNL     1      -6.876  -0.028   0.550  0.00  0.00    +0.210 HD
ENDBRANCH  18  19
ENDBRANCH  17  18
ENDBRANCH  16  17
BRANCH  16  21
ATOM     21  C   UNL     1      -2.070   0.858   1.092  0.00  0.00    +0.139 C 
BRANCH  21  22
ATOM     22  O   UNL     1      -2.139   2.075   0.364  0.00  0.00    -0.382 OA
ATOM     23  H   UNL     1      -1.942   2.818   0.956  0.00  0.00    +0.210 HD
ENDBRANCH  21  22
ENDBRANCH  16  21
ENDBRANCH  15  16
ENDBRANCH   2  15
TORSDOF 7
