REMARK  Name = 135474223
REMARK  3 active torsions:
REMARK  status: ('A' for Active; 'I' for Inactive)
REMARK    1  A    between atoms: N_2  and  C_16
REMARK    2  A    between atoms: C_17  and  C_20
REMARK    3  A    between atoms: C_20  and  O_21
REMARK                            x       y       z     vdW  Elec       q    Type
REMARK                         _______ _______ _______ _____ _____    ______ ____
ROOT
ATOM      1  O   UNL     1      -3.737   2.206  -0.284  0.00  0.00    -0.268 OA
ATOM      2  N   UNL     1       0.215   0.064   0.175  0.00  0.00    -0.235 N 
ATOM      3  N   UNL     1      -0.778   2.053  -0.074  0.00  0.00    -0.240 NA
ATOM      4  N   UNL     1      -1.715  -1.397   0.183  0.00  0.00    -0.357 NA
ATOM      5  N   UNL     1      -3.726  -0.119  -0.068  0.00  0.00    -0.243 N 
ATOM      6  N   UNL     1      -3.809  -2.463   0.143  0.00  0.00    -0.321 N 
ATOM      7  C   UNL     1      -1.125  -0.184   0.110  0.00  0.00    +0.211 C 
ATOM      8  C   UNL     1      -1.704   1.052  -0.043  0.00  0.00    +0.176 C 
ATOM      9  C   UNL     1       0.373   1.424   0.060  0.00  0.00    +0.224 C 
ATOM     10  C   UNL     1      -3.134   1.149  -0.146  0.00  0.00    +0.273 C 
ATOM     11  C   UNL     1      -3.026  -1.339   0.091  0.00  0.00    +0.239 C 
ATOM     12  H   UNL     1      -4.707  -0.165  -0.128  0.00  0.00    +0.159 HD
ATOM     13  H   UNL     1      -3.392  -3.348   0.253  0.00  0.00    +0.146 HD
ATOM     14  H   UNL     1      -4.787  -2.385   0.072  0.00  0.00    +0.146 HD
ENDROOT
BRANCH   2  16
ATOM     15  O   UNL     1       2.344  -0.255   1.062  0.00  0.00    -0.329 OA
ATOM     16  C   UNL     1       1.274  -0.902   0.334  0.00  0.00    +0.219 C 
ATOM     17  C   UNL     1       3.575  -0.461   0.336  0.00  0.00    +0.168 C 
ATOM     18  C   UNL     1       1.867  -1.295  -0.974  0.00  0.00    +0.022 C 
ATOM     19  C   UNL     1       3.174  -1.042  -0.973  0.00  0.00    +0.005 C 
BRANCH  17  20
ATOM     20  C   UNL     1       4.288   0.874   0.202  0.00  0.00    +0.171 C 
BRANCH  20  21
ATOM     21  O   UNL     1       5.644   0.635  -0.137  0.00  0.00    -0.379 OA
ATOM     22  H   UNL     1       6.110   1.482  -0.224  0.00  0.00    +0.211 HD
ENDBRANCH  20  21
ENDBRANCH  17  20
ENDBRANCH   2  16
TORSDOF 3
