REMARK  Name = 135440430
REMARK  5 active torsions:
REMARK  status: ('A' for Active; 'I' for Inactive)
REMARK    1  A    between atoms: N_3  and  C1*_33
REMARK    2  A    between atoms: N_4  and  C_19
REMARK    3  A    between atoms: C3*_35  and  O3*_37
REMARK    4  A    between atoms: C4*_36  and  C5*_39
REMARK    5  A    between atoms: C5*_39  and  O5*_40
REMARK                            x       y       z     vdW  Elec       q    Type
REMARK                         _______ _______ _______ _____ _____    ______ ____
ROOT
ATOM      1  O   UNL     1       1.898  -4.411  -1.146  0.00  0.00    -0.267 OA
ATOM      2  O   UNL     1      -0.277   2.759  -2.568  0.00  0.00    -0.274 OA
ATOM      3  N   UNL     1       1.950   0.047  -0.414  0.00  0.00    -0.199 N 
ATOM      4  N   UNL     1      -0.133   0.625  -1.606  0.00  0.00    -0.200 N 
ATOM      5  N   UNL     1       0.838  -1.645  -1.363  0.00  0.00    -0.363 NA
ATOM      6  N   UNL     1       3.824  -1.141   0.553  0.00  0.00    -0.355 NA
ATOM      7  N   UNL     1       3.655  -3.484   0.082  0.00  0.00    -0.242 N 
ATOM      8  N   UNL     1       5.464  -2.636   1.327  0.00  0.00    -0.321 N 
ATOM      9  C   UNL     1       0.857  -0.345  -1.148  0.00  0.00    +0.259 C 
ATOM     10  C   UNL     1       2.670  -1.080  -0.147  0.00  0.00    +0.229 C 
ATOM     11  C   UNL     1       1.964  -2.098  -0.742  0.00  0.00    +0.232 C 
ATOM     12  C   UNL     1       2.459  -3.443  -0.648  0.00  0.00    +0.286 C 
ATOM     13  C   UNL     1       0.266   1.651  -2.523  0.00  0.00    +0.236 C 
ATOM     14  C   UNL     1       4.301  -2.363   0.655  0.00  0.00    +0.240 C 
ATOM     15  C   UNL     1       1.440   1.384  -3.442  0.00  0.00    +0.096 C 
ATOM     16  H   UNL     1       4.080  -4.363   0.205  0.00  0.00    +0.159 HD
ATOM     17  H   UNL     1       5.969  -1.907   1.753  0.00  0.00    +0.146 HD
ATOM     18  H   UNL     1       5.793  -3.562   1.384  0.00  0.00    +0.146 HD
ENDROOT
BRANCH   4  19
ATOM     19  C   UNL     1      -1.459   0.486  -1.193  0.00  0.00    +0.062 C 
ATOM     20  C   UNL     1      -3.064  -0.211   0.423  0.00  0.00    -0.002 C 
ATOM     21  C   UNL     1      -4.112   0.233  -0.414  0.00  0.00    -0.014 C 
ATOM     22  C   UNL     1      -3.621  -0.795   1.705  0.00  0.00    -0.004 C 
ATOM     23  C   UNL     1      -1.738  -0.092   0.047  0.00  0.00    +0.015 C 
ATOM     24  C   UNL     1      -5.373  -0.025   0.248  0.00  0.00    +0.066 C 
ATOM     25  C   UNL     1      -5.112  -0.630   1.497  0.00  0.00    -0.014 C 
ATOM     26  C   UNL     1      -2.497   0.930  -2.030  0.00  0.00    +0.015 C 
ATOM     27  C   UNL     1      -3.835   0.806  -1.644  0.00  0.00    -0.002 C 
ATOM     28  C   UNL     1      -6.675   0.225  -0.155  0.00  0.00    -0.018 C 
ATOM     29  C   UNL     1      -6.137  -0.991   2.354  0.00  0.00    -0.004 C 
ATOM     30  C   UNL     1      -7.715  -0.137   0.707  0.00  0.00    -0.004 C 
ATOM     31  C   UNL     1      -7.449  -0.739   1.948  0.00  0.00    -0.001 C 
ENDBRANCH   4  19
BRANCH   3  33
ATOM     32  O4* UNL     1       3.717   1.660   0.086  0.00  0.00    -0.335 OA
ATOM     33  C1* UNL     1       2.295   1.450   0.017  0.00  0.00    +0.203 C 
ATOM     34  C2* UNL     1       1.741   1.806   1.393  0.00  0.00    +0.083 C 
ATOM     35  C3* UNL     1       2.692   2.890   1.844  0.00  0.00    +0.144 C 
ATOM     36  C4* UNL     1       4.024   2.442   1.258  0.00  0.00    +0.173 C 
BRANCH  35  37
ATOM     37  O3* UNL     1       2.294   4.120   1.242  0.00  0.00    -0.382 OA
ATOM     38  H3* UNL     1       1.445   4.403   1.616  0.00  0.00    +0.210 HD
ENDBRANCH  35  37
BRANCH  36  39
ATOM     39  C5* UNL     1       4.822   1.563   2.214  0.00  0.00    +0.169 C 
BRANCH  39  40
ATOM     40  O5* UNL     1       6.033   1.189   1.582  0.00  0.00    -0.379 OA
ATOM     41  H5* UNL     1       6.550   0.629   2.181  0.00  0.00    +0.211 HD
ENDBRANCH  39  40
ENDBRANCH  36  39
ENDBRANCH   3  33
TORSDOF 5
