REMARK  Name = 135416505
REMARK  10 active torsions:
REMARK  status: ('A' for Active; 'I' for Inactive)
REMARK    1  A    between atoms: C_3  and  C_23
REMARK    2  A    between atoms: C_6  and  O_21
REMARK    3  A    between atoms: C_10  and  C_14
REMARK    4  A    between atoms: C_23  and  N_24
REMARK    5  A    between atoms: N_24  and  C_26
REMARK    6  A    between atoms: N_24  and  C_30
REMARK    7  A    between atoms: C_26  and  C_27
REMARK    8  A    between atoms: C_27  and  O_28
REMARK    9  A    between atoms: C_30  and  C_31
REMARK   10  A    between atoms: C_31  and  O_32
REMARK                            x       y       z     vdW  Elec       q    Type
REMARK                         _______ _______ _______ _____ _____    ______ ____
ROOT
ATOM      1  O   UNL     1       1.003  -0.311   0.667  0.00  0.00    -0.421 OA
ATOM      2  O   UNL     1      -0.737  -1.779   0.820  0.00  0.00    -0.244 OA
ATOM      3  C   UNL     1       2.839   1.225   0.544  0.00  0.00    +0.025 C 
ATOM      4  C   UNL     1       1.472   0.991   0.413  0.00  0.00    +0.146 C 
ATOM      5  C   UNL     1       0.587   1.999   0.047  0.00  0.00    +0.035 C 
ATOM      6  C   UNL     1       3.331   2.506   0.300  0.00  0.00    +0.131 C 
ATOM      7  C   UNL     1       1.089   3.280  -0.196  0.00  0.00    +0.006 C 
ATOM      8  C   UNL     1      -0.826   1.683  -0.073  0.00  0.00    +0.013 C 
ATOM      9  C   UNL     1       2.458   3.531  -0.069  0.00  0.00    +0.036 C 
ATOM     10  C   UNL     1      -1.282   0.445   0.173  0.00  0.00    +0.112 C 
ATOM     11  C   UNL     1      -0.347  -0.642   0.574  0.00  0.00    +0.349 C 
ENDROOT
BRANCH  10  14
ATOM     12  S   UNL     1      -3.199  -1.018  -1.113  0.00  0.00    -0.071 S 
ATOM     13  N   UNL     1      -3.686   0.762   0.689  0.00  0.00    -0.399 NA
ATOM     14  C   UNL     1      -2.723   0.170   0.022  0.00  0.00    +0.163 C 
ATOM     15  C   UNL     1      -4.849  -0.739  -0.699  0.00  0.00    +0.128 C 
ATOM     16  C   UNL     1      -4.912   0.251   0.286  0.00  0.00    +0.124 C 
ATOM     17  C   UNL     1      -6.005  -1.353  -1.208  0.00  0.00    -0.008 C 
ATOM     18  C   UNL     1      -6.178   0.639   0.777  0.00  0.00    +0.029 C 
ATOM     19  C   UNL     1      -7.245  -0.950  -0.705  0.00  0.00    -0.003 C 
ATOM     20  C   UNL     1      -7.332   0.033   0.274  0.00  0.00    +0.002 C 
ENDBRANCH  10  14
BRANCH   6  21
ATOM     21  O   UNL     1       4.661   2.776   0.417  0.00  0.00    -0.506 OA
ATOM     22  H   UNL     1       5.258   2.097   0.664  0.00  0.00    +0.292 HD
ENDBRANCH   6  21
BRANCH   3  23
ATOM     23  C   UNL     1       3.766   0.123   0.938  0.00  0.00    -0.043 C 
BRANCH  23  24
ATOM     24  N   UNL     1       3.719  -1.003   0.005  0.00  0.00    +0.393 N 
ATOM     25  H   UNL     1       2.747  -1.169  -0.253  0.00  0.00    -0.079 HD
BRANCH  24  26
ATOM     26  C   UNL     1       4.242  -2.213   0.638  0.00  0.00    -0.044 C 
BRANCH  26  27
ATOM     27  C   UNL     1       3.175  -2.874   1.496  0.00  0.00    +0.115 C 
BRANCH  27  28
ATOM     28  O   UNL     1       3.721  -4.052   2.076  0.00  0.00    -0.384 OA
ATOM     29  H   UNL     1       3.048  -4.483   2.626  0.00  0.00    +0.210 HD
ENDBRANCH  27  28
ENDBRANCH  26  27
ENDBRANCH  24  26
BRANCH  24  30
ATOM     30  C   UNL     1       4.475  -0.692  -1.208  0.00  0.00    -0.044 C 
BRANCH  30  31
ATOM     31  C   UNL     1       4.018  -1.567  -2.364  0.00  0.00    +0.115 C 
BRANCH  31  32
ATOM     32  O   UNL     1       4.764  -1.220  -3.522  0.00  0.00    -0.384 OA
ATOM     33  H   UNL     1       4.481  -1.773  -4.267  0.00  0.00    +0.210 HD
ENDBRANCH  31  32
ENDBRANCH  30  31
ENDBRANCH  24  30
ENDBRANCH  23  24
ENDBRANCH   3  23
TORSDOF 10
