135407853
  -OEChem-03292013293D

 32 34  0     1  0  0  0  0  0999 V2000
    2.0504    0.5007    0.9760 O   0  0  0  0  0  0  0  0  0  0  0  0
    1.1544   -2.2389   -1.1854 O   0  0  0  0  0  0  0  0  0  0  0  0
    3.3912   -2.1577    0.4156 O   0  0  0  0  0  0  0  0  0  0  0  0
    3.8485    2.5602    0.3625 O   0  0  0  0  0  0  0  0  0  0  0  0
   -4.6856    1.2707   -0.3934 O   0  0  0  0  0  0  0  0  0  0  0  0
   -0.2379    0.3325    0.1435 N   0  0  0  0  0  0  0  0  0  0  0  0
   -1.7371   -1.5033    0.5373 N   0  0  0  0  0  0  0  0  0  0  0  0
   -4.0318   -0.8778    0.2230 N   0  0  0  0  0  0  0  0  0  0  0  0
    1.0599   -0.3888    0.4201 C   0  0  1  0  0  0  0  0  0  0  0  0
    1.6924   -0.9793   -0.8359 C   0  0  1  0  0  0  0  0  0  0  0  0
    3.1563   -1.0470   -0.4487 C   0  0  1  0  0  0  0  0  0  0  0  0
    3.3320    0.2280    0.3663 C   0  0  1  0  0  0  0  0  0  0  0  0
    3.7213    1.4304   -0.4827 C   0  0  0  0  0  0  0  0  0  0  0  0
   -1.4913   -0.2106    0.2079 C   0  0  0  0  0  0  0  0  0  0  0  0
   -0.3366    1.6553   -0.2159 C   0  0  0  0  0  0  0  0  0  0  0  0
   -2.3978    0.7803   -0.1151 C   0  0  0  0  0  0  0  0  0  0  0  0
   -1.6722    1.9609   -0.3836 C   0  0  0  0  0  0  0  0  0  0  0  0
   -3.8080    0.4603   -0.1198 C   0  0  0  0  0  0  0  0  0  0  0  0
   -3.0082   -1.7759    0.5283 C   0  0  0  0  0  0  0  0  0  0  0  0
    0.8220   -1.1494    1.1731 H   0  0  0  0  0  0  0  0  0  0  0  0
    1.5597   -0.3009   -1.6876 H   0  0  0  0  0  0  0  0  0  0  0  0
    3.8287   -1.1403   -1.3062 H   0  0  0  0  0  0  0  0  0  0  0  0
    4.0488    0.1057    1.1862 H   0  0  0  0  0  0  0  0  0  0  0  0
    2.9561    1.6605   -1.2305 H   0  0  0  0  0  0  0  0  0  0  0  0
    4.6777    1.2589   -0.9862 H   0  0  0  0  0  0  0  0  0  0  0  0
    0.5439    2.2730   -0.3281 H   0  0  0  0  0  0  0  0  0  0  0  0
    1.6843   -2.5876   -1.9224 H   0  0  0  0  0  0  0  0  0  0  0  0
    4.3311   -2.1387    0.6646 H   0  0  0  0  0  0  0  0  0  0  0  0
   -2.0664    2.9265   -0.6677 H   0  0  0  0  0  0  0  0  0  0  0  0
    4.0997    3.3125   -0.2001 H   0  0  0  0  0  0  0  0  0  0  0  0
   -4.9916   -1.2099    0.2498 H   0  0  0  0  0  0  0  0  0  0  0  0
   -3.3824   -2.7821    0.7726 H   0  0  0  0  0  0  0  0  0  0  0  0
  1  9  1  0  0  0  0
  1 12  1  0  0  0  0
  2 10  1  0  0  0  0
  2 27  1  0  0  0  0
  3 11  1  0  0  0  0
  3 28  1  0  0  0  0
  4 13  1  0  0  0  0
  4 30  1  0  0  0  0
  5 18  2  0  0  0  0
  6  9  1  0  0  0  0
  6 14  1  0  0  0  0
  6 15  1  0  0  0  0
  7 14  1  0  0  0  0
  7 19  2  0  0  0  0
  8 18  1  0  0  0  0
  8 19  1  0  0  0  0
  8 31  1  0  0  0  0
  9 10  1  0  0  0  0
  9 20  1  0  0  0  0
 10 11  1  0  0  0  0
 10 21  1  0  0  0  0
 11 12  1  0  0  0  0
 11 22  1  0  0  0  0
 12 13  1  0  0  0  0
 12 23  1  0  0  0  0
 13 24  1  0  0  0  0
 13 25  1  0  0  0  0
 14 16  2  0  0  0  0
 15 17  2  0  0  0  0
 15 26  1  0  0  0  0
 16 17  1  0  0  0  0
 16 18  1  0  0  0  0
 17 29  1  0  0  0  0
 19 32  1  0  0  0  0
M  END
> <PUBCHEM_COMPOUND_CID>
135407853

> <PUBCHEM_CONFORMER_RMSD>
0.6

> <PUBCHEM_CONFORMER_DIVERSEORDER>
1
11
13
8
6
7
5
2
12
3
15
10
14
4
9

> <PUBCHEM_MMFF94_PARTIAL_CHARGES>
26
1 -0.56
10 0.28
11 0.28
12 0.28
13 0.28
14 -0.03
15 -0.3
16 -0.09
17 -0.15
18 0.72
19 0.45
2 -0.68
26 0.15
27 0.4
28 0.4
29 0.15
3 -0.68
30 0.4
31 0.37
32 0.06
4 -0.68
5 -0.57
6 0.05
7 -0.58
8 -0.49
9 0.54

> <PUBCHEM_EFFECTIVE_ROTOR_COUNT>
3

> <PUBCHEM_PHARMACOPHORE_FEATURES>
13
1 1 acceptor
1 2 acceptor
1 2 donor
1 3 acceptor
1 3 donor
1 4 acceptor
1 4 donor
1 5 acceptor
1 6 cation
1 8 donor
5 1 9 10 11 12 rings
5 6 14 15 16 17 rings
6 7 8 14 16 18 19 rings

> <PUBCHEM_HEAVY_ATOM_COUNT>
19

> <PUBCHEM_ATOM_DEF_STEREO_COUNT>
4

> <PUBCHEM_ATOM_UDEF_STEREO_COUNT>
0

> <PUBCHEM_BOND_DEF_STEREO_COUNT>
0

> <PUBCHEM_BOND_UDEF_STEREO_COUNT>
0

> <PUBCHEM_ISOTOPIC_ATOM_COUNT>
0

> <PUBCHEM_COMPONENT_COUNT>
1

> <PUBCHEM_CACTVS_TAUTO_COUNT>
-1

> <PUBCHEM_CONFORMER_ID>
081228ED00000001

> <PUBCHEM_MMFF94_ENERGY>
44.1342

> <PUBCHEM_FEATURE_SELFOVERLAP>
66.11

> <PUBCHEM_SHAPE_FINGERPRINT>
10498660 4 18407761447345548581
10608611 8 18410291380719979260
10616163 171 18411703226595896511
107287 299 17989210356242495806
11132069 177 18335699463909066305
12633257 1 18268434529355608186
13214271 11 18338513148682305213
13296908 3 18408042913911594659
13675066 3 17676776400769436825
15196674 1 18409167714533500331
15219456 202 18412827992615321299
15375358 24 18410572890314598855
15375462 6 18408887356279863750
15536298 74 18409732871799665372
16945 1 18124607383467186434
18175812 5 18411982451009529830
18186145 218 17458341927147299447
200 152 17417802899377395623
20201158 50 18272090431356643895
20279233 1 18341334413978252583
20510252 161 18339923706416777969
20528008 55 18411417293659144005
20645477 56 18187365402926500365
20645477 70 18272369737279905359
21501502 16 18341337682326980720
221490 88 18409738343983723778
23402539 116 18334568023399401415
23557571 272 18262812863804773894
23559900 14 18338231570795353290
296302 2 18341615936215278357
34934 24 18336541707164396005
474 4 16951418778794832004
495365 180 17774703308274626545
5104073 3 18407762529909234601
58051976 378 18342739615719104516
69090 78 18341325600863655839
7364860 26 18411136910041976408
81228 2 18116730538116723977
8809292 202 18336268946486743315
9709674 26 18268996397072638559

> <PUBCHEM_SHAPE_MULTIPOLES>
346.72
8.08
2.37
0.83
1.51
0.06
0.06
1.16
-0.09
-1
0.14
-0.29
-0.16
0.72

> <PUBCHEM_SHAPE_SELFOVERLAP>
754.271

> <PUBCHEM_SHAPE_VOLUME>
187

> <PUBCHEM_COORDINATE_TYPE>
2
5
10

$$$$
