REMARK  Name = 135440064
REMARK  4 active torsions:
REMARK  status: ('A' for Active; 'I' for Inactive)
REMARK    1  A    between atoms: N_3  and  C1*_18
REMARK    2  A    between atoms: C3*_20  and  O3*_22
REMARK    3  A    between atoms: C4*_21  and  C5*_24
REMARK    4  A    between atoms: C5*_24  and  O5*_25
REMARK                            x       y       z     vdW  Elec       q    Type
REMARK                         _______ _______ _______ _____ _____    ______ ____
ROOT
ATOM      1  O   UNL     1       1.093  -2.269   0.407  0.00  0.00    -0.252 OA
ATOM      2  O   UNL     1      -4.227  -1.903   0.094  0.00  0.00    -0.272 OA
ATOM      3  N   UNL     1      -0.011  -0.167   0.111  0.00  0.00    -0.196 N 
ATOM      4  N   UNL     1      -1.266  -2.032   0.260  0.00  0.00    -0.276 N 
ATOM      5  N   UNL     1      -1.837   1.439  -0.165  0.00  0.00    -0.360 NA
ATOM      6  N   UNL     1      -3.977   0.402  -0.156  0.00  0.00    -0.246 N 
ATOM      7  N   UNL     1      -3.784   2.726  -0.412  0.00  0.00    -0.321 N 
ATOM      8  C   UNL     1      -1.345   0.177   0.004  0.00  0.00    +0.199 C 
ATOM      9  C   UNL     1       0.089  -1.585   0.278  0.00  0.00    +0.312 C 
ATOM     10  C   UNL     1      -2.068  -0.944   0.095  0.00  0.00    +0.218 C 
ATOM     11  C   UNL     1      -3.525  -0.904   0.016  0.00  0.00    +0.255 C 
ATOM     12  C   UNL     1      -3.143   1.527  -0.242  0.00  0.00    +0.239 C 
ATOM     13  H   UNL     1      -1.568  -2.965   0.351  0.00  0.00    +0.152 HD
ATOM     14  H   UNL     1      -4.949   0.546  -0.222  0.00  0.00    +0.159 HD
ATOM     15  H   UNL     1      -3.263   3.558  -0.481  0.00  0.00    +0.146 HD
ATOM     16  H   UNL     1      -4.767   2.755  -0.465  0.00  0.00    +0.146 HD
ENDROOT
BRANCH   3  18
ATOM     17  O4* UNL     1       1.916   0.443  -1.067  0.00  0.00    -0.335 OA
ATOM     18  C1* UNL     1       1.088   0.753   0.062  0.00  0.00    +0.203 C 
ATOM     19  C2* UNL     1       1.967   0.688   1.300  0.00  0.00    +0.083 C 
ATOM     20  C3* UNL     1       3.336   1.005   0.746  0.00  0.00    +0.144 C 
ATOM     21  C4* UNL     1       3.294   0.395  -0.648  0.00  0.00    +0.173 C 
BRANCH  20  22
ATOM     22  O3* UNL     1       3.501   2.418   0.652  0.00  0.00    -0.382 OA
ATOM     23  H3* UNL     1       3.527   2.800   1.544  0.00  0.00    +0.210 HD
ENDBRANCH  20  22
BRANCH  21  24
ATOM     24  C5* UNL     1       3.740  -1.062  -0.671  0.00  0.00    +0.169 C 
BRANCH  24  25
ATOM     25  O5* UNL     1       5.158  -1.106  -0.666  0.00  0.00    -0.379 OA
ATOM     26  H5* UNL     1       5.452  -2.030  -0.681  0.00  0.00    +0.211 HD
ENDBRANCH  24  25
ENDBRANCH  21  24
ENDBRANCH   3  18
TORSDOF 4
