135461190
  -OEChem-03292013293D

 32 34  0     1  0  0  0  0  0999 V2000
   -1.3536   -2.5007    0.1028 S   0  0  0  0  0  0  0  0  0  0  0  0
    2.1077    0.0342   -1.1261 O   0  0  0  0  0  0  0  0  0  0  0  0
    3.2523    2.6217    0.0431 O   0  0  0  0  0  0  0  0  0  0  0  0
    5.2332   -0.9641    0.3905 O   0  0  0  0  0  0  0  0  0  0  0  0
    1.2789   -2.3033   -0.1425 O   0  0  0  0  0  0  0  0  0  0  0  0
   -4.3930   -1.7239    0.3126 O   0  0  0  0  0  0  0  0  0  0  0  0
   -0.0062   -0.3179   -0.1868 N   0  0  0  0  0  0  0  0  0  0  0  0
   -1.7431    1.3686   -0.1666 N   0  0  0  0  0  0  0  0  0  0  0  0
   -3.9489    0.5438    0.0921 N   0  0  0  0  0  0  0  0  0  0  0  0
   -3.5664    2.8443   -0.1206 N   0  0  0  0  0  0  0  0  0  0  0  0
    1.0557    0.6307   -0.3545 C   0  0  1  0  0  0  0  0  0  0  0  0
    3.1068    1.3169    0.5994 C   0  0  1  0  0  0  0  0  0  0  0  0
    1.6604    1.0782    0.9664 C   0  0  0  0  0  0  0  0  0  0  0  0
    3.3692    0.2656   -0.4698 C   0  0  1  0  0  0  0  0  0  0  0  0
    3.8468   -1.0606    0.1074 C   0  0  0  0  0  0  0  0  0  0  0  0
   -1.3370    0.0609   -0.1002 C   0  0  0  0  0  0  0  0  0  0  0  0
    0.2225   -1.6921   -0.0986 C   0  0  0  0  0  0  0  0  0  0  0  0
   -2.1527   -0.9868    0.0538 C   0  0  0  0  0  0  0  0  0  0  0  0
   -3.6027   -0.7997    0.1678 C   0  0  0  0  0  0  0  0  0  0  0  0
   -3.0300    1.5844   -0.0701 C   0  0  0  0  0  0  0  0  0  0  0  0
    0.7040    1.4926   -0.9337 H   0  0  0  0  0  0  0  0  0  0  0  0
    1.5932    0.2820    1.7177 H   0  0  0  0  0  0  0  0  0  0  0  0
    1.1511    1.9622    1.3627 H   0  0  0  0  0  0  0  0  0  0  0  0
    3.7778    1.2498    1.4610 H   0  0  0  0  0  0  0  0  0  0  0  0
    4.0778    0.6269   -1.2237 H   0  0  0  0  0  0  0  0  0  0  0  0
    3.7132   -1.8673   -0.6206 H   0  0  0  0  0  0  0  0  0  0  0  0
    3.3186   -1.3302    1.0268 H   0  0  0  0  0  0  0  0  0  0  0  0
    4.1830    2.7233   -0.2198 H   0  0  0  0  0  0  0  0  0  0  0  0
    5.5133   -1.8241    0.7474 H   0  0  0  0  0  0  0  0  0  0  0  0
   -4.9335    0.7840    0.1605 H   0  0  0  0  0  0  0  0  0  0  0  0
   -2.9770    3.6615   -0.2360 H   0  0  0  0  0  0  0  0  0  0  0  0
   -4.5660    2.9972   -0.0443 H   0  0  0  0  0  0  0  0  0  0  0  0
  1 17  1  0  0  0  0
  1 18  1  0  0  0  0
  2 11  1  0  0  0  0
  2 14  1  0  0  0  0
  3 12  1  0  0  0  0
  3 28  1  0  0  0  0
  4 15  1  0  0  0  0
  4 29  1  0  0  0  0
  5 17  2  0  0  0  0
  6 19  2  0  0  0  0
  7 11  1  0  0  0  0
  7 16  1  0  0  0  0
  7 17  1  0  0  0  0
  8 16  1  0  0  0  0
  8 20  2  0  0  0  0
  9 19  1  0  0  0  0
  9 20  1  0  0  0  0
  9 30  1  0  0  0  0
 10 20  1  0  0  0  0
 10 31  1  0  0  0  0
 10 32  1  0  0  0  0
 11 13  1  0  0  0  0
 11 21  1  0  0  0  0
 12 13  1  0  0  0  0
 12 14  1  0  0  0  0
 12 24  1  0  0  0  0
 13 22  1  0  0  0  0
 13 23  1  0  0  0  0
 14 15  1  0  0  0  0
 14 25  1  0  0  0  0
 15 26  1  0  0  0  0
 15 27  1  0  0  0  0
 16 18  2  0  0  0  0
 18 19  1  0  0  0  0
M  END
> <PUBCHEM_COMPOUND_CID>
135461190

> <PUBCHEM_CONFORMER_RMSD>
0.6

> <PUBCHEM_CONFORMER_DIVERSEORDER>
1
6
16
14
10
15
12
3
7
9
8
2
13
4
5
11

> <PUBCHEM_MMFF94_PARTIAL_CHARGES>
24
1 -0.24
10 -0.85
11 0.58
12 0.28
14 0.28
15 0.28
16 0.28
17 0.77
18 0.12
19 0.62
2 -0.56
20 0.56
28 0.4
29 0.4
3 -0.68
30 0.37
31 0.4
32 0.4
4 -0.68
5 -0.57
6 -0.57
7 -0.47
8 -0.62
9 -0.49

> <PUBCHEM_EFFECTIVE_ROTOR_COUNT>
3

> <PUBCHEM_PHARMACOPHORE_FEATURES>
11
1 10 donor
1 2 acceptor
1 3 acceptor
1 3 donor
1 4 acceptor
1 4 donor
1 6 acceptor
1 9 donor
5 1 7 16 17 18 rings
5 2 11 12 13 14 rings
6 8 9 16 18 19 20 rings

> <PUBCHEM_HEAVY_ATOM_COUNT>
20

> <PUBCHEM_ATOM_DEF_STEREO_COUNT>
3

> <PUBCHEM_ATOM_UDEF_STEREO_COUNT>
0

> <PUBCHEM_BOND_DEF_STEREO_COUNT>
0

> <PUBCHEM_BOND_UDEF_STEREO_COUNT>
0

> <PUBCHEM_ISOTOPIC_ATOM_COUNT>
0

> <PUBCHEM_COMPONENT_COUNT>
1

> <PUBCHEM_CACTVS_TAUTO_COUNT>
-1

> <PUBCHEM_CONFORMER_ID>
0812F94600000001

> <PUBCHEM_MMFF94_ENERGY>
53.0341

> <PUBCHEM_FEATURE_SELFOVERLAP>
55.946

> <PUBCHEM_SHAPE_FINGERPRINT>
10062212 137 18338226077173771434
10498660 4 18408601487573195629
10608611 8 18412544318721038493
10646746 165 18411699872284369604
10967382 1 18267024036294097109
1100329 8 16756632215021331440
11578080 2 16590261975149375879
12173636 292 18338514265136445101
12403259 226 18341326799011766929
12403259 415 18343301474355408192
12403260 363 18411974775955738743
12500047 106 18336824174368456829
12507560 40 18341325678252201480
13134695 92 16917061106479875672
13140716 1 18411981343040316968
13675066 3 18131625682383506338
13862211 1 18338517577427330471
14466204 15 18338791196607624712
14866123 147 16832078525614150510
15042514 8 18264775539923004355
15196674 1 18410575110448726465
15256400 18 18410853239941390666
15442244 35 18409447003414087788
16945 1 18336834207554381055
17802600 8 18413106169088940035
17804303 29 18409733950152811934
1813 80 17022893546208185108
18186145 218 18130799948766061048
19591789 44 18411138034696154203
20510252 161 18341898540921628833
21267235 1 18409738369220887979
21279426 13 18124599678596876062
21501502 16 18336544902810176187
21524375 3 18410012096329576991
2334 1 18409732824966299839
23402539 116 18340761633166613415
23558518 356 18261395614759719547
23559900 14 18412260666396394816
2748010 2 18336555902384854351
3004659 81 18189063010937588366
3286 77 18408321103348866460
335352 9 18339079259652580828
350125 39 18410015416375895137
351380 180 18341890805221031943
4214541 1 18410011022418863344
5104073 3 18410858784527866833
59755656 215 18336546006669499607
6333272 397 18337673143015213701
69090 78 18130786814756349463
7364860 26 18125441912703478567
9709674 26 18413114965235177742

> <PUBCHEM_SHAPE_MULTIPOLES>
366.17
8.42
2.72
0.74
1.95
0.37
0.01
0.83
0.69
-1.09
0.09
0.3
0.05
0.35

> <PUBCHEM_SHAPE_SELFOVERLAP>
783.654

> <PUBCHEM_SHAPE_VOLUME>
204.6

> <PUBCHEM_COORDINATE_TYPE>
2
5
10

$$$$
