REMARK  Name = 135412158
REMARK  6 active torsions:
REMARK  status: ('A' for Active; 'I' for Inactive)
REMARK    1  A    between atoms: N_2  and  N_14
REMARK    2  A    between atoms: C_3  and  C_8
REMARK    3  A    between atoms: N_14  and  C_15
REMARK    4  A    between atoms: C_15  and  C_16
REMARK    5  A    between atoms: C_17  and  O_22
REMARK    6  A    between atoms: C_20  and  O_24
REMARK                            x       y       z     vdW  Elec       q    Type
REMARK                         _______ _______ _______ _____ _____    ______ ____
ROOT
ATOM      1  O   UNL     1      -2.229   2.078   0.010  0.00  0.00    -0.272 OA
ATOM      2  N   UNL     1      -1.212  -0.002   0.020  0.00  0.00    -0.231 N 
ATOM      3  C   UNL     1      -2.300   0.851   0.018  0.00  0.00    +0.253 C 
ATOM      4  H   UNL     1      -1.339  -0.978   0.027  0.00  0.00    +0.171 HD
ENDROOT
BRANCH   3   8
ATOM      5  S   UNL     1      -3.749  -1.513  -0.003  0.00  0.00    -0.052 S 
ATOM      6  N   UNL     1      -5.948  -0.153  -0.010  0.00  0.00    -0.389 NA
ATOM      7  N   UNL     1      -6.219  -2.502  -0.022  0.00  0.00    -0.328 N 
ATOM      8  C   UNL     1      -3.634   0.198   0.005  0.00  0.00    +0.180 C 
ATOM      9  C   UNL     1      -4.900   0.747   0.000  0.00  0.00    +0.108 C 
ATOM     10  C   UNL     1      -5.223   2.188   0.001  0.00  0.00    +0.063 C 
ATOM     11  C   UNL     1      -5.460  -1.374  -0.013  0.00  0.00    +0.204 C 
ATOM     12  H   UNL     1      -5.786  -3.386  -0.023  0.00  0.00    +0.145 HD
ATOM     13  H   UNL     1      -7.201  -2.434  -0.027  0.00  0.00    +0.145 HD
ENDBRANCH   3   8
BRANCH   2  14
ATOM     14  N   UNL     1       0.030   0.535   0.012  0.00  0.00    -0.127 NA
BRANCH  14  15
ATOM     15  C   UNL     1       1.000  -0.336   0.014  0.00  0.00    +0.138 C 
BRANCH  15  16
ATOM     16  C   UNL     1       2.402   0.050   0.004  0.00  0.00    +0.000 C 
ATOM     17  C   UNL     1       4.740  -0.559  -0.001  0.00  0.00    +0.172 C 
ATOM     18  C   UNL     1       3.396  -0.929   0.008  0.00  0.00    +0.037 C 
ATOM     19  C   UNL     1       2.754   1.400  -0.007  0.00  0.00    +0.000 C 
ATOM     20  C   UNL     1       5.092   0.791  -0.013  0.00  0.00    +0.168 C 
ATOM     21  C   UNL     1       4.099   1.770  -0.016  0.00  0.00    +0.039 C 
BRANCH  17  22
ATOM     22  O   UNL     1       5.701  -1.525   0.001  0.00  0.00    -0.468 OA
ATOM     23  C   UNL     1       5.257  -2.880   0.013  0.00  0.00    +0.253 C 
ENDBRANCH  17  22
BRANCH  20  24
ATOM     24  O   UNL     1       6.402   1.165  -0.022  0.00  0.00    -0.503 OA
ATOM     25  H   UNL     1       7.075   0.514  -0.020  0.00  0.00    +0.292 HD
ENDBRANCH  20  24
ENDBRANCH  15  16
ENDBRANCH  14  15
ENDBRANCH   2  14
TORSDOF 6
