REMARK  Name = 135468226
REMARK  5 active torsions:
REMARK  status: ('A' for Active; 'I' for Inactive)
REMARK    1  A    between atoms: C2*_2  and  O2*_17
REMARK    2  A    between atoms: C1*_3  and  N_7
REMARK    3  A    between atoms: C3*_4  and  O3*_19
REMARK    4  A    between atoms: C4*_5  and  C5*_21
REMARK    5  A    between atoms: C5*_21  and  O5*_22
REMARK                            x       y       z     vdW  Elec       q    Type
REMARK                         _______ _______ _______ _____ _____    ______ ____
ROOT
ATOM      1  O4* UNL     1      -1.972   0.775  -0.667  0.00  0.00    -0.332 OA
ATOM      2  C2* UNL     1      -1.607  -1.211   0.597  0.00  0.00    +0.188 C 
ATOM      3  C1* UNL     1      -1.006  -0.274  -0.446  0.00  0.00    +0.243 C 
ATOM      4  C3* UNL     1      -3.091  -1.031   0.360  0.00  0.00    +0.171 C 
ATOM      5  C4* UNL     1      -3.170   0.455   0.060  0.00  0.00    +0.176 C 
ENDROOT
BRANCH   3   7
ATOM      6  S   UNL     1       4.990   1.411   0.863  0.00  0.00    +0.011 S 
ATOM      7  N   UNL     1       0.323   0.306  -0.022  0.00  0.00    -0.170 N 
ATOM      8  N   UNL     1       0.356   1.439   0.710  0.00  0.00    -0.172 NA
ATOM      9  N   UNL     1       1.894  -1.265  -0.978  0.00  0.00    -0.299 N 
ATOM     10  N   UNL     1       4.216  -0.781  -0.581  0.00  0.00    -0.208 NA
ATOM     11  C   UNL     1       1.560  -0.169  -0.284  0.00  0.00    +0.130 C 
ATOM     12  C   UNL     1       2.479   0.671   0.291  0.00  0.00    +0.101 C 
ATOM     13  C   UNL     1       1.668   1.655   0.897  0.00  0.00    +0.129 C 
ATOM     14  C   UNL     1       3.896   0.368   0.148  0.00  0.00    -0.010 C 
ATOM     15  C   UNL     1       3.250  -1.502  -1.081  0.00  0.00    +0.227 C 
ATOM     16  H   UNL     1       1.222  -1.858  -1.384  0.00  0.00    +0.150 HD
ENDBRANCH   3   7
BRANCH   2  17
ATOM     17  O2* UNL     1      -1.203  -2.549   0.367  0.00  0.00    -0.378 OA
ATOM     18  H2* UNL     1      -0.250  -2.631   0.528  0.00  0.00    +0.211 HD
ENDBRANCH   2  17
BRANCH   4  19
ATOM     19  O3* UNL     1      -3.835  -1.380   1.512  0.00  0.00    -0.379 OA
ATOM     20  H3* UNL     1      -3.759  -2.334   1.669  0.00  0.00    +0.211 HD
ENDBRANCH   4  19
BRANCH   5  21
ATOM     21  C5* UNL     1      -4.383   0.840  -0.768  0.00  0.00    +0.169 C 
BRANCH  21  22
ATOM     22  O5* UNL     1      -4.366   2.242  -0.981  0.00  0.00    -0.379 OA
ATOM     23  H5* UNL     1      -5.138   2.498  -1.510  0.00  0.00    +0.211 HD
ENDBRANCH  21  22
ENDBRANCH   5  21
TORSDOF 5
