REMARK  Name = 135488899
REMARK  12 active torsions:
REMARK  status: ('A' for Active; 'I' for Inactive)
REMARK    1  A    between atoms: C_2  and  C_18
REMARK    2  A    between atoms: C_3  and  C_11
REMARK    3  A    between atoms: C_4  and  O_8
REMARK    4  A    between atoms: N_10  and  C_11
REMARK    5  A    between atoms: N_10  and  O_12
REMARK    6  A    between atoms: O_12  and  C_13
REMARK    7  A    between atoms: C_13  and  C_15
REMARK    8  A    between atoms: C_15  and  O_16
REMARK    9  A    between atoms: C_18  and  O_19
REMARK   10  A    between atoms: O_19  and  P_20
REMARK   11  A    between atoms: P_20  and  O_22
REMARK   12  A    between atoms: P_20  and  O_24
REMARK                            x       y       z     vdW  Elec       q    Type
REMARK                         _______ _______ _______ _____ _____    ______ ____
ROOT
ATOM      1  N   UNL     1       3.231  -2.377   0.246  0.00  0.00    -0.245 NA
ATOM      2  C   UNL     1       1.932  -0.348   0.451  0.00  0.00    +0.027 C 
ATOM      3  C   UNL     1       0.787  -1.033   0.059  0.00  0.00    +0.033 C 
ATOM      4  C   UNL     1       0.863  -2.389  -0.240  0.00  0.00    +0.144 C 
ATOM      5  C   UNL     1       2.097  -3.009  -0.131  0.00  0.00    +0.093 C 
ATOM      6  C   UNL     1       3.118  -1.060   0.528  0.00  0.00    +0.097 C 
ATOM      7  C   UNL     1       2.234  -4.464  -0.440  0.00  0.00    +0.055 C 
ENDROOT
BRANCH   4   8
ATOM      8  O   UNL     1      -0.239  -3.087  -0.626  0.00  0.00    -0.505 OA
ATOM      9  H   UNL     1      -1.067  -2.654  -0.695  0.00  0.00    +0.292 HD
ENDBRANCH   4   8
BRANCH   3  10
ATOM     10  C   UNL     1      -0.490  -0.335  -0.041  0.00  0.00    +0.151 C 
BRANCH  10  11
ATOM     11  N   UNL     1      -1.631  -0.925   0.163  0.00  0.00    -0.078 NA
BRANCH  11  12
ATOM     12  O   UNL     1      -2.666   0.006  -0.006  0.00  0.00    -0.254 OA
BRANCH  12  13
ATOM     13  C   UNL     1      -3.899  -0.660   0.221  0.00  0.00    +0.277 C 
BRANCH  13  15
ATOM     14  O   UNL     1      -4.934   1.494  -0.218  0.00  0.00    -0.247 OA
ATOM     15  C   UNL     1      -5.038   0.307   0.050  0.00  0.00    +0.347 C 
BRANCH  15  16
ATOM     16  O   UNL     1      -6.223  -0.328   0.235  0.00  0.00    -0.478 OA
ATOM     17  H   UNL     1      -6.237  -1.242   0.439  0.00  0.00    +0.295 HD
ENDBRANCH  15  16
ENDBRANCH  13  15
ENDBRANCH  12  13
ENDBRANCH  11  12
ENDBRANCH  10  11
ENDBRANCH   3  10
BRANCH   2  18
ATOM     18  C   UNL     1       1.914   1.104   0.782  0.00  0.00    +0.181 C 
BRANCH  18  19
ATOM     19  O   UNL     1       1.822   1.863  -0.417  0.00  0.00    -0.268 OA
BRANCH  19  20
ATOM     20  P   UNL     1       1.787   3.475  -0.304  0.00  0.00    +0.473 P 
ATOM     21  O   UNL     1       1.690   4.203  -1.613  0.00  0.00    -0.227 OA
BRANCH  20  22
ATOM     22  O   UNL     1       3.089   3.827   0.588  0.00  0.00    -0.303 OA
ATOM     23  H   UNL     1       3.067   3.313   1.410  0.00  0.00    +0.222 HD
ENDBRANCH  20  22
BRANCH  20  24
ATOM     24  O   UNL     1       0.557   3.734   0.714  0.00  0.00    -0.303 OA
ATOM     25  H   UNL     1       0.701   3.228   1.530  0.00  0.00    +0.222 HD
ENDBRANCH  20  24
ENDBRANCH  19  20
ENDBRANCH  18  19
ENDBRANCH   2  18
TORSDOF 12
