REMARK  Name = 135415867
REMARK  8 active torsions:
REMARK  status: ('A' for Active; 'I' for Inactive)
REMARK    1  A    between atoms: C_1  and  C_20
REMARK    2  A    between atoms: C_2  and  C_7
REMARK    3  A    between atoms: C_8  and  C_17
REMARK    4  A    between atoms: C_20  and  N_21
REMARK    5  A    between atoms: C_25  and  O_34
REMARK    6  A    between atoms: C_26  and  C_31
REMARK    7  A    between atoms: C_31  and  O_32
REMARK    8  A    between atoms: O_34  and  C_35
REMARK                            x       y       z     vdW  Elec       q    Type
REMARK                         _______ _______ _______ _____ _____    ______ ____
ROOT
ATOM      1  C   UNL     1      -0.553  -1.183   1.016  0.00  0.00    -0.002 C 
ATOM      2  C   UNL     1       2.164  -1.391   0.419  0.00  0.00    +0.000 C 
ATOM      3  C   UNL     1      -0.147  -1.695  -0.216  0.00  0.00    -0.003 C 
ATOM      4  C   UNL     1       0.400  -0.775   1.950  0.00  0.00    -0.003 C 
ATOM      5  C   UNL     1       1.211  -1.799  -0.515  0.00  0.00    -0.000 C 
ATOM      6  C   UNL     1       1.758  -0.879   1.652  0.00  0.00    -0.000 C 
ENDROOT
BRANCH   2   7
ATOM      7  C   UNL     1       3.573  -1.499   0.109  0.00  0.00    +0.003 C 
ATOM      8  C   UNL     1       4.260  -0.454  -0.508  0.00  0.00    +0.037 C 
ATOM      9  C   UNL     1       4.245  -2.676   0.439  0.00  0.00    +0.000 C 
ATOM     10  C   UNL     1       5.619  -0.585  -0.795  0.00  0.00    +0.003 C 
ATOM     11  C   UNL     1       5.604  -2.807   0.152  0.00  0.00    +0.000 C 
ATOM     12  C   UNL     1       6.291  -1.762  -0.465  0.00  0.00    +0.000 C 
BRANCH   8  17
ATOM     13  O   UNL     1       2.318   2.313  -1.697  0.00  0.00    -0.295 OA
ATOM     14  O   UNL     1       3.273   4.109  -0.640  0.00  0.00    -0.221 OA
ATOM     15  N   UNL     1       4.025   1.946  -0.343  0.00  0.00    -0.271 N 
ATOM     16  N   UNL     1       2.601   0.918  -1.672  0.00  0.00    -0.054 NA
ATOM     17  C   UNL     1       3.596   0.793  -0.870  0.00  0.00    +0.184 A 
ATOM     18  C   UNL     1       3.227   2.907  -0.858  0.00  0.00    +0.440 A 
ATOM     19  H   UNL     1       4.769   2.068   0.290  0.00  0.00    +0.174 HD
ENDBRANCH   8  17
ENDBRANCH   2   7
BRANCH   1  20
ATOM     20  C   UNL     1      -2.022  -1.071   1.340  0.00  0.00    +0.128 C 
BRANCH  20  21
ATOM     21  N   UNL     1      -2.662   0.063   0.710  0.00  0.00    -0.226 N 
ATOM     22  N   UNL     1      -3.043   2.184   0.167  0.00  0.00    -0.357 NA
ATOM     23  C   UNL     1      -3.746   0.037  -0.129  0.00  0.00    +0.089 C 
ATOM     24  C   UNL     1      -3.964   1.373  -0.455  0.00  0.00    +0.132 C 
ATOM     25  C   UNL     1      -2.279   1.367   0.857  0.00  0.00    +0.347 C 
ATOM     26  C   UNL     1      -4.530  -1.009  -0.617  0.00  0.00    +0.091 C 
ATOM     27  C   UNL     1      -5.023   1.703  -1.317  0.00  0.00    +0.086 C 
ATOM     28  C   UNL     1      -5.580  -0.662  -1.474  0.00  0.00    +0.004 C 
ATOM     29  C   UNL     1      -5.824   0.670  -1.819  0.00  0.00    -0.018 C 
BRANCH  26  31
ATOM     30  O   UNL     1      -3.563  -3.180  -0.894  0.00  0.00    -0.245 OA
ATOM     31  C   UNL     1      -4.295  -2.399  -0.274  0.00  0.00    +0.339 C 
BRANCH  31  32
ATOM     32  O   UNL     1      -4.979  -2.786   0.840  0.00  0.00    -0.477 OA
ATOM     33  H   UNL     1      -5.526  -2.173   1.290  0.00  0.00    +0.295 HD
ENDBRANCH  31  32
ENDBRANCH  26  31
BRANCH  25  34
ATOM     34  O   UNL     1      -1.256   1.742   1.608  0.00  0.00    -0.441 OA
BRANCH  34  35
ATOM     35  C   UNL     1      -0.943   3.150   1.688  0.00  0.00    +0.210 C 
ATOM     36  C   UNL     1       0.244   3.339   2.608  0.00  0.00    +0.051 C 
ENDBRANCH  34  35
ENDBRANCH  25  34
ENDBRANCH  20  21
ENDBRANCH   1  20
TORSDOF 8
