REMARK  Name = 135454068
REMARK  6 active torsions:
REMARK  status: ('A' for Active; 'I' for Inactive)
REMARK    1  A    between atoms: N_2  and  C1*_16
REMARK    2  A    between atoms: C_8  and  O_27
REMARK    3  A    between atoms: C2*_17  and  O2*_20
REMARK    4  A    between atoms: C3*_18  and  O3*_22
REMARK    5  A    between atoms: C4*_19  and  C5*_24
REMARK    6  A    between atoms: C5*_24  and  O5*_25
REMARK                            x       y       z     vdW  Elec       q    Type
REMARK                         _______ _______ _______ _____ _____    ______ ____
ROOT
ATOM      1  O   UNL     1       4.559   0.720   0.248  0.00  0.00    -0.267 OA
ATOM      2  N   UNL     1       0.338  -0.806  -0.277  0.00  0.00    -0.179 N 
ATOM      3  N   UNL     1       2.501  -1.370  -0.226  0.00  0.00    -0.346 NA
ATOM      4  N   UNL     1       0.491   1.577   0.119  0.00  0.00    -0.355 NA
ATOM      5  N   UNL     1       2.782   2.230   0.376  0.00  0.00    -0.242 N 
ATOM      6  N   UNL     1       1.055   3.823   0.520  0.00  0.00    -0.321 N 
ATOM      7  C   UNL     1       1.028   0.347  -0.044  0.00  0.00    +0.230 C 
ATOM      8  C   UNL     1       1.268  -1.812  -0.378  0.00  0.00    +0.351 C 
ATOM      9  C   UNL     1       2.348  -0.031  -0.019  0.00  0.00    +0.234 C 
ATOM     10  C   UNL     1       3.359   0.964   0.208  0.00  0.00    +0.286 C 
ATOM     11  C   UNL     1       1.396   2.509   0.330  0.00  0.00    +0.240 C 
ATOM     12  H   UNL     1       3.391   2.987   0.538  0.00  0.00    +0.159 HD
ATOM     13  H   UNL     1       0.109   4.094   0.502  0.00  0.00    +0.146 HD
ATOM     14  H   UNL     1       1.757   4.496   0.675  0.00  0.00    +0.146 HD
ENDROOT
BRANCH   2  16
ATOM     15  O4* UNL     1      -1.741   0.231  -0.985  0.00  0.00    -0.333 OA
ATOM     16  C1* UNL     1      -1.160  -0.953  -0.401  0.00  0.00    +0.232 C 
ATOM     17  C2* UNL     1      -1.852  -1.164   0.943  0.00  0.00    +0.187 C 
ATOM     18  C3* UNL     1      -3.207  -0.537   0.698  0.00  0.00    +0.171 C 
ATOM     19  C4* UNL     1      -2.834   0.662  -0.156  0.00  0.00    +0.175 C 
BRANCH  17  20
ATOM     20  O2* UNL     1      -1.965  -2.545   1.241  0.00  0.00    -0.378 OA
ATOM     21  H2* UNL     1      -1.082  -2.916   1.393  0.00  0.00    +0.211 HD
ENDBRANCH  17  20
BRANCH  18  22
ATOM     22  O3* UNL     1      -3.815  -0.152   1.916  0.00  0.00    -0.379 OA
ATOM     23  H3* UNL     1      -4.037  -0.944   2.430  0.00  0.00    +0.211 HD
ENDBRANCH  18  22
BRANCH  19  24
ATOM     24  C5* UNL     1      -3.971   1.156  -1.033  0.00  0.00    +0.169 C 
BRANCH  24  25
ATOM     25  O5* UNL     1      -3.523   2.277  -1.776  0.00  0.00    -0.379 OA
ATOM     26  H5* UNL     1      -4.243   2.600  -2.340  0.00  0.00    +0.211 HD
ENDBRANCH  24  25
ENDBRANCH  19  24
ENDBRANCH   2  16
BRANCH   8  27
ATOM     27  O   UNL     1       0.941  -3.074  -0.606  0.00  0.00    -0.436 OA
ATOM     28  C   UNL     1       2.000  -4.052  -0.697  0.00  0.00    +0.257 C 
ENDBRANCH   8  27
TORSDOF 6
