REMARK  Name = 135476793
REMARK  6 active torsions:
REMARK  status: ('A' for Active; 'I' for Inactive)
REMARK    1  A    between atoms: N_1  and  C1*_16
REMARK    2  A    between atoms: N_5  and  C_9
REMARK    3  A    between atoms: C2*_15  and  O2*_19
REMARK    4  A    between atoms: C3*_17  and  O3*_21
REMARK    5  A    between atoms: C4*_18  and  C5*_23
REMARK    6  A    between atoms: C5*_23  and  O5*_24
REMARK                            x       y       z     vdW  Elec       q    Type
REMARK                         _______ _______ _______ _____ _____    ______ ____
ROOT
ATOM      1  N   UNL     1      -0.451  -0.150  -0.121  0.00  0.00    -0.251 N 
ATOM      2  N   UNL     1      -1.777   1.750  -0.914  0.00  0.00    -0.304 N 
ATOM      3  N   UNL     1      -3.759   0.840  -0.422  0.00  0.00    -0.312 N 
ATOM      4  N   UNL     1      -1.738  -2.040   0.739  0.00  0.00    -0.231 NA
ATOM      5  C   UNL     1      -1.614   0.510  -0.367  0.00  0.00    +0.117 C 
ATOM      6  C   UNL     1      -0.635  -1.421   0.420  0.00  0.00    +0.224 C 
ATOM      7  C   UNL     1      -2.818  -0.078  -0.056  0.00  0.00    +0.106 C 
ATOM      8  C   UNL     1      -2.936  -1.381   0.522  0.00  0.00    +0.157 C 
ATOM      9  C   UNL     1      -3.084   1.921  -0.933  0.00  0.00    +0.183 C 
ATOM     10  H   UNL     1      -1.080   2.373  -1.223  0.00  0.00    +0.150 HD
ATOM     11  H   UNL     1      -4.735   0.746  -0.335  0.00  0.00    +0.149 HD
ENDROOT
BRANCH   1  14
ATOM     12  O4* UNL     1       1.764  -0.636  -0.814  0.00  0.00    -0.333 OA
ATOM     13  C2* UNL     1       1.428   1.171   0.696  0.00  0.00    +0.187 C 
ATOM     14  C1* UNL     1       0.831   0.406  -0.477  0.00  0.00    +0.225 C 
ATOM     15  C3* UNL     1       2.911   0.943   0.502  0.00  0.00    +0.171 C 
ATOM     16  C4* UNL     1       2.928  -0.494   0.016  0.00  0.00    +0.175 C 
BRANCH  13  17
ATOM     17  O2* UNL     1       1.119   2.552   0.631  0.00  0.00    -0.378 OA
ATOM     18  H2* UNL     1       0.166   2.676   0.757  0.00  0.00    +0.211 HD
ENDBRANCH  13  17
BRANCH  15  19
ATOM     19  O3* UNL     1       3.631   1.082   1.711  0.00  0.00    -0.379 OA
ATOM     20  H3* UNL     1       3.604   2.008   1.999  0.00  0.00    +0.211 HD
ENDBRANCH  15  19
BRANCH  16  21
ATOM     21  C5* UNL     1       4.172  -0.846  -0.779  0.00  0.00    +0.169 C 
BRANCH  21  22
ATOM     22  O5* UNL     1       4.093  -2.206  -1.175  0.00  0.00    -0.379 OA
ATOM     23  H5* UNL     1       4.885  -2.441  -1.684  0.00  0.00    +0.211 HD
ENDBRANCH  21  22
ENDBRANCH  16  21
ENDBRANCH   1  14
BRANCH   8  24
ATOM     24  N   UNL     1      -4.068  -1.921   0.822  0.00  0.00    -0.248 NA
ATOM     25  H   UNL     1      -4.094  -2.822   1.218  0.00  0.00    +0.172 HD
ENDBRANCH   8  24
TORSDOF 6
