REMARK  Name = 135481901
REMARK  8 active torsions:
REMARK  status: ('A' for Active; 'I' for Inactive)
REMARK    1  A    between atoms: C_1  and  S_2
REMARK    2  A    between atoms: C_1  and  C_17
REMARK    3  A    between atoms: S_2  and  C_3
REMARK    4  A    between atoms: C_3  and  C_6
REMARK    5  A    between atoms: C_8  and  N_9
REMARK    6  A    between atoms: N_9  and  C_12
REMARK    7  A    between atoms: C_17  and  N_23
REMARK    8  A    between atoms: N_23  and  C_26
REMARK                            x       y       z     vdW  Elec       q    Type
REMARK                         _______ _______ _______ _____ _____    ______ ____
ROOT
ATOM      1  C   UNL     1      -0.062  -2.360  -1.020  0.00  0.00    +0.077 C 
ENDROOT
BRANCH   1   2
ATOM      2  S   UNL     1       1.143  -1.004  -1.061  0.00  0.00    -0.131 S 
BRANCH   2   3
ATOM      3  C   UNL     1       1.800  -1.183   0.613  0.00  0.00    +0.113 C 
BRANCH   3   6
ATOM      4  S   UNL     1       4.184   1.829   1.758  0.00  0.00    -0.055 S 
ATOM      5  N   UNL     1       4.126  -0.358   0.381  0.00  0.00    -0.384 NA
ATOM      6  C   UNL     1       2.866  -0.167   0.916  0.00  0.00    +0.111 C 
ATOM      7  C   UNL     1       2.705   0.963   1.690  0.00  0.00    +0.121 C 
ATOM      8  C   UNL     1       4.902   0.633   0.759  0.00  0.00    +0.243 C 
BRANCH   8   9
ATOM      9  N   UNL     1       6.209   0.787   0.429  0.00  0.00    -0.178 NA
BRANCH   9  12
ATOM     10  N   UNL     1       5.932  -0.342  -1.685  0.00  0.00    -0.370 N 
ATOM     11  N   UNL     1       7.990   0.454  -1.102  0.00  0.00    -0.370 N 
ATOM     12  C   UNL     1       6.673   0.319  -0.729  0.00  0.00    +0.196 C 
ATOM     13  H   UNL     1       4.972  -0.503  -1.539  0.00  0.00    +0.159 HD
ATOM     14  H   UNL     1       6.363  -0.653  -2.514  0.00  0.00    +0.159 HD
ATOM     15  H   UNL     1       8.626   0.909  -0.505  0.00  0.00    +0.159 HD
ATOM     16  H   UNL     1       8.296   0.095  -1.966  0.00  0.00    +0.159 HD
ENDBRANCH   9  12
ENDBRANCH   8   9
ENDBRANCH   3   6
ENDBRANCH   2   3
ENDBRANCH   1   2
BRANCH   1  17
ATOM     17  C   UNL     1      -1.345  -1.918  -0.335  0.00  0.00    +0.104 C 
BRANCH  17  18
ATOM     18  N   UNL     1      -1.900  -0.790  -1.066  0.00  0.00    -0.183 NA
BRANCH  18  26
ATOM     19  S   UNL     1      -5.097   1.447  -0.872  0.00  0.00    +0.142 S 
ATOM     20  O   UNL     1      -6.074   0.908  -1.803  0.00  0.00    -0.134 OA
ATOM     21  O   UNL     1      -4.904   2.887  -0.815  0.00  0.00    -0.134 OA
ATOM     22  N   UNL     1      -3.746  -0.792   0.530  0.00  0.00    -0.252 N 
ATOM     23  N   UNL     1      -3.591   0.764  -1.283  0.00  0.00    -0.131 NA
ATOM     24  N   UNL     1      -5.473   0.925   0.622  0.00  0.00    -0.087 NA
ATOM     25  N   UNL     1      -5.170  -0.483   2.414  0.00  0.00    -0.330 N 
ATOM     26  C   UNL     1      -3.018  -0.344  -0.590  0.00  0.00    +0.233 C 
ATOM     27  C   UNL     1      -4.816  -0.085   1.143  0.00  0.00    +0.205 C 
ATOM     28  C   UNL     1      -3.335  -2.090   1.105  0.00  0.00    +0.117 C 
ATOM     29  H   UNL     1      -3.091   1.152  -2.038  0.00  0.00    +0.154 HD
ATOM     30  H   UNL     1      -4.702  -1.237   2.842  0.00  0.00    +0.145 HD
ATOM     31  H   UNL     1      -5.890  -0.014   2.895  0.00  0.00    +0.145 HD
ENDBRANCH  18  26
ENDBRANCH  17  18
ENDBRANCH   1  17
TORSDOF 8
