REMARK  Name = 135449020
REMARK  4 active torsions:
REMARK  status: ('A' for Active; 'I' for Inactive)
REMARK    1  A    between atoms: C_5  and  O_13
REMARK    2  A    between atoms: C_9  and  O_15
REMARK    3  A    between atoms: C_10  and  O_17
REMARK    4  A    between atoms: C_11  and  O_19
REMARK                            x       y       z     vdW  Elec       q    Type
REMARK                         _______ _______ _______ _____ _____    ______ ____
ROOT
ATOM      1  O   UNL     1       1.038   2.558  -0.001  0.00  0.00    -0.283 OA
ATOM      2  O   UNL     1       0.865  -2.783  -0.001  0.00  0.00    -0.283 OA
ATOM      3  C   UNL     1      -0.327   0.621   0.000  0.00  0.00    +0.079 C 
ATOM      4  C   UNL     1      -0.365  -0.774   0.000  0.00  0.00    +0.051 C 
ATOM      5  C   UNL     1      -1.520   1.353   0.001  0.00  0.00    +0.140 C 
ATOM      6  C   UNL     1       0.964   1.335   0.000  0.00  0.00    +0.235 C 
ATOM      7  C   UNL     1       0.884  -1.558   0.001  0.00  0.00    +0.232 C 
ATOM      8  C   UNL     1      -1.597  -1.439   0.000  0.00  0.00    +0.040 C 
ATOM      9  C   UNL     1       2.205   0.522   0.000  0.00  0.00    +0.211 C 
ATOM     10  C   UNL     1       2.169  -0.817   0.000  0.00  0.00    +0.210 C 
ATOM     11  C   UNL     1      -2.784  -0.706   0.000  0.00  0.00    +0.137 C 
ATOM     12  C   UNL     1      -2.746   0.687   0.001  0.00  0.00    +0.073 C 
ENDROOT
BRANCH   5  13
ATOM     13  O   UNL     1      -1.550   2.716   0.000  0.00  0.00    -0.505 OA
ATOM     14  H   UNL     1      -0.750   3.202  -0.001  0.00  0.00    +0.292 HD
ENDBRANCH   5  13
BRANCH   9  15
ATOM     15  O   UNL     1       3.412   1.195   0.000  0.00  0.00    -0.501 OA
ATOM     16  H   UNL     1       3.426   2.132   0.000  0.00  0.00    +0.292 HD
ENDBRANCH   9  15
BRANCH  10  17
ATOM     17  O   UNL     1       3.336  -1.556   0.000  0.00  0.00    -0.501 OA
ATOM     18  H   UNL     1       3.297  -2.492   0.000  0.00  0.00    +0.292 HD
ENDBRANCH  10  17
BRANCH  11  19
ATOM     19  O   UNL     1      -3.982  -1.353  -0.001  0.00  0.00    -0.505 OA
ATOM     20  H   UNL     1      -4.009  -2.290  -0.001  0.00  0.00    +0.292 HD
ENDBRANCH  11  19
TORSDOF 4
