REMARK  Name = 135415187
REMARK  12 active torsions:
REMARK  status: ('A' for Active; 'I' for Inactive)
REMARK    1  A    between atoms: C_3  and  C_9
REMARK    2  A    between atoms: C_5  and  C_23
REMARK    3  A    between atoms: C_8  and  C_13
REMARK    4  A    between atoms: C_13  and  C_14
REMARK    5  A    between atoms: C_13  and  O_21
REMARK    6  A    between atoms: C_14  and  C_18
REMARK    7  A    between atoms: C_18  and  O_19
REMARK    8  A    between atoms: C_24  and  C_31
REMARK    9  A    between atoms: C_25  and  O_29
REMARK   10  A    between atoms: C_31  and  C_32
REMARK   11  A    between atoms: C_32  and  C_33
REMARK   12  A    between atoms: C_33  and  C_34
REMARK                            x       y       z     vdW  Elec       q    Type
REMARK                         _______ _______ _______ _____ _____    ______ ____
ROOT
ATOM      1  S   UNL     1      -1.706  -2.205   1.910  0.00  0.00    -0.093 S 
ATOM      2  N   UNL     1      -1.315  -0.409   0.072  0.00  0.00    -0.266 NA
ATOM      3  C   UNL     1      -0.019  -0.618   0.752  0.00  0.00    +0.106 C 
ATOM      4  C   UNL     1      -0.266  -1.153   2.156  0.00  0.00    +0.087 C 
ATOM      5  C   UNL     1      -2.209  -1.213   0.556  0.00  0.00    +0.104 C 
ENDROOT
BRANCH   3   9
ATOM      6  S   UNL     1       0.946   1.328  -0.923  0.00  0.00    -0.162 S 
ATOM      7  N   UNL     1       2.072   0.517   1.389  0.00  0.00    +0.398 N 
ATOM      8  C   UNL     1       3.014   0.219   0.282  0.00  0.00    -0.018 C 
ATOM      9  C   UNL     1       0.739   0.709   0.779  0.00  0.00    +0.016 C 
ATOM     10  C   UNL     1       2.745   1.182  -0.877  0.00  0.00    +0.037 C 
ATOM     11  C   UNL     1       2.450   1.682   2.192  0.00  0.00    -0.099 C 
ATOM     12  H   UNL     1       2.082  -0.262   2.046  0.00  0.00    -0.078 HD
BRANCH   8  13
ATOM     13  C   UNL     1       4.493   0.215   0.671  0.00  0.00    +0.103 C 
BRANCH  13  14
ATOM     14  C   UNL     1       5.452  -0.248  -0.459  0.00  0.00    +0.112 C 
ATOM     15  C   UNL     1       6.706  -0.918   0.136  0.00  0.00    +0.013 C 
ATOM     16  C   UNL     1       5.923   0.978  -1.271  0.00  0.00    +0.013 C 
BRANCH  14  18
ATOM     17  O   UNL     1       4.604  -1.036  -2.617  0.00  0.00    -0.250 OA
ATOM     18  C   UNL     1       4.785  -1.242  -1.422  0.00  0.00    +0.315 C 
BRANCH  18  19
ATOM     19  O   UNL     1       4.410  -2.406  -0.833  0.00  0.00    -0.480 OA
ATOM     20  H   UNL     1       4.561  -2.537   0.083  0.00  0.00    +0.295 HD
ENDBRANCH  18  19
ENDBRANCH  14  18
ENDBRANCH  13  14
BRANCH  13  21
ATOM     21  O   UNL     1       4.641  -0.605   1.827  0.00  0.00    -0.386 OA
ATOM     22  H   UNL     1       4.035  -0.300   2.520  0.00  0.00    +0.210 HD
ENDBRANCH  13  21
ENDBRANCH   8  13
ENDBRANCH   3   9
BRANCH   5  23
ATOM     23  C   UNL     1      -3.594  -1.281   0.033  0.00  0.00    +0.053 C 
ATOM     24  C   UNL     1      -4.412  -0.152   0.060  0.00  0.00    -0.017 C 
ATOM     25  C   UNL     1      -4.079  -2.481  -0.487  0.00  0.00    +0.135 C 
ATOM     26  C   UNL     1      -5.715  -0.222  -0.433  0.00  0.00    -0.004 C 
ATOM     27  C   UNL     1      -5.382  -2.552  -0.981  0.00  0.00    +0.037 C 
ATOM     28  C   UNL     1      -6.200  -1.422  -0.954  0.00  0.00    +0.003 C 
BRANCH  25  29
ATOM     29  O   UNL     1      -3.297  -3.597  -0.524  0.00  0.00    -0.505 OA
ATOM     30  H   UNL     1      -2.420  -3.565  -0.196  0.00  0.00    +0.292 HD
ENDBRANCH  25  29
BRANCH  24  31
ATOM     31  C   UNL     1      -3.920   1.147   0.609  0.00  0.00    +0.027 C 
BRANCH  31  32
ATOM     32  C   UNL     1      -3.501   2.170  -0.461  0.00  0.00    +0.005 C 
BRANCH  32  33
ATOM     33  C   UNL     1      -2.939   3.463   0.139  0.00  0.00    +0.000 C 
BRANCH  33  34
ATOM     34  C   UNL     1      -2.511   4.441  -0.956  0.00  0.00    +0.000 C 
ATOM     35  C   UNL     1      -1.916   5.710  -0.367  0.00  0.00    +0.000 C 
ENDBRANCH  33  34
ENDBRANCH  32  33
ENDBRANCH  31  32
ENDBRANCH  24  31
ENDBRANCH   5  23
TORSDOF 12
