135538672
  -OEChem-03292013293D

 31 33  0     1  0  0  0  0  0999 V2000
    2.6548    0.5141   -1.7962 F   0  0  0  0  0  0  0  0  0  0  0  0
    2.3413   -0.3891    0.9489 O   0  0  0  0  0  0  0  0  0  0  0  0
    4.8707    0.6317    1.6657 O   0  0  0  0  0  0  0  0  0  0  0  0
   -3.8878    2.1938   -0.1727 O   0  0  0  0  0  0  0  0  0  0  0  0
    0.0812    0.0579    0.1416 N   0  0  0  0  0  0  0  0  0  0  0  0
   -0.9222    2.0427   -0.0931 N   0  0  0  0  0  0  0  0  0  0  0  0
   -1.8455   -1.4028    0.2577 N   0  0  0  0  0  0  0  0  0  0  0  0
   -3.8660   -0.1278    0.0776 N   0  0  0  0  0  0  0  0  0  0  0  0
   -3.9385   -2.4679    0.3273 N   0  0  0  0  0  0  0  0  0  0  0  0
    1.1993   -0.9539    0.2737 C   0  0  1  0  0  0  0  0  0  0  0  0
    1.6951   -1.4833   -1.0732 C   0  0  0  0  0  0  0  0  0  0  0  0
    2.9705   -0.7093   -1.2945 C   0  0  2  0  0  0  0  0  0  0  0  0
    3.4999   -0.5642    0.1174 C   0  0  1  0  0  0  0  0  0  0  0  0
    4.4567    0.5958    0.3090 C   0  0  0  0  0  0  0  0  0  0  0  0
   -1.2597   -0.1906    0.1398 C   0  0  0  0  0  0  0  0  0  0  0  0
    0.2340    1.4154   -0.0011 C   0  0  0  0  0  0  0  0  0  0  0  0
   -1.8458    1.0434   -0.0052 C   0  0  0  0  0  0  0  0  0  0  0  0
   -3.2788    1.1391   -0.0461 C   0  0  0  0  0  0  0  0  0  0  0  0
   -3.1592   -1.3450    0.2235 C   0  0  0  0  0  0  0  0  0  0  0  0
    0.7867   -1.7533    0.8992 H   0  0  0  0  0  0  0  0  0  0  0  0
    0.9689   -1.3575   -1.8814 H   0  0  0  0  0  0  0  0  0  0  0  0
    1.9284   -2.5502   -0.9750 H   0  0  0  0  0  0  0  0  0  0  0  0
    3.6713   -1.1904   -1.9812 H   0  0  0  0  0  0  0  0  0  0  0  0
    3.9720   -1.4980    0.4481 H   0  0  0  0  0  0  0  0  0  0  0  0
    3.9667    1.5501    0.0902 H   0  0  0  0  0  0  0  0  0  0  0  0
    5.3394    0.4866   -0.3283 H   0  0  0  0  0  0  0  0  0  0  0  0
    1.2050    1.8902   -0.0314 H   0  0  0  0  0  0  0  0  0  0  0  0
    5.4820    1.3823    1.7585 H   0  0  0  0  0  0  0  0  0  0  0  0
   -4.8807   -0.1752    0.0611 H   0  0  0  0  0  0  0  0  0  0  0  0
   -3.5234   -3.3870    0.4347 H   0  0  0  0  0  0  0  0  0  0  0  0
   -4.9508   -2.4136    0.2997 H   0  0  0  0  0  0  0  0  0  0  0  0
  1 12  1  0  0  0  0
  2 10  1  0  0  0  0
  2 13  1  0  0  0  0
  3 14  1  0  0  0  0
  3 28  1  0  0  0  0
  4 18  2  0  0  0  0
  5 10  1  0  0  0  0
  5 15  1  0  0  0  0
  5 16  1  0  0  0  0
  6 16  2  0  0  0  0
  6 17  1  0  0  0  0
  7 15  1  0  0  0  0
  7 19  2  0  0  0  0
  8 18  1  0  0  0  0
  8 19  1  0  0  0  0
  8 29  1  0  0  0  0
  9 19  1  0  0  0  0
  9 30  1  0  0  0  0
  9 31  1  0  0  0  0
 10 11  1  0  0  0  0
 10 20  1  0  0  0  0
 11 12  1  0  0  0  0
 11 21  1  0  0  0  0
 11 22  1  0  0  0  0
 12 13  1  0  0  0  0
 12 23  1  0  0  0  0
 13 14  1  0  0  0  0
 13 24  1  0  0  0  0
 14 25  1  0  0  0  0
 14 26  1  0  0  0  0
 15 17  2  0  0  0  0
 16 27  1  0  0  0  0
 17 18  1  0  0  0  0
M  END
> <PUBCHEM_COMPOUND_CID>
135538672

> <PUBCHEM_CONFORMER_RMSD>
0.6

> <PUBCHEM_CONFORMER_DIVERSEORDER>
1
7
14
11
6
3
2
13
5
4
12
15
8
10
9

> <PUBCHEM_MMFF94_PARTIAL_CHARGES>
23
1 -0.34
10 0.54
12 0.34
13 0.28
14 0.28
15 -0.03
16 0.04
17 0.14
18 0.72
19 0.56
2 -0.56
27 0.15
28 0.4
29 0.37
3 -0.68
30 0.4
31 0.4
4 -0.57
5 0.05
6 -0.57
7 -0.58
8 -0.49
9 -0.85

> <PUBCHEM_EFFECTIVE_ROTOR_COUNT>
3

> <PUBCHEM_PHARMACOPHORE_FEATURES>
10
1 2 acceptor
1 3 acceptor
1 3 donor
1 4 acceptor
1 8 donor
1 9 donor
3 5 6 16 cation
5 2 10 11 12 13 rings
5 5 6 15 16 17 rings
6 7 8 15 17 18 19 rings

> <PUBCHEM_HEAVY_ATOM_COUNT>
19

> <PUBCHEM_ATOM_DEF_STEREO_COUNT>
3

> <PUBCHEM_ATOM_UDEF_STEREO_COUNT>
0

> <PUBCHEM_BOND_DEF_STEREO_COUNT>
0

> <PUBCHEM_BOND_UDEF_STEREO_COUNT>
0

> <PUBCHEM_ISOTOPIC_ATOM_COUNT>
0

> <PUBCHEM_COMPONENT_COUNT>
1

> <PUBCHEM_CACTVS_TAUTO_COUNT>
-1

> <PUBCHEM_CONFORMER_ID>
081427F000000001

> <PUBCHEM_MMFF94_ENERGY>
39.0136

> <PUBCHEM_FEATURE_SELFOVERLAP>
50.928

> <PUBCHEM_SHAPE_FINGERPRINT>
10062212 137 17894914031299380073
10319926 262 18268130016976272986
11132069 177 18408606928821668021
12173636 292 18192430758495958125
12236239 1 17385723590674220946
12403259 415 17988924505295497360
12553582 1 18266191706488411983
13134695 92 14923660887645380366
13214271 11 18342730823498913541
13296908 3 18131638858900182343
13544592 145 17984432844864904543
14790565 3 17979646628349123073
15099037 37 18411695521398167731
15219456 202 18131632262041314614
15375358 24 18272927189638004316
16945 1 18337959969943142345
17349148 13 17240483611162337234
17980427 23 18114462348823810932
18186145 218 11891330950170966071
192875 21 16877661275302773844
200 152 15719104768907765138
20279233 1 18202283571848389662
20510252 161 18200032811860298353
20645477 56 18337677399813243629
21079973 296 18412544331473909267
23402539 116 18334851719333120422
23419403 2 17754989197927483532
23557571 272 18341339950259551998
23559900 14 18268998592233287718
2748010 2 18339354279699737473
296302 2 17989201529826278540
34934 24 18336820901639982113
474 4 16806467970492802788
5104073 3 18341894048095726402
573450 72 18041271110657119626
633830 44 15984841297560763695
7364860 26 18126008406147285265
77492 1 17458069248163494662
81228 2 18264788565978064265
9709674 26 18271529676078705191

> <PUBCHEM_SHAPE_MULTIPOLES>
341.22
8.63
2.01
1.05
2.41
0.05
0.15
-0.18
-1.45
-2.26
0.05
1.38
0.04
0.9

> <PUBCHEM_SHAPE_SELFOVERLAP>
743.338

> <PUBCHEM_SHAPE_VOLUME>
186.5

> <PUBCHEM_COORDINATE_TYPE>
2
5
10

$$$$
