REMARK  Name = 135566108
REMARK  6 active torsions:
REMARK  status: ('A' for Active; 'I' for Inactive)
REMARK    1  A    between atoms: C_7  and  C_16
REMARK    2  A    between atoms: C_16  and  O_17
REMARK    3  A    between atoms: C_16  and  C_19
REMARK    4  A    between atoms: C_19  and  O_20
REMARK    5  A    between atoms: C_19  and  C_22
REMARK    6  A    between atoms: C_22  and  O_23
REMARK                            x       y       z     vdW  Elec       q    Type
REMARK                         _______ _______ _______ _____ _____    ______ ____
ROOT
ATOM      1  O   UNL     1      -1.242  -2.473   0.745  0.00  0.00    -0.266 OA
ATOM      2  N   UNL     1       0.370  -0.289   0.574  0.00  0.00    -0.390 NA
ATOM      3  N   UNL     1      -0.824   2.109  -0.277  0.00  0.00    -0.200 NA
ATOM      4  N   UNL     1      -3.074  -1.242   0.035  0.00  0.00    -0.241 N 
ATOM      5  N   UNL     1      -2.905   1.050  -0.486  0.00  0.00    -0.318 NA
ATOM      6  N   UNL     1      -4.963  -0.059  -0.677  0.00  0.00    -0.320 N 
ATOM      7  C   UNL     1       1.072   0.853   0.453  0.00  0.00    +0.142 C 
ATOM      8  C   UNL     1      -0.937  -0.198   0.259  0.00  0.00    +0.257 C 
ATOM      9  C   UNL     1       0.486   2.030   0.035  0.00  0.00    +0.194 C 
ATOM     10  C   UNL     1      -1.542   0.972  -0.161  0.00  0.00    +0.121 C 
ATOM     11  C   UNL     1      -1.742  -1.417   0.376  0.00  0.00    +0.293 C 
ATOM     12  C   UNL     1      -3.625  -0.033  -0.383  0.00  0.00    +0.248 C 
ATOM     13  H   UNL     1      -3.670  -2.024   0.092  0.00  0.00    +0.159 HD
ATOM     14  H   UNL     1      -5.470  -0.898  -0.587  0.00  0.00    +0.146 HD
ATOM     15  H   UNL     1      -5.416   0.761  -0.979  0.00  0.00    +0.146 HD
ENDROOT
BRANCH   7  16
ATOM     16  C   UNL     1       2.522   0.809   0.788  0.00  0.00    +0.190 C 
BRANCH  16  17
ATOM     17  O   UNL     1       2.695   0.528   2.188  0.00  0.00    -0.376 OA
ATOM     18  H   UNL     1       3.641   0.502   2.398  0.00  0.00    +0.211 HD
ENDBRANCH  16  17
BRANCH  16  19
ATOM     19  C   UNL     1       3.371  -0.203  -0.024  0.00  0.00    +0.173 C 
BRANCH  19  20
ATOM     20  O   UNL     1       2.936  -1.532   0.273  0.00  0.00    -0.379 OA
ATOM     21  H   UNL     1       2.987  -1.682   1.230  0.00  0.00    +0.211 HD
ENDBRANCH  19  20
BRANCH  19  22
ATOM     22  C   UNL     1       3.286   0.024  -1.531  0.00  0.00    +0.169 C 
BRANCH  22  23
ATOM     23  O   UNL     1       4.116  -0.930  -2.185  0.00  0.00    -0.379 OA
ATOM     24  H   UNL     1       4.070  -0.795  -3.145  0.00  0.00    +0.211 HD
ENDBRANCH  22  23
ENDBRANCH  19  22
ENDBRANCH  16  19
ENDBRANCH   7  16
TORSDOF 6
