135596598
  -OEChem-03292013293D

 27 28  0     0  0  0  0  0  0999 V2000
    3.8730   -2.4971   -0.0027 O   0  0  0  0  0  0  0  0  0  0  0  0
    4.7047    2.0249    0.0013 O   0  0  0  0  0  0  0  0  0  0  0  0
   -6.0507    0.2804   -0.0023 O   0  0  0  0  0  0  0  0  0  0  0  0
    2.5146    1.3312    0.0010 N   0  0  0  0  0  0  0  0  0  0  0  0
    4.2664   -0.2321   -0.0014 N   0  0  0  0  0  0  0  0  0  0  0  0
   -0.5357   -0.3799    0.0010 N   0  0  0  0  0  0  0  0  0  0  0  0
    0.2851    0.6875    0.0013 N   0  0  0  0  0  0  0  0  0  0  0  0
    1.9666   -1.0636    0.0000 C   0  0  0  0  0  0  0  0  0  0  0  0
    1.5365    0.3706    0.0007 C   0  0  0  0  0  0  0  0  0  0  0  0
    3.4420   -1.3441   -0.0015 C   0  0  0  0  0  0  0  0  0  0  0  0
   -1.9295   -0.2130    0.0015 C   0  0  0  0  0  0  0  0  0  0  0  0
    3.8843    1.1054    0.0004 C   0  0  0  0  0  0  0  0  0  0  0  0
   -2.7656   -1.3295    0.0036 C   0  0  0  0  0  0  0  0  0  0  0  0
   -2.4784    1.0693   -0.0017 C   0  0  0  0  0  0  0  0  0  0  0  0
   -4.1505   -1.1638    0.0025 C   0  0  0  0  0  0  0  0  0  0  0  0
   -3.8632    1.2352   -0.0029 C   0  0  0  0  0  0  0  0  0  0  0  0
   -4.6993    0.1186   -0.0009 C   0  0  0  0  0  0  0  0  0  0  0  0
    1.5731   -1.5557    0.8982 H   0  0  0  0  0  0  0  0  0  0  0  0
    1.5711   -1.5556   -0.8974 H   0  0  0  0  0  0  0  0  0  0  0  0
    2.2098    2.3005    0.0019 H   0  0  0  0  0  0  0  0  0  0  0  0
    5.2664   -0.4132   -0.0022 H   0  0  0  0  0  0  0  0  0  0  0  0
   -0.2225   -1.3411    0.0043 H   0  0  0  0  0  0  0  0  0  0  0  0
   -2.3513   -2.3345    0.0059 H   0  0  0  0  0  0  0  0  0  0  0  0
   -1.8577    1.9612   -0.0037 H   0  0  0  0  0  0  0  0  0  0  0  0
   -4.7968   -2.0373    0.0041 H   0  0  0  0  0  0  0  0  0  0  0  0
   -4.2788    2.2393   -0.0056 H   0  0  0  0  0  0  0  0  0  0  0  0
   -6.2542    1.2315   -0.0046 H   0  0  0  0  0  0  0  0  0  0  0  0
  1 10  2  0  0  0  0
  2 12  2  0  0  0  0
  3 17  1  0  0  0  0
  3 27  1  0  0  0  0
  4  9  1  0  0  0  0
  4 12  1  0  0  0  0
  4 20  1  0  0  0  0
  5 10  1  0  0  0  0
  5 12  1  0  0  0  0
  5 21  1  0  0  0  0
  6  7  1  0  0  0  0
  6 11  1  0  0  0  0
  6 22  1  0  0  0  0
  7  9  2  0  0  0  0
  8  9  1  0  0  0  0
  8 10  1  0  0  0  0
  8 18  1  0  0  0  0
  8 19  1  0  0  0  0
 11 13  2  0  0  0  0
 11 14  1  0  0  0  0
 13 15  1  0  0  0  0
 13 23  1  0  0  0  0
 14 16  2  0  0  0  0
 14 24  1  0  0  0  0
 15 17  2  0  0  0  0
 15 25  1  0  0  0  0
 16 17  1  0  0  0  0
 16 26  1  0  0  0  0
M  END
> <PUBCHEM_COMPOUND_CID>
135596598

> <PUBCHEM_CONFORMER_RMSD>
0.6

> <PUBCHEM_CONFORMER_DIVERSEORDER>
1
11
12
5
7
8
4
3
10
2
9
6

> <PUBCHEM_MMFF94_PARTIAL_CHARGES>
25
1 -0.57
10 0.57
11 0.1
12 0.69
13 -0.15
14 -0.15
15 -0.15
16 -0.15
17 0.08
2 -0.57
20 0.37
21 0.37
22 0.4
23 0.15
24 0.15
25 0.15
26 0.15
27 0.45
3 -0.53
4 -0.49
5 -0.49
6 -0.46
7 -0.49
8 0.12
9 0.45

> <PUBCHEM_EFFECTIVE_ROTOR_COUNT>
2.6

> <PUBCHEM_PHARMACOPHORE_FEATURES>
8
1 1 acceptor
1 2 acceptor
1 3 donor
1 4 donor
1 5 donor
1 6 donor
6 11 13 14 15 16 17 rings
6 4 5 8 9 10 12 rings

> <PUBCHEM_HEAVY_ATOM_COUNT>
17

> <PUBCHEM_ATOM_DEF_STEREO_COUNT>
0

> <PUBCHEM_ATOM_UDEF_STEREO_COUNT>
0

> <PUBCHEM_BOND_DEF_STEREO_COUNT>
1

> <PUBCHEM_BOND_UDEF_STEREO_COUNT>
0

> <PUBCHEM_ISOTOPIC_ATOM_COUNT>
0

> <PUBCHEM_COMPONENT_COUNT>
1

> <PUBCHEM_CACTVS_TAUTO_COUNT>
-1

> <PUBCHEM_CONFORMER_ID>
08150A3600000001

> <PUBCHEM_MMFF94_ENERGY>
53.1592

> <PUBCHEM_FEATURE_SELFOVERLAP>
40.638

> <PUBCHEM_SHAPE_FINGERPRINT>
10014705 185 18260543425204196701
10616163 171 18268994361147584815
10912923 1 17917713496176384667
12107183 9 17764594217974868617
13167823 11 18412261722852939063
13533116 47 18272087171613499467
13675066 3 18040159513244579849
13760787 19 18272932768916644566
14341114 176 18410300211399378769
15196674 1 18410855469119328323
15242433 33 18412545426949084519
15442244 35 18267869380642805048
15536298 74 18411136926710266130
17834072 33 18413106173394359511
17844677 252 18338805524223073197
1813 80 16877664556346597613
18186145 218 17749104469977444634
200 152 18060415820590347779
20645477 56 18261109707899219725
20645477 70 18341333301597781262
21065198 57 18410012117714476215
21267235 1 18339651052817265006
21652331 79 18409729564775171637
22485316 2 18412262856671304351
23402539 116 18130499761429244773
23402655 69 18342176695608700286
23557571 272 17458339715292020164
23559900 14 18411417323739765456
239999 70 18272376356563103782
245318 6 16737782690223922556
29717793 49 17989207005935870661
300161 21 18410004464146103741
3004659 81 18336266752164500386
33824 294 18335419071812779474
3421961 26 18339638916010138250
3545911 37 18409450305742953940
42 15 18408324371634479111
4214541 1 18410856517033261317
449060 50 18334856147017199781
474 4 17822858700941650548
5104073 3 18410013221637090771
522135 26 18410575072210797662
5374978 207 18412539903505104096
542803 24 17346604079750080449
77779 3 18410575080558028691
8272917 22 18341898476428528054
90127 26 18041004994715873193
9709674 26 18335708277124240795
9971528 1 17894915122368818708

> <PUBCHEM_SHAPE_MULTIPOLES>
312.32
12.18
1.86
0.58
3.94
0.35
0
-0.85
-0.01
-2.01
0
0.05
0.01
0.01

> <PUBCHEM_SHAPE_SELFOVERLAP>
666.194

> <PUBCHEM_SHAPE_VOLUME>
170.4

> <PUBCHEM_COORDINATE_TYPE>
2
5
10

$$$$
