REMARK  Name = 135517852
REMARK  8 active torsions:
REMARK  status: ('A' for Active; 'I' for Inactive)
REMARK    1  A    between atoms: N_1  and  C_9
REMARK    2  A    between atoms: N_1  and  N_16
REMARK    3  A    between atoms: N_2  and  C_10
REMARK    4  A    between atoms: N_2  and  O_12
REMARK    5  A    between atoms: N_3  and  C_11
REMARK    6  A    between atoms: N_3  and  O_14
REMARK    7  A    between atoms: N_16  and  C_19
REMARK    8  A    between atoms: C_19  and  N_20
REMARK                            x       y       z     vdW  Elec       q    Type
REMARK                         _______ _______ _______ _____ _____    ______ ____
ROOT
ATOM      1  C   UNL     1       0.947   1.852   0.281  0.00  0.00    +0.003 C 
ATOM      2  C   UNL     1      -0.317   1.287  -0.404  0.00  0.00    +0.021 C 
ATOM      3  C   UNL     1       2.215   1.147  -0.249  0.00  0.00    +0.022 C 
ATOM      4  C   UNL     1       0.850   1.720   1.814  0.00  0.00    +0.000 C 
ATOM      5  C   UNL     1       1.050   3.354  -0.055  0.00  0.00    +0.000 C 
ATOM      6  C   UNL     1      -0.457  -0.202  -0.246  0.00  0.00    +0.114 C 
ATOM      7  C   UNL     1       2.143  -0.360  -0.243  0.00  0.00    +0.123 C 
ATOM      8  C   UNL     1       0.800  -0.978  -0.007  0.00  0.00    +0.139 C 
ENDROOT
BRANCH   6   9
ATOM      9  N   UNL     1      -1.598  -0.797  -0.344  0.00  0.00    -0.132 NA
BRANCH   9  10
ATOM     10  N   UNL     1      -2.633   0.049  -0.560  0.00  0.00    -0.244 N 
ATOM     11  H   UNL     1      -2.480   0.888  -1.050  0.00  0.00    +0.170 HD
BRANCH  10  13
ATOM     12  S   UNL     1      -5.182   0.786  -0.362  0.00  0.00    -0.018 S 
ATOM     13  C   UNL     1      -3.894  -0.248  -0.104  0.00  0.00    +0.143 C 
BRANCH  13  14
ATOM     14  N   UNL     1      -4.048  -1.428   0.571  0.00  0.00    -0.340 N 
ATOM     15  H   UNL     1      -4.933  -1.685   0.917  0.00  0.00    +0.144 HD
ATOM     16  H   UNL     1      -3.274  -2.020   0.710  0.00  0.00    +0.144 HD
ENDBRANCH  13  14
ENDBRANCH  10  13
ENDBRANCH   9  10
ENDBRANCH   6   9
BRANCH   7  17
ATOM     17  N   UNL     1       3.185  -1.077  -0.494  0.00  0.00    -0.088 NA
BRANCH  17  18
ATOM     18  O   UNL     1       4.276  -0.222  -0.666  0.00  0.00    -0.295 OA
ATOM     19  H   UNL     1       5.122  -0.575  -0.857  0.00  0.00    +0.238 HD
ENDBRANCH  17  18
ENDBRANCH   7  17
BRANCH   8  20
ATOM     20  N   UNL     1       0.691  -2.175   0.463  0.00  0.00    -0.086 NA
BRANCH  20  21
ATOM     21  O   UNL     1       1.973  -2.708   0.606  0.00  0.00    -0.295 OA
ATOM     22  H   UNL     1       2.085  -3.577   0.937  0.00  0.00    +0.238 HD
ENDBRANCH  20  21
ENDBRANCH   8  20
TORSDOF 8
