135555939
  -OEChem-03292013293D

 66 69  0     1  0  0  0  0  0999 V2000
    3.5134   -0.4108   -2.0626 S   0  0  0  0  0  0  0  0  0  0  0  0
    4.2931   -1.5337   -2.5374 O   0  0  0  0  0  0  0  0  0  0  0  0
    3.0247    0.5978   -2.9783 O   0  0  0  0  0  0  0  0  0  0  0  0
   -1.1122   -2.5793    0.9247 O   0  0  0  0  0  0  0  0  0  0  0  0
   -2.0580    3.2653    1.2720 O   0  0  0  0  0  0  0  0  0  0  0  0
    4.3594    0.3583   -0.7877 N   0  0  0  0  0  0  0  0  0  0  0  0
    5.2898    1.3440    1.7407 N   0  0  0  0  0  0  0  0  0  0  0  0
   -1.1702    1.2744    0.4704 N   0  0  0  0  0  0  0  0  0  0  0  0
   -2.4793   -0.3982   -0.6694 N   0  0  0  0  0  0  0  0  0  0  0  0
   -4.6802    2.2320    0.1362 N   0  0  0  0  0  0  0  0  0  0  0  0
   -5.5907    1.4386   -0.4715 N   0  0  0  0  0  0  0  0  0  0  0  0
    4.5597    2.2305    0.8266 C   0  0  2  0  0  0  0  0  0  0  0  0
    5.9934    0.2536    1.0562 C   0  0  2  0  0  0  0  0  0  0  0  0
    3.6117    1.4375   -0.0808 C   0  0  0  0  0  0  0  0  0  0  0  0
    5.0331   -0.5551    0.1786 C   0  0  0  0  0  0  0  0  0  0  0  0
    6.6442   -0.6479    2.1041 C   0  0  0  0  0  0  0  0  0  0  0  0
    5.4990    3.1384    0.0258 C   0  0  0  0  0  0  0  0  0  0  0  0
    2.1300   -1.0517   -1.1725 C   0  0  0  0  0  0  0  0  0  0  0  0
    0.9736   -0.2845   -1.0328 C   0  0  0  0  0  0  0  0  0  0  0  0
    2.1937   -2.3263   -0.6095 C   0  0  0  0  0  0  0  0  0  0  0  0
   -0.1194   -0.7917   -0.3301 C   0  0  0  0  0  0  0  0  0  0  0  0
   -0.0557   -2.0663    0.2331 C   0  0  0  0  0  0  0  0  0  0  0  0
    1.1008   -2.8335    0.0935 C   0  0  0  0  0  0  0  0  0  0  0  0
   -1.3429    0.0423   -0.1938 C   0  0  0  0  0  0  0  0  0  0  0  0
   -3.5398    0.4889   -0.4707 C   0  0  0  0  0  0  0  0  0  0  0  0
   -3.4275    1.6973    0.1590 C   0  0  0  0  0  0  0  0  0  0  0  0
   -4.8790    0.3655   -0.8427 C   0  0  0  0  0  0  0  0  0  0  0  0
   -5.5376   -0.7442   -1.5500 C   0  0  0  0  0  0  0  0  0  0  0  0
   -2.1998    2.1931    0.6944 C   0  0  0  0  0  0  0  0  0  0  0  0
   -6.3608   -1.6506   -0.6115 C   0  0  0  0  0  0  0  0  0  0  0  0
   -5.1006    3.5016    0.6796 C   0  0  0  0  0  0  0  0  0  0  0  0
   -0.8862   -2.9238    2.2900 C   0  0  0  0  0  0  0  0  0  0  0  0
   -5.5062   -2.3226    0.4514 C   0  0  0  0  0  0  0  0  0  0  0  0
   -2.1735   -2.7391    3.0647 C   0  0  0  0  0  0  0  0  0  0  0  0
    3.9409    2.8890    1.4491 H   0  0  0  0  0  0  0  0  0  0  0  0
    6.7923    0.6707    0.4308 H   0  0  0  0  0  0  0  0  0  0  0  0
    5.6069   -1.3147   -0.3630 H   0  0  0  0  0  0  0  0  0  0  0  0
    2.8242    1.0014    0.5438 H   0  0  0  0  0  0  0  0  0  0  0  0
    3.1467    2.1149   -0.8049 H   0  0  0  0  0  0  0  0  0  0  0  0
    4.2884   -1.0617    0.8028 H   0  0  0  0  0  0  0  0  0  0  0  0
    5.9515    1.8869    2.2948 H   0  0  0  0  0  0  0  0  0  0  0  0
    6.1250    2.5786   -0.6761 H   0  0  0  0  0  0  0  0  0  0  0  0
    6.1591    3.7031    0.6934 H   0  0  0  0  0  0  0  0  0  0  0  0
    4.9205    3.8648   -0.5557 H   0  0  0  0  0  0  0  0  0  0  0  0
    5.8984   -1.0911    2.7738 H   0  0  0  0  0  0  0  0  0  0  0  0
    7.3581   -0.0865    2.7172 H   0  0  0  0  0  0  0  0  0  0  0  0
    7.1921   -1.4655    1.6233 H   0  0  0  0  0  0  0  0  0  0  0  0
    0.9144    0.7083   -1.4719 H   0  0  0  0  0  0  0  0  0  0  0  0
    3.0842   -2.9411   -0.7047 H   0  0  0  0  0  0  0  0  0  0  0  0
    1.1627   -3.8309    0.5201 H   0  0  0  0  0  0  0  0  0  0  0  0
   -0.2452    1.5203    0.8129 H   0  0  0  0  0  0  0  0  0  0  0  0
   -6.2052   -0.3433   -2.3233 H   0  0  0  0  0  0  0  0  0  0  0  0
   -4.7941   -1.3542   -2.0779 H   0  0  0  0  0  0  0  0  0  0  0  0
   -7.1540   -1.0708   -0.1245 H   0  0  0  0  0  0  0  0  0  0  0  0
   -6.8519   -2.4229   -1.2151 H   0  0  0  0  0  0  0  0  0  0  0  0
   -4.5322    4.2933    0.1857 H   0  0  0  0  0  0  0  0  0  0  0  0
   -6.1689    3.6433    0.4964 H   0  0  0  0  0  0  0  0  0  0  0  0
   -4.9065    3.4974    1.7549 H   0  0  0  0  0  0  0  0  0  0  0  0
   -0.5657   -3.9698    2.3440 H   0  0  0  0  0  0  0  0  0  0  0  0
   -0.1064   -2.2913    2.7323 H   0  0  0  0  0  0  0  0  0  0  0  0
   -6.1118   -3.0329    1.0237 H   0  0  0  0  0  0  0  0  0  0  0  0
   -4.6763   -2.8756   -0.0002 H   0  0  0  0  0  0  0  0  0  0  0  0
   -5.0950   -1.5977    1.1604 H   0  0  0  0  0  0  0  0  0  0  0  0
   -2.5148   -1.7003    3.0017 H   0  0  0  0  0  0  0  0  0  0  0  0
   -2.9701   -3.3607    2.6427 H   0  0  0  0  0  0  0  0  0  0  0  0
   -2.0389   -3.0039    4.1171 H   0  0  0  0  0  0  0  0  0  0  0  0
  1  2  2  0  0  0  0
  1  3  2  0  0  0  0
  1  6  1  0  0  0  0
  1 18  1  0  0  0  0
  4 22  1  0  0  0  0
  4 32  1  0  0  0  0
  5 29  2  0  0  0  0
  6 14  1  0  0  0  0
  6 15  1  0  0  0  0
  7 12  1  0  0  0  0
  7 13  1  0  0  0  0
  7 41  1  0  0  0  0
  8 24  1  0  0  0  0
  8 29  1  0  0  0  0
  8 51  1  0  0  0  0
  9 24  2  0  0  0  0
  9 25  1  0  0  0  0
 10 11  1  0  0  0  0
 10 26  1  0  0  0  0
 10 31  1  0  0  0  0
 11 27  2  0  0  0  0
 12 14  1  0  0  0  0
 12 17  1  0  0  0  0
 12 35  1  0  0  0  0
 13 15  1  0  0  0  0
 13 16  1  0  0  0  0
 13 36  1  0  0  0  0
 14 38  1  0  0  0  0
 14 39  1  0  0  0  0
 15 37  1  0  0  0  0
 15 40  1  0  0  0  0
 16 45  1  0  0  0  0
 16 46  1  0  0  0  0
 16 47  1  0  0  0  0
 17 42  1  0  0  0  0
 17 43  1  0  0  0  0
 17 44  1  0  0  0  0
 18 19  2  0  0  0  0
 18 20  1  0  0  0  0
 19 21  1  0  0  0  0
 19 48  1  0  0  0  0
 20 23  2  0  0  0  0
 20 49  1  0  0  0  0
 21 22  2  0  0  0  0
 21 24  1  0  0  0  0
 22 23  1  0  0  0  0
 23 50  1  0  0  0  0
 25 26  2  0  0  0  0
 25 27  1  0  0  0  0
 26 29  1  0  0  0  0
 27 28  1  0  0  0  0
 28 30  1  0  0  0  0
 28 52  1  0  0  0  0
 28 53  1  0  0  0  0
 30 33  1  0  0  0  0
 30 54  1  0  0  0  0
 30 55  1  0  0  0  0
 31 56  1  0  0  0  0
 31 57  1  0  0  0  0
 31 58  1  0  0  0  0
 32 34  1  0  0  0  0
 32 59  1  0  0  0  0
 32 60  1  0  0  0  0
 33 61  1  0  0  0  0
 33 62  1  0  0  0  0
 33 63  1  0  0  0  0
 34 64  1  0  0  0  0
 34 65  1  0  0  0  0
 34 66  1  0  0  0  0
M  END
> <PUBCHEM_COMPOUND_CID>
135555939

> <PUBCHEM_CONFORMER_RMSD>
1

> <PUBCHEM_CONFORMER_DIVERSEORDER>
1
16
55
148
88
180
111
67
145
108
102
178
122
167
138
75
95
150
135
127
103
91
48
166
41
124
56
44
105
155
139
157
52
59
153
99
109
94
114
117
173
170
53
101
42
181
182
89
65
107
87
128
134
143
98
47
97
158
140
79
113
50
133
78
169
46
130
175
147
43
131
34
177
152
176
45
136
90
63
77
62
40
161
29
92
141
110
61
20
123
80
164
132
54
156
118
165
70
32
160
66
23
25
100
84
142
149
116
76
85
125
163
174
19
159
72
168
31
71
93
137
28
24
86
151
96
38
82
49
154
13
22
119
179
15
57
30
36
171
18
129
83
33
21
81
115
69
74
162
144
112
5
17
64
27
58
68
26
146
120
106
35
121
73
6
60
14
3
39
51
126
10
104
2
9
37
7
8
11
172
4
12

> <PUBCHEM_MMFF94_PARTIAL_CHARGES>
34
1 1.45
10 0.31
11 -0.71
12 0.27
13 0.27
14 0.36
15 0.36
18 -0.01
19 -0.15
2 -0.65
20 -0.15
21 0.09
22 0.08
23 -0.15
24 0.42
25 0.12
26 -0.24
27 0.11
28 0.18
29 0.71
3 -0.65
31 0.26
32 0.28
4 -0.36
41 0.36
48 0.15
49 0.15
5 -0.57
50 0.15
51 0.37
6 -0.85
7 -0.9
8 -0.49
9 -0.57

> <PUBCHEM_EFFECTIVE_ROTOR_COUNT>
8.2

> <PUBCHEM_PHARMACOPHORE_FEATURES>
13
1 11 acceptor
1 2 acceptor
1 3 acceptor
1 33 hydrophobe
1 4 acceptor
1 5 acceptor
1 7 cation
1 7 donor
1 8 donor
5 10 11 25 26 27 rings
6 18 19 20 21 22 23 rings
6 6 7 12 13 14 15 rings
6 8 9 24 25 26 29 rings

> <PUBCHEM_HEAVY_ATOM_COUNT>
34

> <PUBCHEM_ATOM_DEF_STEREO_COUNT>
0

> <PUBCHEM_ATOM_UDEF_STEREO_COUNT>
2

> <PUBCHEM_BOND_DEF_STEREO_COUNT>
0

> <PUBCHEM_BOND_UDEF_STEREO_COUNT>
0

> <PUBCHEM_ISOTOPIC_ATOM_COUNT>
0

> <PUBCHEM_COMPONENT_COUNT>
1

> <PUBCHEM_CACTVS_TAUTO_COUNT>
-1

> <PUBCHEM_CONFORMER_ID>
08146B6300000001

> <PUBCHEM_MMFF94_ENERGY>
62.4691

> <PUBCHEM_FEATURE_SELFOVERLAP>
66.105

> <PUBCHEM_SHAPE_FINGERPRINT>
10692045 39 18115863019421878458
12788726 201 17245858178607543266
13692114 37 18334015003796224459
14295345 954 18339924788622358062
14790565 3 17553213099805815329
15064986 96 18202274781412175898
17349148 13 18041289819550459325
173720 79 17458621263320487175
1813 80 11239706453300396595
20511986 3 18192703454870635301
22149856 69 17632030718721294699
22393880 68 18269844116416513389
23559900 14 17486778476222862223
23569917 315 17967533467295864547
2838139 119 17774424075719386332
3380486 145 17979091697078180859
3383291 50 18339911714694053610
34797466 226 17346318159572104045
3886686 26 17894906305218393538
392239 28 18411706504093494817
44317340 157 17704081663484768677
5104073 3 18339082575720949611
513532 50 18059295341280945142
6086070 43 18129114338007970806
67856867 119 18267861683734531838
9981440 41 18412822490910454330

> <PUBCHEM_SHAPE_MULTIPOLES>
650.19
16.06
3.91
2.17
2.29
0.92
0.08
5.61
1.01
-2.7
2.2
1.9
-1.26
0.66

> <PUBCHEM_SHAPE_SELFOVERLAP>
1367.655

> <PUBCHEM_SHAPE_VOLUME>
369.1

> <PUBCHEM_COORDINATE_TYPE>
2
5
10

$$$$
