REMARK  Name = 135565962
REMARK  8 active torsions:
REMARK  status: ('A' for Active; 'I' for Inactive)
REMARK    1  A    between atoms: C_1  and  C_24
REMARK    2  A    between atoms: C_2  and  C_11
REMARK    3  A    between atoms: C_4  and  O_29
REMARK    4  A    between atoms: C_5  and  O_27
REMARK    5  A    between atoms: N_8  and  C_15
REMARK    6  A    between atoms: O_29  and  P_30
REMARK    7  A    between atoms: P_30  and  O_32
REMARK    8  A    between atoms: P_30  and  O_34
REMARK                            x       y       z     vdW  Elec       q    Type
REMARK                         _______ _______ _______ _____ _____    ______ ____
ROOT
ATOM      1  C   UNL     1       1.849  -0.112  -1.246  0.00  0.00    +0.012 C 
ATOM      2  C   UNL     1       0.609   1.581  -0.050  0.00  0.00    +0.070 C 
ATOM      3  C   UNL     1       0.741   0.729  -1.146  0.00  0.00    +0.005 C 
ATOM      4  C   UNL     1       2.826  -0.100  -0.251  0.00  0.00    +0.148 C 
ATOM      5  C   UNL     1       1.585   1.593   0.946  0.00  0.00    +0.140 C 
ATOM      6  C   UNL     1       2.694   0.752   0.846  0.00  0.00    +0.074 C 
ENDROOT
BRANCH   2  11
ATOM      7  O   UNL     1      -3.844   3.324  -0.037  0.00  0.00    -0.245 OA
ATOM      8  N   UNL     1      -1.866   2.016   0.000  0.00  0.00    -0.242 N 
ATOM      9  N   UNL     1      -0.433   3.751   0.082  0.00  0.00    -0.151 NA
ATOM     10  N   UNL     1      -1.702   4.227   0.041  0.00  0.00    -0.226 N 
ATOM     11  C   UNL     1      -0.565   2.455   0.038  0.00  0.00    +0.173 A 
ATOM     12  C   UNL     1      -2.630   3.180  -0.022  0.00  0.00    +0.349 A 
ATOM     13  H   UNL     1      -1.939   5.182   0.053  0.00  0.00    +0.194 HD
BRANCH   8  15
ATOM     14  N   UNL     1      -3.760  -3.174   0.412  0.00  0.00    -0.284 N 
ATOM     15  C   UNL     1      -2.402   0.703   0.069  0.00  0.00    +0.070 C 
ATOM     16  C   UNL     1      -2.259  -1.584   0.855  0.00  0.00    +0.016 C 
ATOM     17  C   UNL     1      -3.460  -1.848   0.194  0.00  0.00    +0.052 C 
ATOM     18  C   UNL     1      -1.720  -0.284   0.791  0.00  0.00    +0.019 C 
ATOM     19  C   UNL     1      -3.599   0.411  -0.581  0.00  0.00    +0.019 C 
ATOM     20  C   UNL     1      -4.152  -0.872  -0.532  0.00  0.00    +0.016 C 
ATOM     21  C   UNL     1      -1.849  -2.797   1.477  0.00  0.00    +0.017 C 
ATOM     22  C   UNL     1      -2.793  -3.756   1.187  0.00  0.00    +0.065 C 
ATOM     23  C   UNL     1      -4.924  -3.867  -0.095  0.00  0.00    +0.117 C 
ENDBRANCH   8  15
ENDBRANCH   2  11
BRANCH   1  24
ATOM     24  C   UNL     1       1.974  -1.018  -2.427  0.00  0.00    +0.025 C 
ATOM     25  C   UNL     1       0.827  -2.042  -2.506  0.00  0.00    +0.005 C 
ATOM     26  C   UNL     1       2.077  -0.243  -3.753  0.00  0.00    +0.005 C 
ENDBRANCH   1  24
BRANCH   5  27
ATOM     27  O   UNL     1       1.474   2.418   2.025  0.00  0.00    -0.505 OA
ATOM     28  H   UNL     1       0.734   2.988   2.105  0.00  0.00    +0.292 HD
ENDBRANCH   5  27
BRANCH   4  29
ATOM     29  O   UNL     1       3.915  -0.915  -0.332  0.00  0.00    -0.403 OA
BRANCH  29  30
ATOM     30  P   UNL     1       5.108  -0.989   0.758  0.00  0.00    +0.528 P 
ATOM     31  O   UNL     1       5.853   0.294   0.981  0.00  0.00    -0.216 OA
BRANCH  30  32
ATOM     32  O   UNL     1       6.021  -2.206   0.206  0.00  0.00    -0.293 OA
ATOM     33  H   UNL     1       5.470  -2.996   0.088  0.00  0.00    +0.223 HD
ENDBRANCH  30  32
BRANCH  30  34
ATOM     34  O   UNL     1       4.406  -1.629   2.068  0.00  0.00    -0.293 OA
ATOM     35  H   UNL     1       3.953  -2.450   1.823  0.00  0.00    +0.223 HD
ENDBRANCH  30  34
ENDBRANCH  29  30
ENDBRANCH   4  29
TORSDOF 8
