REMARK  Name = 135566026
REMARK  6 active torsions:
REMARK  status: ('A' for Active; 'I' for Inactive)
REMARK    1  A    between atoms: C_4  and  C_24
REMARK    2  A    between atoms: C_15  and  C_28
REMARK    3  A    between atoms: C_19  and  O_22
REMARK    4  A    between atoms: C_24  and  O_26
REMARK    5  A    between atoms: C_28  and  C_30
REMARK    6  A    between atoms: C_30  and  O_31
REMARK                            x       y       z     vdW  Elec       q    Type
REMARK                         _______ _______ _______ _____ _____    ______ ____
ROOT
ATOM      1  O   UNL     1      -3.106   1.079  -0.807  0.00  0.00    -0.353 OA
ATOM      2  O   UNL     1       0.237   3.723  -0.620  0.00  0.00    -0.287 OA
ATOM      3  N   UNL     1       1.384  -1.401   0.326  0.00  0.00    -0.330 N 
ATOM      4  C   UNL     1       0.910  -2.777   0.436  0.00  0.00    +0.112 C 
ATOM      5  C   UNL     1       2.763  -1.317   0.506  0.00  0.00    +0.037 A 
ATOM      6  C   UNL     1       0.835  -0.169   0.114  0.00  0.00    +0.056 A 
ATOM      7  C   UNL     1       2.097  -3.462   1.161  0.00  0.00    +0.031 C 
ATOM      8  C   UNL     1       3.351  -2.641   0.785  0.00  0.00    +0.046 C 
ATOM      9  C   UNL     1       1.915   0.677   0.109  0.00  0.00    +0.023 A 
ATOM     10  C   UNL     1       3.123  -0.009   0.355  0.00  0.00    +0.013 A 
ATOM     11  C   UNL     1      -0.531   0.198  -0.074  0.00  0.00    -0.003 C 
ATOM     12  C   UNL     1      -0.746   1.527  -0.298  0.00  0.00    +0.041 C 
ATOM     13  C   UNL     1      -1.720  -0.735  -0.045  0.00  0.00    +0.058 C 
ATOM     14  C   UNL     1       1.747   2.020  -0.114  0.00  0.00    +0.074 C 
ATOM     15  C   UNL     1      -3.051  -0.002   0.122  0.00  0.00    +0.131 C 
ATOM     16  C   UNL     1      -2.129   2.099  -0.547  0.00  0.00    +0.140 C 
ATOM     17  C   UNL     1       0.400   2.538  -0.365  0.00  0.00    +0.197 C 
ATOM     18  C   UNL     1       4.371   0.597   0.415  0.00  0.00    +0.004 C 
ATOM     19  C   UNL     1       2.983   2.688  -0.071  0.00  0.00    +0.137 C 
ATOM     20  C   UNL     1       4.235   1.998   0.185  0.00  0.00    +0.037 C 
ATOM     21  C   UNL     1      -2.620   2.998   0.590  0.00  0.00    +0.037 C 
ENDROOT
BRANCH  19  22
ATOM     22  O   UNL     1       3.038   4.040  -0.273  0.00  0.00    -0.505 OA
ATOM     23  H   UNL     1       2.252   4.521  -0.441  0.00  0.00    +0.292 HD
ENDBRANCH  19  22
BRANCH   4  24
ATOM     24  C   UNL     1       0.649  -3.404  -0.928  0.00  0.00    +0.131 C 
ATOM     25  C   UNL     1      -0.106  -4.718  -0.810  0.00  0.00    +0.034 C 
BRANCH  24  26
ATOM     26  O   UNL     1       1.893  -3.634  -1.581  0.00  0.00    -0.383 OA
ATOM     27  H   UNL     1       2.378  -2.797  -1.657  0.00  0.00    +0.210 HD
ENDBRANCH  24  26
ENDBRANCH   4  24
BRANCH  15  28
ATOM     28  C   UNL     1      -4.228  -0.927  -0.162  0.00  0.00    +0.139 C 
BRANCH  28  30
ATOM     29  O   UNL     1      -5.650   0.655   1.029  0.00  0.00    -0.250 OA
ATOM     30  C   UNL     1      -5.513  -0.391   0.413  0.00  0.00    +0.316 C 
BRANCH  30  31
ATOM     31  O   UNL     1      -6.530  -1.250   0.148  0.00  0.00    -0.480 OA
ATOM     32  H   UNL     1      -6.365  -2.039  -0.330  0.00  0.00    +0.295 HD
ENDBRANCH  30  31
ENDBRANCH  28  30
ENDBRANCH  15  28
TORSDOF 6
