135524540
  -OEChem-03292013293D

 35 36  0     1  0  0  0  0  0999 V2000
    3.0415    1.6572   -0.4509 P   0  0  0  0  0  0  0  0  0  0  0  0
    1.8245   -0.5216    0.0182 O   0  0  0  0  0  0  0  0  0  0  0  0
    3.0037   -2.7785    1.2092 O   0  0  0  0  0  0  0  0  0  0  0  0
    4.0322    2.2107   -1.6018 O   0  0  0  0  0  0  0  0  0  0  0  0
    4.0466    1.2964    0.7624 O   0  0  0  0  0  0  0  0  0  0  0  0
   -4.6108    0.8958   -0.8372 O   0  0  0  0  0  0  0  0  0  0  0  0
    1.9100    2.5717   -0.0875 O   0  0  0  0  0  0  0  0  0  0  0  0
   -1.0409   -1.6825    0.1745 N   0  0  0  0  0  0  0  0  0  0  0  0
   -3.0742   -1.6452   -0.7563 N   0  0  0  0  0  0  0  0  0  0  0  0
   -0.8192    0.6312    0.8498 N   0  0  0  0  0  0  0  0  0  0  0  0
   -2.7833    1.8641    0.2472 N   0  0  0  0  0  0  0  0  0  0  0  0
   -0.9867    2.9229    1.3402 N   0  0  0  0  0  0  0  0  0  0  0  0
    1.3767   -1.8385   -0.3092 C   0  0  2  0  0  0  0  0  0  0  0  0
    0.2233   -2.2088    0.6291 C   0  0  0  0  0  0  0  0  0  0  0  0
   -1.4877   -0.3988    0.2857 C   0  0  0  0  0  0  0  0  0  0  0  0
    2.5498   -2.8013   -0.1402 C   0  0  0  0  0  0  0  0  0  0  0  0
   -2.7339   -0.4087   -0.2928 C   0  0  0  0  0  0  0  0  0  0  0  0
   -2.0304   -2.3941   -0.4591 C   0  0  0  0  0  0  0  0  0  0  0  0
    2.5455    0.0580   -1.0568 C   0  0  0  0  0  0  0  0  0  0  0  0
   -3.4941    0.8094   -0.3425 C   0  0  0  0  0  0  0  0  0  0  0  0
   -1.4927    1.7608    0.8182 C   0  0  0  0  0  0  0  0  0  0  0  0
    1.0292   -1.8722   -1.3506 H   0  0  0  0  0  0  0  0  0  0  0  0
    0.3866   -1.8267    1.6438 H   0  0  0  0  0  0  0  0  0  0  0  0
    0.1063   -3.2972    0.6928 H   0  0  0  0  0  0  0  0  0  0  0  0
    2.2396   -3.8243   -0.3791 H   0  0  0  0  0  0  0  0  0  0  0  0
    3.3972   -2.5489   -0.7818 H   0  0  0  0  0  0  0  0  0  0  0  0
   -1.9337   -3.4491   -0.6774 H   0  0  0  0  0  0  0  0  0  0  0  0
    3.4334   -0.5214   -1.3191 H   0  0  0  0  0  0  0  0  0  0  0  0
    1.9025    0.1706   -1.9354 H   0  0  0  0  0  0  0  0  0  0  0  0
   -3.2314    2.7757    0.2657 H   0  0  0  0  0  0  0  0  0  0  0  0
    3.7353   -3.4157    1.2745 H   0  0  0  0  0  0  0  0  0  0  0  0
   -0.0680    2.9493    1.7689 H   0  0  0  0  0  0  0  0  0  0  0  0
   -1.5132    3.7892    1.3112 H   0  0  0  0  0  0  0  0  0  0  0  0
    4.4177    3.1075   -1.5055 H   0  0  0  0  0  0  0  0  0  0  0  0
    4.4349    2.0262    1.2903 H   0  0  0  0  0  0  0  0  0  0  0  0
  1  4  1  0  0  0  0
  1  5  1  0  0  0  0
  1  7  2  0  0  0  0
  1 19  1  0  0  0  0
  2 13  1  0  0  0  0
  2 19  1  0  0  0  0
  3 16  1  0  0  0  0
  3 31  1  0  0  0  0
  4 34  1  0  0  0  0
  5 35  1  0  0  0  0
  6 20  2  0  0  0  0
  8 14  1  0  0  0  0
  8 15  1  0  0  0  0
  8 18  1  0  0  0  0
  9 17  1  0  0  0  0
  9 18  2  0  0  0  0
 10 15  1  0  0  0  0
 10 21  2  0  0  0  0
 11 20  1  0  0  0  0
 11 21  1  0  0  0  0
 11 30  1  0  0  0  0
 12 21  1  0  0  0  0
 12 32  1  0  0  0  0
 12 33  1  0  0  0  0
 13 14  1  0  0  0  0
 13 16  1  0  0  0  0
 13 22  1  0  0  0  0
 14 23  1  0  0  0  0
 14 24  1  0  0  0  0
 15 17  2  0  0  0  0
 16 25  1  0  0  0  0
 16 26  1  0  0  0  0
 17 20  1  0  0  0  0
 18 27  1  0  0  0  0
 19 28  1  0  0  0  0
 19 29  1  0  0  0  0
M  END
> <PUBCHEM_COMPOUND_CID>
135524540

> <PUBCHEM_CONFORMER_RMSD>
0.8

> <PUBCHEM_CONFORMER_DIVERSEORDER>
1
77
71
76
113
68
94
23
26
100
116
17
15
103
39
57
112
54
32
104
14
45
16
58
36
109
42
38
34
41
111
69
86
11
119
28
75
123
29
120
88
101
8
108
92
82
96
91
51
87
2
79
4
72
49
25
95
98
93
117
61
33
74
84
56
107
13
118
20
124
53
21
90
10
65
62
83
7
47
81
9
121
5
80
99
110
106
18
27
43
73
66
19
3
89
70
105
24
114
52
44
40
102
67
6
60
35
12
115
97
63
85
22
46
37
50
48
122
59
30
64
55
31
78

> <PUBCHEM_MMFF94_PARTIAL_CHARGES>
28
1 1.24
10 -0.58
11 -0.49
12 -0.85
13 0.28
14 0.26
15 -0.03
16 0.28
17 0.14
18 0.04
19 0.28
2 -0.56
20 0.72
21 0.56
27 0.15
3 -0.68
30 0.37
31 0.4
32 0.4
33 0.4
34 0.5
35 0.5
4 -0.77
5 -0.77
6 -0.57
7 -0.7
8 0.05
9 -0.57

> <PUBCHEM_EFFECTIVE_ROTOR_COUNT>
6

> <PUBCHEM_PHARMACOPHORE_FEATURES>
13
1 11 donor
1 12 donor
1 2 acceptor
1 3 acceptor
1 3 donor
1 4 acceptor
1 5 acceptor
1 6 acceptor
1 7 acceptor
3 8 9 18 cation
4 1 4 5 7 anion
5 8 9 15 17 18 rings
6 10 11 15 17 20 21 rings

> <PUBCHEM_HEAVY_ATOM_COUNT>
21

> <PUBCHEM_ATOM_DEF_STEREO_COUNT>
0

> <PUBCHEM_ATOM_UDEF_STEREO_COUNT>
1

> <PUBCHEM_BOND_DEF_STEREO_COUNT>
0

> <PUBCHEM_BOND_UDEF_STEREO_COUNT>
0

> <PUBCHEM_ISOTOPIC_ATOM_COUNT>
0

> <PUBCHEM_COMPONENT_COUNT>
1

> <PUBCHEM_CACTVS_TAUTO_COUNT>
-1

> <PUBCHEM_CONFORMER_ID>
0813F0BC00000001

> <PUBCHEM_MMFF94_ENERGY>
7.6777

> <PUBCHEM_FEATURE_SELFOVERLAP>
66.192

> <PUBCHEM_SHAPE_FINGERPRINT>
10498660 4 18341900748234190372
11370993 70 18337665446592341404
12788726 201 17774450373757031233
13140716 1 17547010088486671579
13583140 156 17532660027335699467
13965767 371 16468396315267527170
14250199 8 18338521811510301279
14787075 74 18262243356106744051
14955137 171 17404896668354892827
16945 1 18127137372771579459
17492 89 18411697664672153903
17980427 23 17984960640896344050
192875 21 18196642995720198727
19591789 44 17401769021920975363
19765921 60 18113896091518601147
20510252 161 17904780112607954310
20715895 44 18047736114965514493
20905425 154 18272653458729882588
21141583 151 17912659191442326152
23557571 272 17774991414591684331
23559900 14 18271801285816333846
2748010 2 17114367703490715035
474 4 18186521007865837130
5262128 65 17773621358878770446
526903 126 18340773748757496265
7364860 26 18340485573980158286
7832392 63 17405151725072109571
84936 182 18409729573443980586
9981440 41 18190458462321586538

> <PUBCHEM_SHAPE_MULTIPOLES>
375.9
7.1
3.77
1.08
0.48
0.35
0.01
-2.56
1.87
2.02
-0.55
0.44
-0.3
-1.33

> <PUBCHEM_SHAPE_SELFOVERLAP>
776.382

> <PUBCHEM_SHAPE_VOLUME>
217.9

> <PUBCHEM_COORDINATE_TYPE>
2
5
10

$$$$
