REMARK  Name = 135596594
REMARK  4 active torsions:
REMARK  status: ('A' for Active; 'I' for Inactive)
REMARK    1  A    between atoms: N_2  and  C1*_17
REMARK    2  A    between atoms: C3*_19  and  O3*_21
REMARK    3  A    between atoms: C4*_20  and  C5*_23
REMARK    4  A    between atoms: C5*_23  and  O5*_24
REMARK                            x       y       z     vdW  Elec       q    Type
REMARK                         _______ _______ _______ _____ _____    ______ ____
ROOT
ATOM      1  O   UNL     1       4.394   1.424  -0.255  0.00  0.00    -0.273 OA
ATOM      2  N   UNL     1      -0.028   0.221   0.038  0.00  0.00    -0.249 N 
ATOM      3  N   UNL     1       1.347   1.853  -0.301  0.00  0.00    -0.241 NA
ATOM      4  N   UNL     1       1.573  -1.613   0.381  0.00  0.00    -0.361 NA
ATOM      5  N   UNL     1       3.808  -0.767   0.186  0.00  0.00    -0.246 N 
ATOM      6  N   UNL     1       3.418  -3.036   0.639  0.00  0.00    -0.321 N 
ATOM      7  C   UNL     1       1.239  -0.320   0.130  0.00  0.00    +0.189 C 
ATOM      8  C   UNL     1       0.053   1.530  -0.222  0.00  0.00    +0.173 C 
ATOM      9  C   UNL     1       2.108   0.729  -0.088  0.00  0.00    +0.204 C 
ATOM     10  C   UNL     1       3.518   0.581  -0.077  0.00  0.00    +0.252 C 
ATOM     11  C   UNL     1       1.845   3.186  -0.570  0.00  0.00    +0.092 C 
ATOM     12  C   UNL     1       2.872  -1.801   0.402  0.00  0.00    +0.239 C 
ATOM     13  H   UNL     1       4.760  -1.016   0.224  0.00  0.00    +0.159 HD
ATOM     14  H   UNL     1       2.831  -3.811   0.799  0.00  0.00    +0.146 HD
ATOM     15  H   UNL     1       4.396  -3.149   0.649  0.00  0.00    +0.146 HD
ENDROOT
BRANCH   2  17
ATOM     16  O4* UNL     1      -2.343   0.286   0.795  0.00  0.00    -0.335 OA
ATOM     17  C1* UNL     1      -1.318  -0.540   0.203  0.00  0.00    +0.197 C 
ATOM     18  C2* UNL     1      -1.884  -1.058  -1.113  0.00  0.00    +0.083 C 
ATOM     19  C3* UNL     1      -3.364  -1.112  -0.813  0.00  0.00    +0.144 C 
ATOM     20  C4* UNL     1      -3.546   0.145   0.021  0.00  0.00    +0.173 C 
BRANCH  19  21
ATOM     21  O3* UNL     1      -4.131  -1.087  -1.998  0.00  0.00    -0.382 OA
ATOM     22  H3* UNL     1      -3.983  -1.906  -2.496  0.00  0.00    +0.210 HD
ENDBRANCH  19  21
BRANCH  20  23
ATOM     23  C5* UNL     1      -4.745   0.084   0.952  0.00  0.00    +0.169 C 
BRANCH  23  24
ATOM     24  O5* UNL     1      -4.817   1.295   1.687  0.00  0.00    -0.379 OA
ATOM     25  H5* UNL     1      -5.580   1.265   2.285  0.00  0.00    +0.211 HD
ENDBRANCH  23  24
ENDBRANCH  20  23
ENDBRANCH   2  17
TORSDOF 4
