REMARK  Name = 135543997
REMARK  8 active torsions:
REMARK  status: ('A' for Active; 'I' for Inactive)
REMARK    1  A    between atoms: C_4  and  C_16
REMARK    2  A    between atoms: CA_8  and  C_28
REMARK    3  A    between atoms: C_9  and  O_11
REMARK    4  A    between atoms: C_10  and  O_13
REMARK    5  A    between atoms: C_16  and  C_17
REMARK    6  A    between atoms: C_20  and  O_23
REMARK    7  A    between atoms: C_22  and  O_25
REMARK    8  A    between atoms: C_28  and  O_29
REMARK                            x       y       z     vdW  Elec       q    Type
REMARK                         _______ _______ _______ _____ _____    ______ ____
ROOT
ATOM      1  N   UNL     1      -0.075  -1.522   0.633  0.00  0.00    -0.396 NA
ATOM      2  C   UNL     1      -1.577   0.360   0.287  0.00  0.00    +0.032 C 
ATOM      3  C   UNL     1      -2.546  -0.508  -0.259  0.00  0.00    -0.009 C 
ATOM      4  C   UNL     1      -0.373  -0.205   0.711  0.00  0.00    +0.170 C 
ATOM      5  C   UNL     1      -1.847   1.735   0.386  0.00  0.00    +0.042 C 
ATOM      6  C   UNL     1      -2.258  -1.875  -0.348  0.00  0.00    +0.092 C 
ATOM      7  C   UNL     1      -3.770   0.024  -0.696  0.00  0.00    +0.036 C 
ATOM      8  CA  UNL     1      -1.026  -2.322   0.105  0.00  0.00    +0.188 C 
ATOM      9  C   UNL     1      -3.069   2.245  -0.053  0.00  0.00    +0.168 C 
ATOM     10  C   UNL     1      -4.028   1.391  -0.593  0.00  0.00    +0.167 C 
ENDROOT
BRANCH   9  11
ATOM     11  O   UNL     1      -3.313   3.581   0.052  0.00  0.00    -0.503 OA
ATOM     12  H   UNL     1      -2.662   4.149   0.416  0.00  0.00    +0.292 HD
ENDBRANCH   9  11
BRANCH  10  13
ATOM     13  O   UNL     1      -5.224   1.881  -1.025  0.00  0.00    -0.503 OA
ATOM     14  H   UNL     1      -5.865   1.300  -1.387  0.00  0.00    +0.292 HD
ENDBRANCH  10  13
BRANCH   4  16
ATOM     15  O   UNL     1       0.500   1.243   2.327  0.00  0.00    -0.284 OA
ATOM     16  C   UNL     1       0.700   0.594   1.293  0.00  0.00    +0.225 C 
BRANCH  16  17
ATOM     17  C   UNL     1       2.060   0.666   0.683  0.00  0.00    +0.045 C 
ATOM     18  C   UNL     1       2.214   0.528  -0.697  0.00  0.00    +0.043 C 
ATOM     19  C   UNL     1       3.177   0.872   1.492  0.00  0.00    +0.007 C 
ATOM     20  C   UNL     1       3.485   0.596  -1.267  0.00  0.00    +0.168 C 
ATOM     21  C   UNL     1       4.449   0.939   0.922  0.00  0.00    +0.040 C 
ATOM     22  C   UNL     1       4.602   0.801  -0.458  0.00  0.00    +0.167 C 
BRANCH  20  23
ATOM     23  O   UNL     1       3.622   0.460  -2.615  0.00  0.00    -0.503 OA
ATOM     24  H   UNL     1       2.866   0.323  -3.152  0.00  0.00    +0.292 HD
ENDBRANCH  20  23
BRANCH  22  25
ATOM     25  O   UNL     1       5.849   0.869  -1.002  0.00  0.00    -0.503 OA
ATOM     26  H   UNL     1       5.962   0.778  -1.928  0.00  0.00    +0.292 HD
ENDBRANCH  22  25
ENDBRANCH  16  17
ENDBRANCH   4  16
BRANCH   8  28
ATOM     27  OXT UNL     1      -1.420  -4.622  -0.421  0.00  0.00    -0.243 OA
ATOM     28  C   UNL     1      -0.688  -3.733   0.029  0.00  0.00    +0.364 C 
BRANCH  28  29
ATOM     29  O   UNL     1       0.556  -3.999   0.515  0.00  0.00    -0.476 OA
ATOM     30  H   UNL     1       1.087  -3.303   0.849  0.00  0.00    +0.295 HD
ENDBRANCH  28  29
ENDBRANCH   8  28
TORSDOF 8
