REMARK  Name = 135513044
REMARK  7 active torsions:
REMARK  status: ('A' for Active; 'I' for Inactive)
REMARK    1  A    between atoms: C_2  and  C_16
REMARK    2  A    between atoms: C_3  and  C_30
REMARK    3  A    between atoms: C_6  and  O_33
REMARK    4  A    between atoms: C_7  and  O_35
REMARK    5  A    between atoms: C_8  and  O_37
REMARK    6  A    between atoms: C_10  and  O_39
REMARK    7  A    between atoms: C_18  and  C_27
REMARK                            x       y       z     vdW  Elec       q    Type
REMARK                         _______ _______ _______ _____ _____    ______ ____
ROOT
ATOM      1  C   UNL     1      -3.557   0.188   0.100  0.00  0.00    +0.035 A 
ATOM      2  C   UNL     1      -0.754   0.347   0.025  0.00  0.00    +0.036 A 
ATOM      3  C   UNL     1      -4.958   0.094   0.129  0.00  0.00    +0.017 C 
ATOM      4  C   UNL     1      -2.805  -0.850  -0.501  0.00  0.00    +0.039 A 
ATOM      5  C   UNL     1      -1.492   1.368   0.616  0.00  0.00    +0.015 A 
ATOM      6  C   UNL     1      -1.405  -0.755  -0.530  0.00  0.00    +0.134 A 
ATOM      7  C   UNL     1      -2.885   1.290   0.654  0.00  0.00    +0.130 A 
ATOM      8  C   UNL     1      -5.609  -1.008  -0.426  0.00  0.00    +0.163 C 
ATOM      9  C   UNL     1      -3.477  -1.951  -1.055  0.00  0.00    +0.043 C 
ATOM     10  C   UNL     1      -4.870  -2.028  -1.018  0.00  0.00    +0.167 C 
ATOM     11  C   UNL     1      -0.803   2.556   1.216  0.00  0.00    +0.034 C 
ENDROOT
BRANCH   2  16
ATOM     12  O   UNL     1       0.873  -0.463   2.172  0.00  0.00    -0.287 OA
ATOM     13  O   UNL     1       3.380   1.953  -1.818  0.00  0.00    -0.287 OA
ATOM     14  O   UNL     1       6.897  -1.029   0.522  0.00  0.00    -0.283 OA
ATOM     15  O   UNL     1       5.640  -1.816   2.724  0.00  0.00    -0.283 OA
ATOM     16  C   UNL     1       0.721   0.426  -0.016  0.00  0.00    +0.041 C 
ATOM     17  C   UNL     1       3.631   0.257  -0.147  0.00  0.00    +0.041 C 
ATOM     18  C   UNL     1       4.944   0.034  -0.381  0.00  0.00    +0.023 C 
ATOM     19  C   UNL     1       2.941  -0.298   0.999  0.00  0.00    +0.045 C 
ATOM     20  C   UNL     1       1.356   1.009  -1.051  0.00  0.00    +0.020 C 
ATOM     21  C   UNL     1       1.469  -0.134   1.149  0.00  0.00    +0.196 C 
ATOM     22  C   UNL     1       2.848   1.134  -1.073  0.00  0.00    +0.192 C 
ATOM     23  C   UNL     1       5.710  -0.756   0.630  0.00  0.00    +0.230 C 
ATOM     24  C   UNL     1       3.556  -0.993   1.965  0.00  0.00    +0.049 C 
ATOM     25  C   UNL     1       0.681   1.615  -2.257  0.00  0.00    +0.034 C 
ATOM     26  C   UNL     1       5.002  -1.235   1.860  0.00  0.00    +0.234 C 
BRANCH  18  27
ATOM     27  C   UNL     1       5.742   0.472  -1.579  0.00  0.00    +0.026 C 
ATOM     28  C   UNL     1       6.863   1.409  -1.148  0.00  0.00    +0.005 C 
ATOM     29  C   UNL     1       6.294  -0.737  -2.326  0.00  0.00    +0.005 C 
ENDBRANCH  18  27
ENDBRANCH   2  16
BRANCH   3  30
ATOM     30  C   UNL     1      -5.837   1.143   0.744  0.00  0.00    +0.026 C 
ATOM     31  C   UNL     1      -6.775   1.790  -0.288  0.00  0.00    +0.005 C 
ATOM     32  C   UNL     1      -6.649   0.597   1.929  0.00  0.00    +0.005 C 
ENDBRANCH   3  30
BRANCH   6  33
ATOM     33  O   UNL     1      -0.662  -1.750  -1.108  0.00  0.00    -0.506 OA
ATOM     34  H   UNL     1       0.273  -1.686  -1.127  0.00  0.00    +0.292 HD
ENDBRANCH   6  33
BRANCH   7  35
ATOM     35  O   UNL     1      -3.547   2.328   1.248  0.00  0.00    -0.506 OA
ATOM     36  H   UNL     1      -4.483   2.320   1.297  0.00  0.00    +0.292 HD
ENDBRANCH   7  35
BRANCH   8  37
ATOM     37  O   UNL     1      -6.970  -1.097  -0.397  0.00  0.00    -0.503 OA
ATOM     38  H   UNL     1      -7.476  -0.415  -0.001  0.00  0.00    +0.292 HD
ENDBRANCH   8  37
BRANCH  10  39
ATOM     39  O   UNL     1      -5.494  -3.110  -1.564  0.00  0.00    -0.503 OA
ATOM     40  H   UNL     1      -6.428  -3.171  -1.544  0.00  0.00    +0.292 HD
ENDBRANCH  10  39
TORSDOF 7
