REMARK  Name = 135565267
REMARK  5 active torsions:
REMARK  status: ('A' for Active; 'I' for Inactive)
REMARK    1  A    between atoms: C_3  and  O_18
REMARK    2  A    between atoms: C_4  and  O_20
REMARK    3  A    between atoms: C_14  and  O_22
REMARK    4  A    between atoms: C_15  and  O_24
REMARK    5  A    between atoms: C_16  and  O_26
REMARK                            x       y       z     vdW  Elec       q    Type
REMARK                         _______ _______ _______ _____ _____    ______ ____
ROOT
ATOM      1  O   UNL     1       0.150   2.513  -0.049  0.00  0.00    -0.287 OA
ATOM      2  O   UNL     1      -0.278  -2.814  -0.005  0.00  0.00    -0.287 OA
ATOM      3  C   UNL     1      -3.825   0.831   0.110  0.00  0.00    +0.117 C 
ATOM      4  C   UNL     1      -3.861  -0.510  -0.641  0.00  0.00    +0.140 C 
ATOM      5  C   UNL     1      -2.482   1.538  -0.160  0.00  0.00    +0.059 C 
ATOM      6  C   UNL     1      -2.711  -1.428  -0.212  0.00  0.00    +0.061 C 
ATOM      7  C   UNL     1      -1.280   0.621  -0.102  0.00  0.00    +0.018 C 
ATOM      8  C   UNL     1      -1.385  -0.719  -0.108  0.00  0.00    +0.019 C 
ATOM      9  C   UNL     1      -4.994   1.742  -0.278  0.00  0.00    +0.032 C 
ATOM     10  C   UNL     1       0.049   1.291  -0.032  0.00  0.00    +0.195 C 
ATOM     11  C   UNL     1      -0.181  -1.591  -0.018  0.00  0.00    +0.195 C 
ATOM     12  C   UNL     1       1.252   0.443   0.053  0.00  0.00    +0.081 C 
ATOM     13  C   UNL     1       1.141  -0.945   0.060  0.00  0.00    +0.078 C 
ATOM     14  C   UNL     1       2.515   1.043   0.127  0.00  0.00    +0.171 C 
ATOM     15  C   UNL     1       2.293  -1.738   0.141  0.00  0.00    +0.140 C 
ATOM     16  C   UNL     1       3.661   0.251   0.208  0.00  0.00    +0.175 C 
ATOM     17  C   UNL     1       3.550  -1.137   0.215  0.00  0.00    +0.077 C 
ENDROOT
BRANCH   3  18
ATOM     18  O   UNL     1      -3.912   0.599   1.521  0.00  0.00    -0.384 OA
ATOM     19  H   UNL     1      -3.183   0.022   1.799  0.00  0.00    +0.210 HD
ENDBRANCH   3  18
BRANCH   4  20
ATOM     20  O   UNL     1      -5.099  -1.184  -0.433  0.00  0.00    -0.382 OA
ATOM     21  H   UNL     1      -5.831  -0.607  -0.703  0.00  0.00    +0.210 HD
ENDBRANCH   4  20
BRANCH  14  22
ATOM     22  O   UNL     1       2.681   2.398   0.124  0.00  0.00    -0.503 OA
ATOM     23  H   UNL     1       1.934   2.961   0.071  0.00  0.00    +0.292 HD
ENDBRANCH  14  22
BRANCH  15  24
ATOM     24  O   UNL     1       2.254  -3.101   0.152  0.00  0.00    -0.505 OA
ATOM     25  H   UNL     1       1.431  -3.547   0.104  0.00  0.00    +0.292 HD
ENDBRANCH  15  24
BRANCH  16  26
ATOM     26  O   UNL     1       4.897   0.820   0.281  0.00  0.00    -0.468 OA
ATOM     27  C   UNL     1       5.565   1.078  -0.953  0.00  0.00    +0.253 C 
ENDBRANCH  16  26
TORSDOF 5
