REMARK  Name = 135513783
REMARK  4 active torsions:
REMARK  status: ('A' for Active; 'I' for Inactive)
REMARK    1  A    between atoms: N_2  and  C_13
REMARK    2  A    between atoms: C_14  and  O_17
REMARK    3  A    between atoms: C_16  and  C_19
REMARK    4  A    between atoms: C_19  and  O_20
REMARK                            x       y       z     vdW  Elec       q    Type
REMARK                         _______ _______ _______ _____ _____    ______ ____
ROOT
ATOM      1  O   UNL     1      -4.368   1.538  -0.485  0.00  0.00    -0.268 OA
ATOM      2  N   UNL     1      -0.111   0.114   0.072  0.00  0.00    -0.247 N 
ATOM      3  N   UNL     1      -1.411   1.815  -0.579  0.00  0.00    -0.241 NA
ATOM      4  N   UNL     1      -1.795  -1.516   0.691  0.00  0.00    -0.232 NA
ATOM      5  N   UNL     1      -3.997  -0.614   0.341  0.00  0.00    -0.279 N 
ATOM      6  C   UNL     1      -1.399  -0.307   0.230  0.00  0.00    +0.154 C 
ATOM      7  C   UNL     1      -0.171   1.397  -0.416  0.00  0.00    +0.223 C 
ATOM      8  C   UNL     1      -2.171   0.756  -0.178  0.00  0.00    +0.162 C 
ATOM      9  C   UNL     1      -3.606   0.644  -0.138  0.00  0.00    +0.267 C 
ATOM     10  C   UNL     1      -3.093  -1.611   0.724  0.00  0.00    +0.220 C 
ATOM     11  H   UNL     1      -4.960  -0.807   0.411  0.00  0.00    +0.152 HD
ENDROOT
BRANCH   2  13
ATOM     12  O   UNL     1       2.191   0.226   0.823  0.00  0.00    -0.335 OA
ATOM     13  C   UNL     1       1.149  -0.665   0.373  0.00  0.00    +0.222 C 
ATOM     14  C   UNL     1       1.690  -1.412  -0.848  0.00  0.00    +0.160 C 
ATOM     15  C   UNL     1       2.893  -0.596  -1.271  0.00  0.00    +0.066 C 
ATOM     16  C   UNL     1       3.374  -0.022   0.050  0.00  0.00    +0.149 C 
BRANCH  14  17
ATOM     17  O   UNL     1       2.100  -2.725  -0.472  0.00  0.00    -0.380 OA
ATOM     18  H   UNL     1       1.324  -3.241  -0.203  0.00  0.00    +0.211 HD
ENDBRANCH  14  17
BRANCH  16  19
ATOM     19  C   UNL     1       4.167   1.262  -0.101  0.00  0.00    +0.167 C 
BRANCH  19  20
ATOM     20  O   UNL     1       4.557   1.717   1.185  0.00  0.00    -0.379 OA
ATOM     21  H   UNL     1       5.065   2.539   1.098  0.00  0.00    +0.211 HD
ENDBRANCH  19  20
ENDBRANCH  16  19
ENDBRANCH   2  13
TORSDOF 4
