135565545
  -OEChem-03292013293D

 56 60  0     1  0  0  0  0  0999 V2000
    2.8064   -1.7069   -0.9539 O   0  0  0  0  0  0  0  0  0  0  0  0
   -0.6427    4.4288   -0.0492 O   0  0  0  0  0  0  0  0  0  0  0  0
    5.0463   -0.7646   -2.5140 N   0  0  0  0  0  0  0  0  0  0  0  0
    2.4645    0.6131   -0.7779 N   0  0  0  0  0  0  0  0  0  0  0  0
   -2.0492   -1.2118   -0.1377 N   0  0  0  0  0  0  0  0  0  0  0  0
   -2.7662    3.7468    0.2626 N   0  0  0  0  0  0  0  0  0  0  0  0
   -3.8942    3.0256    0.4078 N   0  0  0  0  0  0  0  0  0  0  0  0
   -6.2631   -2.5885   -0.0766 N   0  0  0  0  0  0  0  0  0  0  0  0
   -6.4650   -2.1093    1.1627 N   0  0  0  0  0  0  0  0  0  0  0  0
    5.5876   -0.8927   -0.1361 C   0  0  0  0  0  0  0  0  0  0  0  0
    5.1874   -0.4246    1.2695 C   0  0  0  0  0  0  0  0  0  0  0  0
    7.0682   -0.5957   -0.4100 C   0  0  0  0  0  0  0  0  0  0  0  0
    6.0940   -1.0234    2.3425 C   0  0  0  0  0  0  0  0  0  0  0  0
    7.9715   -1.1943    0.6658 C   0  0  0  0  0  0  0  0  0  0  0  0
    7.5653   -0.7337    2.0621 C   0  0  0  0  0  0  0  0  0  0  0  0
    4.7016   -0.2392   -1.1951 C   0  0  2  0  0  0  0  0  0  0  0  0
    3.2244   -0.5526   -0.9693 C   0  0  0  0  0  0  0  0  0  0  0  0
    1.0921    0.7210   -0.5456 C   0  0  0  0  0  0  0  0  0  0  0  0
   -1.6500    0.9805   -0.0788 C   0  0  0  0  0  0  0  0  0  0  0  0
   -1.0527   -0.2710   -0.2485 C   0  0  0  0  0  0  0  0  0  0  0  0
    0.3148   -0.4344   -0.4833 C   0  0  0  0  0  0  0  0  0  0  0  0
   -0.8642    2.1321   -0.1430 C   0  0  0  0  0  0  0  0  0  0  0  0
   -3.0240    0.7662    0.1358 C   0  0  0  0  0  0  0  0  0  0  0  0
    0.5176    1.9812   -0.3794 C   0  0  0  0  0  0  0  0  0  0  0  0
   -3.2465   -0.5941    0.0953 C   0  0  0  0  0  0  0  0  0  0  0  0
   -4.5201   -1.3169    0.2642 C   0  0  0  0  0  0  0  0  0  0  0  0
   -1.4317    3.4797    0.0271 C   0  0  0  0  0  0  0  0  0  0  0  0
   -4.0358    1.7455    0.3585 C   0  0  0  0  0  0  0  0  0  0  0  0
   -5.1123   -2.1443   -0.6586 C   0  0  0  0  0  0  0  0  0  0  0  0
   -5.3971   -1.3331    1.3653 C   0  0  0  0  0  0  0  0  0  0  0  0
   -7.2269   -3.4892   -0.6620 C   0  0  0  0  0  0  0  0  0  0  0  0
    5.4475   -1.9834   -0.1705 H   0  0  0  0  0  0  0  0  0  0  0  0
    4.1539   -0.7095    1.4968 H   0  0  0  0  0  0  0  0  0  0  0  0
    7.3885   -1.0116   -1.3711 H   0  0  0  0  0  0  0  0  0  0  0  0
    5.2360    0.6705    1.3267 H   0  0  0  0  0  0  0  0  0  0  0  0
    7.2323    0.4885   -0.4568 H   0  0  0  0  0  0  0  0  0  0  0  0
    9.0123   -0.9103    0.4732 H   0  0  0  0  0  0  0  0  0  0  0  0
    7.9245   -2.2891    0.6146 H   0  0  0  0  0  0  0  0  0  0  0  0
    5.9376   -2.1082    2.3887 H   0  0  0  0  0  0  0  0  0  0  0  0
    5.8199   -0.6194    3.3237 H   0  0  0  0  0  0  0  0  0  0  0  0
    8.1891   -1.2334    2.8117 H   0  0  0  0  0  0  0  0  0  0  0  0
    7.7498    0.3433    2.1590 H   0  0  0  0  0  0  0  0  0  0  0  0
    4.8658    0.8447   -1.2028 H   0  0  0  0  0  0  0  0  0  0  0  0
    5.9753   -0.4483   -2.7870 H   0  0  0  0  0  0  0  0  0  0  0  0
    4.4156   -0.3702   -3.2122 H   0  0  0  0  0  0  0  0  0  0  0  0
    2.9624    1.4998   -0.8098 H   0  0  0  0  0  0  0  0  0  0  0  0
    0.6849   -1.4403   -0.6023 H   0  0  0  0  0  0  0  0  0  0  0  0
    1.1597    2.8588   -0.4353 H   0  0  0  0  0  0  0  0  0  0  0  0
   -1.9123   -2.2104   -0.2169 H   0  0  0  0  0  0  0  0  0  0  0  0
   -5.0657    1.3803    0.4996 H   0  0  0  0  0  0  0  0  0  0  0  0
   -4.8191   -2.4468   -1.6551 H   0  0  0  0  0  0  0  0  0  0  0  0
   -2.9787    4.7375    0.3539 H   0  0  0  0  0  0  0  0  0  0  0  0
   -5.3058   -0.8141    2.3092 H   0  0  0  0  0  0  0  0  0  0  0  0
   -7.2982   -4.3763   -0.0277 H   0  0  0  0  0  0  0  0  0  0  0  0
   -8.1899   -2.9753   -0.7149 H   0  0  0  0  0  0  0  0  0  0  0  0
   -6.8995   -3.7729   -1.6652 H   0  0  0  0  0  0  0  0  0  0  0  0
  1 17  2  0  0  0  0
  2 27  2  0  0  0  0
  3 16  1  0  0  0  0
  3 44  1  0  0  0  0
  3 45  1  0  0  0  0
  4 17  1  0  0  0  0
  4 18  1  0  0  0  0
  4 46  1  0  0  0  0
  5 20  1  0  0  0  0
  5 25  1  0  0  0  0
  5 49  1  0  0  0  0
  6  7  1  0  0  0  0
  6 27  1  0  0  0  0
  6 52  1  0  0  0  0
  7 28  2  0  0  0  0
  8  9  1  0  0  0  0
  8 29  1  0  0  0  0
  8 31  1  0  0  0  0
  9 30  2  0  0  0  0
 10 11  1  0  0  0  0
 10 12  1  0  0  0  0
 10 16  1  0  0  0  0
 10 32  1  0  0  0  0
 11 13  1  0  0  0  0
 11 33  1  0  0  0  0
 11 35  1  0  0  0  0
 12 14  1  0  0  0  0
 12 34  1  0  0  0  0
 12 36  1  0  0  0  0
 13 15  1  0  0  0  0
 13 39  1  0  0  0  0
 13 40  1  0  0  0  0
 14 15  1  0  0  0  0
 14 37  1  0  0  0  0
 14 38  1  0  0  0  0
 15 41  1  0  0  0  0
 15 42  1  0  0  0  0
 16 17  1  0  0  0  0
 16 43  1  0  0  0  0
 18 21  1  0  0  0  0
 18 24  2  0  0  0  0
 19 20  1  0  0  0  0
 19 22  2  0  0  0  0
 19 23  1  0  0  0  0
 20 21  2  0  0  0  0
 21 47  1  0  0  0  0
 22 24  1  0  0  0  0
 22 27  1  0  0  0  0
 23 25  2  0  0  0  0
 23 28  1  0  0  0  0
 24 48  1  0  0  0  0
 25 26  1  0  0  0  0
 26 29  2  0  0  0  0
 26 30  1  0  0  0  0
 28 50  1  0  0  0  0
 29 51  1  0  0  0  0
 30 53  1  0  0  0  0
 31 54  1  0  0  0  0
 31 55  1  0  0  0  0
 31 56  1  0  0  0  0
M  END
> <PUBCHEM_COMPOUND_CID>
135565545

> <PUBCHEM_CONFORMER_RMSD>
0.8

> <PUBCHEM_CONFORMER_DIVERSEORDER>
1
60
30
7
58
59
52
31
20
28
48
73
78
43
12
11
63
55
79
38
4
53
62
3
35
13
57
61
5
34
82
14
70
17
49
67
26
18
81
16
29
45
65
64
47
71
74
42
77
8
2
41
19
54
33
69
10
44
9
40
75
80
66
46
6
25
15
51
39
37
50
56
24
32
68
72
36
21
76
27
22
23

> <PUBCHEM_MMFF94_PARTIAL_CHARGES>
33
1 -0.57
16 0.33
17 0.57
18 0.12
2 -0.57
20 -0.15
21 -0.15
22 0.09
23 -0.09
24 -0.15
25 -0.15
27 0.54
28 0.48
29 -0.3
3 -0.99
30 0.14
31 0.26
4 -0.55
44 0.36
45 0.36
46 0.37
47 0.15
48 0.15
49 0.27
5 0.03
50 0.06
51 0.15
52 0.37
53 0.15
6 -0.37
7 -0.51
8 0.31
9 -0.71

> <PUBCHEM_EFFECTIVE_ROTOR_COUNT>
6.4

> <PUBCHEM_PHARMACOPHORE_FEATURES>
15
1 1 acceptor
1 2 acceptor
1 3 cation
1 3 donor
1 4 donor
1 5 cation
1 5 donor
1 6 donor
1 7 acceptor
1 9 acceptor
5 5 19 20 23 25 rings
5 8 9 26 29 30 rings
6 10 11 12 13 14 15 rings
6 18 19 20 21 22 24 rings
7 6 7 19 22 23 27 28 rings

> <PUBCHEM_HEAVY_ATOM_COUNT>
31

> <PUBCHEM_ATOM_DEF_STEREO_COUNT>
1

> <PUBCHEM_ATOM_UDEF_STEREO_COUNT>
0

> <PUBCHEM_BOND_DEF_STEREO_COUNT>
0

> <PUBCHEM_BOND_UDEF_STEREO_COUNT>
0

> <PUBCHEM_ISOTOPIC_ATOM_COUNT>
0

> <PUBCHEM_COMPONENT_COUNT>
1

> <PUBCHEM_CACTVS_TAUTO_COUNT>
-1

> <PUBCHEM_CONFORMER_ID>
081490E900000001

> <PUBCHEM_MMFF94_ENERGY>
84.3439

> <PUBCHEM_FEATURE_SELFOVERLAP>
76.266

> <PUBCHEM_SHAPE_FINGERPRINT>
10319926 262 18341885256920111304
10411042 1 18339645654808083197
11136131 41 17187277410291641435
11146346 171 18202003210956674958
11297750 10 18261662783797434669
11809386 21 18186802465799705321
11973863 73 17894915092857890403
1200032 147 10375605818656139191
12166972 35 17676489488037199300
12218070 45 17059200622068509567
12236239 1 17749394733279916036
12342043 65 17201664180965878550
12760667 363 18261396676139238563
12838862 33 18193833748603653653
13540713 4 17915187806414466998
13782708 43 18060419097434604254
13862211 1 18409169952011449879
14068700 675 18334013921252722349
14347332 77 18408889551002981509
15183329 4 14418120821018324254
15188451 53 18187077361044981794
1577012 14 17822583728982782604
16087824 20 18266747888570634289
16990366 60 18118967133894498531
16993427 108 18261379066267215458
17686467 74 18335136527769241024
19303781 99 18125430059274776415
21033648 29 17631433598334886872
21130935 74 18340767028036290858
21792934 111 18342736334617467041
23081809 10 17676780799016369300
23522609 53 17976016233990189477
23559900 14 18343019948240451716
23569914 152 13337222769954576946
23576562 1 10663516228318961354
255183 313 17275099569825483159
2747138 104 18413108385856697418
3383291 50 18334859454164000667
3504750 166 17752474366359294952
3633792 109 16515678949279006366
3882209 13 17338124826271192142
397830 11 17775280590908324442
4015057 19 15357995472528566828
5080951 261 18265595646246484429
5104073 3 18057891247087683042
5219985 9 18334860554033180789
59682541 52 13768192892649461994
5969126 39 18343014498094901133
6698420 124 17626115139768637921
9555976 147 18122611766132166322

> <PUBCHEM_SHAPE_MULTIPOLES>
591.36
20.85
3.91
1.46
20.22
3.89
0.22
-20.68
6.16
-8.79
0.08
2.99
-0.71
-0.96

> <PUBCHEM_SHAPE_SELFOVERLAP>
1303.498

> <PUBCHEM_SHAPE_VOLUME>
317.9

> <PUBCHEM_COORDINATE_TYPE>
2
5
10

$$$$
