REMARK  Name = 135565635
REMARK  3 active torsions:
REMARK  status: ('A' for Active; 'I' for Inactive)
REMARK    1  A    between atoms: N_1  and  C_25
REMARK    2  A    between atoms: C_5  and  C_11
REMARK    3  A    between atoms: C_17  and  O_20
REMARK                            x       y       z     vdW  Elec       q    Type
REMARK                         _______ _______ _______ _____ _____    ______ ____
ROOT
ATOM      1  N   UNL     1      -2.787  -1.050  -0.065  0.00  0.00    -0.200 N 
ATOM      2  N   UNL     1      -1.495  -1.423  -0.116  0.00  0.00    -0.179 NA
ATOM      3  N   UNL     1      -4.129   0.955   0.134  0.00  0.00    -0.231 NA
ATOM      4  N   UNL     1      -2.743   2.956   0.294  0.00  0.00    -0.234 NA
ATOM      5  C   UNL     1      -0.833  -0.264  -0.022  0.00  0.00    +0.103 C 
ATOM      6  C   UNL     1      -1.692   0.845   0.090  0.00  0.00    +0.152 C 
ATOM      7  C   UNL     1      -2.962   0.296   0.058  0.00  0.00    +0.137 C 
ATOM      8  C   UNL     1      -1.603   2.227   0.213  0.00  0.00    +0.112 C 
ATOM      9  C   UNL     1      -3.918   2.284   0.250  0.00  0.00    +0.252 C 
ATOM     10  N   UNL     1      -0.358   2.879   0.255  0.00  0.00    -0.346 N 
ATOM     11  H   UNL     1      -0.318   3.859   0.342  0.00  0.00    +0.143 HD
ATOM     12  H   UNL     1       0.474   2.355   0.197  0.00  0.00    +0.143 HD
ENDROOT
BRANCH   5  14
ATOM     13  N   UNL     1       1.402   0.431  -0.961  0.00  0.00    -0.312 N 
ATOM     14  C   UNL     1       0.637  -0.231  -0.038  0.00  0.00    +0.064 C 
ATOM     15  C   UNL     1       2.820  -0.547   0.457  0.00  0.00    +0.018 C 
ATOM     16  C   UNL     1       2.739   0.256  -0.684  0.00  0.00    +0.049 C 
ATOM     17  C   UNL     1       1.486  -0.846   0.853  0.00  0.00    +0.017 C 
ATOM     18  C   UNL     1       4.092  -0.882   0.960  0.00  0.00    +0.038 C 
ATOM     19  C   UNL     1       3.871   0.741  -1.348  0.00  0.00    +0.018 C 
ATOM     20  C   UNL     1       5.234  -0.405   0.306  0.00  0.00    +0.134 C 
ATOM     21  C   UNL     1       5.122   0.394  -0.830  0.00  0.00    +0.038 C 
ATOM     22  H   UNL     1       1.047   0.957  -1.714  0.00  0.00    +0.152 HD
BRANCH  20  23
ATOM     23  O   UNL     1       6.468  -0.726   0.787  0.00  0.00    -0.506 OA
ATOM     24  H   UNL     1       6.548  -1.263   1.551  0.00  0.00    +0.292 HD
ENDBRANCH  20  23
ENDBRANCH   5  14
BRANCH   1  25
ATOM     25  C   UNL     1      -3.822  -2.055  -0.144  0.00  0.00    +0.098 C 
ATOM     26  C   UNL     1      -3.777  -2.805  -1.478  0.00  0.00    +0.024 C 
ATOM     27  C   UNL     1      -3.751  -3.031   1.032  0.00  0.00    +0.024 C 
ENDBRANCH   1  25
TORSDOF 3
