REMARK  Name = 135565707
REMARK  3 active torsions:
REMARK  status: ('A' for Active; 'I' for Inactive)
REMARK    1  A    between atoms: N_2  and  C_22
REMARK    2  A    between atoms: N_2  and  C_25
REMARK    3  A    between atoms: C_8  and  C_13
REMARK                            x       y       z     vdW  Elec       q    Type
REMARK                         _______ _______ _______ _____ _____    ______ ____
ROOT
ATOM      1 CL   UNL     1      -1.155  -2.665  -0.824  0.00  0.00    -0.044 Cl
ATOM      2  N   UNL     1      -2.940  -0.397   0.110  0.00  0.00    -0.282 N 
ATOM      3  N   UNL     1      -1.157   1.115   0.442  0.00  0.00    -0.366 NA
ATOM      4  N   UNL     1       0.644  -0.866  -0.395  0.00  0.00    -0.378 NA
ATOM      5  C   UNL     1      -1.569  -0.114   0.071  0.00  0.00    +0.226 C 
ATOM      6  C   UNL     1      -0.685  -1.087  -0.340  0.00  0.00    +0.233 C 
ATOM      7  C   UNL     1       0.171   1.335   0.387  0.00  0.00    +0.213 C 
ATOM      8  C   UNL     1       1.056   0.363  -0.024  0.00  0.00    +0.229 C 
ATOM      9  N   UNL     1       0.664   2.605   0.764  0.00  0.00    -0.331 N 
ATOM     10  H   UNL     1       0.041   3.308   1.059  0.00  0.00    +0.145 HD
ATOM     11  H   UNL     1       1.632   2.787   0.731  0.00  0.00    +0.145 HD
ENDROOT
BRANCH   8  16
ATOM     12  O   UNL     1       2.943   1.709  -0.349  0.00  0.00    -0.267 OA
ATOM     13  N   UNL     1       3.313  -0.550   0.121  0.00  0.00    -0.251 N 
ATOM     14  N   UNL     1       5.250  -1.852   0.328  0.00  0.00    -0.372 N 
ATOM     15  N   UNL     1       5.413   0.438  -0.171  0.00  0.00    -0.270 NA
ATOM     16  C   UNL     1       2.493   0.580  -0.089  0.00  0.00    +0.285 C 
ATOM     17  C   UNL     1       4.705  -0.620   0.083  0.00  0.00    +0.186 C 
ATOM     18  H   UNL     1       2.843  -1.392   0.320  0.00  0.00    +0.158 HD
ATOM     19  H   UNL     1       4.665  -2.621   0.516  0.00  0.00    +0.159 HD
ATOM     20  H   UNL     1       6.228  -1.968   0.317  0.00  0.00    +0.159 HD
ATOM     21  H   UNL     1       4.968   1.299  -0.340  0.00  0.00    +0.190 HD
ENDBRANCH   8  16
BRANCH   2  22
ATOM     22  C   UNL     1      -3.889   0.366  -0.671  0.00  0.00    +0.075 C 
ATOM     23  C   UNL     1      -3.843   1.827  -0.242  0.00  0.00    +0.022 C 
ATOM     24  C   UNL     1      -3.559   0.212  -2.150  0.00  0.00    +0.022 C 
ENDBRANCH   2  22
BRANCH   2  25
ATOM     25  C   UNL     1      -3.445  -1.476   0.958  0.00  0.00    +0.093 C 
ATOM     26  C   UNL     1      -4.409  -0.923   1.990  0.00  0.00    +0.023 C 
ENDBRANCH   2  25
TORSDOF 3
