135565220
  -OEChem-03292013293D

 61 64  0     0  0  0  0  0  0999 V2000
   -4.1613    0.9937   -1.0996 S   0  0  0  0  0  0  0  0  0  0  0  0
   -3.7444    2.3624   -1.3128 O   0  0  0  0  0  0  0  0  0  0  0  0
   -5.1926    0.3912   -1.9157 O   0  0  0  0  0  0  0  0  0  0  0  0
    0.6360   -2.4566   -1.4182 O   0  0  0  0  0  0  0  0  0  0  0  0
    2.4554    3.5619   -1.1154 O   0  0  0  0  0  0  0  0  0  0  0  0
   -4.5685    0.7855    0.5525 N   0  0  0  0  0  0  0  0  0  0  0  0
    3.1215    0.2145   -0.0238 N   0  0  0  0  0  0  0  0  0  0  0  0
    1.1448    1.6569   -1.0442 N   0  0  0  0  0  0  0  0  0  0  0  0
    1.9506   -0.4418   -0.2292 N   0  0  0  0  0  0  0  0  0  0  0  0
    5.2321    0.6054    0.5536 N   0  0  0  0  0  0  0  0  0  0  0  0
   -4.8621   -0.6190    0.9641 C   0  0  0  0  0  0  0  0  0  0  0  0
   -3.6702    1.4789    1.5223 C   0  0  0  0  0  0  0  0  0  0  0  0
   -5.5361   -0.6209    2.3322 C   0  0  0  0  0  0  0  0  0  0  0  0
   -4.3264    1.5063    2.8988 C   0  0  0  0  0  0  0  0  0  0  0  0
   -4.6826    0.0998    3.3723 C   0  0  0  0  0  0  0  0  0  0  0  0
   -2.7263   -0.0300   -1.1931 C   0  0  0  0  0  0  0  0  0  0  0  0
   -1.4656    0.5103   -0.9393 C   0  0  0  0  0  0  0  0  0  0  0  0
   -2.8536   -1.3800   -1.5202 C   0  0  0  0  0  0  0  0  0  0  0  0
   -0.3321   -0.2993   -1.0127 C   0  0  0  0  0  0  0  0  0  0  0  0
   -0.4594   -1.6493   -1.3400 C   0  0  0  0  0  0  0  0  0  0  0  0
    1.0013    0.2961   -0.7378 C   0  0  0  0  0  0  0  0  0  0  0  0
   -1.7201   -2.1896   -1.5939 C   0  0  0  0  0  0  0  0  0  0  0  0
    3.3551    1.5388   -0.2995 C   0  0  0  0  0  0  0  0  0  0  0  0
    4.2808   -0.3012    0.4873 C   0  0  0  0  0  0  0  0  0  0  0  0
    4.3973   -1.7149    0.8995 C   0  0  0  0  0  0  0  0  0  0  0  0
    4.6626    1.7561    0.0651 C   0  0  0  0  0  0  0  0  0  0  0  0
    2.3263    2.3711   -0.8492 C   0  0  0  0  0  0  0  0  0  0  0  0
    3.7337   -1.9945    2.2613 C   0  0  0  0  0  0  0  0  0  0  0  0
    5.4477    2.9983   -0.0100 C   0  0  0  0  0  0  0  0  0  0  0  0
    4.3709   -1.2020    3.3917 C   0  0  0  0  0  0  0  0  0  0  0  0
    0.4479   -3.8349   -1.1042 C   0  0  0  0  0  0  0  0  0  0  0  0
    1.7378   -4.3930   -0.5419 C   0  0  0  0  0  0  0  0  0  0  0  0
   -3.4926    2.5115    1.2060 H   0  0  0  0  0  0  0  0  0  0  0  0
   -2.7072    0.9619    1.5865 H   0  0  0  0  0  0  0  0  0  0  0  0
   -3.9385   -1.2034    1.0250 H   0  0  0  0  0  0  0  0  0  0  0  0
   -5.5359   -1.0924    0.2429 H   0  0  0  0  0  0  0  0  0  0  0  0
   -5.2386    2.1147    2.8576 H   0  0  0  0  0  0  0  0  0  0  0  0
   -5.7205   -1.6517    2.6544 H   0  0  0  0  0  0  0  0  0  0  0  0
   -6.5123   -0.1250    2.2603 H   0  0  0  0  0  0  0  0  0  0  0  0
   -3.6539    1.9811    3.6217 H   0  0  0  0  0  0  0  0  0  0  0  0
   -5.2219    0.1528    4.3245 H   0  0  0  0  0  0  0  0  0  0  0  0
   -3.7636   -0.4710    3.5531 H   0  0  0  0  0  0  0  0  0  0  0  0
   -1.3904    1.5540   -0.6498 H   0  0  0  0  0  0  0  0  0  0  0  0
   -3.8245   -1.8211   -1.7271 H   0  0  0  0  0  0  0  0  0  0  0  0
   -1.8642   -3.2266   -1.8818 H   0  0  0  0  0  0  0  0  0  0  0  0
    3.9540   -2.3660    0.1379 H   0  0  0  0  0  0  0  0  0  0  0  0
    5.4581   -1.9895    0.9540 H   0  0  0  0  0  0  0  0  0  0  0  0
    0.3763    2.1711   -1.4631 H   0  0  0  0  0  0  0  0  0  0  0  0
    2.6618   -1.7685    2.2205 H   0  0  0  0  0  0  0  0  0  0  0  0
    3.8265   -3.0646    2.4809 H   0  0  0  0  0  0  0  0  0  0  0  0
    6.4673    2.8438    0.3572 H   0  0  0  0  0  0  0  0  0  0  0  0
    5.5124    3.3526   -1.0436 H   0  0  0  0  0  0  0  0  0  0  0  0
    4.9869    3.7838    0.5971 H   0  0  0  0  0  0  0  0  0  0  0  0
    5.4487   -1.3865    3.4435 H   0  0  0  0  0  0  0  0  0  0  0  0
    4.2085   -0.1263    3.2740 H   0  0  0  0  0  0  0  0  0  0  0  0
    3.9320   -1.4986    4.3499 H   0  0  0  0  0  0  0  0  0  0  0  0
   -0.3305   -3.9815   -0.3448 H   0  0  0  0  0  0  0  0  0  0  0  0
    0.1794   -4.3777   -2.0172 H   0  0  0  0  0  0  0  0  0  0  0  0
    2.5653   -4.2389   -1.2420 H   0  0  0  0  0  0  0  0  0  0  0  0
    2.0030   -3.8795    0.3875 H   0  0  0  0  0  0  0  0  0  0  0  0
    1.6437   -5.4627   -0.3348 H   0  0  0  0  0  0  0  0  0  0  0  0
  1  2  2  0  0  0  0
  1  3  2  0  0  0  0
  1  6  1  0  0  0  0
  1 16  1  0  0  0  0
  4 20  1  0  0  0  0
  4 31  1  0  0  0  0
  5 27  2  0  0  0  0
  6 11  1  0  0  0  0
  6 12  1  0  0  0  0
  7  9  1  0  0  0  0
  7 23  1  0  0  0  0
  7 24  1  0  0  0  0
  8 21  1  0  0  0  0
  8 27  1  0  0  0  0
  8 48  1  0  0  0  0
  9 21  2  0  0  0  0
 10 24  2  0  0  0  0
 10 26  1  0  0  0  0
 11 13  1  0  0  0  0
 11 35  1  0  0  0  0
 11 36  1  0  0  0  0
 12 14  1  0  0  0  0
 12 33  1  0  0  0  0
 12 34  1  0  0  0  0
 13 15  1  0  0  0  0
 13 38  1  0  0  0  0
 13 39  1  0  0  0  0
 14 15  1  0  0  0  0
 14 37  1  0  0  0  0
 14 40  1  0  0  0  0
 15 41  1  0  0  0  0
 15 42  1  0  0  0  0
 16 17  2  0  0  0  0
 16 18  1  0  0  0  0
 17 19  1  0  0  0  0
 17 43  1  0  0  0  0
 18 22  2  0  0  0  0
 18 44  1  0  0  0  0
 19 20  2  0  0  0  0
 19 21  1  0  0  0  0
 20 22  1  0  0  0  0
 22 45  1  0  0  0  0
 23 26  2  0  0  0  0
 23 27  1  0  0  0  0
 24 25  1  0  0  0  0
 25 28  1  0  0  0  0
 25 46  1  0  0  0  0
 25 47  1  0  0  0  0
 26 29  1  0  0  0  0
 28 30  1  0  0  0  0
 28 49  1  0  0  0  0
 28 50  1  0  0  0  0
 29 51  1  0  0  0  0
 29 52  1  0  0  0  0
 29 53  1  0  0  0  0
 30 54  1  0  0  0  0
 30 55  1  0  0  0  0
 30 56  1  0  0  0  0
 31 32  1  0  0  0  0
 31 57  1  0  0  0  0
 31 58  1  0  0  0  0
 32 59  1  0  0  0  0
 32 60  1  0  0  0  0
 32 61  1  0  0  0  0
M  END
> <PUBCHEM_COMPOUND_CID>
135565220

> <PUBCHEM_CONFORMER_RMSD>
1

> <PUBCHEM_CONFORMER_DIVERSEORDER>
10
8
3
49
27
74
37
28
40
56
34
45
60
71
25
85
44
84
75
82
24
18
30
65
46
59
83
52
70
48
31
69
33
26
57
19
67
41
38
61
78
68
62
16
20
79
63
39
73
17
42
58
80
13
55
64
81
22
47
77
2
54
76
51
35
9
66
53
43
4
15
36
72
1
50
29
32
23
12
11
14
5
21
7
6

> <PUBCHEM_MMFF94_PARTIAL_CHARGES>
30
1 1.45
10 -0.57
11 0.36
12 0.36
16 -0.01
17 -0.15
18 -0.15
19 0.09
2 -0.65
20 0.08
21 0.42
22 -0.15
23 -0.24
24 0.01
25 0.18
26 0.05
27 0.71
29 0.18
3 -0.65
31 0.28
4 -0.36
43 0.15
44 0.15
45 0.15
48 0.37
5 -0.57
6 -0.85
7 0.51
8 -0.49
9 -0.65

> <PUBCHEM_EFFECTIVE_ROTOR_COUNT>
8.2

> <PUBCHEM_PHARMACOPHORE_FEATURES>
11
1 2 acceptor
1 3 acceptor
1 30 hydrophobe
1 4 acceptor
1 5 acceptor
1 8 donor
3 7 10 24 cation
5 7 10 23 24 26 rings
6 16 17 18 19 20 22 rings
6 6 11 12 13 14 15 rings
6 7 8 9 21 23 27 rings

> <PUBCHEM_HEAVY_ATOM_COUNT>
32

> <PUBCHEM_ATOM_DEF_STEREO_COUNT>
0

> <PUBCHEM_ATOM_UDEF_STEREO_COUNT>
0

> <PUBCHEM_BOND_DEF_STEREO_COUNT>
0

> <PUBCHEM_BOND_UDEF_STEREO_COUNT>
0

> <PUBCHEM_ISOTOPIC_ATOM_COUNT>
0

> <PUBCHEM_COMPONENT_COUNT>
1

> <PUBCHEM_CACTVS_TAUTO_COUNT>
-1

> <PUBCHEM_CONFORMER_ID>
08148FA40000000A

> <PUBCHEM_MMFF94_ENERGY>
54.3664

> <PUBCHEM_FEATURE_SELFOVERLAP>
55.961

> <PUBCHEM_SHAPE_FINGERPRINT>
10674148 151 17988375819355617326
10838868 217 17046842850111995409
11578080 2 13039188121954131211
12128747 34 17096355151626928341
12390115 104 18129673030993992412
12422481 6 18197214745987691618
12788726 201 17697601352573451039
12892183 10 17894347782684585501
13583140 156 17967249814896347213
13782708 43 15502365713290208816
14347329 18 16845300479197169400
14790565 3 18410848897998740148
14910302 57 15141228889294172539
14950920 106 18188223056366428265
15975801 100 16772134461595412656
16067690 210 16917067789085284464
16992727 255 8933629244612565691
20739085 24 18336270055078637012
21033650 10 16486431978054855581
21315759 148 17095242527169040400
21421861 104 17970039242206150736
21623969 137 17603585261904556208
21756936 100 17203341026223692133
21796203 349 18188770540585773954
23559900 14 17775564239565859102
3459 110 18187090576575150803
3459 39 17346320349873627769
4073 2 17167579392823355405
469060 322 18201723964345168265
5104073 3 18268982258588367786
563151 40 17611494182297970156
86090 222 16298397863190662800
8863177 126 17240483576823795658
9849439 229 15838756760575934897

> <PUBCHEM_SHAPE_MULTIPOLES>
614.01
13.15
3.92
2.87
2.48
2.44
3.17
-5.95
8.16
-4.21
-1.52
2.77
0.37
-2.37

> <PUBCHEM_SHAPE_SELFOVERLAP>
1296.591

> <PUBCHEM_SHAPE_VOLUME>
346

> <PUBCHEM_COORDINATE_TYPE>
2
5
10

$$$$
