135504642
  -OEChem-03292013293D

 61 63  0     0  0  0  0  0  0999 V2000
   -5.9789   -2.6888    1.4959 O   0  0  0  0  0  0  0  0  0  0  0  0
    0.4675    2.9707   -0.4493 O   0  0  0  0  0  0  0  0  0  0  0  0
    1.5107    4.3684    1.0060 O   0  0  0  0  0  0  0  0  0  0  0  0
   -2.7321    2.6332   -1.7136 O   0  0  0  0  0  0  0  0  0  0  0  0
   -4.7594    2.0287   -0.8859 O   0  0  0  0  0  0  0  0  0  0  0  0
    6.4762   -2.0483    1.0463 O   0  0  0  0  0  0  0  0  0  0  0  0
   -0.2379   -1.0647    0.3200 N   0  0  0  0  0  0  0  0  0  0  0  0
   -4.0932   -1.3075    1.5735 N   0  0  0  0  0  0  0  0  0  0  0  0
    4.1793   -2.1566    0.6942 N   0  0  0  0  0  0  0  0  0  0  0  0
    0.2752    0.7037    1.6375 C   0  0  0  0  0  0  0  0  0  0  0  0
   -0.8292   -0.0867    1.0792 C   0  0  0  0  0  0  0  0  0  0  0  0
    1.4418    0.1744    1.1973 C   0  0  0  0  0  0  0  0  0  0  0  0
   -3.6236   -1.0038   -0.5758 C   0  0  0  0  0  0  0  0  0  0  0  0
   -3.2284   -0.6922    0.7064 C   0  0  0  0  0  0  0  0  0  0  0  0
    1.1311   -0.9763    0.3398 C   0  0  0  0  0  0  0  0  0  0  0  0
    0.0556    1.8760    2.5300 C   0  0  0  0  0  0  0  0  0  0  0  0
   -2.1367    0.1146    1.2774 C   0  0  0  0  0  0  0  0  0  0  0  0
   -4.7656   -1.8364   -0.4759 C   0  0  0  0  0  0  0  0  0  0  0  0
   -2.9768   -0.5534   -1.8263 C   0  0  0  0  0  0  0  0  0  0  0  0
   -5.0338   -2.0078    0.8642 C   0  0  0  0  0  0  0  0  0  0  0  0
   -0.4069    3.1136    1.7701 C   0  0  0  0  0  0  0  0  0  0  0  0
    2.8367    0.6136    1.4811 C   0  0  0  0  0  0  0  0  0  0  0  0
    2.0094   -1.7675   -0.2865 C   0  0  0  0  0  0  0  0  0  0  0  0
   -3.7027    0.6072   -2.5287 C   0  0  0  0  0  0  0  0  0  0  0  0
   -5.5317   -2.4169   -1.5978 C   0  0  0  0  0  0  0  0  0  0  0  0
    3.4304   -1.5964   -0.2049 C   0  0  0  0  0  0  0  0  0  0  0  0
    4.1633   -0.7518   -1.1584 C   0  0  0  0  0  0  0  0  0  0  0  0
    0.6187    3.5667    0.7591 C   0  0  0  0  0  0  0  0  0  0  0  0
    5.4348   -0.8529   -0.7500 C   0  0  0  0  0  0  0  0  0  0  0  0
   -3.8112    1.8163   -1.6310 C   0  0  0  0  0  0  0  0  0  0  0  0
    5.4637   -1.7476    0.4329 C   0  0  0  0  0  0  0  0  0  0  0  0
    3.6309   -0.0083   -2.2534 C   0  0  0  0  0  0  0  0  0  0  0  0
    6.6810   -0.2453   -1.2811 C   0  0  0  0  0  0  0  0  0  0  0  0
    4.0420    1.2222   -2.5923 C   0  0  0  0  0  0  0  0  0  0  0  0
    0.9759    2.1187    3.0733 H   0  0  0  0  0  0  0  0  0  0  0  0
   -0.6760    1.6256    3.3079 H   0  0  0  0  0  0  0  0  0  0  0  0
   -2.4690    0.9027    1.9482 H   0  0  0  0  0  0  0  0  0  0  0  0
   -0.7443   -1.7763   -0.1843 H   0  0  0  0  0  0  0  0  0  0  0  0
   -2.9061   -1.3950   -2.5265 H   0  0  0  0  0  0  0  0  0  0  0  0
   -1.9441   -0.2417   -1.6388 H   0  0  0  0  0  0  0  0  0  0  0  0
   -4.0480   -1.2568    2.5823 H   0  0  0  0  0  0  0  0  0  0  0  0
   -0.5729    3.9420    2.4690 H   0  0  0  0  0  0  0  0  0  0  0  0
   -1.3624    2.9592    1.2568 H   0  0  0  0  0  0  0  0  0  0  0  0
    3.4135   -0.1539    1.9995 H   0  0  0  0  0  0  0  0  0  0  0  0
    2.8383    1.4704    2.1639 H   0  0  0  0  0  0  0  0  0  0  0  0
    3.3440    0.9768    0.5879 H   0  0  0  0  0  0  0  0  0  0  0  0
    1.6566   -2.5881   -0.9043 H   0  0  0  0  0  0  0  0  0  0  0  0
   -4.7162    0.3200   -2.8308 H   0  0  0  0  0  0  0  0  0  0  0  0
   -3.1744    0.8902   -3.4462 H   0  0  0  0  0  0  0  0  0  0  0  0
   -4.8647   -2.8949   -2.3223 H   0  0  0  0  0  0  0  0  0  0  0  0
   -6.2388   -3.1779   -1.2516 H   0  0  0  0  0  0  0  0  0  0  0  0
   -6.1038   -1.6399   -2.1143 H   0  0  0  0  0  0  0  0  0  0  0  0
   -5.8482   -2.5758    2.4537 H   0  0  0  0  0  0  0  0  0  0  0  0
    2.8323   -0.4703   -2.8264 H   0  0  0  0  0  0  0  0  0  0  0  0
    6.9839    0.6052   -0.6626 H   0  0  0  0  0  0  0  0  0  0  0  0
    6.5750    0.0942   -2.3148 H   0  0  0  0  0  0  0  0  0  0  0  0
    7.4957   -0.9774   -1.2761 H   0  0  0  0  0  0  0  0  0  0  0  0
    1.1521    3.2604   -1.0893 H   0  0  0  0  0  0  0  0  0  0  0  0
   -2.8088    3.4036   -1.1113 H   0  0  0  0  0  0  0  0  0  0  0  0
    3.5841    1.7318   -3.4340 H   0  0  0  0  0  0  0  0  0  0  0  0
    4.8087    1.7587   -2.0448 H   0  0  0  0  0  0  0  0  0  0  0  0
  1 20  1  0  0  0  0
  1 53  1  0  0  0  0
  2 28  1  0  0  0  0
  2 58  1  0  0  0  0
  3 28  2  0  0  0  0
  4 30  1  0  0  0  0
  4 59  1  0  0  0  0
  5 30  2  0  0  0  0
  6 31  2  0  0  0  0
  7 11  1  0  0  0  0
  7 15  1  0  0  0  0
  7 38  1  0  0  0  0
  8 14  1  0  0  0  0
  8 20  1  0  0  0  0
  8 41  1  0  0  0  0
  9 26  2  0  0  0  0
  9 31  1  0  0  0  0
 10 11  1  0  0  0  0
 10 12  2  0  0  0  0
 10 16  1  0  0  0  0
 11 17  2  0  0  0  0
 12 15  1  0  0  0  0
 12 22  1  0  0  0  0
 13 14  2  0  0  0  0
 13 18  1  0  0  0  0
 13 19  1  0  0  0  0
 14 17  1  0  0  0  0
 15 23  2  0  0  0  0
 16 21  1  0  0  0  0
 16 35  1  0  0  0  0
 16 36  1  0  0  0  0
 17 37  1  0  0  0  0
 18 20  2  0  0  0  0
 18 25  1  0  0  0  0
 19 24  1  0  0  0  0
 19 39  1  0  0  0  0
 19 40  1  0  0  0  0
 21 28  1  0  0  0  0
 21 42  1  0  0  0  0
 21 43  1  0  0  0  0
 22 44  1  0  0  0  0
 22 45  1  0  0  0  0
 22 46  1  0  0  0  0
 23 26  1  0  0  0  0
 23 47  1  0  0  0  0
 24 30  1  0  0  0  0
 24 48  1  0  0  0  0
 24 49  1  0  0  0  0
 25 50  1  0  0  0  0
 25 51  1  0  0  0  0
 25 52  1  0  0  0  0
 26 27  1  0  0  0  0
 27 29  2  0  0  0  0
 27 32  1  0  0  0  0
 29 31  1  0  0  0  0
 29 33  1  0  0  0  0
 32 34  2  0  0  0  0
 32 54  1  0  0  0  0
 33 55  1  0  0  0  0
 33 56  1  0  0  0  0
 33 57  1  0  0  0  0
 34 60  1  0  0  0  0
 34 61  1  0  0  0  0
M  END
> <PUBCHEM_COMPOUND_CID>
135504642

> <PUBCHEM_CONFORMER_RMSD>
1

> <PUBCHEM_CONFORMER_DIVERSEORDER>
5
30
52
40
20
54
11
17
64
63
10
44
27
47
46
50
33
1
53
62
55
25
60
41
66
57
18
29
16
58
48
34
42
32
49
36
59
9
23
22
56
43
45
21
12
65
6
51
28
37
26
4
38
2
61
35
15
13
7
14
31
19
3
24
39
8

> <PUBCHEM_MMFF94_PARTIAL_CHARGES>
44
1 -0.51
10 -0.14
11 0.1
12 -0.14
13 -0.18
14 -0.2
15 0.1
16 0.14
17 -0.11
18 -0.18
19 0.18
2 -0.65
20 -0.09
21 0.06
22 0.14
23 -0.14
24 0.06
25 0.18
26 0.42
27 0.01
28 0.66
29 -0.12
3 -0.57
30 0.66
31 0.77
32 -0.15
33 0.14
34 -0.3
37 0.15
38 0.4
4 -0.65
41 0.27
47 0.15
5 -0.57
53 0.45
54 0.15
58 0.5
59 0.5
6 -0.57
60 0.15
61 0.15
7 -0.6
8 0.03
9 -0.66

> <PUBCHEM_EFFECTIVE_ROTOR_COUNT>
9

> <PUBCHEM_PHARMACOPHORE_FEATURES>
18
1 1 donor
1 2 acceptor
1 3 acceptor
1 34 hydrophobe
1 4 acceptor
1 5 acceptor
1 6 acceptor
1 7 cation
1 7 donor
1 8 cation
1 8 donor
1 9 acceptor
1 9 donor
3 2 3 28 anion
3 4 5 30 anion
5 7 10 11 12 15 rings
5 8 13 14 18 20 rings
5 9 26 27 29 31 rings

> <PUBCHEM_HEAVY_ATOM_COUNT>
34

> <PUBCHEM_ATOM_DEF_STEREO_COUNT>
0

> <PUBCHEM_ATOM_UDEF_STEREO_COUNT>
0

> <PUBCHEM_BOND_DEF_STEREO_COUNT>
2

> <PUBCHEM_BOND_UDEF_STEREO_COUNT>
0

> <PUBCHEM_ISOTOPIC_ATOM_COUNT>
0

> <PUBCHEM_COMPONENT_COUNT>
1

> <PUBCHEM_CACTVS_TAUTO_COUNT>
-1

> <PUBCHEM_CONFORMER_ID>
0813A30200000005

> <PUBCHEM_MMFF94_ENERGY>
82.8199

> <PUBCHEM_FEATURE_SELFOVERLAP>
91.551

> <PUBCHEM_SHAPE_FINGERPRINT>
10764073 3 12103025378586447436
11007060 377 11026669551801583646
11488393 25 18268138936890714504
1200032 147 13768750267819748975
12160290 23 17341250359807526785
12166972 35 18187370947881929182
12422481 6 15195021448164676295
12553582 1 17703791396721130422
13673619 4 18337115665683922067
13690498 29 18335417980885895991
13782708 43 18262799713264650563
13911987 19 18336845164037507014
14251757 5 18192705657788223613
15183329 4 16226043358718189194
15775530 1 17831591133695022914
15815584 197 17979314781383003329
17980427 23 13470394604687805603
1813 80 17846788420094101542
21049683 271 18191320466009216771
21304303 282 17690832368082395428
329604 57 18259708912425646286
3493558 16 17241345679754785614
4098825 35 17967820426707154765
42767 28 16370717158519060023
46194498 28 18193540388850275381
469060 322 18128277635043480690
5081480 168 18343021133640655077
6523845 18 13190352235503890213
6669772 16 17980201112937353844
9981440 41 10809336755124380231

> <PUBCHEM_SHAPE_MULTIPOLES>
649.55
14.15
3.76
2.48
4.6
4.09
-0.94
-12.09
-4.14
-1.19
0.92
-0.63
0.82
0.74

> <PUBCHEM_SHAPE_SELFOVERLAP>
1400.31

> <PUBCHEM_SHAPE_VOLUME>
357.1

> <PUBCHEM_COORDINATE_TYPE>
2
5
10

$$$$
