REMARK  Name = 135596588
REMARK  5 active torsions:
REMARK  status: ('A' for Active; 'I' for Inactive)
REMARK    1  A    between atoms: C_5  and  O_19
REMARK    2  A    between atoms: C_8  and  O_21
REMARK    3  A    between atoms: C_9  and  O_13
REMARK    4  A    between atoms: C_10  and  O_15
REMARK    5  A    between atoms: C_11  and  O_17
REMARK                            x       y       z     vdW  Elec       q    Type
REMARK                         _______ _______ _______ _____ _____    ______ ____
ROOT
ATOM      1  O   UNL     1       0.438   2.619  -0.323  0.00  0.00    -0.283 OA
ATOM      2  O   UNL     1       1.378  -2.605   0.296  0.00  0.00    -0.283 OA
ATOM      3  C   UNL     1      -0.504   0.451  -0.140  0.00  0.00    +0.085 C 
ATOM      4  C   UNL     1      -0.258  -0.913   0.021  0.00  0.00    +0.082 C 
ATOM      5  C   UNL     1      -1.820   0.914  -0.264  0.00  0.00    +0.171 C 
ATOM      6  C   UNL     1       0.612   1.413  -0.183  0.00  0.00    +0.236 C 
ATOM      7  C   UNL     1       1.122  -1.415   0.152  0.00  0.00    +0.235 C 
ATOM      8  C   UNL     1      -1.328  -1.816   0.059  0.00  0.00    +0.140 C 
ATOM      9  C   UNL     1       1.991   0.881  -0.049  0.00  0.00    +0.214 C 
ATOM     10  C   UNL     1       2.227  -0.427   0.105  0.00  0.00    +0.214 C 
ATOM     11  C   UNL     1      -2.883   0.012  -0.226  0.00  0.00    +0.175 C 
ATOM     12  C   UNL     1      -2.637  -1.350  -0.065  0.00  0.00    +0.077 C 
ENDROOT
BRANCH   9  13
ATOM     13  O   UNL     1       3.034   1.787  -0.090  0.00  0.00    -0.465 OA
ATOM     14  C   UNL     1       3.339   2.256   1.208  0.00  0.00    +0.253 C 
ENDBRANCH   9  13
BRANCH  10  15
ATOM     15  O   UNL     1       3.519  -0.902   0.228  0.00  0.00    -0.465 OA
ATOM     16  C   UNL     1       4.059  -1.217  -1.040  0.00  0.00    +0.253 C 
ENDBRANCH  10  15
BRANCH  11  17
ATOM     17  O   UNL     1      -4.170   0.446  -0.345  0.00  0.00    -0.468 OA
ATOM     18  C   UNL     1      -4.851   0.788   0.860  0.00  0.00    +0.253 C 
ENDBRANCH  11  17
BRANCH   5  19
ATOM     19  O   UNL     1      -2.113   2.238  -0.422  0.00  0.00    -0.503 OA
ATOM     20  H   UNL     1      -1.423   2.871  -0.451  0.00  0.00    +0.292 HD
ENDBRANCH   5  19
BRANCH   8  21
ATOM     21  O   UNL     1      -1.155  -3.159   0.215  0.00  0.00    -0.505 OA
ATOM     22  H   UNL     1      -0.292  -3.513   0.302  0.00  0.00    +0.292 HD
ENDBRANCH   8  21
TORSDOF 5
