REMARK  Name = 135596590
REMARK  2 active torsions:
REMARK  status: ('A' for Active; 'I' for Inactive)
REMARK    1  A    between atoms: N_3  and  C_9
REMARK    2  A    between atoms: N_3  and  C_27
REMARK                            x       y       z     vdW  Elec       q    Type
REMARK                         _______ _______ _______ _____ _____    ______ ____
ROOT
ATOM      1  O   UNL     1       2.156  -3.744   0.481  0.00  0.00    -0.274 OA
ATOM      2  N   UNL     1       0.803  -1.877   0.052  0.00  0.00    -0.231 N 
ATOM      3  C   UNL     1       1.030  -3.268   0.306  0.00  0.00    +0.232 C 
ATOM      4  C   UNL     1      -0.168  -4.189   0.419  0.00  0.00    +0.095 C 
ENDROOT
BRANCH   2  11
ATOM      5  O   UNL     1       2.583   3.272  -0.458  0.00  0.00    -0.273 OA
ATOM      6  N   UNL     1       1.745   0.380  -0.162  0.00  0.00    -0.253 NA
ATOM      7  N   UNL     1       3.217  -1.269   0.132  0.00  0.00    -0.283 N 
ATOM      8  N   UNL     1       5.258   0.136   0.094  0.00  0.00    -0.361 NA
ATOM      9  N   UNL     1       4.743   2.459  -0.220  0.00  0.00    -0.246 N 
ATOM     10  N   UNL     1       6.959   1.742   0.011  0.00  0.00    -0.321 N 
ATOM     11  C   UNL     1       1.941  -0.965   0.014  0.00  0.00    +0.219 C 
ATOM     12  C   UNL     1       2.978   0.965  -0.153  0.00  0.00    +0.202 C 
ATOM     13  C   UNL     1       3.867  -0.068   0.029  0.00  0.00    +0.185 C 
ATOM     14  C   UNL     1       3.356   2.334  -0.295  0.00  0.00    +0.252 C 
ATOM     15  C   UNL     1       5.634   1.388  -0.033  0.00  0.00    +0.239 C 
ATOM     16  H   UNL     1       0.880   0.837  -0.272  0.00  0.00    +0.127 HD
ATOM     17  H   UNL     1       3.615  -2.160   0.265  0.00  0.00    +0.152 HD
ATOM     18  H   UNL     1       5.125   3.363  -0.304  0.00  0.00    +0.159 HD
ATOM     19  H   UNL     1       7.649   1.051   0.139  0.00  0.00    +0.146 HD
ATOM     20  H   UNL     1       7.220   2.686  -0.087  0.00  0.00    +0.146 HD
ENDBRANCH   2  11
BRANCH   2  27
ATOM     21  C   UNL     1      -2.237   0.077   0.645  0.00  0.00    +0.001 C 
ATOM     22  C   UNL     1      -2.970   1.096   1.492  0.00  0.00    -0.000 C 
ATOM     23  C   UNL     1      -3.052  -0.354  -0.426  0.00  0.00    -0.004 C 
ATOM     24  C   UNL     1      -4.301   1.194   0.775  0.00  0.00    -0.004 C 
ATOM     25  C   UNL     1      -4.323   0.334  -0.346  0.00  0.00    -0.018 C 
ATOM     26  C   UNL     1      -0.956  -0.416   0.822  0.00  0.00    +0.015 C 
ATOM     27  C   UNL     1      -0.485  -1.358  -0.093  0.00  0.00    +0.056 C 
ATOM     28  C   UNL     1      -2.584  -1.289  -1.334  0.00  0.00    +0.001 C 
ATOM     29  C   UNL     1      -1.291  -1.790  -1.161  0.00  0.00    +0.015 C 
ATOM     30  C   UNL     1      -5.389   1.984   1.102  0.00  0.00    -0.001 C 
ATOM     31  C   UNL     1      -5.446   0.260  -1.153  0.00  0.00    +0.052 C 
ATOM     32  C   UNL     1      -6.520   1.909   0.288  0.00  0.00    -0.004 C 
ATOM     33  C   UNL     1      -6.548   1.056  -0.829  0.00  0.00    -0.021 C 
ENDBRANCH   2  27
TORSDOF 2
