REMARK  Name = 135501639
REMARK  5 active torsions:
REMARK  status: ('A' for Active; 'I' for Inactive)
REMARK    1  A    between atoms: N_2  and  C1*_17
REMARK    2  A    between atoms: C2*_16  and  O2*_20
REMARK    3  A    between atoms: C3*_18  and  O3*_22
REMARK    4  A    between atoms: C4*_19  and  C5*_24
REMARK    5  A    between atoms: C5*_24  and  O5*_25
REMARK                            x       y       z     vdW  Elec       q    Type
REMARK                         _______ _______ _______ _____ _____    ______ ____
ROOT
ATOM      1  O   UNL     1      -3.429   2.898  -0.491  0.00  0.00    -0.268 OA
ATOM      2  N   UNL     1       0.444   0.652   0.121  0.00  0.00    -0.237 N 
ATOM      3  N   UNL     1      -0.477   2.654  -0.267  0.00  0.00    -0.240 NA
ATOM      4  N   UNL     1      -1.537  -0.735   0.227  0.00  0.00    -0.356 NA
ATOM      5  N   UNL     1      -3.501   0.595  -0.115  0.00  0.00    -0.242 N 
ATOM      6  N   UNL     1      -3.668  -1.724   0.257  0.00  0.00    -0.268 N 
ATOM      7  C   UNL     1      -0.904   0.449   0.071  0.00  0.00    +0.211 C 
ATOM      8  C   UNL     1       0.651   1.994  -0.088  0.00  0.00    +0.224 C 
ATOM      9  C   UNL     1      -1.439   1.692  -0.168  0.00  0.00    +0.176 C 
ATOM     10  C   UNL     1      -2.864   1.833  -0.280  0.00  0.00    +0.273 C 
ATOM     11  C   UNL     1      -2.845  -0.635   0.129  0.00  0.00    +0.246 C 
ATOM     12  C   UNL     1      -4.902  -1.631   1.006  0.00  0.00    +0.116 C 
ATOM     13  C   UNL     1      -3.212  -3.041  -0.130  0.00  0.00    +0.116 C 
ATOM     14  H   UNL     1      -4.484   0.580  -0.174  0.00  0.00    +0.159 HD
ENDROOT
BRANCH   2  17
ATOM     15  O4* UNL     1       2.650   0.177   1.050  0.00  0.00    -0.333 OA
ATOM     16  C2* UNL     1       2.069  -0.975  -0.934  0.00  0.00    +0.187 C 
ATOM     17  C1* UNL     1       1.516  -0.385   0.358  0.00  0.00    +0.226 C 
ATOM     18  C3* UNL     1       3.449  -1.433  -0.505  0.00  0.00    +0.171 C 
ATOM     19  C4* UNL     1       3.868  -0.330   0.459  0.00  0.00    +0.175 C 
BRANCH  16  20
ATOM     20  O2* UNL     1       1.274  -2.025  -1.447  0.00  0.00    -0.378 OA
ATOM     21  H2* UNL     1       0.406  -1.676  -1.705  0.00  0.00    +0.211 HD
ENDBRANCH  16  20
BRANCH  18  22
ATOM     22  O3* UNL     1       3.361  -2.652   0.232  0.00  0.00    -0.379 OA
ATOM     23  H3* UNL     1       3.095  -3.371  -0.362  0.00  0.00    +0.211 HD
ENDBRANCH  18  22
BRANCH  19  24
ATOM     24  C5* UNL     1       4.581   0.825  -0.229  0.00  0.00    +0.169 C 
BRANCH  24  25
ATOM     25  O5* UNL     1       4.917   1.796   0.746  0.00  0.00    -0.379 OA
ATOM     26  H5* UNL     1       5.373   2.539   0.320  0.00  0.00    +0.211 HD
ENDBRANCH  24  25
ENDBRANCH  19  24
ENDBRANCH   2  17
TORSDOF 5
