REMARK  Name = 135567181
REMARK  5 active torsions:
REMARK  status: ('A' for Active; 'I' for Inactive)
REMARK    1  A    between atoms: C_1  and  C_14
REMARK    2  A    between atoms: C_2  and  O_32
REMARK    3  A    between atoms: C_4  and  N_18
REMARK    4  A    between atoms: C_19  and  C_25
REMARK    5  A    between atoms: O_32  and  C_33
REMARK                            x       y       z     vdW  Elec       q    Type
REMARK                         _______ _______ _______ _____ _____    ______ ____
ROOT
ATOM      1  C   UNL     1      -2.218  -1.044  -0.972  0.00  0.00    +0.089 C 
ATOM      2  C   UNL     1      -0.928  -0.605  -0.670  0.00  0.00    +0.156 C 
ATOM      3  C   UNL     1      -2.533  -2.399  -0.879  0.00  0.00    +0.008 C 
ATOM      4  C   UNL     1       0.046  -1.522  -0.276  0.00  0.00    +0.085 C 
ATOM      5  C   UNL     1      -1.559  -3.316  -0.485  0.00  0.00    +0.002 C 
ATOM      6  C   UNL     1      -0.270  -2.878  -0.183  0.00  0.00    +0.018 C 
ENDROOT
BRANCH   1  14
ATOM      7  O   UNL     1      -3.034   0.543  -2.416  0.00  0.00    -0.270 OA
ATOM      8  N   UNL     1      -4.414   0.000  -0.608  0.00  0.00    -0.280 N 
ATOM      9  N   UNL     1      -6.348   0.893   1.307  0.00  0.00    +0.388 N 
ATOM     10  C   UNL     1      -4.719  -0.819   0.570  0.00  0.00    +0.071 C 
ATOM     11  C   UNL     1      -5.475   0.926  -0.999  0.00  0.00    +0.071 C 
ATOM     12  C   UNL     1      -5.222   0.047   1.728  0.00  0.00    -0.055 C 
ATOM     13  C   UNL     1      -5.949   1.761   0.190  0.00  0.00    -0.055 C 
ATOM     14  C   UNL     1      -3.260  -0.097  -1.389  0.00  0.00    +0.252 C 
ATOM     15  C   UNL     1      -6.837   1.692   2.430  0.00  0.00    -0.101 C 
ATOM     16  H   UNL     1      -7.105   0.287   0.991  0.00  0.00    -0.080 HD
ENDBRANCH   1  14
BRANCH   4  18
ATOM     17  O   UNL     1       2.457  -3.106   0.541  0.00  0.00    -0.270 OA
ATOM     18  N   UNL     1       1.342  -1.100   0.030  0.00  0.00    -0.278 N 
ATOM     19  C   UNL     1       2.437  -1.887   0.408  0.00  0.00    +0.251 C 
ATOM     20  H   UNL     1       1.506  -0.131  -0.028  0.00  0.00    +0.155 HD
BRANCH  19  25
ATOM     21  S   UNL     1       6.016  -0.519   1.606  0.00  0.00    -0.099 S 
ATOM     22  O   UNL     1       7.052   2.132   0.285  0.00  0.00    -0.274 OA
ATOM     23  N   UNL     1       3.342   0.727  -0.964  0.00  0.00    -0.251 NA
ATOM     24  N   UNL     1       5.152   2.311  -1.019  0.00  0.00    -0.283 N 
ATOM     25  C   UNL     1       3.703  -1.144   0.641  0.00  0.00    +0.074 C 
ATOM     26  C   UNL     1       4.109   0.054   0.006  0.00  0.00    +0.079 C 
ATOM     27  C   UNL     1       5.335   0.498   0.434  0.00  0.00    +0.168 C 
ATOM     28  C   UNL     1       4.656  -1.572   1.545  0.00  0.00    +0.037 C 
ATOM     29  C   UNL     1       5.960   1.695  -0.065  0.00  0.00    +0.240 C 
ATOM     30  C   UNL     1       3.917   1.804  -1.407  0.00  0.00    +0.218 C 
ATOM     31  H   UNL     1       5.470   3.143  -1.438  0.00  0.00    +0.151 HD
ENDBRANCH  19  25
ENDBRANCH   4  18
BRANCH   2  32
ATOM     32  O   UNL     1      -0.621   0.722  -0.761  0.00  0.00    -0.478 OA
BRANCH  32  33
ATOM     33  C   UNL     1      -0.815   1.511   0.409  0.00  0.00    +0.166 C 
ATOM     34  C   UNL     1      -1.842   2.594   0.119  0.00  0.00    +0.047 C 
ATOM     35  C   UNL     1       0.520   2.097   0.845  0.00  0.00    +0.047 C 
ENDBRANCH  32  33
ENDBRANCH   2  32
TORSDOF 5
