REMARK  Name = 135538672
REMARK  3 active torsions:
REMARK  status: ('A' for Active; 'I' for Inactive)
REMARK    1  A    between atoms: N_2  and  C_17
REMARK    2  A    between atoms: C_20  and  C_21
REMARK    3  A    between atoms: C_21  and  O_22
REMARK                            x       y       z     vdW  Elec       q    Type
REMARK                         _______ _______ _______ _____ _____    ______ ____
ROOT
ATOM      1  O   UNL     1      -3.888   2.194  -0.173  0.00  0.00    -0.268 OA
ATOM      2  N   UNL     1       0.081   0.058   0.142  0.00  0.00    -0.239 N 
ATOM      3  N   UNL     1      -0.922   2.043  -0.093  0.00  0.00    -0.240 NA
ATOM      4  N   UNL     1      -1.845  -1.403   0.258  0.00  0.00    -0.357 NA
ATOM      5  N   UNL     1      -3.866  -0.128   0.078  0.00  0.00    -0.243 N 
ATOM      6  N   UNL     1      -3.938  -2.468   0.327  0.00  0.00    -0.321 N 
ATOM      7  C   UNL     1      -1.260  -0.191   0.140  0.00  0.00    +0.211 C 
ATOM      8  C   UNL     1       0.234   1.415  -0.001  0.00  0.00    +0.224 C 
ATOM      9  C   UNL     1      -1.846   1.043  -0.005  0.00  0.00    +0.176 C 
ATOM     10  C   UNL     1      -3.279   1.139  -0.046  0.00  0.00    +0.273 C 
ATOM     11  C   UNL     1      -3.159  -1.345   0.224  0.00  0.00    +0.239 C 
ATOM     12  H   UNL     1      -4.849  -0.174   0.062  0.00  0.00    +0.159 HD
ATOM     13  H   UNL     1      -3.517  -3.352   0.431  0.00  0.00    +0.146 HD
ATOM     14  H   UNL     1      -4.920  -2.391   0.298  0.00  0.00    +0.146 HD
ENDROOT
BRANCH   2  17
ATOM     15  F   UNL     1       2.655   0.514  -1.796  0.00  0.00    -0.234 F 
ATOM     16  O   UNL     1       2.341  -0.389   0.949  0.00  0.00    -0.335 OA
ATOM     17  C   UNL     1       1.199  -0.954   0.274  0.00  0.00    +0.198 C 
ATOM     18  C   UNL     1       1.695  -1.483  -1.073  0.00  0.00    +0.089 C 
ATOM     19  C   UNL     1       2.970  -0.709  -1.294  0.00  0.00    +0.195 C 
ATOM     20  C   UNL     1       3.500  -0.564   0.117  0.00  0.00    +0.179 C 
BRANCH  20  21
ATOM     21  C   UNL     1       4.457   0.596   0.309  0.00  0.00    +0.170 C 
BRANCH  21  22
ATOM     22  O   UNL     1       4.871   0.632   1.666  0.00  0.00    -0.379 OA
ATOM     23  H   UNL     1       5.484   1.372   1.797  0.00  0.00    +0.211 HD
ENDBRANCH  21  22
ENDBRANCH  20  21
ENDBRANCH   2  17
TORSDOF 3
