REMARK  Name = 135532321
REMARK  4 active torsions:
REMARK  status: ('A' for Active; 'I' for Inactive)
REMARK    1  A    between atoms: C_7  and  C_20
REMARK    2  A    between atoms: C_10  and  O_15
REMARK    3  A    between atoms: C_11  and  O_17
REMARK    4  A    between atoms: C_20  and  O_21
REMARK                            x       y       z     vdW  Elec       q    Type
REMARK                         _______ _______ _______ _____ _____    ______ ____
ROOT
ATOM      1  N   UNL     1       0.202   1.182  -0.002  0.00  0.00    -0.396 NA
ATOM      2  N   UNL     1       0.956  -1.467   0.000  0.00  0.00    -0.394 NA
ATOM      3  C   UNL     1      -0.727   0.213  -0.014  0.00  0.00    +0.167 C 
ATOM      4  C   UNL     1      -0.344  -1.132  -0.013  0.00  0.00    +0.164 C 
ATOM      5  C   UNL     1       1.885  -0.497   0.012  0.00  0.00    +0.194 C 
ATOM      6  C   UNL     1       1.502   0.848   0.011  0.00  0.00    +0.164 C 
ATOM      7  C   UNL     1      -2.082   0.534  -0.028  0.00  0.00    +0.110 C 
ATOM      8  C   UNL     1      -1.327  -2.119  -0.026  0.00  0.00    +0.071 C 
ATOM      9  C   UNL     1      -3.061  -0.458  -0.041  0.00  0.00    +0.046 C 
ATOM     10  C   UNL     1       3.241  -0.818   0.026  0.00  0.00    +0.166 C 
ATOM     11  C   UNL     1      -2.682  -1.791  -0.040  0.00  0.00    +0.137 C 
ATOM     12  C   UNL     1       2.486   1.835   0.025  0.00  0.00    +0.035 C 
ATOM     13  C   UNL     1       4.220   0.173   0.039  0.00  0.00    +0.039 C 
ATOM     14  C   UNL     1       3.840   1.507   0.038  0.00  0.00    +0.006 C 
ENDROOT
BRANCH  10  15
ATOM     15  O   UNL     1       3.637  -2.126   0.027  0.00  0.00    -0.503 OA
ATOM     16  H   UNL     1       2.997  -2.810   0.019  0.00  0.00    +0.292 HD
ENDBRANCH  10  15
BRANCH  11  17
ATOM     17  O   UNL     1      -3.623  -2.773  -0.053  0.00  0.00    -0.505 OA
ATOM     18  H   UNL     1      -3.362  -3.673  -0.052  0.00  0.00    +0.292 HD
ENDBRANCH  11  17
BRANCH   7  20
ATOM     19  O   UNL     1      -1.891   2.867  -0.523  0.00  0.00    -0.245 OA
ATOM     20  C   UNL     1      -2.517   1.927  -0.028  0.00  0.00    +0.341 C 
BRANCH  20  21
ATOM     21  O   UNL     1      -3.717   2.094   0.588  0.00  0.00    -0.477 OA
ATOM     22  H   UNL     1      -4.163   1.355   0.952  0.00  0.00    +0.295 HD
ENDBRANCH  20  21
ENDBRANCH   7  20
TORSDOF 4
