REMARK  Name = 135565545
REMARK  5 active torsions:
REMARK  status: ('A' for Active; 'I' for Inactive)
REMARK    1  A    between atoms: C_5  and  N_24
REMARK    2  A    between atoms: C_12  and  C_19
REMARK    3  A    between atoms: C_25  and  C_27
REMARK    4  A    between atoms: C_27  and  C_28
REMARK    5  A    between atoms: C_27  and  N_34
REMARK                            x       y       z     vdW  Elec       q    Type
REMARK                         _______ _______ _______ _____ _____    ______ ____
ROOT
ATOM      1  O   UNL     1      -0.643   4.429  -0.049  0.00  0.00    -0.268 OA
ATOM      2  N   UNL     1      -2.049  -1.212  -0.138  0.00  0.00    -0.353 N 
ATOM      3  N   UNL     1      -2.766   3.747   0.263  0.00  0.00    -0.202 N 
ATOM      4  N   UNL     1      -3.894   3.026   0.408  0.00  0.00    -0.177 NA
ATOM      5  C   UNL     1       1.092   0.721  -0.546  0.00  0.00    +0.052 C 
ATOM      6  C   UNL     1      -1.650   0.981  -0.079  0.00  0.00    +0.023 A 
ATOM      7  C   UNL     1      -1.053  -0.271  -0.248  0.00  0.00    +0.058 A 
ATOM      8  C   UNL     1       0.315  -0.434  -0.483  0.00  0.00    +0.032 C 
ATOM      9  C   UNL     1      -0.864   2.132  -0.143  0.00  0.00    +0.058 C 
ATOM     10  C   UNL     1      -3.024   0.766   0.136  0.00  0.00    +0.038 A 
ATOM     11  C   UNL     1       0.518   1.981  -0.379  0.00  0.00    +0.019 C 
ATOM     12  C   UNL     1      -3.247  -0.594   0.095  0.00  0.00    +0.061 A 
ATOM     13  C   UNL     1      -1.432   3.480   0.027  0.00  0.00    +0.265 C 
ATOM     14  C   UNL     1      -4.036   1.746   0.358  0.00  0.00    +0.119 C 
ATOM     15  H   UNL     1      -1.920  -2.185  -0.215  0.00  0.00    +0.166 HD
ATOM     16  H   UNL     1      -2.937   4.713   0.346  0.00  0.00    +0.178 HD
ENDROOT
BRANCH  12  19
ATOM     17  N   UNL     1      -6.263  -2.588  -0.077  0.00  0.00    -0.208 N 
ATOM     18  N   UNL     1      -6.465  -2.109   1.163  0.00  0.00    -0.176 NA
ATOM     19  C   UNL     1      -4.520  -1.317   0.264  0.00  0.00    +0.053 C 
ATOM     20  C   UNL     1      -5.112  -2.144  -0.659  0.00  0.00    +0.087 C 
ATOM     21  C   UNL     1      -5.397  -1.333   1.365  0.00  0.00    +0.121 C 
ATOM     22  C   UNL     1      -7.227  -3.489  -0.662  0.00  0.00    +0.140 C 
ENDBRANCH  12  19
BRANCH   5  24
ATOM     23  O   UNL     1       2.806  -1.707  -0.954  0.00  0.00    -0.277 OA
ATOM     24  N   UNL     1       2.465   0.613  -0.778  0.00  0.00    -0.286 N 
ATOM     25  C   UNL     1       3.224  -0.553  -0.969  0.00  0.00    +0.206 C 
ATOM     26  H   UNL     1       2.963   1.462  -0.812  0.00  0.00    +0.155 HD
BRANCH  25  27
ATOM     27  C   UNL     1       4.702  -0.239  -1.195  0.00  0.00    +0.013 C 
BRANCH  27  28
ATOM     28  C   UNL     1       5.588  -0.893  -0.136  0.00  0.00    -0.011 C 
ATOM     29  C   UNL     1       5.187  -0.425   1.270  0.00  0.00    -0.002 C 
ATOM     30  C   UNL     1       7.068  -0.596  -0.410  0.00  0.00    -0.002 C 
ATOM     31  C   UNL     1       6.094  -1.023   2.342  0.00  0.00    -0.000 C 
ATOM     32  C   UNL     1       7.971  -1.194   0.666  0.00  0.00    -0.000 C 
ATOM     33  C   UNL     1       7.565  -0.734   2.062  0.00  0.00    -0.000 C 
ENDBRANCH  27  28
BRANCH  27  34
ATOM     34  N   UNL     1       5.046  -0.765  -2.514  0.00  0.00    +0.387 N 
ATOM     35  H   UNL     1       6.030  -0.577  -2.708  0.00  0.00    -0.089 HD
ATOM     36  H   UNL     1       4.467  -0.313  -3.222  0.00  0.00    -0.089 HD
ATOM     37  H   UNL     1       4.882  -1.771  -2.533  0.00  0.00    -0.089 HD
ENDBRANCH  27  34
ENDBRANCH  25  27
ENDBRANCH   5  24
TORSDOF 5
