REMARK  Name = 135538689
REMARK  5 active torsions:
REMARK  status: ('A' for Active; 'I' for Inactive)
REMARK    1  A    between atoms: N_2  and  C1*_17
REMARK    2  A    between atoms: C2*_16  and  O2*_20
REMARK    3  A    between atoms: C3*_18  and  O3*_22
REMARK    4  A    between atoms: C4*_19  and  C5*_24
REMARK    5  A    between atoms: C5*_24  and  O5*_25
REMARK                            x       y       z     vdW  Elec       q    Type
REMARK                         _______ _______ _______ _____ _____    ______ ____
ROOT
ATOM      1  O   UNL     1      -4.284   1.936  -0.439  0.00  0.00    -0.274 OA
ATOM      2  N   UNL     1      -0.042   0.446   0.135  0.00  0.00    -0.159 N 
ATOM      3  N   UNL     1       0.091   1.760  -0.140  0.00  0.00    -0.176 NA
ATOM      4  N   UNL     1      -1.742  -1.241   0.396  0.00  0.00    -0.360 NA
ATOM      5  N   UNL     1      -3.922  -0.312   0.066  0.00  0.00    -0.247 N 
ATOM      6  N   UNL     1      -3.655  -2.594   0.573  0.00  0.00    -0.321 N 
ATOM      7  C   UNL     1      -1.336   0.025   0.148  0.00  0.00    +0.198 C 
ATOM      8  C   UNL     1      -2.094   1.135  -0.136  0.00  0.00    +0.188 C 
ATOM      9  C   UNL     1      -1.171   2.175  -0.305  0.00  0.00    +0.109 C 
ATOM     10  C   UNL     1      -3.525   1.006  -0.194  0.00  0.00    +0.242 C 
ATOM     11  C   UNL     1      -3.048  -1.386   0.349  0.00  0.00    +0.239 C 
ATOM     12  H   UNL     1      -4.888  -0.506   0.050  0.00  0.00    +0.158 HD
ATOM     13  H   UNL     1      -3.110  -3.389   0.776  0.00  0.00    +0.146 HD
ATOM     14  H   UNL     1      -4.636  -2.668   0.530  0.00  0.00    +0.146 HD
ENDROOT
BRANCH   2  17
ATOM     15  O4* UNL     1       2.239   0.390   1.003  0.00  0.00    -0.332 OA
ATOM     16  C2* UNL     1       1.798  -0.958  -0.891  0.00  0.00    +0.188 C 
ATOM     17  C1* UNL     1       1.192  -0.388   0.387  0.00  0.00    +0.244 C 
ATOM     18  C3* UNL     1       3.245  -1.161  -0.490  0.00  0.00    +0.171 C 
ATOM     19  C4* UNL     1       3.505   0.051   0.396  0.00  0.00    +0.176 C 
BRANCH  16  20
ATOM     20  O2* UNL     1       1.169  -2.151  -1.316  0.00  0.00    -0.378 OA
ATOM     21  H2* UNL     1       0.249  -1.963  -1.559  0.00  0.00    +0.211 HD
ENDBRANCH  16  20
BRANCH  18  22
ATOM     22  O3* UNL     1       3.379  -2.331   0.315  0.00  0.00    -0.379 OA
ATOM     23  H3* UNL     1       3.217  -3.118  -0.229  0.00  0.00    +0.211 HD
ENDBRANCH  18  22
BRANCH  19  24
ATOM     24  C5* UNL     1       4.001   1.263  -0.381  0.00  0.00    +0.169 C 
BRANCH  24  25
ATOM     25  O5* UNL     1       4.201   2.333   0.526  0.00  0.00    -0.379 OA
ATOM     26  H5* UNL     1       4.517   3.112   0.043  0.00  0.00    +0.211 HD
ENDBRANCH  24  25
ENDBRANCH  19  24
ENDBRANCH   2  17
TORSDOF 5
