REMARK  Name = 135596623
REMARK  6 active torsions:
REMARK  status: ('A' for Active; 'I' for Inactive)
REMARK    1  A    between atoms: N_2  and  C_5
REMARK    2  A    between atoms: N_3  and  C_5
REMARK    3  A    between atoms: N_3  and  N_20
REMARK    4  A    between atoms: C_4  and  C_11
REMARK    5  A    between atoms: N_20  and  C_22
REMARK    6  A    between atoms: C_22  and  C_24
REMARK                            x       y       z     vdW  Elec       q    Type
REMARK                         _______ _______ _______ _____ _____    ______ ____
ROOT
ATOM      1  O   UNL     1       1.860   1.945   1.141  0.00  0.00    -0.267 OA
ATOM      2  N   UNL     1       1.019   0.117  -0.027  0.00  0.00    -0.283 N 
ATOM      3  C   UNL     1       2.034   0.922   0.484  0.00  0.00    +0.281 C 
ATOM      4  H   UNL     1       1.280  -0.682  -0.540  0.00  0.00    +0.151 HD
ENDROOT
BRANCH   3   9
ATOM      5 CL   UNL     1       4.948  -3.027  -0.244  0.00  0.00    -0.044 Cl
ATOM      6  N   UNL     1       3.567  -0.878   0.117  0.00  0.00    -0.378 NA
ATOM      7  N   UNL     1       5.736   0.879  -0.150  0.00  0.00    -0.367 NA
ATOM      8  N   UNL     1       7.173  -0.973  -0.506  0.00  0.00    -0.330 N 
ATOM      9  C   UNL     1       3.420   0.458   0.221  0.00  0.00    +0.229 C 
ATOM     10  C   UNL     1       4.486   1.321   0.089  0.00  0.00    +0.213 C 
ATOM     11  C   UNL     1       5.883  -0.457  -0.254  0.00  0.00    +0.220 C 
ATOM     12  C   UNL     1       4.817  -1.320  -0.122  0.00  0.00    +0.232 C 
ATOM     13  H   UNL     1       7.939  -0.361  -0.601  0.00  0.00    +0.145 HD
ATOM     14  H   UNL     1       7.307  -1.945  -0.587  0.00  0.00    +0.145 HD
ATOM     15  N   UNL     1       4.268   2.712   0.208  0.00  0.00    -0.331 N 
ATOM     16  H   UNL     1       5.022   3.338   0.116  0.00  0.00    +0.145 HD
ATOM     17  H   UNL     1       3.362   3.055   0.384  0.00  0.00    +0.145 HD
ENDBRANCH   3   9
BRANCH   2  18
ATOM     18  C   UNL     1      -0.326   0.366   0.140  0.00  0.00    +0.200 C 
BRANCH  18  19
ATOM     19  N   UNL     1      -1.212  -0.424  -0.361  0.00  0.00    -0.128 NA
BRANCH  19  20
ATOM     20  N   UNL     1      -2.475  -0.023  -0.104  0.00  0.00    -0.222 NA
ATOM     21  H   UNL     1      -2.694   0.563   0.656  0.00  0.00    +0.143 HD
BRANCH  20  22
ATOM     22  C   UNL     1      -3.490  -0.514  -1.020  0.00  0.00    +0.113 C 
BRANCH  22  24
ATOM     23 CL   UNL     1      -4.698  -2.168   1.291  0.00  0.00    -0.083 Cl
ATOM     24  C   UNL     1      -4.880  -0.170  -0.554  0.00  0.00    +0.006 C 
ATOM     25  C   UNL     1      -5.497  -0.868   0.483  0.00  0.00    +0.055 C 
ATOM     26  C   UNL     1      -5.551   0.876  -1.188  0.00  0.00    -0.002 C 
ATOM     27  C   UNL     1      -6.786  -0.521   0.887  0.00  0.00    +0.011 C 
ATOM     28  C   UNL     1      -6.840   1.223  -0.784  0.00  0.00    -0.000 C 
ATOM     29  C   UNL     1      -7.458   0.525   0.254  0.00  0.00    +0.001 C 
ENDBRANCH  22  24
ENDBRANCH  20  22
ENDBRANCH  19  20
ENDBRANCH  18  19
ENDBRANCH   2  18
TORSDOF 6
