REMARK  Name = 135566455
REMARK  8 active torsions:
REMARK  status: ('A' for Active; 'I' for Inactive)
REMARK    1  A    between atoms: C_6  and  C_16
REMARK    2  A    between atoms: C_16  and  C_17
REMARK    3  A    between atoms: C_17  and  C_18
REMARK    4  A    between atoms: C_18  and  C_19
REMARK    5  A    between atoms: C_19  and  C_22
REMARK    6  A    between atoms: C_22  and  P_23
REMARK    7  A    between atoms: P_23  and  O_25
REMARK    8  A    between atoms: P_23  and  O_27
REMARK                            x       y       z     vdW  Elec       q    Type
REMARK                         _______ _______ _______ _____ _____    ______ ____
ROOT
ATOM      1  O   UNL     1      -4.042   1.591  -1.762  0.00  0.00    -0.272 OA
ATOM      2  N   UNL     1      -2.742  -1.127  -1.724  0.00  0.00    -0.321 N 
ATOM      3  N   UNL     1      -1.863   0.150   1.477  0.00  0.00    -0.376 NA
ATOM      4  N   UNL     1      -3.169   1.835   0.373  0.00  0.00    -0.246 N 
ATOM      5  N   UNL     1      -2.334   2.186   2.534  0.00  0.00    -0.321 N 
ATOM      6  C   UNL     1      -1.575  -1.882   0.030  0.00  0.00    +0.020 C 
ATOM      7  C   UNL     1      -2.057  -0.591   0.304  0.00  0.00    +0.136 C 
ATOM      8  C   UNL     1      -2.770  -0.140  -0.778  0.00  0.00    +0.200 C 
ATOM      9  C   UNL     1      -2.017  -2.193  -1.241  0.00  0.00    +0.056 C 
ATOM     10  C   UNL     1      -3.396   1.147  -0.820  0.00  0.00    +0.254 C 
ATOM     11  C   UNL     1      -2.429   1.335   1.462  0.00  0.00    +0.237 C 
ATOM     12  H   UNL     1      -3.173  -1.083  -2.608  0.00  0.00    +0.148 HD
ATOM     13  H   UNL     1      -3.554   2.737   0.460  0.00  0.00    +0.159 HD
ATOM     14  H   UNL     1      -1.834   1.912   3.336  0.00  0.00    +0.146 HD
ATOM     15  H   UNL     1      -2.766   3.070   2.500  0.00  0.00    +0.146 HD
ENDROOT
BRANCH   6  16
ATOM     16  C   UNL     1      -0.745  -2.763   0.929  0.00  0.00    +0.030 C 
BRANCH  16  17
ATOM     17  C   UNL     1       0.746  -2.780   0.575  0.00  0.00    +0.005 C 
BRANCH  17  18
ATOM     18  C   UNL     1       1.380  -1.384   0.581  0.00  0.00    +0.007 C 
BRANCH  18  19
ATOM     19  C   UNL     1       2.870  -1.453   0.249  0.00  0.00    +0.079 C 
BRANCH  19  22
ATOM     20  F   UNL     1       4.857  -0.226  -0.002  0.00  0.00    -0.191 F 
ATOM     21  F   UNL     1       3.454   0.455   1.522  0.00  0.00    -0.191 F 
ATOM     22  C   UNL     1       3.545  -0.107   0.298  0.00  0.00    +0.354 C 
BRANCH  22  23
ATOM     23  P   UNL     1       3.056   1.215  -0.742  0.00  0.00    +0.397 P 
ATOM     24  O   UNL     1       1.632   1.661  -0.587  0.00  0.00    -0.253 OA
BRANCH  23  25
ATOM     25  O   UNL     1       3.447   0.704  -2.225  0.00  0.00    -0.320 OA
ATOM     26  H   UNL     1       3.208   1.383  -2.875  0.00  0.00    +0.220 HD
ENDBRANCH  23  25
BRANCH  23  27
ATOM     27  O   UNL     1       4.152   2.369  -0.454  0.00  0.00    -0.320 OA
ATOM     28  H   UNL     1       3.952   3.148  -0.997  0.00  0.00    +0.220 HD
ENDBRANCH  23  27
ENDBRANCH  22  23
ENDBRANCH  19  22
ENDBRANCH  18  19
ENDBRANCH  17  18
ENDBRANCH  16  17
ENDBRANCH   6  16
TORSDOF 8
