135596588
  -OEChem-03292013293D

 32 33  0     0  0  0  0  0  0999 V2000
    3.0345    1.7866   -0.0899 O   0  0  0  0  0  0  0  0  0  0  0  0
    3.5192   -0.9023    0.2282 O   0  0  0  0  0  0  0  0  0  0  0  0
   -4.1695    0.4458   -0.3447 O   0  0  0  0  0  0  0  0  0  0  0  0
   -2.1134    2.2378   -0.4218 O   0  0  0  0  0  0  0  0  0  0  0  0
   -1.1550   -3.1590    0.2146 O   0  0  0  0  0  0  0  0  0  0  0  0
    0.4384    2.6185   -0.3226 O   0  0  0  0  0  0  0  0  0  0  0  0
    1.3777   -2.6054    0.2960 O   0  0  0  0  0  0  0  0  0  0  0  0
   -0.5045    0.4513   -0.1401 C   0  0  0  0  0  0  0  0  0  0  0  0
   -0.2584   -0.9129    0.0213 C   0  0  0  0  0  0  0  0  0  0  0  0
   -1.8198    0.9145   -0.2635 C   0  0  0  0  0  0  0  0  0  0  0  0
    0.6122    1.4133   -0.1832 C   0  0  0  0  0  0  0  0  0  0  0  0
    1.1222   -1.4154    0.1522 C   0  0  0  0  0  0  0  0  0  0  0  0
   -1.3279   -1.8156    0.0595 C   0  0  0  0  0  0  0  0  0  0  0  0
    1.9908    0.8814   -0.0494 C   0  0  0  0  0  0  0  0  0  0  0  0
    2.2271   -0.4275    0.1055 C   0  0  0  0  0  0  0  0  0  0  0  0
   -2.8828    0.0118   -0.2257 C   0  0  0  0  0  0  0  0  0  0  0  0
   -2.6374   -1.3504   -0.0647 C   0  0  0  0  0  0  0  0  0  0  0  0
    3.3392    2.2559    1.2080 C   0  0  0  0  0  0  0  0  0  0  0  0
    4.0585   -1.2167   -1.0399 C   0  0  0  0  0  0  0  0  0  0  0  0
   -4.8511    0.7879    0.8602 C   0  0  0  0  0  0  0  0  0  0  0  0
   -3.4682   -2.0515   -0.0363 H   0  0  0  0  0  0  0  0  0  0  0  0
   -1.3072    2.7748   -0.4209 H   0  0  0  0  0  0  0  0  0  0  0  0
   -0.2142   -3.3776    0.2916 H   0  0  0  0  0  0  0  0  0  0  0  0
    4.1527    2.9829    1.1246 H   0  0  0  0  0  0  0  0  0  0  0  0
    3.6814    1.4438    1.8588 H   0  0  0  0  0  0  0  0  0  0  0  0
    2.4812    2.7635    1.6628 H   0  0  0  0  0  0  0  0  0  0  0  0
    5.0700   -1.6071   -0.8922 H   0  0  0  0  0  0  0  0  0  0  0  0
    4.1324   -0.3280   -1.6765 H   0  0  0  0  0  0  0  0  0  0  0  0
    3.4706   -1.9909   -1.5451 H   0  0  0  0  0  0  0  0  0  0  0  0
   -5.8576    1.1269    0.6000 H   0  0  0  0  0  0  0  0  0  0  0  0
   -4.3325    1.5991    1.3809 H   0  0  0  0  0  0  0  0  0  0  0  0
   -4.9345   -0.0857    1.5145 H   0  0  0  0  0  0  0  0  0  0  0  0
  1 14  1  0  0  0  0
  1 18  1  0  0  0  0
  2 15  1  0  0  0  0
  2 19  1  0  0  0  0
  3 16  1  0  0  0  0
  3 20  1  0  0  0  0
  4 10  1  0  0  0  0
  4 22  1  0  0  0  0
  5 13  1  0  0  0  0
  5 23  1  0  0  0  0
  6 11  2  0  0  0  0
  7 12  2  0  0  0  0
  8  9  2  0  0  0  0
  8 10  1  0  0  0  0
  8 11  1  0  0  0  0
  9 12  1  0  0  0  0
  9 13  1  0  0  0  0
 10 16  2  0  0  0  0
 11 14  1  0  0  0  0
 12 15  1  0  0  0  0
 13 17  2  0  0  0  0
 14 15  2  0  0  0  0
 16 17  1  0  0  0  0
 17 21  1  0  0  0  0
 18 24  1  0  0  0  0
 18 25  1  0  0  0  0
 18 26  1  0  0  0  0
 19 27  1  0  0  0  0
 19 28  1  0  0  0  0
 19 29  1  0  0  0  0
 20 30  1  0  0  0  0
 20 31  1  0  0  0  0
 20 32  1  0  0  0  0
M  END
> <PUBCHEM_COMPOUND_CID>
135596588

> <PUBCHEM_CONFORMER_RMSD>
0.6

> <PUBCHEM_CONFORMER_DIVERSEORDER>
1
4
3
2

> <PUBCHEM_MMFF94_PARTIAL_CHARGES>
23
1 -0.36
10 0.08
11 0.47
12 0.47
13 0.08
14 0.09
15 0.09
16 0.08
17 -0.15
18 0.28
19 0.28
2 -0.36
20 0.28
21 0.15
22 0.45
23 0.45
3 -0.36
4 -0.53
5 -0.53
6 -0.57
7 -0.57
8 0.09
9 0.09

> <PUBCHEM_EFFECTIVE_ROTOR_COUNT>
3

> <PUBCHEM_PHARMACOPHORE_FEATURES>
9
1 1 acceptor
1 2 acceptor
1 3 acceptor
1 4 donor
1 5 donor
1 6 acceptor
1 7 acceptor
6 8 9 10 13 16 17 rings
6 8 9 11 12 14 15 rings

> <PUBCHEM_HEAVY_ATOM_COUNT>
20

> <PUBCHEM_ATOM_DEF_STEREO_COUNT>
0

> <PUBCHEM_ATOM_UDEF_STEREO_COUNT>
0

> <PUBCHEM_BOND_DEF_STEREO_COUNT>
0

> <PUBCHEM_BOND_UDEF_STEREO_COUNT>
0

> <PUBCHEM_ISOTOPIC_ATOM_COUNT>
0

> <PUBCHEM_COMPONENT_COUNT>
1

> <PUBCHEM_CACTVS_TAUTO_COUNT>
-1

> <PUBCHEM_CONFORMER_ID>
08150A2C00000001

> <PUBCHEM_MMFF94_ENERGY>
81.097

> <PUBCHEM_FEATURE_SELFOVERLAP>
45.71

> <PUBCHEM_SHAPE_FINGERPRINT>
10411042 1 17689996739667499675
10493431 412 18339644550621868521
10608611 8 18411977005149305784
10863032 1 18200876295748973690
10967382 1 18409445869067883583
11132069 177 18334848467647296873
11471102 20 18409725166860295597
11578080 2 17130134540886658475
11680986 33 18338519758389001834
12011746 2 18336550408784085743
12236239 1 17917709111626750557
12382932 28 18266733778294077600
12390115 104 17981620560641803472
12553582 1 18337383825718383942
13140716 1 18410006671859735442
13221675 6 18409167679815312703
14115302 16 18188224129971023934
14178342 30 18122051259292553120
14790565 3 18337126565519933620
15196674 1 18410574024154407399
15309172 13 18410016507587810283
15475509 8 17556046622019527308
15536298 74 18342455967204001412
16945 1 18336818719390647719
17804303 29 18411423899334780070
1813 80 14691752943588111556
18186145 218 18409725157990662789
19591789 44 18337113362911161199
20510252 161 17765719409127944976
20691752 17 17749661982396748186
20739085 24 18191046533459996529
21267235 1 18337963293915643551
21501502 16 18338793541100585767
23184049 59 18410297999617847945
2334 1 18265613367534676638
23402539 116 18342448206166670279
23558518 356 17611744900301489849
23559900 14 18341897458969964028
2748010 2 18337390556058613950
335352 9 18410293575332112975
350125 39 18337678490503081573
495365 180 17560793368767929960
5104073 3 18410855499099567891
58807428 26 18335409218529802123
69090 78 18412538829947889671
7364860 26 18343299254289520806
7832392 63 18339079396943970774
8809292 202 18333454252490908067
9709674 26 18268709579156423182

> <PUBCHEM_SHAPE_MULTIPOLES>
370.51
7.02
2.95
0.8
2.3
0.43
0.06
-1.46
0.48
-0.9
0.26
-0.25
-0.15
0.62

> <PUBCHEM_SHAPE_SELFOVERLAP>
808.1

> <PUBCHEM_SHAPE_VOLUME>
201.6

> <PUBCHEM_COORDINATE_TYPE>
2
5
10

$$$$
