135596587
  -OEChem-03292013293D

 42 43  0     0  0  0  0  0  0999 V2000
    5.3630   -3.0010   -0.1081 Cl  0  0  0  0  0  0  0  0  0  0  0  0
    2.1926    1.9749    1.0659 O   0  0  0  0  0  0  0  0  0  0  0  0
   -2.1014   -0.0971   -0.1503 N   0  0  0  0  0  0  0  0  0  0  0  0
   -0.8305   -0.4892   -0.3804 N   0  0  0  0  0  0  0  0  0  0  0  0
    1.3895    0.0944   -0.0434 N   0  0  0  0  0  0  0  0  0  0  0  0
    3.9487   -0.8596    0.1620 N   0  0  0  0  0  0  0  0  0  0  0  0
    6.0968    0.9170   -0.1474 N   0  0  0  0  0  0  0  0  0  0  0  0
    4.5997    2.7407    0.1306 N   0  0  0  0  0  0  0  0  0  0  0  0
    7.5625   -0.9269   -0.4218 N   0  0  0  0  0  0  0  0  0  0  0  0
   -4.4990   -0.2936   -0.6196 C   0  0  0  0  0  0  0  0  0  0  0  0
   -5.1041   -0.9716    0.4387 C   0  0  0  0  0  0  0  0  0  0  0  0
   -3.0999   -0.6342   -1.0591 C   0  0  0  0  0  0  0  0  0  0  0  0
   -7.0932    0.3717    0.1620 C   0  0  0  0  0  0  0  0  0  0  0  0
   -6.4011   -0.6388    0.8296 C   0  0  0  0  0  0  0  0  0  0  0  0
   -5.1910    0.7171   -1.2870 C   0  0  0  0  0  0  0  0  0  0  0  0
   -6.4882    1.0496   -0.8963 C   0  0  0  0  0  0  0  0  0  0  0  0
   -4.3829   -2.0571    1.1681 C   0  0  0  0  0  0  0  0  0  0  0  0
   -8.4802    0.7272    0.5791 C   0  0  0  0  0  0  0  0  0  0  0  0
    3.7827    0.4768    0.2157 C   0  0  0  0  0  0  0  0  0  0  0  0
    0.0398    0.3305    0.1003 C   0  0  0  0  0  0  0  0  0  0  0  0
    4.8378    1.3494    0.0636 C   0  0  0  0  0  0  0  0  0  0  0  0
    2.3880    0.9313    0.4484 C   0  0  0  0  0  0  0  0  0  0  0  0
    6.2626   -0.4195   -0.2012 C   0  0  0  0  0  0  0  0  0  0  0  0
    5.2076   -1.2921   -0.0492 C   0  0  0  0  0  0  0  0  0  0  0  0
   -2.9983   -1.7223   -1.1522 H   0  0  0  0  0  0  0  0  0  0  0  0
   -2.9196   -0.2404   -2.0679 H   0  0  0  0  0  0  0  0  0  0  0  0
   -6.8781   -1.1653    1.6530 H   0  0  0  0  0  0  0  0  0  0  0  0
   -4.7329    1.2561   -2.1121 H   0  0  0  0  0  0  0  0  0  0  0  0
   -7.0173    1.8378   -1.4253 H   0  0  0  0  0  0  0  0  0  0  0  0
   -4.0996   -2.8659    0.4873 H   0  0  0  0  0  0  0  0  0  0  0  0
   -5.0137   -2.5067    1.9435 H   0  0  0  0  0  0  0  0  0  0  0  0
   -3.4927   -1.6680    1.6713 H   0  0  0  0  0  0  0  0  0  0  0  0
   -9.2033    0.0903    0.0600 H   0  0  0  0  0  0  0  0  0  0  0  0
   -8.6110    0.6006    1.6592 H   0  0  0  0  0  0  0  0  0  0  0  0
   -8.7078    1.7737    0.3497 H   0  0  0  0  0  0  0  0  0  0  0  0
   -2.1835    0.9183   -0.0937 H   0  0  0  0  0  0  0  0  0  0  0  0
   -0.2008    1.2574    0.6499 H   0  0  0  0  0  0  0  0  0  0  0  0
    1.6636   -0.7503   -0.5384 H   0  0  0  0  0  0  0  0  0  0  0  0
    3.7009    3.0951   -0.1719 H   0  0  0  0  0  0  0  0  0  0  0  0
    5.4043    3.3455    0.0181 H   0  0  0  0  0  0  0  0  0  0  0  0
    7.7856   -1.8493   -0.0691 H   0  0  0  0  0  0  0  0  0  0  0  0
    8.3126   -0.2543   -0.5207 H   0  0  0  0  0  0  0  0  0  0  0  0
  1 24  1  0  0  0  0
  2 22  2  0  0  0  0
  3  4  1  0  0  0  0
  3 12  1  0  0  0  0
  3 36  1  0  0  0  0
  4 20  2  0  0  0  0
  5 20  1  0  0  0  0
  5 22  1  0  0  0  0
  5 38  1  0  0  0  0
  6 19  1  0  0  0  0
  6 24  2  0  0  0  0
  7 21  1  0  0  0  0
  7 23  2  0  0  0  0
  8 21  1  0  0  0  0
  8 39  1  0  0  0  0
  8 40  1  0  0  0  0
  9 23  1  0  0  0  0
  9 41  1  0  0  0  0
  9 42  1  0  0  0  0
 10 11  2  0  0  0  0
 10 12  1  0  0  0  0
 10 15  1  0  0  0  0
 11 14  1  0  0  0  0
 11 17  1  0  0  0  0
 12 25  1  0  0  0  0
 12 26  1  0  0  0  0
 13 14  2  0  0  0  0
 13 16  1  0  0  0  0
 13 18  1  0  0  0  0
 14 27  1  0  0  0  0
 15 16  2  0  0  0  0
 15 28  1  0  0  0  0
 16 29  1  0  0  0  0
 17 30  1  0  0  0  0
 17 31  1  0  0  0  0
 17 32  1  0  0  0  0
 18 33  1  0  0  0  0
 18 34  1  0  0  0  0
 18 35  1  0  0  0  0
 19 21  2  0  0  0  0
 19 22  1  0  0  0  0
 20 37  1  0  0  0  0
 23 24  1  0  0  0  0
M  END
> <PUBCHEM_COMPOUND_CID>
135596587

> <PUBCHEM_CONFORMER_RMSD>
1

> <PUBCHEM_CONFORMER_DIVERSEORDER>
1
114
45
30
29
92
184
20
136
129
64
150
44
101
165
40
146
183
23
154
83
5
145
11
99
24
131
27
155
18
65
138
56
126
175
88
25
103
19
151
160
26
143
58
179
153
110
166
159
28
176
120
50
182
180
38
12
78
57
157
167
168
55
186
47
41
16
54
113
86
61
2
162
31
84
134
89
82
119
34
60
147
123
181
53
69
80
122
116
87
163
111
77
152
133
107
144
93
14
85
21
106
135
22
49
72
66
37
52
9
118
104
17
173
71
98
102
158
95
94
132
8
149
67
105
148
70
130
169
97
75
76
4
178
36
46
140
73
108
164
121
39
142
127
172
51
125
128
117
96
7
124
174
42
13
68
139
156
3
81
33
170
109
90
79
171
137
112
6
91
141
115
35
100
32
59
62
74
15
10
43
177
63
185
161
48

> <PUBCHEM_MMFF94_PARTIAL_CHARGES>
34
1 -0.18
10 -0.14
11 -0.14
12 0.41
13 -0.14
14 -0.15
15 -0.15
16 -0.15
17 0.14
18 0.14
19 0.4
2 -0.57
20 0.45
21 0.41
22 0.54
23 0.41
24 0.49
27 0.15
28 0.15
29 0.15
3 -0.58
36 0.36
37 0.06
38 0.37
39 0.4
4 -0.5
40 0.4
41 0.4
42 0.4
5 -0.49
6 -0.62
7 -0.62
8 -0.9
9 -0.9

> <PUBCHEM_EFFECTIVE_ROTOR_COUNT>
6

> <PUBCHEM_PHARMACOPHORE_FEATURES>
10
1 2 acceptor
1 3 donor
1 5 donor
1 6 acceptor
1 8 cation
1 8 donor
1 9 donor
3 7 9 23 cation
6 10 11 13 14 15 16 rings
6 6 7 19 21 23 24 rings

> <PUBCHEM_HEAVY_ATOM_COUNT>
24

> <PUBCHEM_ATOM_DEF_STEREO_COUNT>
0

> <PUBCHEM_ATOM_UDEF_STEREO_COUNT>
0

> <PUBCHEM_BOND_DEF_STEREO_COUNT>
1

> <PUBCHEM_BOND_UDEF_STEREO_COUNT>
0

> <PUBCHEM_ISOTOPIC_ATOM_COUNT>
0

> <PUBCHEM_COMPONENT_COUNT>
1

> <PUBCHEM_CACTVS_TAUTO_COUNT>
-1

> <PUBCHEM_CONFORMER_ID>
08150A2B00000001

> <PUBCHEM_MMFF94_ENERGY>
75.6512

> <PUBCHEM_FEATURE_SELFOVERLAP>
50.747

> <PUBCHEM_SHAPE_FINGERPRINT>
10299344 5 18273214200933067791
11089746 13 15985103029047360507
11719270 70 17203328892382230782
11724838 91 11169916087210500384
12516196 113 8718830890333999839
13533116 47 18343862204327546202
13914758 101 17131837530432978843
14341114 176 18333449850645230413
14933364 13 18260829315043297181
15183329 4 17632860832355912829
15348495 7 18262800791036722939
15352257 5 18260267464454245891
15419008 47 18040711455007795333
15461852 350 18409440415715010871
17844677 252 18261115187987560181
20281389 69 18341891901092255385
21150785 3 15719398330128084254
21267235 1 18272092665757457214
220451 1 18131068276716010231
2303208 19 18113341911846336379
23035841 295 17675922101630370051
23081809 10 17846771945053196181
23559900 14 18335978753100773425
28498 318 18131071502500037614
29717793 49 17632580461597397044
3004659 81 18409163312524337888
3014965 18 18341327816739687526
328311 84 18333452036635663459
34797466 226 16877667868209552718
4073 2 18041283274052390546
439807 62 18261111829903435202
46194498 28 17967812761177287708
59755656 215 18187362091253598363
59755656 520 18412538834876301751

> <PUBCHEM_SHAPE_MULTIPOLES>
455.04
25.71
2.1
0.95
10.8
0.47
-0.05
0.99
0.13
-3.52
0.32
1.25
0.01
1.5

> <PUBCHEM_SHAPE_SELFOVERLAP>
951.865

> <PUBCHEM_SHAPE_VOLUME>
257.6

> <PUBCHEM_COORDINATE_TYPE>
2
5
10

$$$$
