REMARK  Name = 135554422
REMARK  8 active torsions:
REMARK  status: ('A' for Active; 'I' for Inactive)
REMARK    1  A    between atoms: N_2  and  C_15
REMARK    2  A    between atoms: N_3  and  C_21
REMARK    3  A    between atoms: C_15  and  C_16
REMARK    4  A    between atoms: C_16  and  C_18
REMARK    5  A    between atoms: C_18  and  O_19
REMARK    6  A    between atoms: C_21  and  C_22
REMARK    7  A    between atoms: C_22  and  C_24
REMARK    8  A    between atoms: C_24  and  O_25
REMARK                            x       y       z     vdW  Elec       q    Type
REMARK                         _______ _______ _______ _____ _____    ______ ____
ROOT
ATOM      1  O   UNL     1       2.599  -2.061   0.081  0.00  0.00    -0.273 OA
ATOM      2  N   UNL     1       1.072   0.332  -0.818  0.00  0.00    -0.242 NA
ATOM      3  N   UNL     1      -1.204   0.309  -0.881  0.00  0.00    -0.271 N 
ATOM      4  N   UNL     1      -1.497  -2.038  -0.035  0.00  0.00    -0.361 NA
ATOM      5  N   UNL     1       0.563  -3.116   0.410  0.00  0.00    -0.246 N 
ATOM      6  N   UNL     1      -1.458  -4.239   0.772  0.00  0.00    -0.321 N 
ATOM      7  C   UNL     1      -0.065   1.205  -1.131  0.00  0.00    +0.171 C 
ATOM      8  C   UNL     1       0.588  -0.896  -0.400  0.00  0.00    +0.204 C 
ATOM      9  C   UNL     1      -0.762  -0.943  -0.419  0.00  0.00    +0.188 C 
ATOM     10  C   UNL     1       1.376  -2.053   0.044  0.00  0.00    +0.252 C 
ATOM     11  C   UNL     1      -0.832  -3.090   0.366  0.00  0.00    +0.239 C 
ATOM     12  H   UNL     1       0.998  -3.943   0.721  0.00  0.00    +0.159 HD
ATOM     13  H   UNL     1      -2.441  -4.293   0.767  0.00  0.00    +0.146 HD
ATOM     14  H   UNL     1      -0.924  -5.012   1.068  0.00  0.00    +0.146 HD
ENDROOT
BRANCH   2  15
ATOM     15  C   UNL     1       2.429   0.799  -0.902  0.00  0.00    +0.086 C 
BRANCH  15  16
ATOM     16  C   UNL     1       2.905   1.296   0.458  0.00  0.00    +0.127 C 
BRANCH  16  18
ATOM     17  O   UNL     1       5.053   1.856  -0.549  0.00  0.00    -0.250 OA
ATOM     18  C   UNL     1       4.318   1.840   0.428  0.00  0.00    +0.315 C 
BRANCH  18  19
ATOM     19  O   UNL     1       4.686   2.328   1.641  0.00  0.00    -0.480 OA
ATOM     20  H   UNL     1       4.088   2.294   2.361  0.00  0.00    +0.295 HD
ENDBRANCH  18  19
ENDBRANCH  16  18
ENDBRANCH  15  16
ENDBRANCH   2  15
BRANCH   3  21
ATOM     21  C   UNL     1      -2.561   0.786  -0.937  0.00  0.00    +0.106 C 
BRANCH  21  22
ATOM     22  C   UNL     1      -2.950   1.439   0.385  0.00  0.00    +0.131 C 
BRANCH  22  24
ATOM     23  O   UNL     1      -5.168   1.869  -0.532  0.00  0.00    -0.250 OA
ATOM     24  C   UNL     1      -4.382   1.928   0.404  0.00  0.00    +0.316 C 
BRANCH  24  25
ATOM     25  O   UNL     1      -4.711   2.449   1.615  0.00  0.00    -0.480 OA
ATOM     26  H   UNL     1      -4.075   2.473   2.303  0.00  0.00    +0.295 HD
ENDBRANCH  24  25
ENDBRANCH  22  24
ENDBRANCH  21  22
ENDBRANCH   3  21
TORSDOF 8
