REMARK  Name = 135537107
REMARK  3 active torsions:
REMARK  status: ('A' for Active; 'I' for Inactive)
REMARK    1  A    between atoms: N_2  and  C_14
REMARK    2  A    between atoms: C_16  and  C_17
REMARK    3  A    between atoms: C_17  and  O_18
REMARK                            x       y       z     vdW  Elec       q    Type
REMARK                         _______ _______ _______ _____ _____    ______ ____
ROOT
ATOM      1  O   UNL     1      -4.368   1.405   0.186  0.00  0.00    -0.268 OA
ATOM      2  N   UNL     1      -0.035   0.132  -0.061  0.00  0.00    -0.248 N 
ATOM      3  N   UNL     1      -1.432   1.862   0.184  0.00  0.00    -0.241 NA
ATOM      4  N   UNL     1      -1.620  -1.692  -0.254  0.00  0.00    -0.232 NA
ATOM      5  N   UNL     1      -3.871  -0.858  -0.103  0.00  0.00    -0.279 N 
ATOM      6  C   UNL     1      -1.295  -0.387  -0.099  0.00  0.00    +0.154 C 
ATOM      7  C   UNL     1      -0.169   1.488   0.111  0.00  0.00    +0.223 C 
ATOM      8  C   UNL     1      -2.128   0.697   0.053  0.00  0.00    +0.162 C 
ATOM      9  C   UNL     1      -3.555   0.498   0.059  0.00  0.00    +0.267 C 
ATOM     10  C   UNL     1      -2.910  -1.865  -0.248  0.00  0.00    +0.220 C 
ATOM     11  H   UNL     1      -4.821  -1.116  -0.115  0.00  0.00    +0.152 HD
ENDROOT
BRANCH   2  14
ATOM     12  S   UNL     1       3.528  -1.458   0.818  0.00  0.00    -0.105 S 
ATOM     13  O   UNL     1       2.260   0.201  -0.819  0.00  0.00    -0.326 OA
ATOM     14  C   UNL     1       1.268  -0.623  -0.183  0.00  0.00    +0.207 C 
ATOM     15  C   UNL     1       1.815  -1.039   1.181  0.00  0.00    +0.111 C 
ATOM     16  C   UNL     1       3.534  -0.445  -0.683  0.00  0.00    +0.194 C 
BRANCH  16  17
ATOM     17  C   UNL     1       4.614   0.619  -0.626  0.00  0.00    +0.178 C 
BRANCH  17  18
ATOM     18  O   UNL     1       4.365   1.466   0.484  0.00  0.00    -0.379 OA
ATOM     19  H   UNL     1       5.051   2.150   0.529  0.00  0.00    +0.211 HD
ENDBRANCH  17  18
ENDBRANCH  16  17
ENDBRANCH   2  14
TORSDOF 3
