REMARK  Name = 135518
REMARK  5 active torsions:
REMARK  status: ('A' for Active; 'I' for Inactive)
REMARK    1  A    between atoms: C_2  and  O_16
REMARK    2  A    between atoms: C_3  and  N_8
REMARK    3  A    between atoms: C_5  and  C_18
REMARK    4  A    between atoms: C_18  and  O_19
REMARK    5  A    between atoms: O_19  and  S_20
REMARK                            x       y       z     vdW  Elec       q    Type
REMARK                         _______ _______ _______ _____ _____    ______ ____
ROOT
ATOM      1  O   UNL     1       1.167  -0.824   0.927  0.00  0.00    -0.335 OA
ATOM      2  C   UNL     1       2.043  -2.277  -0.729  0.00  0.00    +0.144 C 
ATOM      3  C   UNL     1       0.074  -1.571   0.373  0.00  0.00    +0.202 C 
ATOM      4  C   UNL     1       0.552  -2.163  -0.943  0.00  0.00    +0.083 C 
ATOM      5  C   UNL     1       2.357  -1.079   0.156  0.00  0.00    +0.175 C 
ENDROOT
BRANCH   3   8
ATOM      6  O   UNL     1      -2.647  -2.369   0.634  0.00  0.00    -0.252 OA
ATOM      7  O   UNL     1      -4.154   1.883  -0.262  0.00  0.00    -0.270 OA
ATOM      8  N   UNL     1      -1.060  -0.708   0.216  0.00  0.00    -0.219 N 
ATOM      9  N   UNL     1      -3.385  -0.244   0.185  0.00  0.00    -0.236 N 
ATOM     10  C   UNL     1      -0.837   0.629  -0.087  0.00  0.00    +0.071 C 
ATOM     11  C   UNL     1      -2.375  -1.197   0.365  0.00  0.00    +0.315 C 
ATOM     12  C   UNL     1      -1.805   1.538  -0.259  0.00  0.00    +0.047 C 
ATOM     13  C   UNL     1      -3.219   1.099  -0.118  0.00  0.00    +0.250 C 
ATOM     14  C   UNL     1      -1.544   2.973  -0.586  0.00  0.00    +0.037 C 
ATOM     15  H   UNL     1      -4.311  -0.561   0.283  0.00  0.00    +0.159 HD
ENDBRANCH   3   8
BRANCH   2  16
ATOM     16  O   UNL     1       2.337  -3.486  -0.032  0.00  0.00    -0.382 OA
ATOM     17  H   UNL     1       2.135  -4.245  -0.601  0.00  0.00    +0.210 HD
ENDBRANCH   2  16
BRANCH   5  18
ATOM     18  C   UNL     1       2.677   0.179  -0.641  0.00  0.00    +0.190 C 
BRANCH  18  19
ATOM     19  O   UNL     1       2.944   1.239   0.264  0.00  0.00    -0.297 OA
BRANCH  19  20
ATOM     20  S   UNL     1       3.312   2.689  -0.473  0.00  0.00    +0.005 S 
ATOM     21  C   UNL     1       3.563   3.688   1.010  0.00  0.00    +0.101 C 
ENDBRANCH  19  20
ENDBRANCH  18  19
ENDBRANCH   5  18
TORSDOF 5
