135530051
  -OEChem-03292013293D

 28 29  0     0  0  0  0  0  0999 V2000
   -2.4564    0.2440    0.0368 O   0  0  0  0  0  0  0  0  0  0  0  0
   -0.3052    3.4111   -0.0651 O   0  0  0  0  0  0  0  0  0  0  0  0
    3.9433    0.3204    0.9010 O   0  0  0  0  0  0  0  0  0  0  0  0
   -3.9398   -1.8893    1.0751 O   0  0  0  0  0  0  0  0  0  0  0  0
   -0.3399    1.0547   -0.4780 N   0  0  0  0  0  0  0  0  0  0  0  0
    1.5448    1.9781    0.3412 N   0  0  0  0  0  0  0  0  0  0  0  0
    0.4484   -1.2590   -0.5948 N   0  0  0  0  0  0  0  0  0  0  0  0
    2.6934   -1.5005    0.1527 N   0  0  0  0  0  0  0  0  0  0  0  0
    1.4820   -3.3667   -0.5905 N   0  0  0  0  0  0  0  0  0  0  0  0
    0.6109    0.0663   -0.3122 C   0  0  0  0  0  0  0  0  0  0  0  0
    1.7184    0.6370    0.1740 C   0  0  0  0  0  0  0  0  0  0  0  0
   -1.6747    0.8495   -0.9819 C   0  0  0  0  0  0  0  0  0  0  0  0
    0.2185    2.3077   -0.0687 C   0  0  0  0  0  0  0  0  0  0  0  0
    2.9087   -0.1583    0.4566 C   0  0  0  0  0  0  0  0  0  0  0  0
    1.4918   -2.0163   -0.3573 C   0  0  0  0  0  0  0  0  0  0  0  0
   -3.7806   -0.0171   -0.4084 C   0  0  0  0  0  0  0  0  0  0  0  0
   -4.5636   -0.6615    0.7193 C   0  0  0  0  0  0  0  0  0  0  0  0
   -1.6270    0.2108   -1.8712 H   0  0  0  0  0  0  0  0  0  0  0  0
   -2.1064    1.8199   -1.2497 H   0  0  0  0  0  0  0  0  0  0  0  0
    2.2440    2.6187    0.6958 H   0  0  0  0  0  0  0  0  0  0  0  0
    3.4587   -2.1493    0.3111 H   0  0  0  0  0  0  0  0  0  0  0  0
   -4.2637    0.9185   -0.7104 H   0  0  0  0  0  0  0  0  0  0  0  0
   -3.7385   -0.6982   -1.2662 H   0  0  0  0  0  0  0  0  0  0  0  0
   -5.5935   -0.8638    0.4112 H   0  0  0  0  0  0  0  0  0  0  0  0
   -4.5655   -0.0181    1.6047 H   0  0  0  0  0  0  0  0  0  0  0  0
    0.6583   -3.8300   -0.9587 H   0  0  0  0  0  0  0  0  0  0  0  0
    2.2958   -3.9419   -0.4025 H   0  0  0  0  0  0  0  0  0  0  0  0
   -4.4632   -2.2758    1.7977 H   0  0  0  0  0  0  0  0  0  0  0  0
  1 12  1  0  0  0  0
  1 16  1  0  0  0  0
  2 13  2  0  0  0  0
  3 14  2  0  0  0  0
  4 17  1  0  0  0  0
  4 28  1  0  0  0  0
  5 10  1  0  0  0  0
  5 12  1  0  0  0  0
  5 13  1  0  0  0  0
  6 11  1  0  0  0  0
  6 13  1  0  0  0  0
  6 20  1  0  0  0  0
  7 10  1  0  0  0  0
  7 15  2  0  0  0  0
  8 14  1  0  0  0  0
  8 15  1  0  0  0  0
  8 21  1  0  0  0  0
  9 15  1  0  0  0  0
  9 26  1  0  0  0  0
  9 27  1  0  0  0  0
 10 11  2  0  0  0  0
 11 14  1  0  0  0  0
 12 18  1  0  0  0  0
 12 19  1  0  0  0  0
 16 17  1  0  0  0  0
 16 22  1  0  0  0  0
 16 23  1  0  0  0  0
 17 24  1  0  0  0  0
 17 25  1  0  0  0  0
M  END
> <PUBCHEM_COMPOUND_CID>
135530051

> <PUBCHEM_CONFORMER_RMSD>
0.6

> <PUBCHEM_CONFORMER_DIVERSEORDER>
1
26
33
14
27
41
15
21
13
20
12
25
32
29
24
2
22
11
35
18
9
28
6
19
23
16
5
8
30
40
17
3
4
31
39
37
7
10
36
38
34

> <PUBCHEM_MMFF94_PARTIAL_CHARGES>
22
1 -0.56
10 0.28
11 0.12
12 0.58
13 0.69
14 0.62
15 0.56
16 0.28
17 0.28
2 -0.57
20 0.37
21 0.37
26 0.4
27 0.4
28 0.4
3 -0.57
4 -0.68
5 -0.47
6 -0.54
7 -0.62
8 -0.49
9 -0.85

> <PUBCHEM_EFFECTIVE_ROTOR_COUNT>
4

> <PUBCHEM_PHARMACOPHORE_FEATURES>
10
1 1 acceptor
1 2 acceptor
1 3 acceptor
1 4 acceptor
1 4 donor
1 6 donor
1 8 donor
1 9 donor
5 5 6 10 11 13 rings
6 7 8 10 11 14 15 rings

> <PUBCHEM_HEAVY_ATOM_COUNT>
17

> <PUBCHEM_ATOM_DEF_STEREO_COUNT>
0

> <PUBCHEM_ATOM_UDEF_STEREO_COUNT>
0

> <PUBCHEM_BOND_DEF_STEREO_COUNT>
0

> <PUBCHEM_BOND_UDEF_STEREO_COUNT>
0

> <PUBCHEM_ISOTOPIC_ATOM_COUNT>
0

> <PUBCHEM_COMPONENT_COUNT>
1

> <PUBCHEM_CACTVS_TAUTO_COUNT>
-1

> <PUBCHEM_CONFORMER_ID>
0814064300000001

> <PUBCHEM_MMFF94_ENERGY>
49.2083

> <PUBCHEM_FEATURE_SELFOVERLAP>
50.909

> <PUBCHEM_SHAPE_FINGERPRINT>
10493431 412 17981880049844306832
11471102 22 18412265047167837953
13140716 1 18196920279146282840
14251705 54 18409733941441648827
14252887 29 18272374156790514702
14790565 3 18267592475575399780
15422964 175 18337953389868453367
16945 1 18198882770010525132
20028762 73 17914331531258966191
20645477 70 18263070167454661623
20739085 24 18337117859584327224
20871998 22 18339647728660043773
21501502 16 17908698428494227380
221490 88 18125158221935080318
2334 1 17979898721279501076
23402539 116 11531026444768686776
2748010 2 17911221829196969100
568465 68 18343016735308716585
81228 2 18047195146311841869
8809292 202 17619629077293300822

> <PUBCHEM_SHAPE_MULTIPOLES>
301.47
6.56
3.11
0.86
6.78
0.09
-0.03
-2.99
-2.31
-1.04
0.27
0.28
-0.15
0.99

> <PUBCHEM_SHAPE_SELFOVERLAP>
637.748

> <PUBCHEM_SHAPE_VOLUME>
165.2

> <PUBCHEM_COORDINATE_TYPE>
2
5
10

$$$$
