REMARK  Name = 135566652
REMARK  8 active torsions:
REMARK  status: ('A' for Active; 'I' for Inactive)
REMARK    1  A    between atoms: C_1  and  C_11
REMARK    2  A    between atoms: C_2  and  O_28
REMARK    3  A    between atoms: C_3  and  O_24
REMARK    4  A    between atoms: C_6  and  O_26
REMARK    5  A    between atoms: C_9  and  C_14
REMARK    6  A    between atoms: N_13  and  C_17
REMARK    7  A    between atoms: O_28  and  C_29
REMARK    8  A    between atoms: C_34  and  N_37
REMARK                            x       y       z     vdW  Elec       q    Type
REMARK                         _______ _______ _______ _____ _____    ______ ____
ROOT
ATOM      1  C   UNL     1       1.429  -2.289  -0.148  0.00  0.00    +0.105 C 
ATOM      2  C   UNL     1       2.352  -1.469  -0.797  0.00  0.00    +0.154 C 
ATOM      3  C   UNL     1       1.823  -3.538   0.334  0.00  0.00    +0.143 C 
ATOM      4  C   UNL     1       3.669  -1.898  -0.964  0.00  0.00    +0.074 C 
ATOM      5  C   UNL     1       3.140  -3.967   0.166  0.00  0.00    +0.073 C 
ATOM      6  C   UNL     1       4.063  -3.146  -0.483  0.00  0.00    +0.140 C 
ENDROOT
BRANCH   1  11
ATOM      7  O   UNL     1      -0.607  -1.585  -1.119  0.00  0.00    -0.353 OA
ATOM      8  N   UNL     1      -1.895  -1.172  -0.799  0.00  0.00    -0.072 NA
ATOM      9  C   UNL     1      -1.946  -1.201   0.535  0.00  0.00    +0.176 C 
ATOM     10  C   UNL     1      -0.732  -1.620   1.107  0.00  0.00    +0.067 C 
ATOM     11  C   UNL     1       0.076  -1.849   0.025  0.00  0.00    +0.183 C 
BRANCH   9  14
ATOM     12  O   UNL     1      -3.224  -0.829   2.466  0.00  0.00    -0.268 OA
ATOM     13  N   UNL     1      -4.254  -0.438   0.425  0.00  0.00    -0.301 N 
ATOM     14  C   UNL     1      -3.197  -0.815   1.238  0.00  0.00    +0.267 C 
ATOM     15  H   UNL     1      -4.133  -0.461  -0.551  0.00  0.00    +0.150 HD
BRANCH  13  17
ATOM     16  N   UNL     1      -6.762   1.910  -0.890  0.00  0.00    +0.386 N 
ATOM     17  C   UNL     1      -5.528  -0.013   0.959  0.00  0.00    +0.068 C 
ATOM     18  C   UNL     1      -6.675  -0.391   0.019  0.00  0.00    -0.003 C 
ATOM     19  C   UNL     1      -5.541   1.494   1.223  0.00  0.00    -0.003 C 
ATOM     20  C   UNL     1      -6.703   0.484  -1.238  0.00  0.00    -0.076 C 
ATOM     21  C   UNL     1      -5.607   2.307  -0.074  0.00  0.00    -0.076 C 
ATOM     22  C   UNL     1      -6.841   2.729  -2.099  0.00  0.00    -0.101 C 
ATOM     23  H   UNL     1      -7.605   2.062  -0.336  0.00  0.00    -0.080 HD
ENDBRANCH  13  17
ENDBRANCH   9  14
ENDBRANCH   1  11
BRANCH   3  24
ATOM     24  O   UNL     1       0.944  -4.362   0.972  0.00  0.00    -0.505 OA
ATOM     25  H   UNL     1       0.055  -4.093   1.095  0.00  0.00    +0.292 HD
ENDBRANCH   3  24
BRANCH   6  26
ATOM     26  O   UNL     1       5.348  -3.564  -0.647  0.00  0.00    -0.505 OA
ATOM     27  H   UNL     1       5.968  -3.014  -1.083  0.00  0.00    +0.292 HD
ENDBRANCH   6  26
BRANCH   2  28
ATOM     28  O   UNL     1       1.997  -0.244  -1.278  0.00  0.00    -0.453 OA
BRANCH  28  29
ATOM     29  C   UNL     1       2.664   0.860  -0.776  0.00  0.00    +0.145 C 
ATOM     30  C   UNL     1       2.882   0.979   0.596  0.00  0.00    +0.039 C 
ATOM     31  C   UNL     1       3.118   1.854  -1.643  0.00  0.00    +0.039 C 
ATOM     32  C   UNL     1       3.553   2.092   1.102  0.00  0.00    +0.027 C 
ATOM     33  C   UNL     1       3.789   2.967  -1.138  0.00  0.00    +0.027 C 
ATOM     34  C   UNL     1       4.007   3.086   0.235  0.00  0.00    +0.143 C 
BRANCH  34  37
ATOM     35  O   UNL     1       4.876   4.307   1.988  0.00  0.00    -0.126 OA
ATOM     36  O   UNL     1       5.090   5.102  -0.048  0.00  0.00    -0.126 OA
ATOM     37  N   UNL     1       4.691   4.219   0.750  0.00  0.00    +0.058 N 
ENDBRANCH  34  37
ENDBRANCH  28  29
ENDBRANCH   2  28
TORSDOF 8
