REMARK  Name = 135564783
REMARK  3 active torsions:
REMARK  status: ('A' for Active; 'I' for Inactive)
REMARK    1  A    between atoms: N_1  and  C_17
REMARK    2  A    between atoms: C_3  and  C_26
REMARK    3  A    between atoms: C_4  and  C_10
REMARK                            x       y       z     vdW  Elec       q    Type
REMARK                         _______ _______ _______ _____ _____    ______ ____
ROOT
ATOM      1  N   UNL     1       0.377  -0.005  -0.778  0.00  0.00    -0.194 N 
ATOM      2  N   UNL     1       0.046  -1.114  -1.461  0.00  0.00    -0.172 NA
ATOM      3  C   UNL     1      -0.692   0.655  -0.247  0.00  0.00    +0.057 C 
ATOM      4  C   UNL     1      -1.800  -0.072  -0.609  0.00  0.00    +0.086 C 
ATOM      5  C   UNL     1      -1.285  -1.149  -1.354  0.00  0.00    +0.124 C 
ENDROOT
BRANCH   4  10
ATOM      6  O   UNL     1      -3.537   1.411  -0.095  0.00  0.00    -0.270 OA
ATOM      7  N   UNL     1      -4.059  -0.866  -0.147  0.00  0.00    -0.253 N 
ATOM      8  N   UNL     1      -6.030  -2.071   0.243  0.00  0.00    -0.372 N 
ATOM      9  N   UNL     1      -6.021   0.270   0.430  0.00  0.00    -0.270 NA
ATOM     10  C   UNL     1      -3.161   0.229  -0.282  0.00  0.00    +0.254 C 
ATOM     11  C   UNL     1      -5.412  -0.851   0.189  0.00  0.00    +0.185 C 
ATOM     12  H   UNL     1      -3.672  -1.756  -0.313  0.00  0.00    +0.158 HD
ATOM     13  H   UNL     1      -5.520  -2.891   0.052  0.00  0.00    +0.159 HD
ATOM     14  H   UNL     1      -6.986  -2.129   0.474  0.00  0.00    +0.159 HD
ATOM     15  H   UNL     1      -5.527   1.120   0.376  0.00  0.00    +0.190 HD
ENDBRANCH   4  10
BRANCH   1  17
ATOM     16  N   UNL     1       4.958  -0.811   0.606  0.00  0.00    -0.244 NA
ATOM     17  C   UNL     1       1.708   0.370  -0.663  0.00  0.00    +0.075 C 
ATOM     18  C   UNL     1       2.669  -0.460  -0.061  0.00  0.00    +0.033 C 
ATOM     19  C   UNL     1       2.071   1.614  -1.171  0.00  0.00    +0.017 C 
ATOM     20  C   UNL     1       4.013  -0.041   0.035  0.00  0.00    +0.083 C 
ATOM     21  C   UNL     1       3.393   2.033  -1.080  0.00  0.00    +0.003 C 
ATOM     22  C   UNL     1       2.331  -1.717   0.459  0.00  0.00    +0.004 C 
ATOM     23  C   UNL     1       4.348   1.208  -0.481  0.00  0.00    +0.019 C 
ATOM     24  C   UNL     1       3.303  -2.513   1.047  0.00  0.00    +0.021 C 
ATOM     25  C   UNL     1       4.590  -2.018   1.095  0.00  0.00    +0.099 C 
ENDBRANCH   1  17
BRANCH   3  26
ATOM     26  C   UNL     1      -0.668   1.925   0.571  0.00  0.00    +0.038 C 
ATOM     27  C   UNL     1      -1.316   1.963   1.935  0.00  0.00    +0.006 C 
ATOM     28  C   UNL     1       0.176   2.009   1.821  0.00  0.00    +0.006 C 
ENDBRANCH   3  26
TORSDOF 3
