REMARK  Name = 135538683
REMARK  5 active torsions:
REMARK  status: ('A' for Active; 'I' for Inactive)
REMARK    1  A    between atoms: N_2  and  C_15
REMARK    2  A    between atoms: C_16  and  C_24
REMARK    3  A    between atoms: C_18  and  O_20
REMARK    4  A    between atoms: C_19  and  O_22
REMARK    5  A    between atoms: C_24  and  O_25
REMARK                            x       y       z     vdW  Elec       q    Type
REMARK                         _______ _______ _______ _____ _____    ______ ____
ROOT
ATOM      1  O   UNL     1       4.542  -1.688  -0.484  0.00  0.00    -0.268 OA
ATOM      2  N   UNL     1       0.233  -0.491   0.160  0.00  0.00    -0.261 N 
ATOM      3  N   UNL     1       1.614  -2.172  -0.360  0.00  0.00    -0.240 NA
ATOM      4  N   UNL     1       1.821   1.310   0.465  0.00  0.00    -0.357 NA
ATOM      5  N   UNL     1       4.052   0.522   0.090  0.00  0.00    -0.243 N 
ATOM      6  N   UNL     1       3.651   2.769   0.667  0.00  0.00    -0.321 N 
ATOM      7  C   UNL     1       1.493   0.030   0.182  0.00  0.00    +0.210 C 
ATOM      8  C   UNL     1       0.357  -1.818  -0.172  0.00  0.00    +0.222 C 
ATOM      9  C   UNL     1       2.315  -1.023  -0.140  0.00  0.00    +0.176 C 
ATOM     10  C   UNL     1       3.734  -0.811  -0.206  0.00  0.00    +0.273 C 
ATOM     11  C   UNL     1       3.116   1.533   0.412  0.00  0.00    +0.239 C 
ATOM     12  H   UNL     1       5.004   0.775   0.073  0.00  0.00    +0.159 HD
ATOM     13  H   UNL     1       3.061   3.523   0.897  0.00  0.00    +0.146 HD
ATOM     14  H   UNL     1       4.625   2.904   0.619  0.00  0.00    +0.146 HD
ENDROOT
BRANCH   2  15
ATOM     15  C   UNL     1      -1.061   0.236   0.441  0.00  0.00    +0.106 C 
ATOM     16  C   UNL     1      -3.497   0.283   0.716  0.00  0.00    +0.060 C 
ATOM     17  C   UNL     1      -2.242  -0.570   1.012  0.00  0.00    +0.027 C 
ATOM     18  C   UNL     1      -1.680   0.909  -0.790  0.00  0.00    +0.155 C 
ATOM     19  C   UNL     1      -3.013   1.404  -0.229  0.00  0.00    +0.141 C 
BRANCH  18  20
ATOM     20  O   UNL     1      -1.904  -0.047  -1.821  0.00  0.00    -0.380 OA
ATOM     21  H   UNL     1      -1.052  -0.354  -2.169  0.00  0.00    +0.211 HD
ENDBRANCH  18  20
BRANCH  19  22
ATOM     22  O   UNL     1      -3.920   1.740  -1.259  0.00  0.00    -0.382 OA
ATOM     23  H   UNL     1      -4.753   2.049  -0.869  0.00  0.00    +0.210 HD
ENDBRANCH  19  22
BRANCH  16  24
ATOM     24  C   UNL     1      -4.643  -0.567   0.176  0.00  0.00    +0.140 C 
BRANCH  24  25
ATOM     25  O   UNL     1      -4.967  -1.552   1.140  0.00  0.00    -0.382 OA
ATOM     26  H   UNL     1      -5.696  -2.101   0.810  0.00  0.00    +0.210 HD
ENDBRANCH  24  25
ENDBRANCH  16  24
ENDBRANCH   2  15
TORSDOF 5
