REMARK  Name = 135582773
REMARK  7 active torsions:
REMARK  status: ('A' for Active; 'I' for Inactive)
REMARK    1  A    between atoms: N_3  and  C_5
REMARK    2  A    between atoms: N_3  and  C1*_13
REMARK    3  A    between atoms: C_6  and  N_19
REMARK    4  A    between atoms: C_6  and  N_23
REMARK    5  A    between atoms: C3*_10  and  O3*_14
REMARK    6  A    between atoms: C4*_11  and  C5*_16
REMARK    7  A    between atoms: C5*_16  and  O5*_17
REMARK                            x       y       z     vdW  Elec       q    Type
REMARK                         _______ _______ _______ _____ _____    ______ ____
ROOT
ATOM      1  O   UNL     1       2.566   0.206  -1.090  0.00  0.00    -0.480 OA
ATOM      2  O   UNL     1       0.334  -0.190  -1.597  0.00  0.00    -0.247 OA
ATOM      3  N   UNL     1       2.459  -0.289   1.138  0.00  0.00    -0.279 NA
ATOM      4  C   UNL     1       1.216  -0.462   0.628  0.00  0.00    +0.231 C 
ATOM      5  C   UNL     1       3.402   0.139   0.113  0.00  0.00    +0.097 C 
ATOM      6  C   UNL     1       1.272  -0.140  -0.834  0.00  0.00    +0.346 C 
ATOM      7  H   UNL     1       2.695  -0.435   2.083  0.00  0.00    +0.124 HD
ENDROOT
BRANCH   5   8
ATOM      8  N   UNL     1       4.536  -0.760  -0.172  0.00  0.00    +0.402 N 
ATOM      9  H   UNL     1       4.190  -1.708  -0.316  0.00  0.00    -0.085 HD
ATOM     10  H   UNL     1       5.183  -0.750   0.617  0.00  0.00    -0.085 HD
ATOM     11  H   UNL     1       5.019  -0.442  -1.012  0.00  0.00    -0.085 HD
ENDBRANCH   5   8
BRANCH   5  12
ATOM     12  N   UNL     1       4.042   1.454   0.296  0.00  0.00    +0.402 N 
ATOM     13  H   UNL     1       3.328   2.154   0.500  0.00  0.00    -0.085 HD
ATOM     14  H   UNL     1       4.537   1.714  -0.557  0.00  0.00    -0.085 HD
ATOM     15  H   UNL     1       4.702   1.406   1.072  0.00  0.00    -0.085 HD
ENDBRANCH   5  12
BRANCH   4  16
ATOM     16  N   UNL     1       0.110  -0.825   1.162  0.00  0.00    -0.167 NA
BRANCH  16  21
ATOM     17  O4* UNL     1      -1.372   0.343  -0.432  0.00  0.00    -0.337 OA
ATOM     18  C3* UNL     1      -3.383  -0.761   0.160  0.00  0.00    +0.144 C 
ATOM     19  C4* UNL     1      -2.793   0.550  -0.339  0.00  0.00    +0.173 C 
ATOM     20  C2* UNL     1      -2.263  -1.338   0.992  0.00  0.00    +0.080 C 
ATOM     21  C1* UNL     1      -1.021  -0.885   0.234  0.00  0.00    +0.193 C 
BRANCH  18  22
ATOM     22  O3* UNL     1      -3.621  -1.630  -0.945  0.00  0.00    -0.382 OA
ATOM     23  H3* UNL     1      -4.339  -1.272  -1.489  0.00  0.00    +0.210 HD
ENDBRANCH  18  22
BRANCH  19  24
ATOM     24  C5* UNL     1      -3.037   1.711   0.615  0.00  0.00    +0.169 C 
BRANCH  24  25
ATOM     25  O5* UNL     1      -2.445   2.877   0.070  0.00  0.00    -0.379 OA
ATOM     26  H5* UNL     1      -2.593   3.625   0.670  0.00  0.00    +0.211 HD
ENDBRANCH  24  25
ENDBRANCH  19  24
ENDBRANCH  16  21
ENDBRANCH   4  16
TORSDOF 7
