135513044
  -OEChem-03292013293D

 62 65  0     0  0  0  0  0  0999 V2000
   -0.6620   -1.7498   -1.1076 O   0  0  0  0  0  0  0  0  0  0  0  0
   -3.5475    2.3283    1.2481 O   0  0  0  0  0  0  0  0  0  0  0  0
   -6.9699   -1.0973   -0.3971 O   0  0  0  0  0  0  0  0  0  0  0  0
    0.8731   -0.4628    2.1724 O   0  0  0  0  0  0  0  0  0  0  0  0
    3.3803    1.9526   -1.8180 O   0  0  0  0  0  0  0  0  0  0  0  0
   -5.4935   -3.1096   -1.5640 O   0  0  0  0  0  0  0  0  0  0  0  0
    6.8973   -1.0293    0.5225 O   0  0  0  0  0  0  0  0  0  0  0  0
    5.6398   -1.8156    2.7239 O   0  0  0  0  0  0  0  0  0  0  0  0
   -3.5567    0.1884    0.1002 C   0  0  0  0  0  0  0  0  0  0  0  0
   -0.7536    0.3469    0.0251 C   0  0  0  0  0  0  0  0  0  0  0  0
   -4.9577    0.0941    0.1292 C   0  0  0  0  0  0  0  0  0  0  0  0
    0.7205    0.4258   -0.0163 C   0  0  0  0  0  0  0  0  0  0  0  0
   -2.8055   -0.8495   -0.5008 C   0  0  0  0  0  0  0  0  0  0  0  0
   -5.8374    1.1431    0.7438 C   0  0  0  0  0  0  0  0  0  0  0  0
   -1.4924    1.3676    0.6163 C   0  0  0  0  0  0  0  0  0  0  0  0
    3.6313    0.2565   -0.1474 C   0  0  0  0  0  0  0  0  0  0  0  0
   -1.4046   -0.7550   -0.5302 C   0  0  0  0  0  0  0  0  0  0  0  0
   -2.8849    1.2903    0.6544 C   0  0  0  0  0  0  0  0  0  0  0  0
    4.9443    0.0343   -0.3811 C   0  0  0  0  0  0  0  0  0  0  0  0
    2.9407   -0.2982    0.9986 C   0  0  0  0  0  0  0  0  0  0  0  0
    1.3559    1.0093   -1.0510 C   0  0  0  0  0  0  0  0  0  0  0  0
    5.7420    0.4716   -1.5789 C   0  0  0  0  0  0  0  0  0  0  0  0
    1.4693   -0.1344    1.1492 C   0  0  0  0  0  0  0  0  0  0  0  0
    2.8482    1.1339   -1.0729 C   0  0  0  0  0  0  0  0  0  0  0  0
   -5.6086   -1.0076   -0.4264 C   0  0  0  0  0  0  0  0  0  0  0  0
   -3.4773   -1.9511   -1.0551 C   0  0  0  0  0  0  0  0  0  0  0  0
   -4.8699   -2.0283   -1.0175 C   0  0  0  0  0  0  0  0  0  0  0  0
   -6.7750    1.7905   -0.2876 C   0  0  0  0  0  0  0  0  0  0  0  0
   -6.6487    0.5970    1.9295 C   0  0  0  0  0  0  0  0  0  0  0  0
    5.7100   -0.7560    0.6296 C   0  0  0  0  0  0  0  0  0  0  0  0
   -0.8031    2.5556    1.2161 C   0  0  0  0  0  0  0  0  0  0  0  0
    3.5563   -0.9933    1.9646 C   0  0  0  0  0  0  0  0  0  0  0  0
    0.6809    1.6151   -2.2573 C   0  0  0  0  0  0  0  0  0  0  0  0
    6.8632    1.4086   -1.1477 C   0  0  0  0  0  0  0  0  0  0  0  0
    6.2937   -0.7371   -2.3265 C   0  0  0  0  0  0  0  0  0  0  0  0
    5.0016   -1.2348    1.8597 C   0  0  0  0  0  0  0  0  0  0  0  0
   -5.3867    2.0091    1.1852 H   0  0  0  0  0  0  0  0  0  0  0  0
    5.1559    0.9959   -2.3287 H   0  0  0  0  0  0  0  0  0  0  0  0
   -2.9364   -2.7767   -1.5103 H   0  0  0  0  0  0  0  0  0  0  0  0
   -7.2827    2.6549    0.1579 H   0  0  0  0  0  0  0  0  0  0  0  0
   -5.9922    0.1055    2.6566 H   0  0  0  0  0  0  0  0  0  0  0  0
   -7.1517    1.4209    2.4507 H   0  0  0  0  0  0  0  0  0  0  0  0
   -7.4337   -0.1101    1.6514 H   0  0  0  0  0  0  0  0  0  0  0  0
   -6.2089    2.1564   -1.1519 H   0  0  0  0  0  0  0  0  0  0  0  0
   -7.5646    1.1314   -0.6556 H   0  0  0  0  0  0  0  0  0  0  0  0
   -0.9097    3.4231    0.5558 H   0  0  0  0  0  0  0  0  0  0  0  0
   -1.2250    2.7959    2.1990 H   0  0  0  0  0  0  0  0  0  0  0  0
    0.2645    2.4136    1.4000 H   0  0  0  0  0  0  0  0  0  0  0  0
    3.0512   -1.4108    2.8281 H   0  0  0  0  0  0  0  0  0  0  0  0
    0.8355    2.6994   -2.2723 H   0  0  0  0  0  0  0  0  0  0  0  0
   -0.3971    1.4398   -2.2947 H   0  0  0  0  0  0  0  0  0  0  0  0
    1.1017    1.1920   -3.1762 H   0  0  0  0  0  0  0  0  0  0  0  0
    5.5078   -1.4737   -2.5290 H   0  0  0  0  0  0  0  0  0  0  0  0
    6.6955   -0.4204   -3.2968 H   0  0  0  0  0  0  0  0  0  0  0  0
    7.1132   -1.2443   -1.8106 H   0  0  0  0  0  0  0  0  0  0  0  0
    6.4779    2.2349   -0.5395 H   0  0  0  0  0  0  0  0  0  0  0  0
    7.6644    0.9182   -0.5885 H   0  0  0  0  0  0  0  0  0  0  0  0
    7.3341    1.8536   -2.0326 H   0  0  0  0  0  0  0  0  0  0  0  0
   -1.1333   -2.1048   -1.8782 H   0  0  0  0  0  0  0  0  0  0  0  0
   -3.0460    3.1542    1.1588 H   0  0  0  0  0  0  0  0  0  0  0  0
   -7.2342   -1.9281   -0.8290 H   0  0  0  0  0  0  0  0  0  0  0  0
   -4.8247   -3.7140   -1.9288 H   0  0  0  0  0  0  0  0  0  0  0  0
  1 17  1  0  0  0  0
  1 59  1  0  0  0  0
  2 18  1  0  0  0  0
  2 60  1  0  0  0  0
  3 25  1  0  0  0  0
  3 61  1  0  0  0  0
  4 23  2  0  0  0  0
  5 24  2  0  0  0  0
  6 27  1  0  0  0  0
  6 62  1  0  0  0  0
  7 30  2  0  0  0  0
  8 36  2  0  0  0  0
  9 11  2  0  0  0  0
  9 13  1  0  0  0  0
  9 18  1  0  0  0  0
 10 12  1  0  0  0  0
 10 15  1  0  0  0  0
 10 17  2  0  0  0  0
 11 14  1  0  0  0  0
 11 25  1  0  0  0  0
 12 21  2  0  0  0  0
 12 23  1  0  0  0  0
 13 17  1  0  0  0  0
 13 26  2  0  0  0  0
 14 28  1  0  0  0  0
 14 29  1  0  0  0  0
 14 37  1  0  0  0  0
 15 18  2  0  0  0  0
 15 31  1  0  0  0  0
 16 19  2  0  0  0  0
 16 20  1  0  0  0  0
 16 24  1  0  0  0  0
 19 22  1  0  0  0  0
 19 30  1  0  0  0  0
 20 23  1  0  0  0  0
 20 32  2  0  0  0  0
 21 24  1  0  0  0  0
 21 33  1  0  0  0  0
 22 34  1  0  0  0  0
 22 35  1  0  0  0  0
 22 38  1  0  0  0  0
 25 27  2  0  0  0  0
 26 27  1  0  0  0  0
 26 39  1  0  0  0  0
 28 40  1  0  0  0  0
 28 44  1  0  0  0  0
 28 45  1  0  0  0  0
 29 41  1  0  0  0  0
 29 42  1  0  0  0  0
 29 43  1  0  0  0  0
 30 36  1  0  0  0  0
 31 46  1  0  0  0  0
 31 47  1  0  0  0  0
 31 48  1  0  0  0  0
 32 36  1  0  0  0  0
 32 49  1  0  0  0  0
 33 50  1  0  0  0  0
 33 51  1  0  0  0  0
 33 52  1  0  0  0  0
 34 56  1  0  0  0  0
 34 57  1  0  0  0  0
 34 58  1  0  0  0  0
 35 53  1  0  0  0  0
 35 54  1  0  0  0  0
 35 55  1  0  0  0  0
M  END
> <PUBCHEM_COMPOUND_CID>
135513044

> <PUBCHEM_CONFORMER_RMSD>
0.8

> <PUBCHEM_CONFORMER_DIVERSEORDER>
1
4
5
2
3
6

> <PUBCHEM_MMFF94_PARTIAL_CHARGES>
36
1 -0.53
10 0.03
11 -0.14
12 -0.01
14 0.14
15 -0.14
16 0.01
17 0.08
18 0.08
19 -0.12
2 -0.53
20 0.01
21 -0.12
22 0.14
23 0.54
24 0.54
25 0.08
26 -0.15
27 0.08
3 -0.53
30 0.56
31 0.14
32 -0.14
33 0.14
36 0.56
39 0.15
4 -0.57
49 0.15
5 -0.57
59 0.45
6 -0.53
60 0.45
61 0.45
62 0.45
7 -0.57
8 -0.57

> <PUBCHEM_EFFECTIVE_ROTOR_COUNT>
3

> <PUBCHEM_PHARMACOPHORE_FEATURES>
14
1 1 donor
1 2 donor
1 3 donor
1 4 acceptor
1 5 acceptor
1 6 donor
1 7 acceptor
1 8 acceptor
3 14 28 29 hydrophobe
3 22 34 35 hydrophobe
6 12 16 20 21 23 24 rings
6 16 19 20 30 32 36 rings
6 9 10 13 15 17 18 rings
6 9 11 13 25 26 27 rings

> <PUBCHEM_HEAVY_ATOM_COUNT>
36

> <PUBCHEM_ATOM_DEF_STEREO_COUNT>
0

> <PUBCHEM_ATOM_UDEF_STEREO_COUNT>
0

> <PUBCHEM_BOND_DEF_STEREO_COUNT>
0

> <PUBCHEM_BOND_UDEF_STEREO_COUNT>
0

> <PUBCHEM_ISOTOPIC_ATOM_COUNT>
0

> <PUBCHEM_COMPONENT_COUNT>
1

> <PUBCHEM_CACTVS_TAUTO_COUNT>
-1

> <PUBCHEM_CONFORMER_ID>
0813C3D400000001

> <PUBCHEM_MMFF94_ENERGY>
139.7785

> <PUBCHEM_FEATURE_SELFOVERLAP>
71.11

> <PUBCHEM_SHAPE_FINGERPRINT>
10299344 5 18334294266463175283
10319926 262 17632576058802101403
10673678 19 14274607118117865526
11135609 187 17676486194235151948
11331351 85 18335985255460220524
12166972 35 18261109716209924189
12236239 1 18333732420337369997
12616971 3 18187080659373831447
12730499 353 16008466538888790034
12788726 201 18339368469686491960
13533116 47 17967249785158513528
13692115 27 17986668385029925791
13782708 43 16701736154904921263
13811026 1 16773790403490002525
13911987 19 16443358576320252438
14068700 675 18411131450484993729
14294032 229 18127141779524635441
14415360 78 17025452251495238396
14840074 17 17967255290726409782
14856354 85 18342177804391219143
15001296 14 18262797501086551262
15021287 119 18040721364114102941
15119646 104 17822006497909751730
15131766 46 17606415495261406869
15183329 4 18335420179434099447
15328829 1 18261967283523625780
15361156 5 16845290570470454945
15419008 47 16630528419009817992
15475509 35 17346320346285880086
1577012 14 18334576849625584543
18681886 176 18272091651565141076
19319366 153 16732693966116812514
20511986 3 18335412487005591429
21033648 29 16630521834397301208
21267235 1 18201442536734267567
21792961 116 14779545644088039456
21859007 373 16630531678615655953
2303208 19 16774080678559446382
23081809 10 18187358839752202883
23522609 53 18189354431797916717
23559900 14 17846782935447615077
23569914 152 15653468189801718887
23569943 247 17677318403840971546
23576562 1 18337105783286259053
24771293 8 18042121128490077532
3004659 81 18412267259086733564
335352 9 18202565086619477349
3383291 50 17632292415785311231
34797466 226 17846221081581188320
397830 11 16773219820820813050
4073 2 17605564451458876032
4093350 32 18409454678963698934
4144715 1 17560514135611394995
49967989 163 18267595769662244543
5080951 261 17559366155641479013
5104073 3 18059573667745441049
5265222 85 17559397057836111270
59755656 215 17917434181220278943
6086070 43 18337654392064083101
7226269 152 18202850942056602609

> <PUBCHEM_SHAPE_MULTIPOLES>
693.91
19.3
2.26
2.12
0.41
0.19
0.35
3.37
-0.81
2.27
-0.38
-2.58
0.36
-3.99

> <PUBCHEM_SHAPE_SELFOVERLAP>
1548.776

> <PUBCHEM_SHAPE_VOLUME>
366.7

> <PUBCHEM_COORDINATE_TYPE>
2
5
10

$$$$
