135564783
  -OEChem-03292013293D

 40 43  0     0  0  0  0  0  0999 V2000
   -3.5365    1.4108   -0.0948 O   0  0  0  0  0  0  0  0  0  0  0  0
    0.3770   -0.0054   -0.7776 N   0  0  0  0  0  0  0  0  0  0  0  0
    0.0456   -1.1142   -1.4610 N   0  0  0  0  0  0  0  0  0  0  0  0
   -4.0591   -0.8658   -0.1468 N   0  0  0  0  0  0  0  0  0  0  0  0
    4.9579   -0.8114    0.6056 N   0  0  0  0  0  0  0  0  0  0  0  0
   -6.0304   -2.0711    0.2435 N   0  0  0  0  0  0  0  0  0  0  0  0
   -6.0209    0.2703    0.4296 N   0  0  0  0  0  0  0  0  0  0  0  0
   -0.6684    1.9250    0.5705 C   0  0  0  0  0  0  0  0  0  0  0  0
   -1.3159    1.9633    1.9349 C   0  0  0  0  0  0  0  0  0  0  0  0
    0.1757    2.0092    1.8206 C   0  0  0  0  0  0  0  0  0  0  0  0
   -0.6920    0.6552   -0.2472 C   0  0  0  0  0  0  0  0  0  0  0  0
   -1.7998   -0.0719   -0.6088 C   0  0  0  0  0  0  0  0  0  0  0  0
    1.7082    0.3702   -0.6633 C   0  0  0  0  0  0  0  0  0  0  0  0
   -1.2854   -1.1495   -1.3543 C   0  0  0  0  0  0  0  0  0  0  0  0
   -3.1613    0.2288   -0.2819 C   0  0  0  0  0  0  0  0  0  0  0  0
    2.6690   -0.4598   -0.0611 C   0  0  0  0  0  0  0  0  0  0  0  0
    2.0712    1.6142   -1.1713 C   0  0  0  0  0  0  0  0  0  0  0  0
    4.0126   -0.0409    0.0350 C   0  0  0  0  0  0  0  0  0  0  0  0
    3.3927    2.0332   -1.0799 C   0  0  0  0  0  0  0  0  0  0  0  0
    2.3310   -1.7167    0.4585 C   0  0  0  0  0  0  0  0  0  0  0  0
    4.3477    1.2078   -0.4812 C   0  0  0  0  0  0  0  0  0  0  0  0
    3.3030   -2.5128    1.0470 C   0  0  0  0  0  0  0  0  0  0  0  0
   -5.4123   -0.8508    0.1894 C   0  0  0  0  0  0  0  0  0  0  0  0
    4.5903   -2.0178    1.0948 C   0  0  0  0  0  0  0  0  0  0  0  0
   -0.7463    2.8350   -0.0174 H   0  0  0  0  0  0  0  0  0  0  0  0
    0.6704    2.9502    2.0294 H   0  0  0  0  0  0  0  0  0  0  0  0
   -1.8285    2.8735    2.2223 H   0  0  0  0  0  0  0  0  0  0  0  0
    0.7235    1.1360    2.1535 H   0  0  0  0  0  0  0  0  0  0  0  0
   -1.7543    1.0594    2.3403 H   0  0  0  0  0  0  0  0  0  0  0  0
   -1.8182   -1.9609   -1.8297 H   0  0  0  0  0  0  0  0  0  0  0  0
    1.3471    2.2668   -1.6526 H   0  0  0  0  0  0  0  0  0  0  0  0
   -3.6710   -1.7924   -0.3051 H   0  0  0  0  0  0  0  0  0  0  0  0
    3.6856    3.0012   -1.4761 H   0  0  0  0  0  0  0  0  0  0  0  0
    1.3180   -2.1059    0.4545 H   0  0  0  0  0  0  0  0  0  0  0  0
    5.3763    1.5590   -0.4226 H   0  0  0  0  0  0  0  0  0  0  0  0
    3.0585   -3.4843    1.4602 H   0  0  0  0  0  0  0  0  0  0  0  0
    5.3915   -2.5949    1.5446 H   0  0  0  0  0  0  0  0  0  0  0  0
   -7.0132   -2.1551    0.4794 H   0  0  0  0  0  0  0  0  0  0  0  0
   -5.5253   -2.9288    0.0493 H   0  0  0  0  0  0  0  0  0  0  0  0
   -7.0016    0.0715    0.6559 H   0  0  0  0  0  0  0  0  0  0  0  0
  1 15  2  0  0  0  0
  2  3  1  0  0  0  0
  2 11  1  0  0  0  0
  2 13  1  0  0  0  0
  3 14  2  0  0  0  0
  4 15  1  0  0  0  0
  4 23  1  0  0  0  0
  4 32  1  0  0  0  0
  5 18  1  0  0  0  0
  5 24  2  0  0  0  0
  6 23  1  0  0  0  0
  6 38  1  0  0  0  0
  6 39  1  0  0  0  0
  7 23  2  0  0  0  0
  7 40  1  0  0  0  0
  8  9  1  0  0  0  0
  8 10  1  0  0  0  0
  8 11  1  0  0  0  0
  8 25  1  0  0  0  0
  9 10  1  0  0  0  0
  9 27  1  0  0  0  0
  9 29  1  0  0  0  0
 10 26  1  0  0  0  0
 10 28  1  0  0  0  0
 11 12  2  0  0  0  0
 12 14  1  0  0  0  0
 12 15  1  0  0  0  0
 13 16  1  0  0  0  0
 13 17  2  0  0  0  0
 14 30  1  0  0  0  0
 16 18  2  0  0  0  0
 16 20  1  0  0  0  0
 17 19  1  0  0  0  0
 17 31  1  0  0  0  0
 18 21  1  0  0  0  0
 19 21  2  0  0  0  0
 19 33  1  0  0  0  0
 20 22  2  0  0  0  0
 20 34  1  0  0  0  0
 21 35  1  0  0  0  0
 22 24  1  0  0  0  0
 22 36  1  0  0  0  0
 24 37  1  0  0  0  0
M  END
> <PUBCHEM_COMPOUND_CID>
135564783

> <PUBCHEM_CONFORMER_RMSD>
0.8

> <PUBCHEM_CONFORMER_DIVERSEORDER>
1
19
14
25
16
23
7
12
27
8
11
22
9
15
21
17
18
24
6
10
20
3
5
4
26
13
2

> <PUBCHEM_MMFF94_PARTIAL_CHARGES>
39
1 -0.57
10 -0.2
11 -0.24
12 -0.09
13 -0.02
14 0.14
15 0.72
17 -0.15
18 0.31
19 -0.15
2 0.59
20 -0.15
21 -0.15
22 -0.15
23 0.56
24 0.16
25 0.1
26 0.1
27 0.1
28 0.1
29 0.1
3 -0.71
30 0.15
31 0.15
32 0.37
33 0.15
34 0.15
35 0.15
36 0.15
37 0.15
38 0.4
39 0.4
4 -0.49
40 0.4
5 -0.62
6 -0.85
7 -0.85
8 -0.01
9 -0.2

> <PUBCHEM_EFFECTIVE_ROTOR_COUNT>
5.6

> <PUBCHEM_PHARMACOPHORE_FEATURES>
9
1 1 acceptor
1 3 acceptor
1 4 donor
1 5 acceptor
1 6 donor
1 7 donor
5 2 3 11 12 14 rings
6 13 16 17 18 19 21 rings
6 5 16 18 20 22 24 rings

> <PUBCHEM_HEAVY_ATOM_COUNT>
24

> <PUBCHEM_ATOM_DEF_STEREO_COUNT>
0

> <PUBCHEM_ATOM_UDEF_STEREO_COUNT>
0

> <PUBCHEM_BOND_DEF_STEREO_COUNT>
0

> <PUBCHEM_BOND_UDEF_STEREO_COUNT>
0

> <PUBCHEM_ISOTOPIC_ATOM_COUNT>
0

> <PUBCHEM_COMPONENT_COUNT>
1

> <PUBCHEM_CACTVS_TAUTO_COUNT>
-1

> <PUBCHEM_CONFORMER_ID>
08148DEF00000001

> <PUBCHEM_MMFF94_ENERGY>
79.9193

> <PUBCHEM_FEATURE_SELFOVERLAP>
45.827

> <PUBCHEM_SHAPE_FINGERPRINT>
10366900 7 16298673785339037402
11578080 2 7996840840763355990
11796584 16 18114177519757417875
12107183 9 17830170208453023977
12236239 1 18412266125510759780
12467345 10 18334574611915968403
12553582 1 17704067412973399005
12596602 18 18413105035644738426
12788726 201 17988656185039002969
13009979 54 18127408961055010130
13140716 1 17559945700847267543
13533116 47 18259987084561761666
13965767 371 17552091593418037768
14022347 108 17846233184086742412
14178342 30 17841156549927780142
14251739 40 18186524276093174484
14787075 74 18410292544925323835
15375462 189 18342450473914423710
1601671 61 17489598874188460493
17349148 13 18201998806968850789
17492 89 18267585715048618286
1813 80 18045227042763984262
200 152 18408884018768560320
20028762 73 18408599245331976010
20600515 1 16845000316411207984
20645477 70 17748824112203628636
20691752 17 18125976477022549841
20715895 44 17835518228806022157
21033648 29 15339125611307715107
21267235 1 18409169879503278110
21792964 463 17897758446248650917
23366157 5 17839728602378349569
23557571 272 16845302600789687416
23559900 14 17894916285993770997
23569914 2 10353684198457400875
33382 64 18186806906780182283
3411729 13 16986579008614167256
3886686 26 17118607969677434658
392239 28 17843370047840630386
4072396 5 17988925544318743967
4340502 62 18114181998690454026
439807 62 18262240032266313083
465052 167 18409733966990153639
469060 322 17489043595067658235
474 4 18188213225455572364
484985 159 16454582103138431738
5104073 3 18411696547916464025
7495541 125 18270400611355672705
7970288 3 17753599153675638090

> <PUBCHEM_SHAPE_MULTIPOLES>
458.15
11.36
2.51
1.4
12.08
0.17
0.33
5.45
1.54
-1.3
0.79
-0.37
-0.44
-1.83

> <PUBCHEM_SHAPE_SELFOVERLAP>
1013.897

> <PUBCHEM_SHAPE_VOLUME>
244.5

> <PUBCHEM_COORDINATE_TYPE>
2
5
10

$$$$
