REMARK  Name = 135565672
REMARK  14 active torsions:
REMARK  status: ('A' for Active; 'I' for Inactive)
REMARK    1  A    between atoms: C_1  and  C_12
REMARK    2  A    between atoms: C_2  and  O_17
REMARK    3  A    between atoms: C_4  and  O_19
REMARK    4  A    between atoms: C_9  and  C_14
REMARK    5  A    between atoms: C_14  and  O_15
REMARK    6  A    between atoms: O_19  and  C_20
REMARK    7  A    between atoms: C_20  and  C_21
REMARK    8  A    between atoms: C_21  and  O_22
REMARK    9  A    between atoms: O_22  and  C_23
REMARK   10  A    between atoms: C_23  and  C_24
REMARK   11  A    between atoms: C_24  and  O_25
REMARK   12  A    between atoms: O_25  and  C_26
REMARK   13  A    between atoms: C_26  and  C_27
REMARK   14  A    between atoms: C_27  and  O_28
REMARK                            x       y       z     vdW  Elec       q    Type
REMARK                         _______ _______ _______ _____ _____    ______ ____
ROOT
ATOM      1  C   UNL     1      -1.044  -2.345   0.098  0.00  0.00    +0.060 C 
ATOM      2  C   UNL     1       0.219  -1.823   0.379  0.00  0.00    +0.170 C 
ATOM      3  C   UNL     1      -1.211  -3.722  -0.052  0.00  0.00    +0.005 C 
ATOM      4  C   UNL     1       1.314  -2.678   0.510  0.00  0.00    +0.172 C 
ATOM      5  C   UNL     1      -0.117  -4.576   0.079  0.00  0.00    +0.003 C 
ATOM      6  C   UNL     1       1.146  -4.054   0.359  0.00  0.00    +0.040 C 
ENDROOT
BRANCH   1  12
ATOM      7  S   UNL     1      -3.558  -1.895  -1.087  0.00  0.00    -0.093 S 
ATOM      8  N   UNL     1      -2.329  -0.333   0.589  0.00  0.00    -0.256 NA
ATOM      9  C   UNL     1      -3.572   0.376   0.227  0.00  0.00    +0.184 C 
ATOM     10  C   UNL     1      -4.586  -0.607  -0.351  0.00  0.00    +0.097 C 
ATOM     11  C   UNL     1      -4.117   1.066   1.475  0.00  0.00    +0.037 C 
ATOM     12  C   UNL     1      -2.222  -1.457  -0.045  0.00  0.00    +0.105 C 
BRANCH   9  14
ATOM     13  O   UNL     1      -2.036   1.620  -1.176  0.00  0.00    -0.248 OA
ATOM     14  C   UNL     1      -3.174   1.429  -0.773  0.00  0.00    +0.335 C 
BRANCH  14  15
ATOM     15  O   UNL     1      -4.254   2.146  -1.169  0.00  0.00    -0.479 OA
ATOM     16  H   UNL     1      -5.101   1.948  -0.820  0.00  0.00    +0.295 HD
ENDBRANCH  14  15
ENDBRANCH   9  14
ENDBRANCH   1  12
BRANCH   2  17
ATOM     17  O   UNL     1       0.390  -0.478   0.528  0.00  0.00    -0.503 OA
ATOM     18  H   UNL     1      -0.342   0.100   0.441  0.00  0.00    +0.292 HD
ENDBRANCH   2  17
BRANCH   4  19
ATOM     19  O   UNL     1       2.553  -2.181   0.784  0.00  0.00    -0.470 OA
BRANCH  19  20
ATOM     20  C   UNL     1       3.580  -2.442  -0.170  0.00  0.00    +0.237 C 
BRANCH  20  21
ATOM     21  C   UNL     1       4.569  -1.292  -0.158  0.00  0.00    +0.189 C 
BRANCH  21  22
ATOM     22  O   UNL     1       3.891  -0.094  -0.517  0.00  0.00    -0.347 OA
BRANCH  22  23
ATOM     23  C   UNL     1       4.772   1.021  -0.523  0.00  0.00    +0.174 C 
BRANCH  23  24
ATOM     24  C   UNL     1       4.000   2.260  -0.934  0.00  0.00    +0.174 C 
BRANCH  24  25
ATOM     25  O   UNL     1       2.934   2.469  -0.016  0.00  0.00    -0.348 OA
BRANCH  25  26
ATOM     26  C   UNL     1       2.188   3.633  -0.341  0.00  0.00    +0.174 C 
BRANCH  26  27
ATOM     27  C   UNL     1       1.070   3.802   0.670  0.00  0.00    +0.174 C 
BRANCH  27  28
ATOM     28  O   UNL     1       0.335   4.979   0.356  0.00  0.00    -0.348 OA
ATOM     29  C   UNL     1      -0.743   5.176   1.261  0.00  0.00    +0.174 C 
ENDBRANCH  27  28
ENDBRANCH  26  27
ENDBRANCH  25  26
ENDBRANCH  24  25
ENDBRANCH  23  24
ENDBRANCH  22  23
ENDBRANCH  21  22
ENDBRANCH  20  21
ENDBRANCH  19  20
ENDBRANCH   4  19
TORSDOF 14
