REMARK  Name = 135543624
REMARK  7 active torsions:
REMARK  status: ('A' for Active; 'I' for Inactive)
REMARK    1  A    between atoms: C_3  and  C_10
REMARK    2  A    between atoms: C_4  and  C_19
REMARK    3  A    between atoms: C_5  and  C_21
REMARK    4  A    between atoms: C_6  and  S_22
REMARK    5  A    between atoms: C_15  and  O_16
REMARK    6  A    between atoms: S_22  and  C_23
REMARK    7  A    between atoms: C_23  and  C_26
REMARK                            x       y       z     vdW  Elec       q    Type
REMARK                         _______ _______ _______ _____ _____    ______ ____
ROOT
ATOM      1  N   UNL     1       1.737  -1.879  -0.835  0.00  0.00    -0.384 NA
ATOM      2  N   UNL     1       0.955  -3.796   0.305  0.00  0.00    -0.332 N 
ATOM      3  C   UNL     1      -0.699  -0.586  -0.377  0.00  0.00    +0.012 C 
ATOM      4  C   UNL     1       0.316   0.062  -1.073  0.00  0.00    +0.172 C 
ATOM      5  C   UNL     1      -0.496  -1.880   0.090  0.00  0.00    +0.109 C 
ATOM      6  C   UNL     1       1.504  -0.622  -1.274  0.00  0.00    +0.154 C 
ATOM      7  C   UNL     1       0.728  -2.477  -0.163  0.00  0.00    +0.187 C 
ATOM      8  H   UNL     1       1.819  -4.237   0.135  0.00  0.00    +0.145 HD
ATOM      9  H   UNL     1       0.249  -4.271   0.800  0.00  0.00    +0.145 HD
ENDROOT
BRANCH   3  10
ATOM     10  C   UNL     1      -1.960   0.081  -0.139  0.00  0.00    -0.002 C 
ATOM     11  C   UNL     1      -2.138   0.845   1.015  0.00  0.00    +0.003 C 
ATOM     12  C   UNL     1      -2.998  -0.041  -1.062  0.00  0.00    +0.003 C 
ATOM     13  C   UNL     1      -3.355   1.486   1.245  0.00  0.00    +0.037 C 
ATOM     14  C   UNL     1      -4.215   0.600  -0.832  0.00  0.00    +0.037 C 
ATOM     15  C   UNL     1      -4.393   1.364   0.322  0.00  0.00    +0.134 C 
BRANCH  15  16
ATOM     16  O   UNL     1      -5.581   1.990   0.547  0.00  0.00    -0.506 OA
ATOM     17  H   UNL     1      -5.700   2.503   1.322  0.00  0.00    +0.292 HD
ENDBRANCH  15  16
ENDBRANCH   3  10
BRANCH   4  19
ATOM     18  N   UNL     1      -0.025   2.478  -1.960  0.00  0.00    -0.195 NA
ATOM     19  C   UNL     1       0.127   1.398  -1.564  0.00  0.00    +0.084 C 
ENDBRANCH   4  19
BRANCH   5  21
ATOM     20  N   UNL     1      -2.349  -3.145   1.396  0.00  0.00    -0.191 NA
ATOM     21  C   UNL     1      -1.521  -2.580   0.812  0.00  0.00    +0.104 C 
ENDBRANCH   5  21
BRANCH   6  22
ATOM     22  S   UNL     1       2.883   0.109  -2.156  0.00  0.00    -0.082 S 
BRANCH  22  23
ATOM     23  C   UNL     1       4.178   0.076  -0.888  0.00  0.00    +0.105 C 
BRANCH  23  26
ATOM     24  N   UNL     1       3.381   0.161   1.484  0.00  0.00    -0.316 N 
ATOM     25  N   UNL     1       3.748   2.125   0.516  0.00  0.00    -0.316 N 
ATOM     26  C   UNL     1       3.775   0.821   0.354  0.00  0.00    +0.155 C 
ATOM     27  C   UNL     1       3.082   1.104   2.427  0.00  0.00    +0.075 C 
ATOM     28  C   UNL     1       3.316   2.308   1.807  0.00  0.00    +0.075 C 
ATOM     29  H   UNL     1       3.322  -0.816   1.598  0.00  0.00    +0.148 HD
ATOM     30  H   UNL     1       3.984   2.818  -0.142  0.00  0.00    +0.148 HD
ENDBRANCH  23  26
ENDBRANCH  22  23
ENDBRANCH   6  22
TORSDOF 7
