135562677
  -OEChem-03292013293D

 34 36  0     1  0  0  0  0  0999 V2000
    1.7759    0.3130    1.1115 O   0  0  0  0  0  0  0  0  0  0  0  0
    3.0742   -2.3549    0.4982 O   0  0  0  0  0  0  0  0  0  0  0  0
    0.8832   -2.3313   -1.1668 O   0  0  0  0  0  0  0  0  0  0  0  0
    4.7236    0.9551   -0.9458 O   0  0  0  0  0  0  0  0  0  0  0  0
   -4.7655    1.5350   -0.4715 O   0  0  0  0  0  0  0  0  0  0  0  0
   -0.4905    0.2249    0.2099 N   0  0  0  0  0  0  0  0  0  0  0  0
   -1.8267    1.9432   -0.3072 N   0  0  0  0  0  0  0  0  0  0  0  0
   -2.1277   -1.5422    0.4798 N   0  0  0  0  0  0  0  0  0  0  0  0
   -4.3434   -0.6920    0.0879 N   0  0  0  0  0  0  0  0  0  0  0  0
    3.0683    0.0319    0.5290 C   0  0  1  0  0  0  0  0  0  0  0  0
    2.8885   -1.2106   -0.3338 C   0  0  2  0  0  0  0  0  0  0  0  0
    1.4382   -1.0967   -0.7594 C   0  0  2  0  0  0  0  0  0  0  0  0
    0.7828   -0.5346    0.4979 C   0  0  1  0  0  0  0  0  0  0  0  0
    3.5080    1.2530   -0.2671 C   0  0  1  0  0  0  0  0  0  0  0  0
   -1.7624   -0.2668    0.2138 C   0  0  0  0  0  0  0  0  0  0  0  0
    3.7157    2.4653    0.6267 C   0  0  0  0  0  0  0  0  0  0  0  0
   -0.5811    1.5581   -0.1086 C   0  0  0  0  0  0  0  0  0  0  0  0
   -2.5578    0.8096   -0.1068 C   0  0  0  0  0  0  0  0  0  0  0  0
   -3.9852    0.6341   -0.1903 C   0  0  0  0  0  0  0  0  0  0  0  0
   -3.4182   -1.6941    0.4026 C   0  0  0  0  0  0  0  0  0  0  0  0
    3.7730   -0.1579    1.3476 H   0  0  0  0  0  0  0  0  0  0  0  0
    3.5754   -1.3043   -1.1791 H   0  0  0  0  0  0  0  0  0  0  0  0
    1.3444   -0.3873   -1.5907 H   0  0  0  0  0  0  0  0  0  0  0  0
    0.5023   -1.3148    1.2156 H   0  0  0  0  0  0  0  0  0  0  0  0
    2.7558    1.5087   -1.0223 H   0  0  0  0  0  0  0  0  0  0  0  0
    4.4937    2.2726    1.3737 H   0  0  0  0  0  0  0  0  0  0  0  0
    2.7954    2.7520    1.1442 H   0  0  0  0  0  0  0  0  0  0  0  0
    4.0574    3.3220    0.0355 H   0  0  0  0  0  0  0  0  0  0  0  0
    4.0091   -2.3716    0.7655 H   0  0  0  0  0  0  0  0  0  0  0  0
    1.4261   -2.6668   -1.9004 H   0  0  0  0  0  0  0  0  0  0  0  0
    0.2890    2.1956   -0.1845 H   0  0  0  0  0  0  0  0  0  0  0  0
    4.9734    1.7412   -1.4608 H   0  0  0  0  0  0  0  0  0  0  0  0
   -3.8948   -2.6691    0.5885 H   0  0  0  0  0  0  0  0  0  0  0  0
   -5.3291   -0.9362    0.0583 H   0  0  0  0  0  0  0  0  0  0  0  0
  1 10  1  0  0  0  0
  1 13  1  0  0  0  0
  2 11  1  0  0  0  0
  2 29  1  0  0  0  0
  3 12  1  0  0  0  0
  3 30  1  0  0  0  0
  4 14  1  0  0  0  0
  4 32  1  0  0  0  0
  5 19  2  0  0  0  0
  6 13  1  0  0  0  0
  6 15  1  0  0  0  0
  6 17  1  0  0  0  0
  7 17  2  0  0  0  0
  7 18  1  0  0  0  0
  8 15  1  0  0  0  0
  8 20  2  0  0  0  0
  9 19  1  0  0  0  0
  9 20  1  0  0  0  0
  9 34  1  0  0  0  0
 10 11  1  0  0  0  0
 10 14  1  0  0  0  0
 10 21  1  0  0  0  0
 11 12  1  0  0  0  0
 11 22  1  0  0  0  0
 12 13  1  0  0  0  0
 12 23  1  0  0  0  0
 13 24  1  0  0  0  0
 14 16  1  0  0  0  0
 14 25  1  0  0  0  0
 15 18  2  0  0  0  0
 16 26  1  0  0  0  0
 16 27  1  0  0  0  0
 16 28  1  0  0  0  0
 17 31  1  0  0  0  0
 18 19  1  0  0  0  0
 20 33  1  0  0  0  0
M  END
> <PUBCHEM_COMPOUND_CID>
135562677

> <PUBCHEM_CONFORMER_RMSD>
0.6

> <PUBCHEM_CONFORMER_DIVERSEORDER>
1
19
23
20
13
32
26
30
27
25
7
14
31
21
8
11
12
15
28
17
2
16
29
5
18
24
9
10
6
22
4
3

> <PUBCHEM_MMFF94_PARTIAL_CHARGES>
25
1 -0.56
10 0.28
11 0.28
12 0.28
13 0.54
14 0.28
15 -0.03
17 0.04
18 0.14
19 0.72
2 -0.68
20 0.45
29 0.4
3 -0.68
30 0.4
31 0.15
32 0.4
33 0.06
34 0.37
4 -0.68
5 -0.57
6 0.05
7 -0.57
8 -0.58
9 -0.49

> <PUBCHEM_EFFECTIVE_ROTOR_COUNT>
3

> <PUBCHEM_PHARMACOPHORE_FEATURES>
13
1 1 acceptor
1 2 acceptor
1 2 donor
1 3 acceptor
1 3 donor
1 4 acceptor
1 4 donor
1 5 acceptor
1 9 donor
3 6 7 17 cation
5 1 10 11 12 13 rings
5 6 7 15 17 18 rings
6 8 9 15 18 19 20 rings

> <PUBCHEM_HEAVY_ATOM_COUNT>
20

> <PUBCHEM_ATOM_DEF_STEREO_COUNT>
5

> <PUBCHEM_ATOM_UDEF_STEREO_COUNT>
0

> <PUBCHEM_BOND_DEF_STEREO_COUNT>
0

> <PUBCHEM_BOND_UDEF_STEREO_COUNT>
0

> <PUBCHEM_ISOTOPIC_ATOM_COUNT>
0

> <PUBCHEM_COMPONENT_COUNT>
1

> <PUBCHEM_CACTVS_TAUTO_COUNT>
-1

> <PUBCHEM_CONFORMER_ID>
081485B500000001

> <PUBCHEM_MMFF94_ENERGY>
48.1043

> <PUBCHEM_FEATURE_SELFOVERLAP>
66.125

> <PUBCHEM_SHAPE_FINGERPRINT>
10366900 7 17918270944213565217
10498660 4 18409730672665730988
10608611 8 18410290276823654945
10616163 171 18411703226738295303
10759866 29 18335141994766574230
11132069 177 18335136526808982817
11405975 8 18335983064904956499
11578080 2 16806705318785415388
11615757 297 17561088037398896905
12633257 1 18195248814865311762
13224815 77 18413673512730413243
13296908 3 18408323276634245963
15196674 1 18408604764142177131
15219456 202 18412826880392916955
15375358 24 18410571782297471447
15375462 6 18408887339021003158
15536298 74 18409731759339754188
18186145 218 17531241730007232131
19050596 39 18335133189793083994
200 152 17346306052085474871
20645477 56 18260548901308669437
20645477 70 18271525299507147383
21501502 16 18341055094900876016
221490 88 18410018706469063218
23227448 37 17912080861348044788
23402539 116 18260260871794854262
23557571 272 18335151928577231695
23559900 14 18339073775111530666
296302 2 18411703188331243085
3060560 45 18059859454848282524
34934 24 18408317804866814853
3545911 37 18334860519293893972
4409770 3 16526647393967984070
474 4 17313674844664730724
495365 180 17774139254583207937
5104073 3 18335421249097162897
58051976 378 18343865506988481276
67856867 119 18260822709800074136
7364860 26 18339078194964914730
9709674 26 18269276772696035407

> <PUBCHEM_SHAPE_MULTIPOLES>
362.32
8.89
2.41
0.86
1.97
0.17
-0.03
-2.43
-0.49
-0.97
-0.1
-0.43
0.11
0.64

> <PUBCHEM_SHAPE_SELFOVERLAP>
784.533

> <PUBCHEM_SHAPE_VOLUME>
197

> <PUBCHEM_COORDINATE_TYPE>
2
5
10

$$$$
