REMARK  Name = 135509130
REMARK  5 active torsions:
REMARK  status: ('A' for Active; 'I' for Inactive)
REMARK    1  A    between atoms: C_2  and  C_12
REMARK    2  A    between atoms: C_3  and  C_24
REMARK    3  A    between atoms: C_4  and  O_20
REMARK    4  A    between atoms: C_5  and  O_22
REMARK    5  A    between atoms: C_24  and  S_25
REMARK                            x       y       z     vdW  Elec       q    Type
REMARK                         _______ _______ _______ _____ _____    ______ ____
ROOT
ATOM      1  N   UNL     1      -1.599  -0.061  -1.132  0.00  0.00    +0.393 N 
ATOM      2  C   UNL     1      -0.983  -1.306  -0.515  0.00  0.00    -0.006 C 
ATOM      3  C   UNL     1      -2.880   0.284  -0.394  0.00  0.00    -0.020 C 
ATOM      4  C   UNL     1      -1.736  -1.449   0.811  0.00  0.00    +0.120 C 
ATOM      5  C   UNL     1      -3.136  -0.940   0.481  0.00  0.00    +0.117 C 
ATOM      6  H   UNL     1      -1.809  -0.236  -2.115  0.00  0.00    -0.084 HD
ATOM      7  H   UNL     1      -0.943   0.716  -1.059  0.00  0.00    -0.084 HD
ENDROOT
BRANCH   2  12
ATOM      8  O   UNL     1       4.901   0.108   0.205  0.00  0.00    -0.273 OA
ATOM      9  N   UNL     1       2.672  -1.860  -0.289  0.00  0.00    -0.322 N 
ATOM     10  N   UNL     1       0.883   1.201   0.031  0.00  0.00    -0.251 NA
ATOM     11  N   UNL     1       3.224   1.707   0.309  0.00  0.00    -0.282 N 
ATOM     12  C   UNL     1       0.518  -1.253  -0.379  0.00  0.00    -0.010 C 
ATOM     13  C   UNL     1       1.317  -0.123  -0.136  0.00  0.00    +0.078 C 
ATOM     14  C   UNL     1       1.388  -2.323  -0.470  0.00  0.00    +0.053 C 
ATOM     15  C   UNL     1       2.636  -0.507  -0.083  0.00  0.00    +0.187 C 
ATOM     16  C   UNL     1       3.714   0.410   0.151  0.00  0.00    +0.248 C 
ATOM     17  C   UNL     1       1.869   2.022   0.242  0.00  0.00    +0.218 C 
ATOM     18  H   UNL     1       3.486  -2.413  -0.305  0.00  0.00    +0.148 HD
ATOM     19  H   UNL     1       3.867   2.434   0.476  0.00  0.00    +0.151 HD
ENDBRANCH   2  12
BRANCH   4  20
ATOM     20  O   UNL     1      -1.761  -2.791   1.269  0.00  0.00    -0.384 OA
ATOM     21  H   UNL     1      -0.858  -3.081   1.469  0.00  0.00    +0.210 HD
ENDBRANCH   4  20
BRANCH   5  22
ATOM     22  O   UNL     1      -3.856  -1.897  -0.293  0.00  0.00    -0.384 OA
ATOM     23  H   UNL     1      -4.741  -1.553  -0.491  0.00  0.00    +0.210 HD
ENDBRANCH   5  22
BRANCH   3  24
ATOM     24  C   UNL     1      -2.654   1.564   0.398  0.00  0.00    +0.039 C 
BRANCH  24  25
ATOM     25  S   UNL     1      -2.369   2.959  -0.723  0.00  0.00    -0.141 S 
ATOM     26  C   UNL     1      -2.149   4.256   0.517  0.00  0.00    +0.069 C 
ENDBRANCH  24  25
ENDBRANCH   3  24
TORSDOF 5
