135543745
  -OEChem-03292013293D

 47 50  0     0  0  0  0  0  0999 V2000
    1.2549   -0.2853    2.4889 O   0  0  0  0  0  0  0  0  0  0  0  0
    1.6373   -3.6043    1.0026 O   0  0  0  0  0  0  0  0  0  0  0  0
   -7.5317    1.0285   -0.6057 O   0  0  0  0  0  0  0  0  0  0  0  0
    2.0583    5.2603   -0.4144 O   0  0  0  0  0  0  0  0  0  0  0  0
    6.0024    0.0189   -1.7616 O   0  0  0  0  0  0  0  0  0  0  0  0
   -1.4800   -0.2581    0.6119 N   0  0  0  0  0  0  0  0  0  0  0  0
   -0.7699   -2.7805   -0.3881 N   0  0  0  0  0  0  0  0  0  0  0  0
   -0.2344   -0.7548    0.7476 C   0  0  0  0  0  0  0  0  0  0  0  0
    0.1144   -1.9937    0.2565 C   0  0  0  0  0  0  0  0  0  0  0  0
   -2.3644   -1.0449   -0.0326 C   0  0  0  0  0  0  0  0  0  0  0  0
   -3.6997   -0.5084   -0.1791 C   0  0  0  0  0  0  0  0  0  0  0  0
    0.7092    0.1031    1.4449 C   0  0  0  0  0  0  0  0  0  0  0  0
    1.4546   -2.5387    0.3946 C   0  0  0  0  0  0  0  0  0  0  0  0
    1.0657    1.4689    0.9533 C   0  0  0  0  0  0  0  0  0  0  0  0
    2.6586   -1.8607   -0.1756 C   0  0  0  0  0  0  0  0  0  0  0  0
   -2.0156   -2.2839   -0.5238 C   0  0  0  0  0  0  0  0  0  0  0  0
   -3.8984    0.6882   -0.8679 C   0  0  0  0  0  0  0  0  0  0  0  0
   -4.7887   -1.1881    0.3666 C   0  0  0  0  0  0  0  0  0  0  0  0
    0.4858    1.9629   -0.2152 C   0  0  0  0  0  0  0  0  0  0  0  0
    1.9790    2.2491    1.6624 C   0  0  0  0  0  0  0  0  0  0  0  0
    2.5412   -1.0845   -1.3285 C   0  0  0  0  0  0  0  0  0  0  0  0
    3.8996   -2.0053    0.4446 C   0  0  0  0  0  0  0  0  0  0  0  0
   -5.1860    1.2050   -1.0111 C   0  0  0  0  0  0  0  0  0  0  0  0
   -6.0763   -0.6714    0.2235 C   0  0  0  0  0  0  0  0  0  0  0  0
   -6.2750    0.5251   -0.4654 C   0  0  0  0  0  0  0  0  0  0  0  0
    0.8193    3.2369   -0.6747 C   0  0  0  0  0  0  0  0  0  0  0  0
    2.3128    3.5231    1.2029 C   0  0  0  0  0  0  0  0  0  0  0  0
    3.6648   -0.4529   -1.8615 C   0  0  0  0  0  0  0  0  0  0  0  0
    5.0233   -1.3738   -0.0884 C   0  0  0  0  0  0  0  0  0  0  0  0
    1.7328    4.0169    0.0343 C   0  0  0  0  0  0  0  0  0  0  0  0
    4.9059   -0.5976   -1.2413 C   0  0  0  0  0  0  0  0  0  0  0  0
   -2.7141   -2.9259   -1.0485 H   0  0  0  0  0  0  0  0  0  0  0  0
   -3.0620    1.2304   -1.3030 H   0  0  0  0  0  0  0  0  0  0  0  0
   -4.6547   -2.1199    0.9112 H   0  0  0  0  0  0  0  0  0  0  0  0
   -0.2105    1.3866   -0.8146 H   0  0  0  0  0  0  0  0  0  0  0  0
    2.4460    1.8881    2.5747 H   0  0  0  0  0  0  0  0  0  0  0  0
    1.5890   -0.9655   -1.8382 H   0  0  0  0  0  0  0  0  0  0  0  0
    4.0097   -2.6010    1.3469 H   0  0  0  0  0  0  0  0  0  0  0  0
   -5.3276    2.1376   -1.5507 H   0  0  0  0  0  0  0  0  0  0  0  0
   -6.9206   -1.2049    0.6515 H   0  0  0  0  0  0  0  0  0  0  0  0
    0.3687    3.6145   -1.5886 H   0  0  0  0  0  0  0  0  0  0  0  0
    3.0260    4.1209    1.7639 H   0  0  0  0  0  0  0  0  0  0  0  0
    3.5675    0.1491   -2.7608 H   0  0  0  0  0  0  0  0  0  0  0  0
    5.9843   -1.4930    0.4049 H   0  0  0  0  0  0  0  0  0  0  0  0
   -7.4837    1.8599   -1.1083 H   0  0  0  0  0  0  0  0  0  0  0  0
    2.7026    5.6570    0.1969 H   0  0  0  0  0  0  0  0  0  0  0  0
    6.7736   -0.1888   -1.2064 H   0  0  0  0  0  0  0  0  0  0  0  0
  1 12  2  0  0  0  0
  2 13  2  0  0  0  0
  3 25  1  0  0  0  0
  3 45  1  0  0  0  0
  4 30  1  0  0  0  0
  4 46  1  0  0  0  0
  5 31  1  0  0  0  0
  5 47  1  0  0  0  0
  6  8  2  0  0  0  0
  6 10  1  0  0  0  0
  7  9  2  0  0  0  0
  7 16  1  0  0  0  0
  8  9  1  0  0  0  0
  8 12  1  0  0  0  0
  9 13  1  0  0  0  0
 10 11  1  0  0  0  0
 10 16  2  0  0  0  0
 11 17  2  0  0  0  0
 11 18  1  0  0  0  0
 12 14  1  0  0  0  0
 13 15  1  0  0  0  0
 14 19  2  0  0  0  0
 14 20  1  0  0  0  0
 15 21  2  0  0  0  0
 15 22  1  0  0  0  0
 16 32  1  0  0  0  0
 17 23  1  0  0  0  0
 17 33  1  0  0  0  0
 18 24  2  0  0  0  0
 18 34  1  0  0  0  0
 19 26  1  0  0  0  0
 19 35  1  0  0  0  0
 20 27  2  0  0  0  0
 20 36  1  0  0  0  0
 21 28  1  0  0  0  0
 21 37  1  0  0  0  0
 22 29  2  0  0  0  0
 22 38  1  0  0  0  0
 23 25  2  0  0  0  0
 23 39  1  0  0  0  0
 24 25  1  0  0  0  0
 24 40  1  0  0  0  0
 26 30  2  0  0  0  0
 26 41  1  0  0  0  0
 27 30  1  0  0  0  0
 27 42  1  0  0  0  0
 28 31  2  0  0  0  0
 28 43  1  0  0  0  0
 29 31  1  0  0  0  0
 29 44  1  0  0  0  0
M  END
> <PUBCHEM_COMPOUND_CID>
135543745

> <PUBCHEM_CONFORMER_RMSD>
0.8

> <PUBCHEM_CONFORMER_DIVERSEORDER>
2
4
48
9
60
18
57
6
43
61
55
11
29
22
46
14
58
13
44
56
19
32
20
15
52
1
24
8
47
40
31
51
42
50
16
41
30
53
59
10
7
35
54
38
34
5
21
49
28
37
45
39
3
17
23
12
25
33
36
26
27

> <PUBCHEM_MMFF94_PARTIAL_CHARGES>
46
1 -0.57
10 0.31
12 0.4
13 0.4
14 0.09
15 0.09
16 0.16
17 -0.15
18 -0.15
19 -0.15
2 -0.57
20 -0.15
21 -0.15
22 -0.15
23 -0.15
24 -0.15
25 0.08
26 -0.15
27 -0.15
28 -0.15
29 -0.15
3 -0.53
30 0.08
31 0.08
32 0.15
33 0.15
34 0.15
35 0.15
36 0.15
37 0.15
38 0.15
39 0.15
4 -0.53
40 0.15
41 0.15
42 0.15
43 0.15
44 0.15
45 0.45
46 0.45
47 0.45
5 -0.53
6 -0.62
7 -0.62
8 0.4
9 0.4

> <PUBCHEM_EFFECTIVE_ROTOR_COUNT>
5

> <PUBCHEM_PHARMACOPHORE_FEATURES>
11
1 1 acceptor
1 2 acceptor
1 3 donor
1 4 donor
1 5 donor
1 6 acceptor
1 7 acceptor
6 11 17 18 23 24 25 rings
6 14 19 20 26 27 30 rings
6 15 21 22 28 29 31 rings
6 6 7 8 9 10 16 rings

> <PUBCHEM_HEAVY_ATOM_COUNT>
31

> <PUBCHEM_ATOM_DEF_STEREO_COUNT>
0

> <PUBCHEM_ATOM_UDEF_STEREO_COUNT>
0

> <PUBCHEM_BOND_DEF_STEREO_COUNT>
0

> <PUBCHEM_BOND_UDEF_STEREO_COUNT>
0

> <PUBCHEM_ISOTOPIC_ATOM_COUNT>
0

> <PUBCHEM_COMPONENT_COUNT>
1

> <PUBCHEM_CACTVS_TAUTO_COUNT>
-1

> <PUBCHEM_CONFORMER_ID>
08143BC100000002

> <PUBCHEM_MMFF94_ENERGY>
108.0221

> <PUBCHEM_FEATURE_SELFOVERLAP>
55.829

> <PUBCHEM_SHAPE_FINGERPRINT>
10483366 6 18409456882008115708
10816530 90 18261105292261883132
10930396 42 18268403830105744242
11115154 58 17274549733013514097
12107698 1 18272646819359634045
12156800 1 16663420284070463396
12293681 160 18337123302082786194
12422481 6 17982418737880531384
12788726 201 18264215712573700738
14068700 675 17988355975641819865
14117953 113 18412265073856117852
14849402 71 18410300177620331001
15163728 17 17758118476850555524
15198563 99 18125171433344193332
15210252 30 18333735697940775100
15322687 12 18336552706538763548
15439362 3 18195246843903266080
15475509 8 17773334352021248199
15664445 248 18271254832900745190
15775530 1 17975137857174634978
1601671 61 18339922606720267291
16090146 7 16916799495959842687
16728300 4 11958904628981365028
16988056 13 18411412916924764261
17492 54 18337968834950800782
19319366 153 17968373438318257163
20642791 105 17757817941272942498
20642791 239 18337687411566419362
20642791 35 18413105078145933514
20691752 17 18116414011695860174
21285901 2 17986676969725233830
23352939 185 18343025453976302312
23559900 14 18131346457658403139
23569914 2 16881838354300037557
23576562 1 18340767152178321407
244849 19 17824558575602772754
24771750 20 18122356927836042092
3178227 256 18411149030397988539
3298306 158 17767972287622135692
340366 18 17988920110979795807
350125 39 18410858729447665057
3552219 110 16881571006002915770
465052 167 11383824965765744966
5081480 168 18341041969549891965
5265222 85 17472708399917858660
5776283 40 18189911987784085100
6669772 16 18267021850467467244
6823239 73 18335695053368030697
7495541 125 18335140895207668699

> <PUBCHEM_SHAPE_MULTIPOLES>
598.66
12.54
4.67
1.49
19.31
5.61
-0.19
-1.06
5.23
-4.92
-0.43
-1.51
0.2
0.94

> <PUBCHEM_SHAPE_SELFOVERLAP>
1338.582

> <PUBCHEM_SHAPE_VOLUME>
312.9

> <PUBCHEM_COORDINATE_TYPE>
2
5
10

$$$$
