REMARK  Name = 135505752
REMARK  6 active torsions:
REMARK  status: ('A' for Active; 'I' for Inactive)
REMARK    1  A    between atoms: C_3  and  C_7
REMARK    2  A    between atoms: C_3  and  C_14
REMARK    3  A    between atoms: C_4  and  O_12
REMARK    4  A    between atoms: C_5  and  C_16
REMARK    5  A    between atoms: C_8  and  C_10
REMARK    6  A    between atoms: C_16  and  C_19
REMARK                            x       y       z     vdW  Elec       q    Type
REMARK                         _______ _______ _______ _____ _____    ______ ____
ROOT
ATOM      1  S   UNL     1       0.446   1.344  -1.064  0.00  0.00    -0.063 S 
ATOM      2  O   UNL     1      -1.838   2.526  -0.492  0.00  0.00    -0.280 OA
ATOM      3  C   UNL     1       0.747  -0.295  -0.279  0.00  0.00    +0.114 C 
ATOM      4  C   UNL     1      -0.498  -0.528   0.539  0.00  0.00    +0.124 C 
ATOM      5  C   UNL     1      -1.468   0.397   0.535  0.00  0.00    +0.062 C 
ATOM      6  C   UNL     1      -1.126   1.550  -0.319  0.00  0.00    +0.221 C 
ENDROOT
BRANCH   3   7
ATOM      7  C   UNL     1       1.981  -0.182   0.566  0.00  0.00    -0.014 C 
ATOM      8  C   UNL     1       3.255   0.025   0.173  0.00  0.00    -0.025 C 
ATOM      9  C   UNL     1       3.679   0.197  -1.262  0.00  0.00    +0.031 C 
BRANCH   8  10
ATOM     10  C   UNL     1       4.299   0.091   1.196  0.00  0.00    -0.005 C 
ATOM     11  C   UNL     1       5.609   0.288   0.999  0.00  0.00    -0.000 C 
ENDBRANCH   8  10
ENDBRANCH   3   7
BRANCH   4  12
ATOM     12  O   UNL     1      -0.598  -1.692   1.270  0.00  0.00    -0.509 OA
ATOM     13  H   UNL     1       0.099  -2.319   1.250  0.00  0.00    +0.292 HD
ENDBRANCH   4  12
BRANCH   3  14
ATOM     14  C   UNL     1       0.912  -1.341  -1.384  0.00  0.00    +0.022 C 
ATOM     15  C   UNL     1      -0.263  -1.320  -2.340  0.00  0.00    +0.002 C 
ENDBRANCH   3  14
BRANCH   5  16
ATOM     16  C   UNL     1      -2.765   0.366   1.265  0.00  0.00    +0.118 C 
BRANCH  16  19
ATOM     17  O   UNL     1      -3.668  -1.508   0.042  0.00  0.00    -0.275 OA
ATOM     18  N   UNL     1      -4.901   0.428   0.133  0.00  0.00    -0.329 N 
ATOM     19  C   UNL     1      -3.801  -0.347   0.422  0.00  0.00    +0.224 C 
ATOM     20  H   UNL     1      -5.635   0.059  -0.410  0.00  0.00    +0.145 HD
ATOM     21  H   UNL     1      -4.954   1.352   0.470  0.00  0.00    +0.145 HD
ENDBRANCH  16  19
ENDBRANCH   5  16
TORSDOF 6
