REMARK  Name = 135562701
REMARK  3 active torsions:
REMARK  status: ('A' for Active; 'I' for Inactive)
REMARK    1  A    between atoms: C_7  and  O_36
REMARK    2  A    between atoms: C_9  and  N_23
REMARK    3  A    between atoms: C_16  and  O_38
REMARK                            x       y       z     vdW  Elec       q    Type
REMARK                         _______ _______ _______ _____ _____    ______ ____
ROOT
ATOM      1  O   UNL     1      -2.620  -2.884  -0.230  0.00  0.00    -0.304 OA
ATOM      2  O   UNL     1      -0.464  -3.844   0.145  0.00  0.00    -0.452 OA
ATOM      3  O   UNL     1       1.019   0.144  -1.865  0.00  0.00    -0.421 OA
ATOM      4  O   UNL     1       1.693   2.100  -2.861  0.00  0.00    -0.244 OA
ATOM      5  O   UNL     1       4.006   3.401  -1.470  0.00  0.00    -0.286 OA
ATOM      6  C   UNL     1      -0.804  -2.271  -1.683  0.00  0.00    +0.129 C 
ATOM      7  C   UNL     1      -1.938  -1.283  -1.836  0.00  0.00    +0.164 C 
ATOM      8  C   UNL     1      -1.420  -3.394  -0.842  0.00  0.00    +0.295 C 
ATOM      9  C   UNL     1      -2.820  -1.507  -0.605  0.00  0.00    +0.210 C 
ATOM     10  C   UNL     1       0.313  -1.882  -0.787  0.00  0.00    +0.055 C 
ATOM     11  C   UNL     1       0.460  -2.834   0.208  0.00  0.00    +0.144 C 
ATOM     12  C   UNL     1       1.176  -0.802  -0.830  0.00  0.00    +0.151 A 
ATOM     13  C   UNL     1       2.182  -0.663   0.136  0.00  0.00    +0.069 A 
ATOM     14  C   UNL     1       1.448  -2.745   1.172  0.00  0.00    +0.074 C 
ATOM     15  C   UNL     1       3.046   0.504   0.045  0.00  0.00    +0.015 A 
ATOM     16  C   UNL     1       2.311  -1.645   1.135  0.00  0.00    +0.145 C 
ATOM     17  C   UNL     1       4.161   0.824   0.987  0.00  0.00    +0.004 C 
ATOM     18  C   UNL     1       2.861   1.385  -0.939  0.00  0.00    +0.115 A 
ATOM     19  C   UNL     1       4.737   2.135   0.456  0.00  0.00    +0.042 C 
ATOM     20  C   UNL     1       1.832   1.271  -1.970  0.00  0.00    +0.349 A 
ATOM     21  C   UNL     1       3.880   2.426  -0.744  0.00  0.00    +0.202 C 
ENDROOT
BRANCH   9  23
ATOM     22  O   UNL     1      -3.454   1.373  -1.606  0.00  0.00    -0.272 OA
ATOM     23  N   UNL     1      -2.534  -0.555   0.544  0.00  0.00    -0.207 NA
ATOM     24  N   UNL     1      -1.924   0.126   2.578  0.00  0.00    -0.194 NA
ATOM     25  N   UNL     1      -2.301   2.547   2.212  0.00  0.00    -0.323 NA
ATOM     26  N   UNL     1      -3.092   3.008  -0.007  0.00  0.00    -0.245 N 
ATOM     27  N   UNL     1      -2.759   4.740   1.532  0.00  0.00    -0.320 N 
ATOM     28  C   UNL     1      -2.674   0.802   0.551  0.00  0.00    +0.236 C 
ATOM     29  C   UNL     1      -2.081  -0.915   1.787  0.00  0.00    +0.216 C 
ATOM     30  C   UNL     1      -2.294   1.199   1.811  0.00  0.00    +0.087 C 
ATOM     31  C   UNL     1      -3.110   1.695  -0.474  0.00  0.00    +0.259 C 
ATOM     32  C   UNL     1      -2.699   3.392   1.288  0.00  0.00    +0.248 C 
ATOM     33  H   UNL     1      -3.375   3.718  -0.627  0.00  0.00    +0.159 HD
ATOM     34  H   UNL     1      -2.501   5.092   2.415  0.00  0.00    +0.146 HD
ATOM     35  H   UNL     1      -3.060   5.355   0.825  0.00  0.00    +0.146 HD
ENDBRANCH   9  23
BRANCH   7  36
ATOM     36  O   UNL     1      -2.684  -1.612  -3.011  0.00  0.00    -0.380 OA
ATOM     37  H   UNL     1      -2.130  -1.472  -3.795  0.00  0.00    +0.211 HD
ENDBRANCH   7  36
BRANCH  16  38
ATOM     38  O   UNL     1       3.264  -1.586   2.110  0.00  0.00    -0.471 OA
ATOM     39  C   UNL     1       3.282  -2.648   3.061  0.00  0.00    +0.252 C 
ENDBRANCH  16  38
TORSDOF 3
