REMARK  Name = 135542250
REMARK  3 active torsions:
REMARK  status: ('A' for Active; 'I' for Inactive)
REMARK    1  A    between atoms: N_2  and  C_18
REMARK    2  A    between atoms: C_15  and  C_19
REMARK    3  A    between atoms: C_19  and  O_20
REMARK                            x       y       z     vdW  Elec       q    Type
REMARK                         _______ _______ _______ _____ _____    ______ ____
ROOT
ATOM      1  O   UNL     1       3.425  -2.350  -0.051  0.00  0.00    -0.268 OA
ATOM      2  N   UNL     1      -0.317   0.179  -0.163  0.00  0.00    -0.239 N 
ATOM      3  N   UNL     1       0.496  -1.902  -0.256  0.00  0.00    -0.239 NA
ATOM      4  N   UNL     1       1.730   1.444   0.101  0.00  0.00    -0.356 NA
ATOM      5  N   UNL     1       3.618  -0.031   0.143  0.00  0.00    -0.243 N 
ATOM      6  N   UNL     1       3.906   2.296   0.344  0.00  0.00    -0.321 N 
ATOM      7  C   UNL     1       1.037   0.293  -0.044  0.00  0.00    +0.213 C 
ATOM      8  C   UNL     1      -0.594  -1.160  -0.288  0.00  0.00    +0.226 C 
ATOM      9  C   UNL     1       1.505  -0.997  -0.104  0.00  0.00    +0.176 C 
ATOM     10  C   UNL     1       2.918  -1.237  -0.007  0.00  0.00    +0.273 C 
ATOM     11  C   UNL     1       3.029   1.255   0.193  0.00  0.00    +0.239 C 
ATOM     12  H   UNL     1       4.598  -0.083   0.219  0.00  0.00    +0.159 HD
ATOM     13  H   UNL     1       3.570   3.221   0.387  0.00  0.00    +0.146 HD
ATOM     14  H   UNL     1       4.873   2.120   0.409  0.00  0.00    +0.146 HD
ENDROOT
BRANCH   2  18
ATOM     15  C   UNL     1      -3.644   0.147  -0.395  0.00  0.00    +0.053 C 
ATOM     16  C   UNL     1      -3.824   1.702  -0.305  0.00  0.00    +0.030 C 
ATOM     17  C   UNL     1      -2.572   1.053  -0.261  0.00  0.00    -0.026 C 
ATOM     18  C   UNL     1      -1.246   1.202  -0.161  0.00  0.00    +0.061 C 
BRANCH  15  19
ATOM     19  C   UNL     1      -4.067  -0.723   0.735  0.00  0.00    +0.141 C 
BRANCH  19  20
ATOM     20  O   UNL     1      -5.400  -1.170   0.519  0.00  0.00    -0.382 OA
ATOM     21  H   UNL     1      -5.674  -1.737   1.257  0.00  0.00    +0.210 HD
ENDBRANCH  19  20
ENDBRANCH  15  19
ENDBRANCH   2  18
TORSDOF 3
