REMARK  Name = 135512730
REMARK  5 active torsions:
REMARK  status: ('A' for Active; 'I' for Inactive)
REMARK    1  A    between atoms: C_7  and  C_18
REMARK    2  A    between atoms: N_17  and  C_20
REMARK    3  A    between atoms: C_20  and  C_21
REMARK    4  A    between atoms: C_21  and  C_22
REMARK    5  A    between atoms: C_22  and  N_23
REMARK                            x       y       z     vdW  Elec       q    Type
REMARK                         _______ _______ _______ _____ _____    ______ ____
ROOT
ATOM      1  O   UNL     1       1.290   2.365  -0.164  0.00  0.00    -0.274 OA
ATOM      2  N   UNL     1       1.232  -2.171   0.420  0.00  0.00    -0.290 N 
ATOM      3  N   UNL     1       3.249   1.141  -0.442  0.00  0.00    -0.247 N 
ATOM      4  N   UNL     1       3.360  -1.230  -0.167  0.00  0.00    -0.362 NA
ATOM      5  N   UNL     1       5.279  -0.006  -0.745  0.00  0.00    -0.321 N 
ATOM      6  C   UNL     1       1.264   0.029   0.135  0.00  0.00    +0.171 C 
ATOM      7  C   UNL     1      -0.054  -0.348   0.473  0.00  0.00    +0.062 C 
ATOM      8  C   UNL     1       2.038  -1.112   0.109  0.00  0.00    +0.176 C 
ATOM      9  C   UNL     1      -0.046  -1.718   0.644  0.00  0.00    +0.065 C 
ATOM     10  C   UNL     1       1.887   1.295  -0.161  0.00  0.00    +0.241 C 
ATOM     11  C   UNL     1       3.945  -0.086  -0.440  0.00  0.00    +0.239 C 
ATOM     12  H   UNL     1       1.521  -3.111   0.476  0.00  0.00    +0.154 HD
ATOM     13  H   UNL     1       3.763   1.953  -0.657  0.00  0.00    +0.158 HD
ATOM     14  H   UNL     1       5.686   0.868  -0.945  0.00  0.00    +0.146 HD
ATOM     15  H   UNL     1       5.830  -0.822  -0.764  0.00  0.00    +0.146 HD
ENDROOT
BRANCH   7  18
ATOM     16  O   UNL     1      -1.163   1.718   0.433  0.00  0.00    -0.270 OA
ATOM     17  N   UNL     1      -2.428  -0.150   0.969  0.00  0.00    -0.301 N 
ATOM     18  C   UNL     1      -1.216   0.479   0.623  0.00  0.00    +0.244 C 
ATOM     19  H   UNL     1      -2.418  -1.125   1.107  0.00  0.00    +0.150 HD
BRANCH  17  20
ATOM     20  C   UNL     1      -3.686   0.542   1.135  0.00  0.00    +0.087 C 
BRANCH  20  21
ATOM     21  C   UNL     1      -4.484   0.626  -0.164  0.00  0.00    -0.003 C 
BRANCH  21  22
ATOM     22  C   UNL     1      -4.846  -0.754  -0.715  0.00  0.00    -0.084 C 
BRANCH  22  23
ATOM     23  N   UNL     1      -5.620  -0.619  -1.944  0.00  0.00    +0.380 N 
ATOM     24  H   UNL     1      -5.855  -1.545  -2.301  0.00  0.00    -0.089 HD
ATOM     25  H   UNL     1      -5.070  -0.116  -2.639  0.00  0.00    -0.089 HD
ATOM     26  H   UNL     1      -6.478  -0.103  -1.750  0.00  0.00    -0.089 HD
ENDBRANCH  22  23
ENDBRANCH  21  22
ENDBRANCH  20  21
ENDBRANCH  17  20
ENDBRANCH   7  18
TORSDOF 5
