135509130
  -OEChem-03292013293D

 37 39  0     1  0  0  0  0  0999 V2000
   -2.3695    2.9587   -0.7229 S   0  0  0  0  0  0  0  0  0  0  0  0
   -1.7613   -2.7905    1.2686 O   0  0  0  0  0  0  0  0  0  0  0  0
   -3.8563   -1.8971   -0.2931 O   0  0  0  0  0  0  0  0  0  0  0  0
    4.9013    0.1076    0.2055 O   0  0  0  0  0  0  0  0  0  0  0  0
   -1.5989   -0.0611   -1.1318 N   0  3  0  0  0  0  0  0  0  0  0  0
    2.6717   -1.8597   -0.2888 N   0  0  0  0  0  0  0  0  0  0  0  0
    0.8832    1.2006    0.0307 N   0  0  0  0  0  0  0  0  0  0  0  0
    3.2245    1.7070    0.3088 N   0  0  0  0  0  0  0  0  0  0  0  0
   -0.9830   -1.3060   -0.5146 C   0  0  2  0  0  0  0  0  0  0  0  0
   -2.8795    0.2841   -0.3937 C   0  0  1  0  0  0  0  0  0  0  0  0
   -1.7358   -1.4492    0.8111 C   0  0  1  0  0  0  0  0  0  0  0  0
   -3.1358   -0.9395    0.4806 C   0  0  2  0  0  0  0  0  0  0  0  0
    0.5185   -1.2534   -0.3787 C   0  0  0  0  0  0  0  0  0  0  0  0
   -2.6538    1.5641    0.3981 C   0  0  0  0  0  0  0  0  0  0  0  0
    1.3170   -0.1230   -0.1364 C   0  0  0  0  0  0  0  0  0  0  0  0
    1.3877   -2.3233   -0.4697 C   0  0  0  0  0  0  0  0  0  0  0  0
    2.6360   -0.5073   -0.0829 C   0  0  0  0  0  0  0  0  0  0  0  0
    3.7141    0.4099    0.1508 C   0  0  0  0  0  0  0  0  0  0  0  0
   -2.1491    4.2561    0.5168 C   0  0  0  0  0  0  0  0  0  0  0  0
    1.8691    2.0221    0.2416 C   0  0  0  0  0  0  0  0  0  0  0  0
   -1.2465   -2.1290   -1.1924 H   0  0  0  0  0  0  0  0  0  0  0  0
   -3.6561    0.4106   -1.1575 H   0  0  0  0  0  0  0  0  0  0  0  0
   -0.9490    0.7365   -1.1146 H   0  0  0  0  0  0  0  0  0  0  0  0
   -1.8004   -0.2354   -2.1262 H   0  0  0  0  0  0  0  0  0  0  0  0
   -1.2734   -0.8311    1.5905 H   0  0  0  0  0  0  0  0  0  0  0  0
   -3.7223   -0.7295    1.3803 H   0  0  0  0  0  0  0  0  0  0  0  0
   -1.8022    1.4717    1.0797 H   0  0  0  0  0  0  0  0  0  0  0  0
   -3.5436    1.7815    0.9986 H   0  0  0  0  0  0  0  0  0  0  0  0
   -2.3309   -2.8183    2.0562 H   0  0  0  0  0  0  0  0  0  0  0  0
   -4.7296   -1.5163   -0.4882 H   0  0  0  0  0  0  0  0  0  0  0  0
    1.2113   -3.3752   -0.6464 H   0  0  0  0  0  0  0  0  0  0  0  0
    3.5053   -2.4313   -0.3057 H   0  0  0  0  0  0  0  0  0  0  0  0
   -1.9638    5.2082    0.0125 H   0  0  0  0  0  0  0  0  0  0  0  0
   -3.0495    4.3564    1.1284 H   0  0  0  0  0  0  0  0  0  0  0  0
   -1.2920    4.0296    1.1562 H   0  0  0  0  0  0  0  0  0  0  0  0
    1.6810    3.0969    0.3913 H   0  0  0  0  0  0  0  0  0  0  0  0
    3.8906    2.4545    0.4810 H   0  0  0  0  0  0  0  0  0  0  0  0
  1 14  1  0  0  0  0
  1 19  1  0  0  0  0
  2 11  1  0  0  0  0
  2 29  1  0  0  0  0
  3 12  1  0  0  0  0
  3 30  1  0  0  0  0
  4 18  2  0  0  0  0
  5  9  1  0  0  0  0
  5 10  1  0  0  0  0
  5 23  1  0  0  0  0
  5 24  1  0  0  0  0
  6 16  1  0  0  0  0
  6 17  1  0  0  0  0
  6 32  1  0  0  0  0
  7 15  1  0  0  0  0
  7 20  2  0  0  0  0
  8 18  1  0  0  0  0
  8 20  1  0  0  0  0
  8 37  1  0  0  0  0
  9 11  1  0  0  0  0
  9 13  1  0  0  0  0
  9 21  1  0  0  0  0
 10 12  1  0  0  0  0
 10 14  1  0  0  0  0
 10 22  1  0  0  0  0
 11 12  1  0  0  0  0
 11 25  1  0  0  0  0
 12 26  1  0  0  0  0
 13 15  1  0  0  0  0
 13 16  2  0  0  0  0
 14 27  1  0  0  0  0
 14 28  1  0  0  0  0
 15 17  2  0  0  0  0
 16 31  1  0  0  0  0
 17 18  1  0  0  0  0
 19 33  1  0  0  0  0
 19 34  1  0  0  0  0
 19 35  1  0  0  0  0
 20 36  1  0  0  0  0
M  CHG  1   5   1
M  END
> <PUBCHEM_COMPOUND_CID>
135509130

> <PUBCHEM_CONFORMER_RMSD>
0.6

> <PUBCHEM_CONFORMER_DIVERSEORDER>
1
45
51
21
50
47
5
8
23
27
35
14
44
11
43
60
16
42
10
59
63
38
57
30
64
12
7
18
54
32
36
26
9
24
25
28
22
58
52
56
6
29
13
39
46
4
15
41
34
62
37
17
53
3
31
48
49
40
19
20
61
55
2
33

> <PUBCHEM_MMFF94_PARTIAL_CHARGES>
28
1 -0.46
10 0.5
11 0.28
12 0.28
13 -0.18
14 0.23
15 0.12
16 -0.3
17 -0.24
18 0.71
19 0.23
2 -0.68
20 0.45
23 0.45
24 0.45
29 0.4
3 -0.68
30 0.4
31 0.15
32 0.27
36 0.06
37 0.37
4 -0.57
5 -0.91
6 0.03
7 -0.57
8 -0.49
9 0.68

> <PUBCHEM_EFFECTIVE_ROTOR_COUNT>
4

> <PUBCHEM_PHARMACOPHORE_FEATURES>
14
1 19 hydrophobe
1 2 acceptor
1 2 donor
1 3 acceptor
1 3 donor
1 4 acceptor
1 5 cation
1 5 donor
1 6 cation
1 6 donor
1 8 donor
5 5 9 10 11 12 rings
5 6 13 15 16 17 rings
6 7 8 15 17 18 20 rings

> <PUBCHEM_HEAVY_ATOM_COUNT>
20

> <PUBCHEM_ATOM_DEF_STEREO_COUNT>
4

> <PUBCHEM_ATOM_UDEF_STEREO_COUNT>
0

> <PUBCHEM_BOND_DEF_STEREO_COUNT>
0

> <PUBCHEM_BOND_UDEF_STEREO_COUNT>
0

> <PUBCHEM_ISOTOPIC_ATOM_COUNT>
0

> <PUBCHEM_COMPONENT_COUNT>
1

> <PUBCHEM_CACTVS_TAUTO_COUNT>
-1

> <PUBCHEM_CONFORMER_ID>
0813B48A00000001

> <PUBCHEM_MMFF94_ENERGY>
44.474

> <PUBCHEM_FEATURE_SELFOVERLAP>
71.176

> <PUBCHEM_SHAPE_FINGERPRINT>
10366900 7 18263367039245881250
10608611 8 18410855430089862071
10670039 82 18263938781752115524
10967382 1 18123187080457869620
1100329 8 17617376182510998330
11221954 11 18198346143595253885
12403259 226 18199744919906508946
13140716 1 18193279812862335968
13464514 151 18195529190715379870
138480 1 16032955591754356097
14223421 5 18411985762381764103
15442244 35 18266739078347017666
16945 1 18337120050001356230
17802600 8 18341890848165443130
18219364 16 17903083231238481337
19049666 15 18336831883486677806
19930381 70 17836077145673720081
200 152 18130217276745141311
20510252 161 18408322173027857619
21279426 13 18197785397751385446
22182313 1 18130797707484203502
22182937 141 18197784306254932377
23402539 116 18338791325488590671
23558518 356 18263369105446579237
23845131 108 17757844321384607081
2748010 2 18270967830253593294
7832392 63 18053098424135278599
81228 2 18113628871796665541
8809292 202 18334859419940242488
9709674 26 18411141341815749446

> <PUBCHEM_SHAPE_MULTIPOLES>
377.91
6.84
3.89
0.87
3.94
2.56
0.02
1.66
0.32
-3.36
0.58
-0.42
-0.15
0.6

> <PUBCHEM_SHAPE_SELFOVERLAP>
796.781

> <PUBCHEM_SHAPE_VOLUME>
215.7

> <PUBCHEM_COORDINATE_TYPE>
2
5
10

$$$$
