REMARK  Name = 135596554
REMARK  6 active torsions:
REMARK  status: ('A' for Active; 'I' for Inactive)
REMARK    1  A    between atoms: N_2  and  C1*_16
REMARK    2  A    between atoms: N_3  and  C_27
REMARK    3  A    between atoms: C2*_17  and  O2*_20
REMARK    4  A    between atoms: C3*_18  and  O3*_22
REMARK    5  A    between atoms: C4*_19  and  C5*_24
REMARK    6  A    between atoms: C5*_24  and  O5*_25
REMARK                            x       y       z     vdW  Elec       q    Type
REMARK                         _______ _______ _______ _____ _____    ______ ____
ROOT
ATOM      1  O   UNL     1      -4.338  -1.071  -0.007  0.00  0.00    -0.273 OA
ATOM      2  N   UNL     1       0.144  -0.109  -0.266  0.00  0.00    -0.247 N 
ATOM      3  N   UNL     1      -1.325  -1.685  -0.105  0.00  0.00    -0.243 NA
ATOM      4  N   UNL     1      -1.343   1.848  -0.316  0.00  0.00    -0.361 NA
ATOM      5  N   UNL     1      -3.623   1.120  -0.170  0.00  0.00    -0.246 N 
ATOM      6  N   UNL     1      -3.098   3.402  -0.331  0.00  0.00    -0.321 N 
ATOM      7  C   UNL     1      -1.087   0.515  -0.247  0.00  0.00    +0.189 C 
ATOM      8  C   UNL     1      -0.014  -1.434  -0.179  0.00  0.00    +0.173 C 
ATOM      9  C   UNL     1      -2.017  -0.499  -0.144  0.00  0.00    +0.204 C 
ATOM     10  C   UNL     1      -3.415  -0.266  -0.096  0.00  0.00    +0.252 C 
ATOM     11  C   UNL     1      -2.628   2.115  -0.274  0.00  0.00    +0.239 C 
ATOM     12  H   UNL     1      -4.558   1.429  -0.146  0.00  0.00    +0.159 HD
ATOM     13  H   UNL     1      -2.466   4.154  -0.404  0.00  0.00    +0.146 HD
ATOM     14  H   UNL     1      -4.067   3.574  -0.297  0.00  0.00    +0.146 HD
ENDROOT
BRANCH   2  16
ATOM     15  O4* UNL     1       2.443  -0.217  -1.079  0.00  0.00    -0.333 OA
ATOM     16  C1* UNL     1       1.480   0.589  -0.369  0.00  0.00    +0.225 C 
ATOM     17  C2* UNL     1       2.106   0.880   0.991  0.00  0.00    +0.187 C 
ATOM     18  C3* UNL     1       3.581   0.954   0.648  0.00  0.00    +0.171 C 
ATOM     19  C4* UNL     1       3.720  -0.136  -0.407  0.00  0.00    +0.175 C 
BRANCH  17  20
ATOM     20  O2* UNL     1       1.617   2.068   1.581  0.00  0.00    -0.378 OA
ATOM     21  H2* UNL     1       0.672   1.965   1.779  0.00  0.00    +0.211 HD
ENDBRANCH  17  20
BRANCH  18  22
ATOM     22  O3* UNL     1       3.887   2.204   0.033  0.00  0.00    -0.379 OA
ATOM     23  H3* UNL     1       3.805   2.915   0.687  0.00  0.00    +0.211 HD
ENDBRANCH  18  22
BRANCH  19  24
ATOM     24  C5* UNL     1       4.034  -1.504   0.185  0.00  0.00    +0.169 C 
BRANCH  24  25
ATOM     25  O5* UNL     1       4.131  -2.443  -0.871  0.00  0.00    -0.379 OA
ATOM     26  H5* UNL     1       4.331  -3.320  -0.506  0.00  0.00    +0.211 HD
ENDBRANCH  24  25
ENDBRANCH  19  24
ENDBRANCH   2  16
BRANCH   3  27
ATOM     27  C   UNL     1      -1.901  -3.010   0.002  0.00  0.00    +0.074 C 
ATOM     28  C   UNL     1      -2.356  -3.318   1.420  0.00  0.00    +0.019 C 
ENDBRANCH   3  27
TORSDOF 6
