REMARK  Name = 135565287
REMARK  6 active torsions:
REMARK  status: ('A' for Active; 'I' for Inactive)
REMARK    1  A    between atoms: C_5  and  C_23
REMARK    2  A    between atoms: C_6  and  O_13
REMARK    3  A    between atoms: C_8  and  O_15
REMARK    4  A    between atoms: C_10  and  O_17
REMARK    5  A    between atoms: C_11  and  O_19
REMARK    6  A    between atoms: C_12  and  O_21
REMARK                            x       y       z     vdW  Elec       q    Type
REMARK                         _______ _______ _______ _____ _____    ______ ____
ROOT
ATOM      1  O   UNL     1       0.663   2.898   0.024  0.00  0.00    -0.283 OA
ATOM      2  O   UNL     1       3.079   1.900   0.166  0.00  0.00    -0.283 OA
ATOM      3  C   UNL     1      -0.154  -0.619   0.080  0.00  0.00    +0.077 A 
ATOM      4  C   UNL     1      -0.386   0.761   0.029  0.00  0.00    +0.085 A 
ATOM      5  C   UNL     1       2.314  -0.365   0.210  0.00  0.00    +0.054 C 
ATOM      6  C   UNL     1       1.222  -1.156   0.167  0.00  0.00    +0.136 C 
ATOM      7  C   UNL     1       0.758   1.681   0.063  0.00  0.00    +0.237 C 
ATOM      8  C   UNL     1      -1.273  -1.469   0.044  0.00  0.00    +0.174 A 
ATOM      9  C   UNL     1       2.142   1.113   0.151  0.00  0.00    +0.233 C 
ATOM     10  C   UNL     1      -1.683   1.284  -0.054  0.00  0.00    +0.174 A 
ATOM     11  C   UNL     1      -2.570  -0.954  -0.038  0.00  0.00    +0.205 A 
ATOM     12  C   UNL     1      -2.775   0.422  -0.088  0.00  0.00    +0.205 A 
ENDROOT
BRANCH   6  13
ATOM     13  O   UNL     1       1.319  -2.535   0.188  0.00  0.00    -0.506 OA
ATOM     14  H   UNL     1       0.544  -3.060   0.157  0.00  0.00    +0.292 HD
ENDBRANCH   6  13
BRANCH   8  15
ATOM     15  O   UNL     1      -1.163  -2.832   0.091  0.00  0.00    -0.503 OA
ATOM     16  H   UNL     1      -0.318  -3.232   0.146  0.00  0.00    +0.292 HD
ENDBRANCH   8  15
BRANCH  10  17
ATOM     17  O   UNL     1      -1.923   2.626  -0.104  0.00  0.00    -0.503 OA
ATOM     18  H   UNL     1      -1.207   3.231  -0.084  0.00  0.00    +0.292 HD
ENDBRANCH  10  17
BRANCH  11  19
ATOM     19  O   UNL     1      -3.642  -1.798  -0.071  0.00  0.00    -0.501 OA
ATOM     20  H   UNL     1      -3.509  -2.725  -0.038  0.00  0.00    +0.292 HD
ENDBRANCH  11  19
BRANCH  12  21
ATOM     21  O   UNL     1      -4.041   0.920  -0.168  0.00  0.00    -0.501 OA
ATOM     22  H   UNL     1      -4.179   1.846  -0.201  0.00  0.00    +0.292 HD
ENDBRANCH  12  21
BRANCH   5  23
ATOM     23  C   UNL     1       3.741  -0.822   0.334  0.00  0.00    +0.033 C 
ATOM     24  C   UNL     1       4.371  -1.056  -1.023  0.00  0.00    +0.005 C 
ENDBRANCH   5  23
TORSDOF 6
