135511839
  -OEChem-03292013293D

 29 30  0     0  0  0  0  0  0999 V2000
    0.9220   -2.4125   -0.0011 O   0  5  0  0  0  0  0  0  0  0  0  0
    1.8507    2.8626   -0.0012 O   0  5  0  0  0  0  0  0  0  0  0  0
   -5.7031   -0.6822    0.0001 O   0  0  0  0  0  0  0  0  0  0  0  0
   -4.6778    1.3739    0.0005 O   0  0  0  0  0  0  0  0  0  0  0  0
    1.1735   -1.1568   -0.0003 N   0  3  0  0  0  0  0  0  0  0  0  0
    1.6679    1.5974    0.0000 N   0  3  0  0  0  0  0  0  0  0  0  0
   -2.2685    0.0393    0.0004 N   0  0  0  0  0  0  0  0  0  0  0  0
   -3.4610   -0.5967    0.0006 N   0  0  0  0  0  0  0  0  0  0  0  0
    2.4849   -0.6892    0.0000 C   0  0  0  0  0  0  0  0  0  0  0  0
    2.7348    0.7029    0.0001 C   0  0  0  0  0  0  0  0  0  0  0  0
    0.1349   -0.2533   -0.0003 C   0  0  0  0  0  0  0  0  0  0  0  0
    3.5578   -1.5887    0.0000 C   0  0  0  0  0  0  0  0  0  0  0  0
    0.3798    1.1115   -0.0003 C   0  0  0  0  0  0  0  0  0  0  0  0
    4.0535    1.1733    0.0005 C   0  0  0  0  0  0  0  0  0  0  0  0
    4.8678   -1.1077    0.0004 C   0  0  0  0  0  0  0  0  0  0  0  0
    5.1145    0.2668    0.0005 C   0  0  0  0  0  0  0  0  0  0  0  0
   -1.2312   -0.7508    0.0004 C   0  0  0  0  0  0  0  0  0  0  0  0
   -4.6185    0.1483    0.0007 C   0  0  0  0  0  0  0  0  0  0  0  0
   -6.9820   -0.0382   -0.0009 C   0  0  0  0  0  0  0  0  0  0  0  0
   -0.3827    1.8775   -0.0004 H   0  0  0  0  0  0  0  0  0  0  0  0
    3.4011   -2.6639   -0.0002 H   0  0  0  0  0  0  0  0  0  0  0  0
    4.2792    2.2362    0.0006 H   0  0  0  0  0  0  0  0  0  0  0  0
    5.7004   -1.8057    0.0005 H   0  0  0  0  0  0  0  0  0  0  0  0
    6.1377    0.6317    0.0008 H   0  0  0  0  0  0  0  0  0  0  0  0
   -1.3793   -1.8453    0.0008 H   0  0  0  0  0  0  0  0  0  0  0  0
   -3.4745   -1.6114    0.0004 H   0  0  0  0  0  0  0  0  0  0  0  0
   -7.7527   -0.8136   -0.0013 H   0  0  0  0  0  0  0  0  0  0  0  0
   -7.0976    0.5725   -0.9013 H   0  0  0  0  0  0  0  0  0  0  0  0
   -7.0988    0.5726    0.8993 H   0  0  0  0  0  0  0  0  0  0  0  0
  1  5  1  0  0  0  0
  2  6  1  0  0  0  0
  3 18  1  0  0  0  0
  3 19  1  0  0  0  0
  4 18  2  0  0  0  0
  5  9  1  0  0  0  0
  5 11  2  0  0  0  0
  6 10  1  0  0  0  0
  6 13  2  0  0  0  0
  7  8  1  0  0  0  0
  7 17  2  0  0  0  0
  8 18  1  0  0  0  0
  8 26  1  0  0  0  0
  9 10  1  0  0  0  0
  9 12  2  0  0  0  0
 10 14  2  0  0  0  0
 11 13  1  0  0  0  0
 11 17  1  0  0  0  0
 12 15  1  0  0  0  0
 12 21  1  0  0  0  0
 13 20  1  0  0  0  0
 14 16  1  0  0  0  0
 14 22  1  0  0  0  0
 15 16  2  0  0  0  0
 15 23  1  0  0  0  0
 16 24  1  0  0  0  0
 17 25  1  0  0  0  0
 19 27  1  0  0  0  0
 19 28  1  0  0  0  0
 19 29  1  0  0  0  0
M  CHG  4   1  -1   2  -1   5   1   6   1
M  END
> <PUBCHEM_COMPOUND_CID>
135511839

> <PUBCHEM_CONFORMER_RMSD>
0.6

> <PUBCHEM_CONFORMER_DIVERSEORDER>
1
5
3
2
4

> <PUBCHEM_MMFF94_PARTIAL_CHARGES>
26
1 -0.75
10 0.09
11 0.18
12 -0.15
13 -0.06
14 -0.15
15 -0.15
16 -0.15
17 0.3
18 0.78
19 0.28
2 -0.75
20 0.15
21 0.15
22 0.15
23 0.15
24 0.15
25 0.06
26 0.37
3 -0.43
4 -0.57
5 0.57
6 0.57
7 -0.51
8 -0.37
9 0.09

> <PUBCHEM_EFFECTIVE_ROTOR_COUNT>
4

> <PUBCHEM_PHARMACOPHORE_FEATURES>
7
1 1 anion
1 2 anion
1 4 acceptor
1 7 acceptor
1 8 donor
6 5 6 9 10 11 13 rings
6 9 10 12 14 15 16 rings

> <PUBCHEM_HEAVY_ATOM_COUNT>
19

> <PUBCHEM_ATOM_DEF_STEREO_COUNT>
0

> <PUBCHEM_ATOM_UDEF_STEREO_COUNT>
0

> <PUBCHEM_BOND_DEF_STEREO_COUNT>
1

> <PUBCHEM_BOND_UDEF_STEREO_COUNT>
0

> <PUBCHEM_ISOTOPIC_ATOM_COUNT>
0

> <PUBCHEM_COMPONENT_COUNT>
1

> <PUBCHEM_CACTVS_TAUTO_COUNT>
-1

> <PUBCHEM_CONFORMER_ID>
0813BF1F00000001

> <PUBCHEM_MMFF94_ENERGY>
49.8913

> <PUBCHEM_FEATURE_SELFOVERLAP>
35.556

> <PUBCHEM_SHAPE_FINGERPRINT>
10354089 29 18411138043211716075
10411042 1 18122626047010058150
10688039 33 17967813816737364109
11471102 20 18410009935702232822
11578080 2 13697595510066971740
12107183 9 17620479008999150259
12236239 1 17846780711086715115
13167372 99 18272657801496135881
13533116 47 17346601833324403342
13836976 161 18411985779619896326
13862211 1 18337953394422305674
14170010 4 18410011056905254273
14341114 176 18408610270896860145
14464042 87 17988932149662421665
15196674 1 18410856521075105477
17834072 33 18343862229981240447
200 152 18202281390490215609
20612939 158 18335707164690592989
20645477 70 18340770351443971310
21267235 1 18340210696278858214
21279426 13 18192147101142766813
21709351 56 18411973681182086471
221357 26 18408880724929947869
23402539 116 18131344215574678879
23402655 69 18342737420637303975
23557571 272 16950842510042116567
23559900 14 18336260245615958441
335352 9 18410576206525321326
34797466 226 16200435801225530864
34934 24 18339637954037196906
3545911 37 18410012148370032507
4072396 5 18335973204156105338
4073 2 18040722514964845923
4214541 1 18411136923016627013
42630746 31 18342177760845382062
42788 4 18410575076410890855
4340502 62 16515681156976489154
5104073 3 18410575110712659867
59755656 215 18187643579463162775
602551 16 16009327511995513673
8272917 22 18341617005377545574
9999458 23 18041278859063003558

> <PUBCHEM_SHAPE_MULTIPOLES>
347.61
13.72
1.94
0.58
23.11
0.51
0
-0.51
0
-1.78
0
-0.06
-0.01
0

> <PUBCHEM_SHAPE_SELFOVERLAP>
742.569

> <PUBCHEM_SHAPE_VOLUME>
191.6

> <PUBCHEM_COORDINATE_TYPE>
2
5
10

$$$$
