135544014
  -OEChem-03292013293D

 49 50  0     1  0  0  0  0  0999 V2000
    3.1104   -0.8118    0.8238 O   0  0  0  0  0  0  0  0  0  0  0  0
    0.3063   -3.4444   -1.3368 O   0  0  0  0  0  0  0  0  0  0  0  0
    4.5283   -0.9146   -0.9900 O   0  0  0  0  0  0  0  0  0  0  0  0
   -5.1871    1.5411   -1.0399 O   0  0  0  0  0  0  0  0  0  0  0  0
   -2.1922   -1.4960    0.4504 N   0  0  0  0  0  0  0  0  0  0  0  0
   -4.1622   -1.2068   -0.5679 N   0  0  0  0  0  0  0  0  0  0  0  0
    5.1212    1.7307   -0.7839 N   0  0  0  0  0  0  0  0  0  0  0  0
   -1.5493    0.8056    0.8356 N   0  0  0  0  0  0  0  0  0  0  0  0
   -3.2313    2.2895   -0.0065 N   0  0  0  0  0  0  0  0  0  0  0  0
   -1.2890    3.1331    1.0228 N   0  0  0  0  0  0  0  0  0  0  0  0
    0.3571   -1.7927    0.4531 C   0  0  1  0  0  0  0  0  0  0  0  0
   -1.0078   -2.2138    1.0511 C   0  0  0  0  0  0  0  0  0  0  0  0
    1.4752   -2.5236    1.2280 C   0  0  0  0  0  0  0  0  0  0  0  0
    0.4267   -2.0561   -1.0611 C   0  0  0  0  0  0  0  0  0  0  0  0
    2.8803   -2.2206    0.7214 C   0  0  0  0  0  0  0  0  0  0  0  0
    2.7543    1.9461    0.0255 C   0  0  0  0  0  0  0  0  0  0  0  0
    4.1100    1.2105    0.1375 C   0  0  1  0  0  0  0  0  0  0  0  0
   -2.3895   -0.1486    0.3775 C   0  0  0  0  0  0  0  0  0  0  0  0
   -3.2856   -2.0899   -0.1314 C   0  0  0  0  0  0  0  0  0  0  0  0
   -3.6030   -0.0044   -0.2505 C   0  0  0  0  0  0  0  0  0  0  0  0
    3.9643   -0.2845   -0.1046 C   0  0  0  0  0  0  0  0  0  0  0  0
    2.9050    3.4385    0.3396 C   0  0  0  0  0  0  0  0  0  0  0  0
    2.0706    1.7709   -1.3356 C   0  0  0  0  0  0  0  0  0  0  0  0
   -4.1172    1.3159   -0.4887 C   0  0  0  0  0  0  0  0  0  0  0  0
   -1.9955    2.0258    0.6305 C   0  0  0  0  0  0  0  0  0  0  0  0
    0.4943   -0.7162    0.6020 H   0  0  0  0  0  0  0  0  0  0  0  0
   -1.2012   -3.2837    0.9133 H   0  0  0  0  0  0  0  0  0  0  0  0
   -1.0631   -1.9828    2.1215 H   0  0  0  0  0  0  0  0  0  0  0  0
    1.4116   -2.2216    2.2816 H   0  0  0  0  0  0  0  0  0  0  0  0
    1.3129   -3.6078    1.1966 H   0  0  0  0  0  0  0  0  0  0  0  0
   -0.3788   -1.5323   -1.5855 H   0  0  0  0  0  0  0  0  0  0  0  0
    1.3683   -1.6984   -1.4869 H   0  0  0  0  0  0  0  0  0  0  0  0
    3.6112   -2.7248    1.3633 H   0  0  0  0  0  0  0  0  0  0  0  0
    3.0146   -2.5982   -0.2974 H   0  0  0  0  0  0  0  0  0  0  0  0
    2.0758    1.5278    0.7811 H   0  0  0  0  0  0  0  0  0  0  0  0
    4.5048    1.3283    1.1549 H   0  0  0  0  0  0  0  0  0  0  0  0
   -3.3856   -3.1640   -0.2079 H   0  0  0  0  0  0  0  0  0  0  0  0
    2.6745    2.1906   -2.1468 H   0  0  0  0  0  0  0  0  0  0  0  0
    1.0999    2.2787   -1.3453 H   0  0  0  0  0  0  0  0  0  0  0  0
    3.4689    3.9680   -0.4350 H   0  0  0  0  0  0  0  0  0  0  0  0
    3.4116    3.5871    1.2989 H   0  0  0  0  0  0  0  0  0  0  0  0
    1.9204    3.9141    0.4090 H   0  0  0  0  0  0  0  0  0  0  0  0
    1.8884    0.7160   -1.5584 H   0  0  0  0  0  0  0  0  0  0  0  0
    0.3523   -3.5490   -2.3024 H   0  0  0  0  0  0  0  0  0  0  0  0
    6.0042    1.2441   -0.6312 H   0  0  0  0  0  0  0  0  0  0  0  0
    5.3064    2.7113   -0.5791 H   0  0  0  0  0  0  0  0  0  0  0  0
   -3.4987    3.2626   -0.1240 H   0  0  0  0  0  0  0  0  0  0  0  0
   -0.3900    3.0455    1.4840 H   0  0  0  0  0  0  0  0  0  0  0  0
   -1.6403    4.0703    0.8595 H   0  0  0  0  0  0  0  0  0  0  0  0
  1 15  1  0  0  0  0
  1 21  1  0  0  0  0
  2 14  1  0  0  0  0
  2 44  1  0  0  0  0
  3 21  2  0  0  0  0
  4 24  2  0  0  0  0
  5 12  1  0  0  0  0
  5 18  1  0  0  0  0
  5 19  1  0  0  0  0
  6 19  2  0  0  0  0
  6 20  1  0  0  0  0
  7 17  1  0  0  0  0
  7 45  1  0  0  0  0
  7 46  1  0  0  0  0
  8 18  1  0  0  0  0
  8 25  2  0  0  0  0
  9 24  1  0  0  0  0
  9 25  1  0  0  0  0
  9 47  1  0  0  0  0
 10 25  1  0  0  0  0
 10 48  1  0  0  0  0
 10 49  1  0  0  0  0
 11 12  1  0  0  0  0
 11 13  1  0  0  0  0
 11 14  1  0  0  0  0
 11 26  1  0  0  0  0
 12 27  1  0  0  0  0
 12 28  1  0  0  0  0
 13 15  1  0  0  0  0
 13 29  1  0  0  0  0
 13 30  1  0  0  0  0
 14 31  1  0  0  0  0
 14 32  1  0  0  0  0
 15 33  1  0  0  0  0
 15 34  1  0  0  0  0
 16 17  1  0  0  0  0
 16 22  1  0  0  0  0
 16 23  1  0  0  0  0
 16 35  1  0  0  0  0
 17 21  1  0  0  0  0
 17 36  1  0  0  0  0
 18 20  2  0  0  0  0
 19 37  1  0  0  0  0
 20 24  1  0  0  0  0
 22 40  1  0  0  0  0
 22 41  1  0  0  0  0
 22 42  1  0  0  0  0
 23 38  1  0  0  0  0
 23 39  1  0  0  0  0
 23 43  1  0  0  0  0
M  END
> <PUBCHEM_COMPOUND_CID>
135544014

> <PUBCHEM_CONFORMER_RMSD>
1

> <PUBCHEM_CONFORMER_DIVERSEORDER>
1
44
24
70
119
50
84
102
136
67
51
79
42
55
61
82
118
144
41
13
60
58
28
120
141
103
85
145
31
37
121
4
49
32
97
116
100
132
101
22
47
6
73
39
115
104
7
38
30
127
15
88
113
122
108
110
66
112
63
25
111
64
86
14
74
98
57
19
46
91
128
131
134
27
143
53
94
75
124
76
80
129
18
33
5
107
23
8
68
89
96
106
56
20
126
29
133
45
9
10
43
117
36
105
12
72
2
139
59
93
87
99
17
26
71
21
48
142
78
40
114
3
137
11
52
35
109
83
81
123
135
69
95
77
16
65
92
140
54
62
125
90
138
34
130

> <PUBCHEM_MMFF94_PARTIAL_CHARGES>
27
1 -0.43
10 -0.85
12 0.26
14 0.28
15 0.28
17 0.33
18 -0.03
19 0.04
2 -0.68
20 0.14
21 0.66
24 0.72
25 0.56
3 -0.57
37 0.15
4 -0.57
44 0.4
45 0.36
46 0.36
47 0.37
48 0.4
49 0.4
5 0.05
6 -0.57
7 -0.99
8 -0.58
9 -0.49

> <PUBCHEM_EFFECTIVE_ROTOR_COUNT>
9

> <PUBCHEM_PHARMACOPHORE_FEATURES>
12
1 10 donor
1 2 acceptor
1 2 donor
1 3 acceptor
1 4 acceptor
1 7 cation
1 7 donor
1 9 donor
3 16 22 23 hydrophobe
3 5 6 19 cation
5 5 6 18 19 20 rings
6 8 9 18 20 24 25 rings

> <PUBCHEM_HEAVY_ATOM_COUNT>
25

> <PUBCHEM_ATOM_DEF_STEREO_COUNT>
2

> <PUBCHEM_ATOM_UDEF_STEREO_COUNT>
0

> <PUBCHEM_BOND_DEF_STEREO_COUNT>
0

> <PUBCHEM_BOND_UDEF_STEREO_COUNT>
0

> <PUBCHEM_ISOTOPIC_ATOM_COUNT>
0

> <PUBCHEM_COMPONENT_COUNT>
1

> <PUBCHEM_CACTVS_TAUTO_COUNT>
-1

> <PUBCHEM_CONFORMER_ID>
08143CCE00000001

> <PUBCHEM_MMFF94_ENERGY>
41.0327

> <PUBCHEM_FEATURE_SELFOVERLAP>
61.074

> <PUBCHEM_SHAPE_FINGERPRINT>
10498660 4 18411981368825425370
10616163 171 18411983567817058193
10708813 3 18333454226889805516
11370993 70 18264202676889223048
11513181 2 18273496762779676382
12633257 1 18041830697851835554
13122387 1 17328586120459859688
14117953 113 17401476057595109021
14251764 38 18410859892587646260
14790565 3 18053665768658688137
14931854 50 18410294739584936820
17492 89 18409729538974388571
19930381 70 18194679491344096297
20715895 44 17975118861029844693
21857420 4 16047244251736036759
21860390 5 18267302028369375078
22393880 68 18410013217400288020
22749437 52 18334296512989455936
23227448 37 18409163282264537575
23559900 14 18341323401523785386
26353 1 16406725288023923422
4280585 95 17480028488863553902
474 4 18260828142322144203
5081480 168 17197733348864584894
9709674 26 18339086002914713520
9981440 41 18260544567159453330

> <PUBCHEM_SHAPE_MULTIPOLES>
461.12
9.67
4.25
1.14
0.81
0.44
-0.12
4.38
-2.27
0.88
0.32
0.21
-0.27
-0.33

> <PUBCHEM_SHAPE_SELFOVERLAP>
951.579

> <PUBCHEM_SHAPE_VOLUME>
261.8

> <PUBCHEM_COORDINATE_TYPE>
2
5
10

$$$$
