REMARK  Name = 135554433
REMARK  9 active torsions:
REMARK  status: ('A' for Active; 'I' for Inactive)
REMARK    1  A    between atoms: N_2  and  C1*_15
REMARK    2  A    between atoms: N_6  and  C_24
REMARK    3  A    between atoms: C3*_16  and  O3*_19
REMARK    4  A    between atoms: C4*_18  and  C5*_21
REMARK    5  A    between atoms: C5*_21  and  O5*_22
REMARK    6  A    between atoms: C_24  and  C_25
REMARK    7  A    between atoms: C_25  and  C_26
REMARK    8  A    between atoms: C_26  and  C_28
REMARK    9  A    between atoms: C_28  and  C_30
REMARK                            x       y       z     vdW  Elec       q    Type
REMARK                         _______ _______ _______ _____ _____    ______ ____
ROOT
ATOM      1  O   UNL     1      -0.748  -4.497   0.565  0.00  0.00    -0.268 OA
ATOM      2  N   UNL     1       1.892  -0.924  -0.256  0.00  0.00    -0.239 N 
ATOM      3  N   UNL     1       1.773  -2.933   0.718  0.00  0.00    -0.240 NA
ATOM      4  N   UNL     1      -0.337  -0.747  -1.183  0.00  0.00    -0.356 NA
ATOM      5  N   UNL     1      -1.610  -2.709  -0.665  0.00  0.00    -0.242 N 
ATOM      6  N   UNL     1      -2.561  -0.953  -1.912  0.00  0.00    -0.296 N 
ATOM      7  C   UNL     1       0.632  -1.388  -0.493  0.00  0.00    +0.211 C 
ATOM      8  C   UNL     1       2.540  -1.888   0.476  0.00  0.00    +0.224 C 
ATOM      9  C   UNL     1       0.591  -2.619   0.115  0.00  0.00    +0.176 C 
ATOM     10  C   UNL     1      -0.619  -3.393   0.054  0.00  0.00    +0.273 C 
ATOM     11  C   UNL     1      -1.457  -1.433  -1.255  0.00  0.00    +0.243 C 
ATOM     12  H   UNL     1      -2.482  -3.154  -0.767  0.00  0.00    +0.159 HD
ATOM     13  H   UNL     1      -3.376  -1.505  -1.938  0.00  0.00    +0.150 HD
ENDROOT
BRANCH   2  15
ATOM     14  O4* UNL     1       3.891   0.295  -0.959  0.00  0.00    -0.335 OA
ATOM     15  C1* UNL     1       2.478   0.392  -0.703  0.00  0.00    +0.198 C 
ATOM     16  C3* UNL     1       3.445   2.433  -0.018  0.00  0.00    +0.144 C 
ATOM     17  C2* UNL     1       2.304   1.504   0.326  0.00  0.00    +0.083 C 
ATOM     18  C4* UNL     1       4.547   1.474  -0.451  0.00  0.00    +0.173 C 
BRANCH  16  19
ATOM     19  O3* UNL     1       3.052   3.241  -1.125  0.00  0.00    -0.382 OA
ATOM     20  H3* UNL     1       2.350   3.851  -0.847  0.00  0.00    +0.210 HD
ENDBRANCH  16  19
BRANCH  18  21
ATOM     21  C5* UNL     1       5.446   1.052   0.704  0.00  0.00    +0.169 C 
BRANCH  21  22
ATOM     22  O5* UNL     1       6.428   0.158   0.210  0.00  0.00    -0.379 OA
ATOM     23  H5* UNL     1       7.008  -0.119   0.936  0.00  0.00    +0.211 HD
ENDBRANCH  21  22
ENDBRANCH  18  21
ENDBRANCH   2  15
BRANCH   6  24
ATOM     24  C   UNL     1      -2.570   0.321  -2.561  0.00  0.00    +0.091 C 
BRANCH  24  25
ATOM     25  C   UNL     1      -3.957   0.952  -2.494  0.00  0.00    +0.029 C 
BRANCH  25  26
ATOM     26  C   UNL     1      -4.456   1.132  -1.057  0.00  0.00    +0.071 C 
BRANCH  26  28
ATOM     27  O   UNL     1      -3.290   3.179  -0.546  0.00  0.00    -0.291 OA
ATOM     28  C   UNL     1      -3.529   2.015  -0.234  0.00  0.00    +0.175 C 
BRANCH  28  30
ATOM     29  N   UNL     1      -2.990  -0.113   2.835  0.00  0.00    -0.242 NA
ATOM     30  C   UNL     1      -2.888   1.441   0.986  0.00  0.00    +0.054 C 
ATOM     31  C   UNL     1      -1.643   1.884   1.417  0.00  0.00    +0.006 C 
ATOM     32  C   UNL     1      -3.515   0.449   1.723  0.00  0.00    +0.102 C 
ATOM     33  C   UNL     1      -1.071   1.330   2.557  0.00  0.00    +0.021 C 
ATOM     34  C   UNL     1      -1.779   0.344   3.224  0.00  0.00    +0.099 C 
ENDBRANCH  28  30
ENDBRANCH  26  28
ENDBRANCH  25  26
ENDBRANCH  24  25
ENDBRANCH   6  24
TORSDOF 9
