REMARK  Name = 13558996
REMARK  7 active torsions:
REMARK  status: ('A' for Active; 'I' for Inactive)
REMARK    1  A    between atoms: O_1  and  C_5
REMARK    2  A    between atoms: O_1  and  C_22
REMARK    3  A    between atoms: C_18  and  O_23
REMARK    4  A    between atoms: C_19  and  O_25
REMARK    5  A    between atoms: C_20  and  O_27
REMARK    6  A    between atoms: C_21  and  C_29
REMARK    7  A    between atoms: C_29  and  O_30
REMARK                            x       y       z     vdW  Elec       q    Type
REMARK                         _______ _______ _______ _____ _____    ______ ____
ROOT
ATOM      1  O   UNL     1       2.004   1.677  -0.342  0.00  0.00    -0.451 OA
ENDROOT
BRANCH   1   5
ATOM      2  O   UNL     1      -2.341  -0.093  -1.076  0.00  0.00    -0.448 OA
ATOM      3  O   UNL     1      -6.713  -1.779  -1.633  0.00  0.00    -0.286 OA
ATOM      4  N   UNL     1      -3.237   1.002   1.422  0.00  0.00    -0.400 NA
ATOM      5  C   UNL     1       0.715   1.507   0.083  0.00  0.00    +0.141 C 
ATOM      6  C   UNL     1      -0.181   0.792  -0.702  0.00  0.00    +0.076 C 
ATOM      7  C   UNL     1       0.311   2.050   1.298  0.00  0.00    +0.019 C 
ATOM      8  C   UNL     1      -1.495   0.621  -0.262  0.00  0.00    +0.174 C 
ATOM      9  C   UNL     1      -1.921   1.160   0.958  0.00  0.00    +0.148 C 
ATOM     10  C   UNL     1      -1.004   1.877   1.734  0.00  0.00    +0.091 C 
ATOM     11  C   UNL     1      -3.644  -0.263  -0.638  0.00  0.00    +0.178 C 
ATOM     12  C   UNL     1      -4.049   0.329   0.666  0.00  0.00    +0.166 C 
ATOM     13  C   UNL     1      -4.520  -0.947  -1.380  0.00  0.00    +0.082 C 
ATOM     14  C   UNL     1      -5.452   0.123   1.095  0.00  0.00    +0.038 C 
ATOM     15  C   UNL     1      -5.917  -1.148  -0.946  0.00  0.00    +0.199 C 
ATOM     16  C   UNL     1      -6.318  -0.562   0.347  0.00  0.00    +0.045 C 
ENDBRANCH   1   5
BRANCH   1  22
ATOM     17  O   UNL     1       2.846  -0.253   0.661  0.00  0.00    -0.316 OA
ATOM     18  C   UNL     1       5.114  -0.292  -1.124  0.00  0.00    +0.173 C 
ATOM     19  C   UNL     1       5.055  -1.155   0.139  0.00  0.00    +0.169 C 
ATOM     20  C   UNL     1       4.169   0.910  -1.005  0.00  0.00    +0.210 C 
ATOM     21  C   UNL     1       3.601  -1.464   0.535  0.00  0.00    +0.177 C 
ATOM     22  C   UNL     1       2.769   0.491  -0.554  0.00  0.00    +0.318 C 
BRANCH  18  23
ATOM     23  O   UNL     1       4.776  -1.087  -2.260  0.00  0.00    -0.379 OA
ATOM     24  H   UNL     1       5.383  -1.842  -2.319  0.00  0.00    +0.211 HD
ENDBRANCH  18  23
BRANCH  19  25
ATOM     25  O   UNL     1       5.697  -0.458   1.206  0.00  0.00    -0.379 OA
ATOM     26  H   UNL     1       6.614  -0.262   0.960  0.00  0.00    +0.211 HD
ENDBRANCH  19  25
BRANCH  20  27
ATOM     27  O   UNL     1       4.084   1.590  -2.253  0.00  0.00    -0.377 OA
ATOM     28  H   UNL     1       4.972   1.856  -2.538  0.00  0.00    +0.211 HD
ENDBRANCH  20  27
BRANCH  21  29
ATOM     29  C   UNL     1       3.508  -2.197   1.869  0.00  0.00    +0.169 C 
BRANCH  29  30
ATOM     30  O   UNL     1       2.142  -2.430   2.162  0.00  0.00    -0.379 OA
ATOM     31  H   UNL     1       2.068  -2.896   3.009  0.00  0.00    +0.211 HD
ENDBRANCH  29  30
ENDBRANCH  21  29
ENDBRANCH   1  22
TORSDOF 7
