REMARK  Name = 135570463
REMARK  6 active torsions:
REMARK  status: ('A' for Active; 'I' for Inactive)
REMARK    1  A    between atoms: C_5  and  C_16
REMARK    2  A    between atoms: C_16  and  N_17
REMARK    3  A    between atoms: N_17  and  C_18
REMARK    4  A    between atoms: N_17  and  C_27
REMARK    5  A    between atoms: C_23  and  N_26
REMARK    6  A    between atoms: C_27  and  C_28
REMARK                            x       y       z     vdW  Elec       q    Type
REMARK                         _______ _______ _______ _____ _____    ______ ____
ROOT
ATOM      1  O   UNL     1      -3.254  -1.274  -2.275  0.00  0.00    -0.270 OA
ATOM      2  N   UNL     1      -4.166   1.314   0.753  0.00  0.00    -0.377 NA
ATOM      3  N   UNL     1      -4.574   0.391  -1.372  0.00  0.00    -0.244 N 
ATOM      4  N   UNL     1      -5.965   2.075  -0.542  0.00  0.00    -0.321 N 
ATOM      5  C   UNL     1      -0.849  -1.248   1.197  0.00  0.00    -0.006 C 
ATOM      6  C   UNL     1      -1.602  -1.307   0.026  0.00  0.00    +0.004 C 
ATOM      7  C   UNL     1      -2.704  -0.460  -0.128  0.00  0.00    +0.079 C 
ATOM      8  C   UNL     1      -1.195  -0.350   2.205  0.00  0.00    -0.021 C 
ATOM      9  C   UNL     1      -3.064   0.448   0.877  0.00  0.00    +0.121 C 
ATOM     10  C   UNL     1      -2.297   0.493   2.046  0.00  0.00    +0.085 C 
ATOM     11  C   UNL     1      -3.516  -0.503  -1.359  0.00  0.00    +0.254 C 
ATOM     12  C   UNL     1      -4.878   1.268  -0.338  0.00  0.00    +0.237 C 
ATOM     13  H   UNL     1      -5.152   0.406  -2.170  0.00  0.00    +0.159 HD
ATOM     14  H   UNL     1      -6.236   2.721   0.150  0.00  0.00    +0.146 HD
ATOM     15  H   UNL     1      -6.476   2.010  -1.381  0.00  0.00    +0.146 HD
ENDROOT
BRANCH   5  16
ATOM     16  C   UNL     1       0.329  -2.146   1.372  0.00  0.00    +0.118 C 
BRANCH  16  17
ATOM     17  N   UNL     1       1.301  -1.936   0.322  0.00  0.00    -0.292 N 
BRANCH  17  18
ATOM     18  C   UNL     1       1.938  -0.700   0.155  0.00  0.00    +0.049 C 
ATOM     19  C   UNL     1       2.354  -0.295  -1.113  0.00  0.00    +0.016 C 
ATOM     20  C   UNL     1       2.157   0.125   1.258  0.00  0.00    +0.016 C 
ATOM     21  C   UNL     1       2.989   0.936  -1.278  0.00  0.00    +0.025 C 
ATOM     22  C   UNL     1       2.792   1.356   1.093  0.00  0.00    +0.025 C 
ATOM     23  C   UNL     1       3.208   1.761  -0.175  0.00  0.00    +0.143 C 
BRANCH  23  26
ATOM     24  O   UNL     1       4.221   3.359  -1.494  0.00  0.00    -0.126 OA
ATOM     25  O   UNL     1       4.042   3.742   0.661  0.00  0.00    -0.126 OA
ATOM     26  N   UNL     1       3.855   3.014  -0.344  0.00  0.00    +0.058 N 
ENDBRANCH  23  26
ENDBRANCH  17  18
BRANCH  17  27
ATOM     27  C   UNL     1       1.617  -3.052  -0.569  0.00  0.00    +0.170 C 
BRANCH  27  28
ATOM     28  C   UNL     1       3.045  -3.373  -0.511  0.00  0.00    -0.056 C 
ATOM     29  C   UNL     1       4.215  -3.639  -0.466  0.00  0.00    -0.012 C 
ENDBRANCH  27  28
ENDBRANCH  17  27
ENDBRANCH  16  17
ENDBRANCH   5  16
TORSDOF 6
