REMARK  Name = 135537671
REMARK  8 active torsions:
REMARK  status: ('A' for Active; 'I' for Inactive)
REMARK    1  A    between atoms: N_2  and  C1*_25
REMARK    2  A    between atoms: N_6  and  C_14
REMARK    3  A    between atoms: C_15  and  C_20
REMARK    4  A    between atoms: C_20  and  C_21
REMARK    5  A    between atoms: C_21  and  C_22
REMARK    6  A    between atoms: C3*_26  and  O3*_29
REMARK    7  A    between atoms: C4*_28  and  C5*_31
REMARK    8  A    between atoms: C5*_31  and  O5*_32
REMARK                            x       y       z     vdW  Elec       q    Type
REMARK                         _______ _______ _______ _____ _____    ______ ____
ROOT
ATOM      1  O   UNL     1       3.242  -4.487   0.420  0.00  0.00    -0.268 OA
ATOM      2  N   UNL     1       2.683  -0.034  -0.098  0.00  0.00    -0.239 N 
ATOM      3  N   UNL     1       4.155  -1.662   0.329  0.00  0.00    -0.240 NA
ATOM      4  N   UNL     1       0.653  -1.327  -0.358  0.00  0.00    -0.356 NA
ATOM      5  N   UNL     1       1.110  -3.660  -0.056  0.00  0.00    -0.242 N 
ATOM      6  N   UNL     1      -1.071  -2.914  -0.533  0.00  0.00    -0.276 N 
ATOM      7  C   UNL     1       1.978  -1.201  -0.122  0.00  0.00    +0.211 C 
ATOM      8  C   UNL     1       3.987  -0.363   0.177  0.00  0.00    +0.224 C 
ATOM      9  C   UNL     1       2.907  -2.178   0.143  0.00  0.00    +0.176 C 
ATOM     10  C   UNL     1       2.486  -3.551   0.192  0.00  0.00    +0.273 C 
ATOM     11  C   UNL     1       0.240  -2.576  -0.319  0.00  0.00    +0.246 C 
ATOM     12  H   UNL     1       0.718  -4.563  -0.045  0.00  0.00    +0.159 HD
ATOM     13  H   UNL     1      -1.239  -3.798  -0.932  0.00  0.00    +0.156 HD
ENDROOT
BRANCH   6  14
ATOM     14  C   UNL     1      -2.193  -2.137  -0.245  0.00  0.00    +0.051 C 
ATOM     15  C   UNL     1      -4.436  -0.583   0.332  0.00  0.00    -0.022 C 
ATOM     16  C   UNL     1      -3.347  -2.264  -1.018  0.00  0.00    +0.014 C 
ATOM     17  C   UNL     1      -2.161  -1.233   0.817  0.00  0.00    +0.014 C 
ATOM     18  C   UNL     1      -4.468  -1.487  -0.730  0.00  0.00    -0.003 C 
ATOM     19  C   UNL     1      -3.282  -0.456   1.105  0.00  0.00    -0.003 C 
BRANCH  15  20
ATOM     20  C   UNL     1      -5.635   0.249   0.640  0.00  0.00    +0.026 C 
BRANCH  20  21
ATOM     21  C   UNL     1      -5.626   1.586  -0.117  0.00  0.00    +0.005 C 
BRANCH  21  22
ATOM     22  C   UNL     1      -6.839   2.446   0.236  0.00  0.00    +0.000 C 
ATOM     23  C   UNL     1      -6.803   3.784  -0.486  0.00  0.00    +0.000 C 
ENDBRANCH  21  22
ENDBRANCH  20  21
ENDBRANCH  15  20
ENDBRANCH   6  14
BRANCH   2  25
ATOM     24  O4* UNL     1       3.126   2.216  -0.946  0.00  0.00    -0.335 OA
ATOM     25  C1* UNL     1       2.149   1.358  -0.326  0.00  0.00    +0.198 C 
ATOM     26  C3* UNL     1       1.855   3.512   0.591  0.00  0.00    +0.144 C 
ATOM     27  C2* UNL     1       1.722   2.054   0.961  0.00  0.00    +0.083 C 
ATOM     28  C4* UNL     1       3.066   3.521  -0.335  0.00  0.00    +0.173 C 
BRANCH  26  29
ATOM     29  O3* UNL     1       0.693   3.902  -0.137  0.00  0.00    -0.382 OA
ATOM     30  H3* UNL     1      -0.076   3.896   0.454  0.00  0.00    +0.210 HD
ENDBRANCH  26  29
BRANCH  28  31
ATOM     31  C5* UNL     1       4.374   3.752   0.409  0.00  0.00    +0.169 C 
BRANCH  31  32
ATOM     32  O5* UNL     1       5.437   3.733  -0.527  0.00  0.00    -0.379 OA
ATOM     33  H5* UNL     1       6.277   3.879  -0.065  0.00  0.00    +0.211 HD
ENDBRANCH  31  32
ENDBRANCH  28  31
ENDBRANCH   2  25
TORSDOF 8
