135565210
  -OEChem-03292013293D

 60 63  0     0  0  0  0  0  0999 V2000
   -3.9500   -0.1682    1.8432 S   0  0  0  0  0  0  0  0  0  0  0  0
   -4.7867   -1.2639    2.2830 O   0  0  0  0  0  0  0  0  0  0  0  0
   -3.4600    0.8188    2.7812 O   0  0  0  0  0  0  0  0  0  0  0  0
    0.7020   -2.4901   -0.9834 O   0  0  0  0  0  0  0  0  0  0  0  0
    1.8857    3.3202   -1.2028 O   0  0  0  0  0  0  0  0  0  0  0  0
   -4.7203    0.6357    0.5417 N   0  0  0  0  0  0  0  0  0  0  0  0
   -5.4497    1.6208   -2.0575 N   0  0  0  0  0  0  0  0  0  0  0  0
    3.1662    0.4541    0.5252 N   0  0  0  0  0  0  0  0  0  0  0  0
    0.8872    1.3624   -0.4798 N   0  0  0  0  0  0  0  0  0  0  0  0
    2.0874   -0.3583    0.6675 N   0  0  0  0  0  0  0  0  0  0  0  0
    5.2526    1.2099    0.6537 N   0  0  0  0  0  0  0  0  0  0  0  0
   -5.3952   -0.2506   -0.4502 C   0  0  0  0  0  0  0  0  0  0  0  0
   -3.9084    1.6902   -0.1318 C   0  0  0  0  0  0  0  0  0  0  0  0
   -4.7987    2.4914   -1.0774 C   0  0  0  0  0  0  0  0  0  0  0  0
   -6.2514    0.5952   -1.3884 C   0  0  0  0  0  0  0  0  0  0  0  0
   -2.5587   -0.8550    1.0012 C   0  0  0  0  0  0  0  0  0  0  0  0
   -1.3711   -0.1293    0.9080 C   0  0  0  0  0  0  0  0  0  0  0  0
   -0.2719   -0.6728    0.2433 C   0  0  0  0  0  0  0  0  0  0  0  0
   -2.6471   -2.1244    0.4296 C   0  0  0  0  0  0  0  0  0  0  0  0
    0.9840    0.1166    0.1564 C   0  0  0  0  0  0  0  0  0  0  0  0
   -0.3602   -1.9421   -0.3284 C   0  0  0  0  0  0  0  0  0  0  0  0
    3.1670    1.6826   -0.0872 C   0  0  0  0  0  0  0  0  0  0  0  0
    4.4434    0.2165    0.9533 C   0  0  0  0  0  0  0  0  0  0  0  0
   -1.5479   -2.6678   -0.2354 C   0  0  0  0  0  0  0  0  0  0  0  0
    4.8165   -1.0246    1.6624 C   0  0  0  0  0  0  0  0  0  0  0  0
    4.4640    2.1287    0.0049 C   0  0  0  0  0  0  0  0  0  0  0  0
    1.9666    2.2291   -0.6473 C   0  0  0  0  0  0  0  0  0  0  0  0
    5.5560   -2.0281    0.7571 C   0  0  0  0  0  0  0  0  0  0  0  0
    5.0433    3.3902   -0.4831 C   0  0  0  0  0  0  0  0  0  0  0  0
    4.7060   -2.4867   -0.4172 C   0  0  0  0  0  0  0  0  0  0  0  0
    0.5143   -2.8209   -2.3578 C   0  0  0  0  0  0  0  0  0  0  0  0
    1.8351   -2.6796   -3.0838 C   0  0  0  0  0  0  0  0  0  0  0  0
   -6.0461   -0.9647    0.0640 H   0  0  0  0  0  0  0  0  0  0  0  0
   -4.6542   -0.8071   -1.0334 H   0  0  0  0  0  0  0  0  0  0  0  0
   -3.0947    1.2422   -0.7109 H   0  0  0  0  0  0  0  0  0  0  0  0
   -3.4831    2.3706    0.6129 H   0  0  0  0  0  0  0  0  0  0  0  0
   -5.5570    3.0441   -0.5089 H   0  0  0  0  0  0  0  0  0  0  0  0
   -4.1896    3.2314   -1.6078 H   0  0  0  0  0  0  0  0  0  0  0  0
   -6.7053   -0.0524   -2.1463 H   0  0  0  0  0  0  0  0  0  0  0  0
   -7.0714    1.0675   -0.8331 H   0  0  0  0  0  0  0  0  0  0  0  0
   -6.0530    2.1815   -2.6585 H   0  0  0  0  0  0  0  0  0  0  0  0
   -1.2930    0.8589    1.3543 H   0  0  0  0  0  0  0  0  0  0  0  0
   -3.5618   -2.7073    0.4892 H   0  0  0  0  0  0  0  0  0  0  0  0
   -1.6296   -3.6607   -0.6691 H   0  0  0  0  0  0  0  0  0  0  0  0
    5.4773   -0.7632    2.4983 H   0  0  0  0  0  0  0  0  0  0  0  0
    3.9427   -1.5119    2.1106 H   0  0  0  0  0  0  0  0  0  0  0  0
   -0.0124    1.6590   -0.8487 H   0  0  0  0  0  0  0  0  0  0  0  0
    6.4827   -1.5805    0.3781 H   0  0  0  0  0  0  0  0  0  0  0  0
    5.8407   -2.9000    1.3573 H   0  0  0  0  0  0  0  0  0  0  0  0
    4.5529    4.2480   -0.0123 H   0  0  0  0  0  0  0  0  0  0  0  0
    6.1126    3.4476   -0.2562 H   0  0  0  0  0  0  0  0  0  0  0  0
    4.9245    3.4757   -1.5678 H   0  0  0  0  0  0  0  0  0  0  0  0
    5.2322   -3.2673   -0.9763 H   0  0  0  0  0  0  0  0  0  0  0  0
    4.4990   -1.6690   -1.1141 H   0  0  0  0  0  0  0  0  0  0  0  0
    3.7532   -2.9034   -0.0756 H   0  0  0  0  0  0  0  0  0  0  0  0
    0.1578   -3.8541   -2.4297 H   0  0  0  0  0  0  0  0  0  0  0  0
   -0.2249   -2.1581   -2.8248 H   0  0  0  0  0  0  0  0  0  0  0  0
    2.2184   -1.6579   -2.9916 H   0  0  0  0  0  0  0  0  0  0  0  0
    2.5881   -3.3428   -2.6457 H   0  0  0  0  0  0  0  0  0  0  0  0
    1.7267   -2.9228   -4.1445 H   0  0  0  0  0  0  0  0  0  0  0  0
  1  2  2  0  0  0  0
  1  3  2  0  0  0  0
  1  6  1  0  0  0  0
  1 16  1  0  0  0  0
  4 21  1  0  0  0  0
  4 31  1  0  0  0  0
  5 27  2  0  0  0  0
  6 12  1  0  0  0  0
  6 13  1  0  0  0  0
  7 14  1  0  0  0  0
  7 15  1  0  0  0  0
  7 41  1  0  0  0  0
  8 10  1  0  0  0  0
  8 22  1  0  0  0  0
  8 23  1  0  0  0  0
  9 20  1  0  0  0  0
  9 27  1  0  0  0  0
  9 47  1  0  0  0  0
 10 20  2  0  0  0  0
 11 23  2  0  0  0  0
 11 26  1  0  0  0  0
 12 15  1  0  0  0  0
 12 33  1  0  0  0  0
 12 34  1  0  0  0  0
 13 14  1  0  0  0  0
 13 35  1  0  0  0  0
 13 36  1  0  0  0  0
 14 37  1  0  0  0  0
 14 38  1  0  0  0  0
 15 39  1  0  0  0  0
 15 40  1  0  0  0  0
 16 17  2  0  0  0  0
 16 19  1  0  0  0  0
 17 18  1  0  0  0  0
 17 42  1  0  0  0  0
 18 20  1  0  0  0  0
 18 21  2  0  0  0  0
 19 24  2  0  0  0  0
 19 43  1  0  0  0  0
 21 24  1  0  0  0  0
 22 26  2  0  0  0  0
 22 27  1  0  0  0  0
 23 25  1  0  0  0  0
 24 44  1  0  0  0  0
 25 28  1  0  0  0  0
 25 45  1  0  0  0  0
 25 46  1  0  0  0  0
 26 29  1  0  0  0  0
 28 30  1  0  0  0  0
 28 48  1  0  0  0  0
 28 49  1  0  0  0  0
 29 50  1  0  0  0  0
 29 51  1  0  0  0  0
 29 52  1  0  0  0  0
 30 53  1  0  0  0  0
 30 54  1  0  0  0  0
 30 55  1  0  0  0  0
 31 32  1  0  0  0  0
 31 56  1  0  0  0  0
 31 57  1  0  0  0  0
 32 58  1  0  0  0  0
 32 59  1  0  0  0  0
 32 60  1  0  0  0  0
M  END
> <PUBCHEM_COMPOUND_CID>
135565210

> <PUBCHEM_CONFORMER_RMSD>
1

> <PUBCHEM_CONFORMER_DIVERSEORDER>
2
48
65
43
34
70
62
29
27
61
49
19
33
47
36
23
72
1
46
66
54
67
32
59
69
64
26
17
73
51
24
7
68
41
45
30
42
57
50
56
31
25
58
38
40
28
55
53
35
12
71
39
52
60
9
37
13
18
11
21
6
15
63
3
44
4
16
20
8
10
14
5
22

> <PUBCHEM_MMFF94_PARTIAL_CHARGES>
34
1 1.45
10 -0.65
11 -0.57
12 0.36
13 0.36
14 0.27
15 0.27
16 -0.01
17 -0.15
18 0.09
19 -0.15
2 -0.65
20 0.42
21 0.08
22 -0.24
23 0.01
24 -0.15
25 0.18
26 0.05
27 0.71
29 0.18
3 -0.65
31 0.28
4 -0.36
41 0.36
42 0.15
43 0.15
44 0.15
47 0.37
5 -0.57
6 -0.85
7 -0.9
8 0.51
9 -0.49

> <PUBCHEM_EFFECTIVE_ROTOR_COUNT>
8.2

> <PUBCHEM_PHARMACOPHORE_FEATURES>
13
1 2 acceptor
1 3 acceptor
1 30 hydrophobe
1 4 acceptor
1 5 acceptor
1 7 cation
1 7 donor
1 9 donor
3 8 11 23 cation
5 8 11 22 23 26 rings
6 16 17 18 19 21 24 rings
6 6 7 12 13 14 15 rings
6 8 9 10 20 22 27 rings

> <PUBCHEM_HEAVY_ATOM_COUNT>
32

> <PUBCHEM_ATOM_DEF_STEREO_COUNT>
0

> <PUBCHEM_ATOM_UDEF_STEREO_COUNT>
0

> <PUBCHEM_BOND_DEF_STEREO_COUNT>
0

> <PUBCHEM_BOND_UDEF_STEREO_COUNT>
0

> <PUBCHEM_ISOTOPIC_ATOM_COUNT>
0

> <PUBCHEM_COMPONENT_COUNT>
1

> <PUBCHEM_CACTVS_TAUTO_COUNT>
-1

> <PUBCHEM_CONFORMER_ID>
08148F9A00000002

> <PUBCHEM_MMFF94_ENERGY>
55.4667

> <PUBCHEM_FEATURE_SELFOVERLAP>
66.11

> <PUBCHEM_SHAPE_FINGERPRINT>
10763959 59 18261955146193551348
10764073 3 17606383368151092862
12128747 34 17385436584022187585
12422481 6 18409726236264876326
12788726 201 17553762159423486070
13103583 49 10809625841047176229
13402501 40 18114173108741816965
13583140 156 17821731633046141235
13911987 19 18059016197938693329
14251758 9 18333730187191714234
14790565 3 17611194041520615060
17349148 13 18059863843703446153
17818456 19 18202012014452196064
17844677 252 17968100840811191073
1813 80 14201393923830566386
20511986 3 18268417118223140464
21033648 144 18268148841301186833
21033648 29 16877941671931411585
22149856 69 17486809426675998347
22182313 1 18265352650404166775
2838139 119 18115013122777101653
329604 57 10087644818447540224
4017518 198 17561081407067353198
4144715 1 17894357695780107577
460360 51 18260276269046862887
5081480 168 17770250209152135263
6691757 9 17489303127183761594

> <PUBCHEM_SHAPE_MULTIPOLES>
609.03
14.19
3.82
2.12
4.6
0.34
0.37
5.51
-1.27
-3.66
2.35
1.62
-1.03
1.04

> <PUBCHEM_SHAPE_SELFOVERLAP>
1285.332

> <PUBCHEM_SHAPE_VOLUME>
343.5

> <PUBCHEM_COORDINATE_TYPE>
2
5
10

$$$$
