135538020
  -OEChem-03292013293D

 30 31  0     0  0  0  0  0  0999 V2000
   -2.7934    0.3071    0.8241 S   0  0  0  0  0  0  0  0  0  0  0  0
    1.4389    2.4645   -0.1615 O   0  0  0  0  0  0  0  0  0  0  0  0
   -5.7085   -0.4358    1.4722 O   0  0  0  0  0  0  0  0  0  0  0  0
   -0.1130   -0.0318   -0.9033 N   0  0  0  0  0  0  0  0  0  0  0  0
    0.7246   -2.0817   -0.6407 N   0  0  0  0  0  0  0  0  0  0  0  0
    3.1084    0.9894    0.4716 N   0  0  0  0  0  0  0  0  0  0  0  0
    2.9143   -1.3964    0.2940 N   0  0  0  0  0  0  0  0  0  0  0  0
    4.8616   -0.4102    1.1403 N   0  0  0  0  0  0  0  0  0  0  0  0
   -1.0582    1.0014   -1.2518 C   0  0  0  0  0  0  0  0  0  0  0  0
    1.1363    0.1303   -0.3802 C   0  0  0  0  0  0  0  0  0  0  0  0
   -1.8363    1.5738   -0.0646 C   0  0  0  0  0  0  0  0  0  0  0  0
    1.6325   -1.1431   -0.2266 C   0  0  0  0  0  0  0  0  0  0  0  0
   -0.3154   -1.3804   -1.0419 C   0  0  0  0  0  0  0  0  0  0  0  0
    1.8517    1.3166   -0.0359 C   0  0  0  0  0  0  0  0  0  0  0  0
   -4.2063    0.2157   -0.2985 C   0  0  0  0  0  0  0  0  0  0  0  0
    3.5954   -0.3215    0.6201 C   0  0  0  0  0  0  0  0  0  0  0  0
   -5.2328   -0.7978    0.1824 C   0  0  0  0  0  0  0  0  0  0  0  0
   -0.5010    1.8013   -1.7525 H   0  0  0  0  0  0  0  0  0  0  0  0
   -1.7390    0.5915   -2.0070 H   0  0  0  0  0  0  0  0  0  0  0  0
   -1.1417    2.0112    0.6600 H   0  0  0  0  0  0  0  0  0  0  0  0
   -2.5016    2.3783   -0.3944 H   0  0  0  0  0  0  0  0  0  0  0  0
   -1.2329   -1.7922   -1.4403 H   0  0  0  0  0  0  0  0  0  0  0  0
    3.7152    1.7537    0.7537 H   0  0  0  0  0  0  0  0  0  0  0  0
   -4.6696    1.2070   -0.3409 H   0  0  0  0  0  0  0  0  0  0  0  0
   -3.8704   -0.0608   -1.3017 H   0  0  0  0  0  0  0  0  0  0  0  0
   -4.8053   -1.8051    0.2328 H   0  0  0  0  0  0  0  0  0  0  0  0
   -6.0852   -0.8192   -0.5043 H   0  0  0  0  0  0  0  0  0  0  0  0
    5.3065   -1.3096    1.2878 H   0  0  0  0  0  0  0  0  0  0  0  0
    5.3893    0.4182    1.3924 H   0  0  0  0  0  0  0  0  0  0  0  0
   -6.3655   -1.1041    1.7316 H   0  0  0  0  0  0  0  0  0  0  0  0
  1 11  1  0  0  0  0
  1 15  1  0  0  0  0
  2 14  2  0  0  0  0
  3 17  1  0  0  0  0
  3 30  1  0  0  0  0
  4  9  1  0  0  0  0
  4 10  1  0  0  0  0
  4 13  1  0  0  0  0
  5 12  1  0  0  0  0
  5 13  2  0  0  0  0
  6 14  1  0  0  0  0
  6 16  1  0  0  0  0
  6 23  1  0  0  0  0
  7 12  1  0  0  0  0
  7 16  2  0  0  0  0
  8 16  1  0  0  0  0
  8 28  1  0  0  0  0
  8 29  1  0  0  0  0
  9 11  1  0  0  0  0
  9 18  1  0  0  0  0
  9 19  1  0  0  0  0
 10 12  2  0  0  0  0
 10 14  1  0  0  0  0
 11 20  1  0  0  0  0
 11 21  1  0  0  0  0
 13 22  1  0  0  0  0
 15 17  1  0  0  0  0
 15 24  1  0  0  0  0
 15 25  1  0  0  0  0
 17 26  1  0  0  0  0
 17 27  1  0  0  0  0
M  END
> <PUBCHEM_COMPOUND_CID>
135538020

> <PUBCHEM_CONFORMER_RMSD>
0.6

> <PUBCHEM_CONFORMER_DIVERSEORDER>
1
73
67
17
28
114
60
13
39
109
86
111
33
84
10
3
29
23
94
98
25
7
108
24
31
88
50
57
9
97
99
87
63
26
55
69
66
5
85
89
45
12
105
92
56
47
34
8
72
2
36
93
104
96
44
6
101
46
53
41
83
19
112
61
77
80
30
18
48
51
78
119
103
32
4
15
102
118
95
71
16
62
43
115
100
68
52
107
54
58
20
11
27
74
90
76
22
38
116
35
21
14
113
106
59
37
75
70
40
49
82
42
79
110
64
81
117
65
91

> <PUBCHEM_MMFF94_PARTIAL_CHARGES>
22
1 -0.46
10 -0.24
11 0.23
12 0.35
13 0.04
14 0.71
15 0.23
16 0.56
17 0.28
2 -0.57
22 0.15
23 0.37
28 0.4
29 0.4
3 -0.68
30 0.4
4 0.05
5 -0.57
6 -0.49
7 -0.57
8 -0.85
9 0.26

> <PUBCHEM_EFFECTIVE_ROTOR_COUNT>
5

> <PUBCHEM_PHARMACOPHORE_FEATURES>
8
1 2 acceptor
1 3 acceptor
1 3 donor
1 6 donor
1 8 donor
3 4 5 13 cation
5 4 5 10 12 13 rings
6 6 7 10 12 14 16 rings

> <PUBCHEM_HEAVY_ATOM_COUNT>
17

> <PUBCHEM_ATOM_DEF_STEREO_COUNT>
0

> <PUBCHEM_ATOM_UDEF_STEREO_COUNT>
0

> <PUBCHEM_BOND_DEF_STEREO_COUNT>
0

> <PUBCHEM_BOND_UDEF_STEREO_COUNT>
0

> <PUBCHEM_ISOTOPIC_ATOM_COUNT>
0

> <PUBCHEM_COMPONENT_COUNT>
1

> <PUBCHEM_CACTVS_TAUTO_COUNT>
-1

> <PUBCHEM_CONFORMER_ID>
0814256400000001

> <PUBCHEM_MMFF94_ENERGY>
28.8176

> <PUBCHEM_FEATURE_SELFOVERLAP>
40.766

> <PUBCHEM_SHAPE_FINGERPRINT>
11132069 177 18060135453467364431
11471102 22 18337955593170955776
11796584 16 16588300562685531795
12251169 10 18411417323571090247
12633257 1 18334867112326968441
13140716 1 18268422623727492190
14178342 30 18125728889570140801
14341114 328 17632023026418634289
16945 1 18197477577223370948
17834072 14 18187083945303452749
19050596 39 18130792282861133537
200 152 18129646540163484637
20028762 73 18200870781444574367
20261772 1 18272085019760992207
20871999 31 8574443036127657527
21637258 2 16009017355538423386
22854114 59 18272367551304724363
231179 274 12391515261215113495
23402539 116 18186794773740014519
23557571 272 17603576397366377197
25 1 10303809878215524069
26918003 58 18334574634124047225
2748010 2 17693357959871955820
3009799 131 9007055764985838538
3286 77 18260546718837659037
4047638 21 12751239211677447004
465052 167 18186806893431030595
5104073 3 18268706104427401241

> <PUBCHEM_SHAPE_MULTIPOLES>
317.06
9.4
1.85
1.1
9.13
0.3
-0.05
-1.94
-4.88
-0.79
0.32
0.41
-0.09
0.17

> <PUBCHEM_SHAPE_SELFOVERLAP>
650.165

> <PUBCHEM_SHAPE_VOLUME>
185.3

> <PUBCHEM_COORDINATE_TYPE>
2
5
10

$$$$
