REMARK  Name = 135538639
REMARK  3 active torsions:
REMARK  status: ('A' for Active; 'I' for Inactive)
REMARK    1  A    between atoms: N_2  and  C_16
REMARK    2  A    between atoms: C_18  and  C_20
REMARK    3  A    between atoms: C_20  and  O_21
REMARK                            x       y       z     vdW  Elec       q    Type
REMARK                         _______ _______ _______ _____ _____    ______ ____
ROOT
ATOM      1  O   UNL     1       4.348  -0.371   0.222  0.00  0.00    -0.268 OA
ATOM      2  N   UNL     1       0.243   1.504  -0.004  0.00  0.00    -0.261 N 
ATOM      3  N   UNL     1       2.434   1.901   0.209  0.00  0.00    -0.240 NA
ATOM      4  N   UNL     1       0.243  -0.911  -0.165  0.00  0.00    -0.357 NA
ATOM      5  N   UNL     1       2.482  -1.752  -0.030  0.00  0.00    -0.243 N 
ATOM      6  N   UNL     1       0.659  -3.220  -0.283  0.00  0.00    -0.321 N 
ATOM      7  C   UNL     1       0.856   0.286  -0.033  0.00  0.00    +0.210 C 
ATOM      8  C   UNL     1       1.234   2.444   0.143  0.00  0.00    +0.222 C 
ATOM      9  C   UNL     1       2.195   0.563   0.100  0.00  0.00    +0.176 C 
ATOM     10  C   UNL     1       3.138  -0.521   0.108  0.00  0.00    +0.273 C 
ATOM     11  C   UNL     1       1.084  -1.923  -0.161  0.00  0.00    +0.239 C 
ATOM     12  H   UNL     1       3.040  -2.564  -0.036  0.00  0.00    +0.159 HD
ATOM     13  H   UNL     1      -0.301  -3.417  -0.378  0.00  0.00    +0.146 HD
ATOM     14  H   UNL     1       1.314  -3.955  -0.276  0.00  0.00    +0.146 HD
ENDROOT
BRANCH   2  16
ATOM     15  O   UNL     1      -2.615   0.085  -1.032  0.00  0.00    -0.352 OA
ATOM     16  C   UNL     1      -1.243   1.786  -0.112  0.00  0.00    +0.109 C 
ATOM     17  C   UNL     1      -2.038   1.111   1.004  0.00  0.00    +0.055 C 
ATOM     18  C   UNL     1      -3.131   0.339   0.280  0.00  0.00    +0.146 C 
ATOM     19  C   UNL     1      -1.869   1.251  -1.400  0.00  0.00    +0.162 C 
BRANCH  18  20
ATOM     20  C   UNL     1      -3.496  -0.972   0.950  0.00  0.00    +0.167 C 
BRANCH  20  21
ATOM     21  O   UNL     1      -4.525  -1.600   0.202  0.00  0.00    -0.379 OA
ATOM     22  H   UNL     1      -4.765  -2.440   0.624  0.00  0.00    +0.211 HD
ENDBRANCH  20  21
ENDBRANCH  18  20
ENDBRANCH   2  16
TORSDOF 3
