REMARK  Name = 135517323
REMARK  5 active torsions:
REMARK  status: ('A' for Active; 'I' for Inactive)
REMARK    1  A    between atoms: C_7  and  O_21
REMARK    2  A    between atoms: C_10  and  C_25
REMARK    3  A    between atoms: C_17  and  O_23
REMARK    4  A    between atoms: C_25  and  O_26
REMARK    5  A    between atoms: O_26  and  C_29
REMARK                            x       y       z     vdW  Elec       q    Type
REMARK                         _______ _______ _______ _____ _____    ______ ____
ROOT
ATOM      1  O   UNL     1      -2.884   2.216   0.231  0.00  0.00    -0.285 OA
ATOM      2  O   UNL     1      -0.498  -2.641   0.289  0.00  0.00    -0.285 OA
ATOM      3  N   UNL     1       1.790   2.383  -1.917  0.00  0.00    +0.388 N 
ATOM      4  N   UNL     1      -0.004   1.932   0.303  0.00  0.00    -0.290 N 
ATOM      5  N   UNL     1      -3.163  -2.610  -0.243  0.00  0.00    -0.295 NA
ATOM      6  C   UNL     1       2.179   2.199  -0.521  0.00  0.00    -0.036 C 
ATOM      7  C   UNL     1       1.368   1.399   0.451  0.00  0.00    +0.141 C 
ATOM      8  C   UNL     1       1.339   3.364  -0.944  0.00  0.00    -0.057 C 
ATOM      9  C   UNL     1      -0.036   3.232  -0.355  0.00  0.00    +0.070 C 
ATOM     10  C   UNL     1       1.198  -0.139   0.249  0.00  0.00    +0.111 C 
ATOM     11  C   UNL     1      -0.919   0.906   0.221  0.00  0.00    +0.088 C 
ATOM     12  C   UNL     1      -0.313  -0.285   0.214  0.00  0.00    +0.042 C 
ATOM     13  C   UNL     1      -2.377   1.102   0.170  0.00  0.00    +0.213 C 
ATOM     14  C   UNL     1      -1.042  -1.553   0.176  0.00  0.00    +0.210 C 
ATOM     15  C   UNL     1      -3.177  -0.155   0.055  0.00  0.00    +0.097 C 
ATOM     16  C   UNL     1      -2.537  -1.502  -0.022  0.00  0.00    +0.117 C 
ATOM     17  C   UNL     1      -4.513  -0.064   0.011  0.00  0.00    +0.172 C 
ATOM     18  H   UNL     1       1.116   1.746  -2.342  0.00  0.00    -0.084 HD
ATOM     19  H   UNL     1       2.303   2.438  -2.797  0.00  0.00    -0.084 HD
ATOM     20  H   UNL     1      -2.665  -3.458  -0.278  0.00  0.00    +0.187 HD
ENDROOT
BRANCH   7  21
ATOM     21  O   UNL     1       1.841   1.641   1.776  0.00  0.00    -0.341 OA
ATOM     22  C   UNL     1       3.090   1.007   2.000  0.00  0.00    +0.176 C 
ENDBRANCH   7  21
BRANCH  17  23
ATOM     23  O   UNL     1      -5.362  -1.125  -0.100  0.00  0.00    -0.503 OA
ATOM     24  H   UNL     1      -6.288  -0.984  -0.124  0.00  0.00    +0.292 HD
ENDBRANCH  17  23
BRANCH  10  25
ATOM     25  C   UNL     1       1.860  -0.726  -0.993  0.00  0.00    +0.218 C 
BRANCH  25  26
ATOM     26  O   UNL     1       1.956  -2.130  -0.831  0.00  0.00    -0.434 OA
BRANCH  26  29
ATOM     27  O   UNL     1       4.024  -1.889   0.153  0.00  0.00    -0.227 OA
ATOM     28  N   UNL     1       3.079  -3.965  -0.136  0.00  0.00    -0.295 N 
ATOM     29  C   UNL     1       3.101  -2.596  -0.237  0.00  0.00    +0.398 C 
ATOM     30  H   UNL     1       2.304  -4.472  -0.471  0.00  0.00    +0.148 HD
ATOM     31  H   UNL     1       3.838  -4.441   0.272  0.00  0.00    +0.148 HD
ENDBRANCH  26  29
ENDBRANCH  25  26
ENDBRANCH  10  25
TORSDOF 5
