135508815
  -OEChem-03292013293D

 28 30  0     1  0  0  0  0  0999 V2000
   -2.3229    0.1773    0.7995 O   0  0  0  0  0  0  0  0  0  0  0  0
   -4.7512   -1.2070    1.1924 O   0  0  0  0  0  0  0  0  0  0  0  0
    4.0914   -1.7233   -0.3454 O   0  0  0  0  0  0  0  0  0  0  0  0
    0.0002    0.0946    0.0755 N   0  0  0  0  0  0  0  0  0  0  0  0
   -0.1255   -1.2062   -0.2655 N   0  0  0  0  0  0  0  0  0  0  0  0
    1.1016   -1.7173   -0.3831 N   0  0  0  0  0  0  0  0  0  0  0  0
    1.8101    1.6567    0.5059 N   0  0  0  0  0  0  0  0  0  0  0  0
    3.9222    0.5324    0.2397 N   0  0  0  0  0  0  0  0  0  0  0  0
   -1.2248    0.9572    0.2850 C   0  0  1  0  0  0  0  0  0  0  0  0
   -1.7144    1.6199   -1.0007 C   0  0  0  0  0  0  0  0  0  0  0  0
   -2.8786    0.7509   -1.4150 C   0  0  0  0  0  0  0  0  0  0  0  0
   -3.4534    0.3519   -0.0694 C   0  0  1  0  0  0  0  0  0  0  0  0
   -4.2737   -0.9222   -0.1132 C   0  0  0  0  0  0  0  0  0  0  0  0
    1.3095    0.4435    0.1830 C   0  0  0  0  0  0  0  0  0  0  0  0
    1.9797   -0.7178   -0.1112 C   0  0  0  0  0  0  0  0  0  0  0  0
    3.4174   -0.7321   -0.0961 C   0  0  0  0  0  0  0  0  0  0  0  0
    3.1124    1.6414    0.5184 C   0  0  0  0  0  0  0  0  0  0  0  0
   -0.9286    1.6930    1.0406 H   0  0  0  0  0  0  0  0  0  0  0  0
   -0.9485    1.7115   -1.7764 H   0  0  0  0  0  0  0  0  0  0  0  0
   -2.0818    2.6277   -0.7711 H   0  0  0  0  0  0  0  0  0  0  0  0
   -3.6014    1.2699   -2.0504 H   0  0  0  0  0  0  0  0  0  0  0  0
   -2.5070   -0.1252   -1.9596 H   0  0  0  0  0  0  0  0  0  0  0  0
   -4.0503    1.1685    0.3560 H   0  0  0  0  0  0  0  0  0  0  0  0
   -3.6610   -1.7713   -0.4336 H   0  0  0  0  0  0  0  0  0  0  0  0
   -5.1289   -0.8167   -0.7876 H   0  0  0  0  0  0  0  0  0  0  0  0
   -5.2719   -2.0262    1.1340 H   0  0  0  0  0  0  0  0  0  0  0  0
    3.6962    2.5430    0.7609 H   0  0  0  0  0  0  0  0  0  0  0  0
    4.9307    0.6475    0.2827 H   0  0  0  0  0  0  0  0  0  0  0  0
  1  9  1  0  0  0  0
  1 12  1  0  0  0  0
  2 13  1  0  0  0  0
  2 26  1  0  0  0  0
  3 16  2  0  0  0  0
  4  5  1  0  0  0  0
  4  9  1  0  0  0  0
  4 14  1  0  0  0  0
  5  6  2  0  0  0  0
  6 15  1  0  0  0  0
  7 14  1  0  0  0  0
  7 17  2  0  0  0  0
  8 16  1  0  0  0  0
  8 17  1  0  0  0  0
  8 28  1  0  0  0  0
  9 10  1  0  0  0  0
  9 18  1  0  0  0  0
 10 11  1  0  0  0  0
 10 19  1  0  0  0  0
 10 20  1  0  0  0  0
 11 12  1  0  0  0  0
 11 21  1  0  0  0  0
 11 22  1  0  0  0  0
 12 13  1  0  0  0  0
 12 23  1  0  0  0  0
 13 24  1  0  0  0  0
 13 25  1  0  0  0  0
 14 15  2  0  0  0  0
 15 16  1  0  0  0  0
 17 27  1  0  0  0  0
M  END
> <PUBCHEM_COMPOUND_CID>
135508815

> <PUBCHEM_CONFORMER_RMSD>
0.6

> <PUBCHEM_CONFORMER_DIVERSEORDER>
1
4
9
12
13
7
6
3
2
5
14
11
10
8

> <PUBCHEM_MMFF94_PARTIAL_CHARGES>
18
1 -0.56
12 0.28
13 0.28
14 -0.03
15 0.14
16 0.72
17 0.45
2 -0.68
26 0.4
27 0.06
28 0.37
3 -0.57
4 0.31
5 -0.42
6 -0.23
7 -0.58
8 -0.49
9 0.54

> <PUBCHEM_EFFECTIVE_ROTOR_COUNT>
3

> <PUBCHEM_PHARMACOPHORE_FEATURES>
8
1 1 acceptor
1 2 acceptor
1 2 donor
1 3 acceptor
1 8 donor
5 1 9 10 11 12 rings
5 4 5 6 14 15 rings
6 7 8 14 15 16 17 rings

> <PUBCHEM_HEAVY_ATOM_COUNT>
17

> <PUBCHEM_ATOM_DEF_STEREO_COUNT>
2

> <PUBCHEM_ATOM_UDEF_STEREO_COUNT>
0

> <PUBCHEM_BOND_DEF_STEREO_COUNT>
0

> <PUBCHEM_BOND_UDEF_STEREO_COUNT>
0

> <PUBCHEM_ISOTOPIC_ATOM_COUNT>
0

> <PUBCHEM_COMPONENT_COUNT>
1

> <PUBCHEM_CACTVS_TAUTO_COUNT>
-1

> <PUBCHEM_CONFORMER_ID>
0813B34F00000001

> <PUBCHEM_MMFF94_ENERGY>
33.6464

> <PUBCHEM_FEATURE_SELFOVERLAP>
40.736

> <PUBCHEM_SHAPE_FINGERPRINT>
10608611 8 18336538331056786141
11132069 177 18340196509611307555
11471102 20 18343014471982419916
11543360 7 16950857941769874870
11615757 297 18131069329098879633
12032990 46 18340488863835130966
12403259 226 18336259059656546748
12403259 415 18408600361917159132
12916754 54 18411700967564158177
13296908 3 18334852810112369301
13675066 3 17060337375224936280
14350574 20 18412551998291349502
15196674 1 18412544297130034017
15219456 202 18409161108641859437
16945 1 18271520893255323094
17844478 74 18408321081905951205
18175812 5 18334573525542593133
18186145 218 18060416919775077532
19141452 34 18337677520631614251
19422 9 17274815883177542973
200 152 18060127731242812125
20645477 70 18129649816774865935
21079973 296 18113620131533112451
221490 88 18410857625060951246
22854114 59 18413107281474855353
22959321 4 18413952780125614763
23402539 116 17313097553873218399
23402655 69 18201431450416290012
23532345 42 17749387104690212437
23557571 272 17894908508441150573
23559900 14 17895468137909890066
25610 137 18342739632814753033
2748010 2 18341613784705681918
2871803 45 18260821605809128823
3268164 11 16950271906662591519
3286 77 18412546500553914380
474 4 16699742804685067200
5104073 3 18412260601655258265
57812782 119 18260823787119641780
77492 1 16988838384523087412
81228 2 17548391048962495498
8809292 202 18333736827227257403

> <PUBCHEM_SHAPE_MULTIPOLES>
307.34
8.4
1.76
0.93
2.48
0.01
-0.09
2.17
0.81
-0.71
-0.08
0.76
-0.11
1.19

> <PUBCHEM_SHAPE_SELFOVERLAP>
662.969

> <PUBCHEM_SHAPE_VOLUME>
165.4

> <PUBCHEM_COORDINATE_TYPE>
2
5
10

$$$$
