REMARK  Name = 135509123
REMARK  3 active torsions:
REMARK  status: ('A' for Active; 'I' for Inactive)
REMARK    1  A    between atoms: N_2  and  C_16
REMARK    2  A    between atoms: C_17  and  O_21
REMARK    3  A    between atoms: C_18  and  O_23
REMARK                            x       y       z     vdW  Elec       q    Type
REMARK                         _______ _______ _______ _____ _____    ______ ____
ROOT
ATOM      1  O   UNL     1      -4.210   1.664  -0.397  0.00  0.00    -0.268 OA
ATOM      2  N   UNL     1       0.131   0.560   0.197  0.00  0.00    -0.237 N 
ATOM      3  N   UNL     1      -1.301   2.231  -0.202  0.00  0.00    -0.240 NA
ATOM      4  N   UNL     1      -1.399  -1.311   0.341  0.00  0.00    -0.357 NA
ATOM      5  N   UNL     1      -3.652  -0.568   0.006  0.00  0.00    -0.243 N 
ATOM      6  N   UNL     1      -3.182  -2.840   0.406  0.00  0.00    -0.321 N 
ATOM      7  C   UNL     1      -1.112  -0.002   0.164  0.00  0.00    +0.211 C 
ATOM      8  C   UNL     1      -0.035   1.905  -0.029  0.00  0.00    +0.224 C 
ATOM      9  C   UNL     1      -1.965   1.046  -0.082  0.00  0.00    +0.176 C 
ATOM     10  C   UNL     1      -3.376   0.794  -0.180  0.00  0.00    +0.273 C 
ATOM     11  C   UNL     1      -2.686  -1.571   0.256  0.00  0.00    +0.239 C 
ATOM     12  H   UNL     1      -4.595  -0.849  -0.042  0.00  0.00    +0.159 HD
ATOM     13  H   UNL     1      -2.569  -3.590   0.582  0.00  0.00    +0.146 HD
ATOM     14  H   UNL     1      -4.150  -3.001   0.337  0.00  0.00    +0.146 HD
ENDROOT
BRANCH   2  16
ATOM     15  O   UNL     1       2.390   0.713   1.107  0.00  0.00    -0.335 OA
ATOM     16  C   UNL     1       1.445  -0.145   0.435  0.00  0.00    +0.225 C 
ATOM     17  C   UNL     1       2.129  -0.581  -0.857  0.00  0.00    +0.187 C 
ATOM     18  C   UNL     1       3.584  -0.642  -0.438  0.00  0.00    +0.168 C 
ATOM     19  C   UNL     1       3.695   0.546   0.509  0.00  0.00    +0.146 C 
ATOM     20  C   UNL     1       4.064   1.842  -0.200  0.00  0.00    +0.035 C 
BRANCH  17  21
ATOM     21  O   UNL     1       1.643  -1.814  -1.350  0.00  0.00    -0.378 OA
ATOM     22  H   UNL     1       0.712  -1.717  -1.602  0.00  0.00    +0.211 HD
ENDBRANCH  17  21
BRANCH  18  23
ATOM     23  O   UNL     1       3.836  -1.828   0.314  0.00  0.00    -0.379 OA
ATOM     24  H   UNL     1       3.770  -2.601  -0.270  0.00  0.00    +0.211 HD
ENDBRANCH  18  23
ENDBRANCH   2  16
TORSDOF 3
