135565528
  -OEChem-03292013293D

 30 31  0     0  0  0  0  0  0999 V2000
    0.8489    2.0976    0.7911 O   0  0  0  0  0  0  0  0  0  0  0  0
   -0.8489    2.0977   -0.7911 O   0  0  0  0  0  0  0  0  0  0  0  0
   -0.7999   -2.3753    0.8378 O   0  0  0  0  0  0  0  0  0  0  0  0
    0.7999   -2.3753   -0.8378 O   0  0  0  0  0  0  0  0  0  0  0  0
   -3.5763    1.9137   -0.6521 O   0  0  0  0  0  0  0  0  0  0  0  0
    3.5763    1.9137    0.6522 O   0  0  0  0  0  0  0  0  0  0  0  0
    0.7228   -0.1359   -0.0188 C   0  0  0  0  0  0  0  0  0  0  0  0
   -0.7228   -0.1359    0.0188 C   0  0  0  0  0  0  0  0  0  0  0  0
   -1.4500    0.9314   -0.3508 C   0  0  0  0  0  0  0  0  0  0  0  0
    1.4500    0.9314    0.3509 C   0  0  0  0  0  0  0  0  0  0  0  0
   -1.4145   -1.3718    0.4869 C   0  0  0  0  0  0  0  0  0  0  0  0
    1.4145   -1.3718   -0.4869 C   0  0  0  0  0  0  0  0  0  0  0  0
    3.6159   -0.3104   -0.1560 C   0  0  0  0  0  0  0  0  0  0  0  0
   -3.6159   -0.3104    0.1560 C   0  0  0  0  0  0  0  0  0  0  0  0
   -2.9364    0.9232   -0.3092 C   0  0  0  0  0  0  0  0  0  0  0  0
    2.9365    0.9232    0.3092 C   0  0  0  0  0  0  0  0  0  0  0  0
    2.8904   -1.3703   -0.5230 C   0  0  0  0  0  0  0  0  0  0  0  0
   -2.8905   -1.3704    0.5230 C   0  0  0  0  0  0  0  0  0  0  0  0
   -5.1128   -0.3022    0.1902 C   0  0  0  0  0  0  0  0  0  0  0  0
    5.1128   -0.3022   -0.1902 C   0  0  0  0  0  0  0  0  0  0  0  0
    3.3666   -2.2834   -0.8667 H   0  0  0  0  0  0  0  0  0  0  0  0
   -3.3666   -2.2834    0.8667 H   0  0  0  0  0  0  0  0  0  0  0  0
   -5.4759    0.4846    0.8595 H   0  0  0  0  0  0  0  0  0  0  0  0
   -5.5201   -1.2546    0.5461 H   0  0  0  0  0  0  0  0  0  0  0  0
   -5.5174   -0.1220   -0.8112 H   0  0  0  0  0  0  0  0  0  0  0  0
    5.4760    0.4847   -0.8594 H   0  0  0  0  0  0  0  0  0  0  0  0
    5.5201   -1.2545   -0.5462 H   0  0  0  0  0  0  0  0  0  0  0  0
    5.5175   -0.1222    0.8112 H   0  0  0  0  0  0  0  0  0  0  0  0
   -1.5565    2.7312   -1.0015 H   0  0  0  0  0  0  0  0  0  0  0  0
    1.5564    2.7312    1.0016 H   0  0  0  0  0  0  0  0  0  0  0  0
  1 10  1  0  0  0  0
  1 30  1  0  0  0  0
  2  9  1  0  0  0  0
  2 29  1  0  0  0  0
  3 11  2  0  0  0  0
  4 12  2  0  0  0  0
  5 15  2  0  0  0  0
  6 16  2  0  0  0  0
  7  8  1  0  0  0  0
  7 10  2  0  0  0  0
  7 12  1  0  0  0  0
  8  9  2  0  0  0  0
  8 11  1  0  0  0  0
  9 15  1  0  0  0  0
 10 16  1  0  0  0  0
 11 18  1  0  0  0  0
 12 17  1  0  0  0  0
 13 16  1  0  0  0  0
 13 17  2  0  0  0  0
 13 20  1  0  0  0  0
 14 15  1  0  0  0  0
 14 18  2  0  0  0  0
 14 19  1  0  0  0  0
 17 21  1  0  0  0  0
 18 22  1  0  0  0  0
 19 23  1  0  0  0  0
 19 24  1  0  0  0  0
 19 25  1  0  0  0  0
 20 26  1  0  0  0  0
 20 27  1  0  0  0  0
 20 28  1  0  0  0  0
M  END
> <PUBCHEM_COMPOUND_CID>
135565528

> <PUBCHEM_CONFORMER_RMSD>
0.6

> <PUBCHEM_CONFORMER_DIVERSEORDER>
1
2

> <PUBCHEM_MMFF94_PARTIAL_CHARGES>
24
1 -0.53
10 0.09
11 0.54
12 0.54
13 -0.12
14 -0.12
15 0.54
16 0.54
17 -0.14
18 -0.14
19 0.14
2 -0.53
20 0.14
21 0.15
22 0.15
29 0.45
3 -0.57
30 0.45
4 -0.57
5 -0.57
6 -0.57
7 0.01
8 0.01
9 0.09

> <PUBCHEM_EFFECTIVE_ROTOR_COUNT>
1

> <PUBCHEM_PHARMACOPHORE_FEATURES>
8
1 1 donor
1 2 donor
1 3 acceptor
1 4 acceptor
1 5 acceptor
1 6 acceptor
6 7 10 12 13 16 17 rings
6 8 9 11 14 15 18 rings

> <PUBCHEM_HEAVY_ATOM_COUNT>
20

> <PUBCHEM_ATOM_DEF_STEREO_COUNT>
0

> <PUBCHEM_ATOM_UDEF_STEREO_COUNT>
0

> <PUBCHEM_BOND_DEF_STEREO_COUNT>
0

> <PUBCHEM_BOND_UDEF_STEREO_COUNT>
0

> <PUBCHEM_ISOTOPIC_ATOM_COUNT>
0

> <PUBCHEM_COMPONENT_COUNT>
1

> <PUBCHEM_CACTVS_TAUTO_COUNT>
-1

> <PUBCHEM_CONFORMER_ID>
081490D800000001

> <PUBCHEM_MMFF94_ENERGY>
60.5716

> <PUBCHEM_FEATURE_SELFOVERLAP>
40.691

> <PUBCHEM_SHAPE_FINGERPRINT>
10608611 8 18410853265400152869
10759866 29 18040724658374831846
10967382 1 18411138056107206450
11132069 177 18336542815192189849
11471102 20 18272088313837169880
12011746 2 18410012147652712023
12035758 1 18411138077603175154
12403259 226 18410570678031992428
12403259 415 18410852165888719972
13140716 1 18266741478953999170
13380535 76 18410855464423505862
13402501 40 18410856563934808841
15196674 1 18410856563934802340
15219456 202 18411981364351103213
15375358 24 18410853265405167787
15848702 151 17274555221559744286
16945 1 18410846664035360455
17804303 29 18337114561074986113
18186145 218 18342181011897923361
19141452 34 18343024432539327367
200 152 17704070685833319763
20510252 161 18411136922763796561
20588541 1 18410577283691615726
20645477 70 17989492913740882430
21249577 43 18410293613991904555
21267235 1 18410583880756393442
21279426 13 18194685856881371950
23175994 123 17846505837205927864
23402539 116 18334851740649902895
23493267 7 18113335301727832544
23557571 272 17968097486568554285
23559900 14 18266458716231320246
25 1 18339920398748004319
2748010 2 18341336686094904614
3323516 105 18341052930205781679
335352 9 18411420596246356374
3524813 1 18410852161598728624
495365 180 17916849275251550504
5104073 3 18337391543494787513
69090 78 18343017822262879479
77492 1 15841835538155051911
8809292 202 18335425694140569098
9709674 26 18411706460722348102

> <PUBCHEM_SHAPE_MULTIPOLES>
376.37
8.35
2.28
0.81
0
0.03
0
0.49
0
0
0
0
0
1.11

> <PUBCHEM_SHAPE_SELFOVERLAP>
827.963

> <PUBCHEM_SHAPE_VOLUME>
198.1

> <PUBCHEM_COORDINATE_TYPE>
2
5
10

$$$$
