135596623
  -OEChem-03292013293D

 36 37  0     0  0  0  0  0  0999 V2000
   -4.6981   -2.1678    1.2906 Cl  0  0  0  0  0  0  0  0  0  0  0  0
    4.9484   -3.0275   -0.2440 Cl  0  0  0  0  0  0  0  0  0  0  0  0
    1.8596    1.9453    1.1409 O   0  0  0  0  0  0  0  0  0  0  0  0
   -2.4749   -0.0231   -0.1036 N   0  0  0  0  0  0  0  0  0  0  0  0
    1.0194    0.1171   -0.0267 N   0  0  0  0  0  0  0  0  0  0  0  0
   -1.2119   -0.4238   -0.3610 N   0  0  0  0  0  0  0  0  0  0  0  0
    3.5669   -0.8782    0.1175 N   0  0  0  0  0  0  0  0  0  0  0  0
    5.7362    0.8791   -0.1505 N   0  0  0  0  0  0  0  0  0  0  0  0
    4.2676    2.7118    0.2084 N   0  0  0  0  0  0  0  0  0  0  0  0
    7.1734   -0.9734   -0.5062 N   0  0  0  0  0  0  0  0  0  0  0  0
   -4.8796   -0.1701   -0.5544 C   0  0  0  0  0  0  0  0  0  0  0  0
   -3.4897   -0.5136   -1.0205 C   0  0  0  0  0  0  0  0  0  0  0  0
   -5.4972   -0.8684    0.4830 C   0  0  0  0  0  0  0  0  0  0  0  0
   -5.5508    0.8756   -1.1879 C   0  0  0  0  0  0  0  0  0  0  0  0
   -6.7863   -0.5208    0.8871 C   0  0  0  0  0  0  0  0  0  0  0  0
   -6.8400    1.2232   -0.7839 C   0  0  0  0  0  0  0  0  0  0  0  0
    3.4201    0.4575    0.2209 C   0  0  0  0  0  0  0  0  0  0  0  0
   -7.4578    0.5249    0.2536 C   0  0  0  0  0  0  0  0  0  0  0  0
    4.4856    1.3206    0.0892 C   0  0  0  0  0  0  0  0  0  0  0  0
    2.0341    0.9222    0.4843 C   0  0  0  0  0  0  0  0  0  0  0  0
    5.8830   -0.4567   -0.2539 C   0  0  0  0  0  0  0  0  0  0  0  0
    4.8175   -1.3199   -0.1223 C   0  0  0  0  0  0  0  0  0  0  0  0
   -0.3255    0.3660    0.1395 C   0  0  0  0  0  0  0  0  0  0  0  0
   -3.4066   -1.5998   -1.1524 H   0  0  0  0  0  0  0  0  0  0  0  0
   -3.3122   -0.0888   -2.0172 H   0  0  0  0  0  0  0  0  0  0  0  0
   -5.0837    1.4320   -1.9962 H   0  0  0  0  0  0  0  0  0  0  0  0
   -2.5420    0.9907   -0.0105 H   0  0  0  0  0  0  0  0  0  0  0  0
   -7.2816   -1.0550    1.6940 H   0  0  0  0  0  0  0  0  0  0  0  0
   -7.3626    2.0378   -1.2767 H   0  0  0  0  0  0  0  0  0  0  0  0
   -8.4614    0.7957    0.5682 H   0  0  0  0  0  0  0  0  0  0  0  0
    1.2768   -0.7128   -0.5545 H   0  0  0  0  0  0  0  0  0  0  0  0
   -0.5477    1.2758    0.7246 H   0  0  0  0  0  0  0  0  0  0  0  0
    3.3708    3.0889   -0.0716 H   0  0  0  0  0  0  0  0  0  0  0  0
    5.0794    3.3092    0.1092 H   0  0  0  0  0  0  0  0  0  0  0  0
    7.3871   -1.9109   -0.1891 H   0  0  0  0  0  0  0  0  0  0  0  0
    7.9317   -0.3079   -0.5888 H   0  0  0  0  0  0  0  0  0  0  0  0
  1 13  1  0  0  0  0
  2 22  1  0  0  0  0
  3 20  2  0  0  0  0
  4  6  1  0  0  0  0
  4 12  1  0  0  0  0
  4 27  1  0  0  0  0
  5 20  1  0  0  0  0
  5 23  1  0  0  0  0
  5 31  1  0  0  0  0
  6 23  2  0  0  0  0
  7 17  1  0  0  0  0
  7 22  2  0  0  0  0
  8 19  1  0  0  0  0
  8 21  2  0  0  0  0
  9 19  1  0  0  0  0
  9 33  1  0  0  0  0
  9 34  1  0  0  0  0
 10 21  1  0  0  0  0
 10 35  1  0  0  0  0
 10 36  1  0  0  0  0
 11 12  1  0  0  0  0
 11 13  1  0  0  0  0
 11 14  2  0  0  0  0
 12 24  1  0  0  0  0
 12 25  1  0  0  0  0
 13 15  2  0  0  0  0
 14 16  1  0  0  0  0
 14 26  1  0  0  0  0
 15 18  1  0  0  0  0
 15 28  1  0  0  0  0
 16 18  2  0  0  0  0
 16 29  1  0  0  0  0
 17 19  2  0  0  0  0
 17 20  1  0  0  0  0
 18 30  1  0  0  0  0
 21 22  1  0  0  0  0
 23 32  1  0  0  0  0
M  END
> <PUBCHEM_COMPOUND_CID>
135596623

> <PUBCHEM_CONFORMER_RMSD>
1

> <PUBCHEM_CONFORMER_DIVERSEORDER>
1
128
53
39
47
67
138
79
114
19
171
169
168
120
150
162
143
29
94
26
22
99
3
154
21
75
59
4
45
178
105
136
90
139
43
104
126
119
41
103
146
20
70
7
118
62
17
153
86
46
89
51
142
173
163
15
5
170
25
48
167
122
132
18
69
140
65
63
108
52
68
78
112
137
141
40
44
55
175
174
49
134
2
152
74
115
30
148
91
121
24
157
61
117
54
16
164
125
172
36
158
11
156
135
129
100
32
34
101
106
33
155
12
166
97
66
145
161
144
42
71
124
107
31
147
116
81
177
179
92
60
111
87
10
180
165
123
37
93
176
113
95
8
131
149
6
109
50
64
127
77
102
130
23
98
82
133
9
83
13
151
38
14
181
85
28
96
27
110
84
56
57
58
76
35
88
80
160
72
182
73
159

> <PUBCHEM_MMFF94_PARTIAL_CHARGES>
34
1 -0.18
10 -0.9
11 -0.14
12 0.41
13 0.18
14 -0.15
15 -0.15
16 -0.15
17 0.4
18 -0.15
19 0.41
2 -0.18
20 0.54
21 0.41
22 0.49
23 0.45
26 0.15
27 0.36
28 0.15
29 0.15
3 -0.57
30 0.15
31 0.37
32 0.06
33 0.4
34 0.4
35 0.4
36 0.4
4 -0.58
5 -0.49
6 -0.5
7 -0.62
8 -0.62
9 -0.9

> <PUBCHEM_EFFECTIVE_ROTOR_COUNT>
6

> <PUBCHEM_PHARMACOPHORE_FEATURES>
10
1 10 donor
1 3 acceptor
1 4 donor
1 5 donor
1 7 acceptor
1 9 cation
1 9 donor
3 8 10 21 cation
6 11 13 14 15 16 18 rings
6 7 8 17 19 21 22 rings

> <PUBCHEM_HEAVY_ATOM_COUNT>
23

> <PUBCHEM_ATOM_DEF_STEREO_COUNT>
0

> <PUBCHEM_ATOM_UDEF_STEREO_COUNT>
0

> <PUBCHEM_BOND_DEF_STEREO_COUNT>
1

> <PUBCHEM_BOND_UDEF_STEREO_COUNT>
0

> <PUBCHEM_ISOTOPIC_ATOM_COUNT>
0

> <PUBCHEM_COMPONENT_COUNT>
1

> <PUBCHEM_CACTVS_TAUTO_COUNT>
-1

> <PUBCHEM_CONFORMER_ID>
08150A4F00000001

> <PUBCHEM_MMFF94_ENERGY>
71.1648

> <PUBCHEM_FEATURE_SELFOVERLAP>
50.747

> <PUBCHEM_SHAPE_FINGERPRINT>
10673678 19 17971205956960958500
11089746 13 15697998548581377123
11524674 6 18272650165044712335
11724838 91 11169918290412717696
12730499 353 18186519912897116218
13533116 47 18272931605291769594
14251764 18 17561084700647307120
14341114 176 18334577953986340325
14933364 13 18261111885368576101
15183329 4 17775566433808850117
15348495 7 18335139860162150825
15352257 5 18260831514088074083
17844677 252 18261396663185842861
20281389 69 17918272069811676801
21150785 3 16370731426289244342
21267235 1 18272656715132822534
21315759 148 18041564749371797691
21623969 137 18342464754618016015
220451 1 18059574728038029159
22061861 79 18410571777770480263
22224240 67 8502367824307746948
2303208 19 18113905961559246883
23035841 295 17675922097419766331
23081809 10 17632289108121909685
23559900 14 18335697269650185689
29717793 49 17561085813096623308
3004659 81 18410007733022372000
3014965 18 18341890762329517815
328311 84 18407762538641547571
34797466 226 17022910059845826510
4073 2 18041283269657176946
46194498 28 18040434400258742332
59755656 215 18260265209896764355

> <PUBCHEM_SHAPE_MULTIPOLES>
436.33
23.49
2.2
0.97
10.83
0.64
0.03
2.18
-1.41
-2.94
0.33
1.15
0.05
2.15

> <PUBCHEM_SHAPE_SELFOVERLAP>
906.397

> <PUBCHEM_SHAPE_VOLUME>
248.5

> <PUBCHEM_COORDINATE_TYPE>
2
5
10

$$$$
