REMARK  Name = 135544014
REMARK  11 active torsions:
REMARK  status: ('A' for Active; 'I' for Inactive)
REMARK    1  A    between atoms: C_1  and  C_2
REMARK    2  A    between atoms: C_1  and  C_17
REMARK    3  A    between atoms: C_1  and  C_30
REMARK    4  A    between atoms: C_2  and  N_4
REMARK    5  A    between atoms: C_17  and  C_18
REMARK    6  A    between atoms: C_18  and  O_19
REMARK    7  A    between atoms: O_19  and  C_21
REMARK    8  A    between atoms: C_21  and  C_22
REMARK    9  A    between atoms: C_22  and  N_23
REMARK   10  A    between atoms: C_22  and  C_27
REMARK   11  A    between atoms: C_30  and  O_31
REMARK                            x       y       z     vdW  Elec       q    Type
REMARK                         _______ _______ _______ _____ _____    ______ ____
ROOT
ATOM      1  C   UNL     1       0.357  -1.793   0.453  0.00  0.00    +0.053 C 
ENDROOT
BRANCH   1   2
ATOM      2  C   UNL     1      -1.008  -2.214   1.051  0.00  0.00    +0.098 C 
BRANCH   2   4
ATOM      3  O   UNL     1      -5.187   1.541  -1.040  0.00  0.00    -0.268 OA
ATOM      4  N   UNL     1      -2.192  -1.496   0.450  0.00  0.00    -0.261 N 
ATOM      5  N   UNL     1      -4.162  -1.207  -0.568  0.00  0.00    -0.240 NA
ATOM      6  N   UNL     1      -1.549   0.806   0.836  0.00  0.00    -0.357 NA
ATOM      7  N   UNL     1      -3.231   2.289  -0.006  0.00  0.00    -0.243 N 
ATOM      8  N   UNL     1      -1.289   3.133   1.023  0.00  0.00    -0.321 N 
ATOM      9  C   UNL     1      -2.389  -0.149   0.378  0.00  0.00    +0.210 C 
ATOM     10  C   UNL     1      -3.286  -2.090  -0.131  0.00  0.00    +0.222 C 
ATOM     11  C   UNL     1      -3.603  -0.004  -0.251  0.00  0.00    +0.176 C 
ATOM     12  C   UNL     1      -4.117   1.316  -0.489  0.00  0.00    +0.273 C 
ATOM     13  C   UNL     1      -1.996   2.026   0.630  0.00  0.00    +0.239 C 
ATOM     14  H   UNL     1      -3.490   3.233  -0.120  0.00  0.00    +0.159 HD
ATOM     15  H   UNL     1      -0.420   3.028   1.473  0.00  0.00    +0.146 HD
ATOM     16  H   UNL     1      -1.651   4.033   0.855  0.00  0.00    +0.146 HD
ENDBRANCH   2   4
ENDBRANCH   1   2
BRANCH   1  17
ATOM     17  C   UNL     1       1.475  -2.524   1.228  0.00  0.00    +0.052 C 
BRANCH  17  18
ATOM     18  C   UNL     1       2.880  -2.221   0.721  0.00  0.00    +0.208 C 
BRANCH  18  19
ATOM     19  O   UNL     1       3.110  -0.812   0.824  0.00  0.00    -0.450 OA
BRANCH  19  21
ATOM     20  O   UNL     1       4.528  -0.915  -0.990  0.00  0.00    -0.252 OA
ATOM     21  C   UNL     1       3.964  -0.284  -0.105  0.00  0.00    +0.296 C 
BRANCH  21  22
ATOM     22  C   UNL     1       4.110   1.210   0.138  0.00  0.00    +0.036 C 
BRANCH  22  23
ATOM     23  N   UNL     1       5.121   1.731  -0.784  0.00  0.00    +0.389 N 
ATOM     24  H   UNL     1       5.232   2.734  -0.636  0.00  0.00    -0.088 HD
ATOM     25  H   UNL     1       4.825   1.560  -1.745  0.00  0.00    -0.088 HD
ATOM     26  H   UNL     1       6.010   1.261  -0.613  0.00  0.00    -0.088 HD
ENDBRANCH  22  23
BRANCH  22  27
ATOM     27  C   UNL     1       2.754   1.946   0.025  0.00  0.00    -0.010 C 
ATOM     28  C   UNL     1       2.905   3.438   0.340  0.00  0.00    -0.002 C 
ATOM     29  C   UNL     1       2.071   1.771  -1.336  0.00  0.00    -0.002 C 
ENDBRANCH  22  27
ENDBRANCH  21  22
ENDBRANCH  19  21
ENDBRANCH  18  19
ENDBRANCH  17  18
ENDBRANCH   1  17
BRANCH   1  30
ATOM     30  C   UNL     1       0.427  -2.056  -1.061  0.00  0.00    +0.139 C 
BRANCH  30  31
ATOM     31  O   UNL     1       0.306  -3.444  -1.337  0.00  0.00    -0.382 OA
ATOM     32  H   UNL     1       0.353  -3.589  -2.295  0.00  0.00    +0.210 HD
ENDBRANCH  30  31
ENDBRANCH   1  30
TORSDOF 11
