135596583
  -OEChem-03292013293D

 39 43  0     0  0  0  0  0  0999 V2000
    6.1750    1.7679    0.0020 O   0  0  0  0  0  0  0  0  0  0  0  0
    0.7766    1.7082   -0.0003 N   0  0  0  0  0  0  0  0  0  0  0  0
    3.1561    1.5720    0.0007 N   0  0  0  0  0  0  0  0  0  0  0  0
    2.0831   -0.3829   -0.0020 N   0  0  0  0  0  0  0  0  0  0  0  0
    6.1234   -0.5510    0.0015 N   0  0  0  0  0  0  0  0  0  0  0  0
    4.0931   -1.8313   -0.0010 N   0  0  0  0  0  0  0  0  0  0  0  0
    6.1801   -2.8913    0.0006 N   0  0  0  0  0  0  0  0  0  0  0  0
   -2.3330   -0.2569   -0.0016 C   0  0  0  0  0  0  0  0  0  0  0  0
   -2.9969   -1.6180   -0.0011 C   0  0  0  0  0  0  0  0  0  0  0  0
   -3.3058    0.7681   -0.0007 C   0  0  0  0  0  0  0  0  0  0  0  0
   -4.4648   -1.2454   -0.0003 C   0  0  0  0  0  0  0  0  0  0  0  0
   -4.6186    0.1591   -0.0001 C   0  0  0  0  0  0  0  0  0  0  0  0
   -0.9794    0.0311   -0.0022 C   0  0  0  0  0  0  0  0  0  0  0  0
   -0.5958    1.3734   -0.0015 C   0  0  0  0  0  0  0  0  0  0  0  0
   -2.9250    2.0995   -0.0002 C   0  0  0  0  0  0  0  0  0  0  0  0
   -5.5589   -2.0926    0.0007 C   0  0  0  0  0  0  0  0  0  0  0  0
   -5.8811    0.7286    0.0011 C   0  0  0  0  0  0  0  0  0  0  0  0
   -1.5588    2.3973   -0.0002 C   0  0  0  0  0  0  0  0  0  0  0  0
   -6.8314   -1.5183    0.0020 C   0  0  0  0  0  0  0  0  0  0  0  0
   -6.9909   -0.1218    0.0022 C   0  0  0  0  0  0  0  0  0  0  0  0
    1.9467    0.9270   -0.0005 C   0  0  0  0  0  0  0  0  0  0  0  0
    4.1204    0.6070    0.0003 C   0  0  0  0  0  0  0  0  0  0  0  0
    3.4378   -0.5868   -0.0010 C   0  0  0  0  0  0  0  0  0  0  0  0
    5.5436    0.7170    0.0013 C   0  0  0  0  0  0  0  0  0  0  0  0
    5.4047   -1.7599    0.0003 C   0  0  0  0  0  0  0  0  0  0  0  0
   -2.7380   -2.1751    0.9039 H   0  0  0  0  0  0  0  0  0  0  0  0
   -2.7390   -2.1751   -0.9064 H   0  0  0  0  0  0  0  0  0  0  0  0
   -0.2755   -0.7905   -0.0027 H   0  0  0  0  0  0  0  0  0  0  0  0
   -3.6566    2.9006    0.0006 H   0  0  0  0  0  0  0  0  0  0  0  0
   -5.4375   -3.1701    0.0006 H   0  0  0  0  0  0  0  0  0  0  0  0
   -6.0201    1.8045    0.0014 H   0  0  0  0  0  0  0  0  0  0  0  0
   -1.2507    3.4406    0.0007 H   0  0  0  0  0  0  0  0  0  0  0  0
    0.9182    2.7172    0.0003 H   0  0  0  0  0  0  0  0  0  0  0  0
   -7.7106   -2.1573    0.0029 H   0  0  0  0  0  0  0  0  0  0  0  0
   -7.9920    0.3016    0.0033 H   0  0  0  0  0  0  0  0  0  0  0  0
    3.3017    2.5729    0.0018 H   0  0  0  0  0  0  0  0  0  0  0  0
    7.1378   -0.6043    0.0024 H   0  0  0  0  0  0  0  0  0  0  0  0
    5.7609   -3.8148   -0.0002 H   0  0  0  0  0  0  0  0  0  0  0  0
    7.1929   -2.8388    0.0016 H   0  0  0  0  0  0  0  0  0  0  0  0
  1 24  2  0  0  0  0
  2 14  1  0  0  0  0
  2 21  1  0  0  0  0
  2 33  1  0  0  0  0
  3 21  1  0  0  0  0
  3 22  1  0  0  0  0
  3 36  1  0  0  0  0
  4 21  2  0  0  0  0
  4 23  1  0  0  0  0
  5 24  1  0  0  0  0
  5 25  1  0  0  0  0
  5 37  1  0  0  0  0
  6 23  1  0  0  0  0
  6 25  2  0  0  0  0
  7 25  1  0  0  0  0
  7 38  1  0  0  0  0
  7 39  1  0  0  0  0
  8  9  1  0  0  0  0
  8 10  2  0  0  0  0
  8 13  1  0  0  0  0
  9 11  1  0  0  0  0
  9 26  1  0  0  0  0
  9 27  1  0  0  0  0
 10 12  1  0  0  0  0
 10 15  1  0  0  0  0
 11 12  1  0  0  0  0
 11 16  2  0  0  0  0
 12 17  2  0  0  0  0
 13 14  2  0  0  0  0
 13 28  1  0  0  0  0
 14 18  1  0  0  0  0
 15 18  2  0  0  0  0
 15 29  1  0  0  0  0
 16 19  1  0  0  0  0
 16 30  1  0  0  0  0
 17 20  1  0  0  0  0
 17 31  1  0  0  0  0
 18 32  1  0  0  0  0
 19 20  2  0  0  0  0
 19 34  1  0  0  0  0
 20 35  1  0  0  0  0
 22 23  2  0  0  0  0
 22 24  1  0  0  0  0
M  END
> <PUBCHEM_COMPOUND_CID>
135596583

> <PUBCHEM_CONFORMER_RMSD>
0.6

> <PUBCHEM_CONFORMER_DIVERSEORDER>
1
29
7
24
16
12
17
18
10
27
19
20
9
6
21
14
11
22
28
5
15
2
23
26
13
30
25
3
8
4

> <PUBCHEM_MMFF94_PARTIAL_CHARGES>
35
1 -0.57
11 -0.14
13 -0.15
14 0.1
15 -0.15
16 -0.15
17 -0.15
18 -0.15
19 -0.15
2 -0.58
20 -0.15
21 0.27
22 -0.24
23 0.35
24 0.71
25 0.56
28 0.15
29 0.15
3 0.03
30 0.15
31 0.15
32 0.15
33 0.4
34 0.15
35 0.15
36 0.27
37 0.37
38 0.4
39 0.4
4 -0.57
5 -0.49
6 -0.57
7 -0.85
8 -0.14
9 0.29

> <PUBCHEM_EFFECTIVE_ROTOR_COUNT>
2.2

> <PUBCHEM_PHARMACOPHORE_FEATURES>
11
1 1 acceptor
1 2 donor
1 3 donor
1 5 donor
1 7 donor
4 2 3 4 21 cation
5 3 4 21 22 23 rings
5 8 9 10 11 12 rings
6 11 12 16 17 19 20 rings
6 5 6 22 23 24 25 rings
6 8 10 13 14 15 18 rings

> <PUBCHEM_HEAVY_ATOM_COUNT>
25

> <PUBCHEM_ATOM_DEF_STEREO_COUNT>
0

> <PUBCHEM_ATOM_UDEF_STEREO_COUNT>
0

> <PUBCHEM_BOND_DEF_STEREO_COUNT>
0

> <PUBCHEM_BOND_UDEF_STEREO_COUNT>
0

> <PUBCHEM_ISOTOPIC_ATOM_COUNT>
0

> <PUBCHEM_COMPONENT_COUNT>
1

> <PUBCHEM_CACTVS_TAUTO_COUNT>
-1

> <PUBCHEM_CONFORMER_ID>
08150A2700000001

> <PUBCHEM_MMFF94_ENERGY>
80.1987

> <PUBCHEM_FEATURE_SELFOVERLAP>
56.192

> <PUBCHEM_SHAPE_FINGERPRINT>
10299344 5 18413394241082494433
10595046 47 18409732863642442216
10835480 77 18410002243480044836
11315181 36 18202286940004901529
11524674 6 16702302369318259655
11578080 2 16734934642165524631
117089 54 17555748608032174182
11719270 70 18059856147175436054
12107183 9 17762620586266426584
12166972 35 17894353284585307789
12236239 1 18334013895488205981
12516196 113 18272651272338743681
12633257 1 16200148841506829453
12760667 363 18341892987760679063
13073987 5 18343300340937813720
13288520 33 18411138065636209341
13402501 40 18412265042878587063
13533116 47 18411136957012518048
13685833 64 18409169930747207171
13862211 1 18341612646829557431
14251764 18 18202004348120227393
14341114 176 18409732854709200676
14347332 77 18261105214904362336
14420673 8 18409732859653436675
14461889 52 18338229475289085520
15183329 4 18409450267141022051
15196674 1 18410575059294279716
15927050 60 17480577582888136628
17844677 252 18339367375081689068
17857418 61 18411419513893452931
1813 80 17530963596425693469
18335252 98 18336269036643750074
20028762 73 18340485565638773714
21033648 29 14189581788724445385
21130935 74 18343865506630136155
21236236 1 18342176627522804433
21267235 1 18410579478419897493
21279426 13 18336261246148049197
21623969 137 17917714590934362878
21682296 61 18410016550859561379
23198884 109 15285354016594432957
23522609 53 18123785068755472665
23559900 14 18339354270978324161
3004659 81 18186800287934729552
335352 9 18410853283840707685
3383291 50 18114746057548116915
3472631 163 8574709113461489416
34797466 226 17703798050437887916
397830 11 14979096137687644191
4073 2 18042127712067806530
4214541 1 18410855417231717060
4325135 7 18334860545818098060
439807 62 18410012117556240315
46194498 28 17386004022375033468
465052 167 18272373087332972430
5104073 3 18201997682194081528
559249 180 18411136918874536623
5718773 13 18264485097138865314
59682541 35 18271796970027959600
6138700 20 18408604743411561475
999808 66 17968107460458613891

> <PUBCHEM_SHAPE_MULTIPOLES>
478.73
19.46
2.52
0.59
5.05
0.43
0
8.88
-0.02
1.17
0
-0.11
0
0

> <PUBCHEM_SHAPE_SELFOVERLAP>
1091.511

> <PUBCHEM_SHAPE_VOLUME>
246.7

> <PUBCHEM_COORDINATE_TYPE>
2
5
10

$$$$
