REMARK  Name = 135596630
REMARK  5 active torsions:
REMARK  status: ('A' for Active; 'I' for Inactive)
REMARK    1  A    between atoms: C2*_2  and  O2*_17
REMARK    2  A    between atoms: C1*_3  and  N_7
REMARK    3  A    between atoms: C3*_4  and  O3*_19
REMARK    4  A    between atoms: C4*_5  and  C5*_21
REMARK    5  A    between atoms: C5*_21  and  O5*_22
REMARK                            x       y       z     vdW  Elec       q    Type
REMARK                         _______ _______ _______ _____ _____    ______ ____
ROOT
ATOM      1  O4* UNL     1       1.921   0.467   0.978  0.00  0.00    -0.336 OA
ATOM      2  C2* UNL     1       1.484  -0.930  -0.881  0.00  0.00    +0.183 C 
ATOM      3  C1* UNL     1       0.875  -0.327   0.381  0.00  0.00    +0.208 C 
ATOM      4  C3* UNL     1       2.930  -1.122  -0.472  0.00  0.00    +0.171 C 
ATOM      5  C4* UNL     1       3.189   0.113   0.382  0.00  0.00    +0.175 C 
ENDROOT
BRANCH   3   7
ATOM      6  O   UNL     1      -1.580  -2.214   0.682  0.00  0.00    -0.272 OA
ATOM      7  N   UNL     1      -0.358   0.501   0.104  0.00  0.00    -0.208 NA
ATOM      8  N   UNL     1      -1.592   2.288  -0.405  0.00  0.00    -0.204 NA
ATOM      9  N   UNL     1      -3.605  -1.159   0.301  0.00  0.00    -0.281 N 
ATOM     10  N   UNL     1      -3.805   1.174  -0.275  0.00  0.00    -0.200 NA
ATOM     11  C   UNL     1      -1.657   0.084   0.123  0.00  0.00    +0.224 C 
ATOM     12  C   UNL     1      -0.370   1.833  -0.219  0.00  0.00    +0.215 C 
ATOM     13  C   UNL     1      -2.399   1.201  -0.193  0.00  0.00    +0.029 C 
ATOM     14  C   UNL     1      -2.216  -1.205   0.399  0.00  0.00    +0.253 C 
ATOM     15  C   UNL     1      -4.305   0.000  -0.022  0.00  0.00    +0.229 C 
ATOM     16  H   UNL     1      -4.116  -1.985   0.468  0.00  0.00    +0.151 HD
ENDBRANCH   3   7
BRANCH   2  17
ATOM     17  O2* UNL     1       0.856  -2.133  -1.276  0.00  0.00    -0.378 OA
ATOM     18  H2* UNL     1      -0.063  -1.952  -1.526  0.00  0.00    +0.211 HD
ENDBRANCH   2  17
BRANCH   4  19
ATOM     19  O3* UNL     1       3.062  -2.271   0.363  0.00  0.00    -0.379 OA
ATOM     20  H3* UNL     1       2.902  -3.071  -0.161  0.00  0.00    +0.211 HD
ENDBRANCH   4  19
BRANCH   5  21
ATOM     21  C5* UNL     1       3.686   1.304  -0.425  0.00  0.00    +0.169 C 
BRANCH  21  22
ATOM     22  O5* UNL     1       3.884   2.397   0.455  0.00  0.00    -0.379 OA
ATOM     23  H5* UNL     1       4.201   3.163  -0.048  0.00  0.00    +0.211 HD
ENDBRANCH  21  22
ENDBRANCH   5  21
TORSDOF 5
