REMARK  Name = 135566959
REMARK  11 active torsions:
REMARK  status: ('A' for Active; 'I' for Inactive)
REMARK    1  A    between atoms: C_1  and  N_23
REMARK    2  A    between atoms: C_2  and  C_9
REMARK    3  A    between atoms: N_8  and  CA_11
REMARK    4  A    between atoms: CA_11  and  C_13
REMARK    5  A    between atoms: CA_11  and  CB_16
REMARK    6  A    between atoms: C_13  and  O_14
REMARK    7  A    between atoms: CB_16  and  CG_17
REMARK    8  A    between atoms: CG_17  and  CD_19
REMARK    9  A    between atoms: CD_19  and  OE1_20
REMARK   10  A    between atoms: N_23  and  C_25
REMARK   11  A    between atoms: C_25  and  C_30
REMARK                            x       y       z     vdW  Elec       q    Type
REMARK                         _______ _______ _______ _____ _____    ______ ____
ROOT
ATOM      1  C   UNL     1       1.400   2.794  -0.107  0.00  0.00    +0.055 C 
ATOM      2  C   UNL     1      -1.349   2.356  -0.280  0.00  0.00    +0.053 C 
ATOM      3  C   UNL     1       0.711   3.135  -1.271  0.00  0.00    +0.015 C 
ATOM      4  C   UNL     1       0.715   2.234   0.970  0.00  0.00    +0.015 C 
ATOM      5  C   UNL     1      -0.664   2.916  -1.357  0.00  0.00    +0.006 C 
ATOM      6  C   UNL     1      -0.660   2.015   0.884  0.00  0.00    +0.006 C 
ENDROOT
BRANCH   2   9
ATOM      7  O   UNL     1      -3.485   2.817  -1.132  0.00  0.00    -0.270 OA
ATOM      8  N   UNL     1      -3.313   1.097   0.413  0.00  0.00    -0.293 N 
ATOM      9  C   ACE A   0      -2.783   2.128  -0.370  0.00  0.00    +0.246 C 
ATOM     10  H   UNL     1      -2.700   0.592   0.994  0.00  0.00    +0.150 HD
BRANCH   8  11
ATOM     11  CA  UNL     1      -4.712   0.734   0.415  0.00  0.00    +0.172 C 
BRANCH  11  13
ATOM     12  OXT UNL     1      -4.278   0.162   2.743  0.00  0.00    -0.248 OA
ATOM     13  C   UNL     1      -5.073   0.308   1.824  0.00  0.00    +0.332 C 
BRANCH  13  14
ATOM     14  O   UNL     1      -6.413   0.136   1.974  0.00  0.00    -0.479 OA
ATOM     15  H   UNL     1      -6.986   0.258   1.243  0.00  0.00    +0.295 HD
ENDBRANCH  13  14
ENDBRANCH  11  13
BRANCH  11  16
ATOM     16  CB  UNL     1      -5.054  -0.311  -0.654  0.00  0.00    +0.043 C 
BRANCH  16  17
ATOM     17  CG  UNL     1      -4.360  -1.671  -0.507  0.00  0.00    +0.112 C 
BRANCH  17  19
ATOM     18  OE2 UNL     1      -5.482  -2.444  -2.527  0.00  0.00    -0.250 OA
ATOM     19  CD  UNL     1      -4.722  -2.660  -1.593  0.00  0.00    +0.314 C 
BRANCH  19  20
ATOM     20  OE1 UNL     1      -4.125  -3.865  -1.392  0.00  0.00    -0.480 OA
ATOM     21  HE1 UNL     1      -3.550  -3.986  -0.663  0.00  0.00    +0.295 HD
ENDBRANCH  19  20
ENDBRANCH  17  19
ENDBRANCH  16  17
ENDBRANCH  11  16
ENDBRANCH   8  11
ENDBRANCH   2   9
BRANCH   1  23
ATOM     22  O   UNL     1       4.673   4.332  -0.683  0.00  0.00    -0.265 OA
ATOM     23  N   UNL     1       2.835   3.024  -0.017  0.00  0.00    -0.247 N 
ATOM     24  C   UNL     1       3.473   4.070  -0.706  0.00  0.00    +0.307 C 
BRANCH  23  25
ATOM     25  C   UNL     1       3.641   2.157   0.804  0.00  0.00    +0.125 C 
BRANCH  25  30
ATOM     26  O   UNL     1       2.259  -2.458   2.726  0.00  0.00    -0.270 OA
ATOM     27  N   UNL     1       2.696  -3.932   1.005  0.00  0.00    -0.244 N 
ATOM     28  N   UNL     1       3.574  -3.234  -1.064  0.00  0.00    -0.377 NA
ATOM     29  N   UNL     1       3.108  -5.499  -0.679  0.00  0.00    -0.321 N 
ATOM     30  C   UNL     1       3.618   0.744   0.329  0.00  0.00    -0.006 C 
ATOM     31  C   UNL     1       3.156  -0.267   1.171  0.00  0.00    +0.004 C 
ATOM     32  C   UNL     1       3.139  -1.589   0.715  0.00  0.00    +0.079 C 
ATOM     33  C   UNL     1       4.057   0.435  -0.957  0.00  0.00    -0.021 C 
ATOM     34  C   UNL     1       3.578  -1.915  -0.575  0.00  0.00    +0.121 C 
ATOM     35  C   UNL     1       4.037  -0.887  -1.406  0.00  0.00    +0.085 C 
ATOM     36  C   UNL     1       2.656  -2.676   1.588  0.00  0.00    +0.254 C 
ATOM     37  C   UNL     1       3.146  -4.188  -0.286  0.00  0.00    +0.237 C 
ATOM     38  H   UNL     1       2.385  -4.697   1.541  0.00  0.00    +0.159 HD
ATOM     39  H   UNL     1       2.777  -6.190  -0.061  0.00  0.00    +0.146 HD
ATOM     40  H   UNL     1       3.412  -5.751  -1.581  0.00  0.00    +0.146 HD
ENDBRANCH  25  30
ENDBRANCH  23  25
ENDBRANCH   1  23
TORSDOF 11
