REMARK  Name = 135565816
REMARK  7 active torsions:
REMARK  status: ('A' for Active; 'I' for Inactive)
REMARK    1  A    between atoms: C_3  and  C_17
REMARK    2  A    between atoms: C_4  and  O_13
REMARK    3  A    between atoms: C_8  and  O_15
REMARK    4  A    between atoms: C_17  and  O_18
REMARK    5  A    between atoms: C_17  and  C_22
REMARK    6  A    between atoms: O_18  and  C_20
REMARK    7  A    between atoms: C_22  and  C_23
REMARK                            x       y       z     vdW  Elec       q    Type
REMARK                         _______ _______ _______ _____ _____    ______ ____
ROOT
ATOM      1  O   UNL     1      -2.309   1.595   2.604  0.00  0.00    -0.286 OA
ATOM      2  O   UNL     1      -3.992  -0.560  -1.986  0.00  0.00    -0.286 OA
ATOM      3  C   UNL     1       0.623   0.306  -0.166  0.00  0.00    +0.054 C 
ATOM      4  C   UNL     1      -0.301   0.747   0.782  0.00  0.00    +0.136 C 
ATOM      5  C   UNL     1      -1.671   0.625   0.529  0.00  0.00    +0.078 C 
ATOM      6  C   UNL     1      -2.112   0.062  -0.671  0.00  0.00    +0.079 C 
ATOM      7  C   UNL     1       0.183  -0.255  -1.364  0.00  0.00    +0.039 C 
ATOM      8  C   UNL     1      -1.182  -0.379  -1.620  0.00  0.00    +0.137 C 
ATOM      9  C   UNL     1      -2.643   1.095   1.537  0.00  0.00    +0.199 C 
ATOM     10  C   UNL     1      -3.556  -0.073  -0.950  0.00  0.00    +0.199 C 
ATOM     11  C   UNL     1      -4.079   0.945   1.226  0.00  0.00    +0.045 C 
ATOM     12  C   UNL     1      -4.500   0.407   0.080  0.00  0.00    +0.045 C 
ENDROOT
BRANCH   4  13
ATOM     13  O   UNL     1       0.176   1.290   1.940  0.00  0.00    -0.506 OA
ATOM     14  H   UNL     1       1.100   1.357   2.080  0.00  0.00    +0.292 HD
ENDBRANCH   4  13
BRANCH   8  15
ATOM     15  O   UNL     1      -1.549  -0.936  -2.808  0.00  0.00    -0.505 OA
ATOM     16  H   UNL     1      -2.457  -1.037  -3.018  0.00  0.00    +0.292 HD
ENDBRANCH   8  15
BRANCH   3  17
ATOM     17  C   UNL     1       2.110   0.426   0.084  0.00  0.00    +0.198 C 
BRANCH  17  18
ATOM     18  O   UNL     1       2.659   1.324  -0.882  0.00  0.00    -0.447 OA
BRANCH  18  20
ATOM     19  O   UNL     1       4.236   2.029   0.651  0.00  0.00    -0.250 OA
ATOM     20  C   UNL     1       3.724   2.065  -0.459  0.00  0.00    +0.318 C 
ATOM     21  C   UNL     1       4.191   2.955  -1.571  0.00  0.00    +0.121 C 
ENDBRANCH  18  20
ENDBRANCH  17  18
BRANCH  17  22
ATOM     22  C   UNL     1       2.848  -0.919  -0.001  0.00  0.00    +0.074 C 
BRANCH  22  23
ATOM     23  C   UNL     1       2.356  -1.914   1.013  0.00  0.00    -0.030 C 
ATOM     24  C   UNL     1       1.810  -3.124   0.790  0.00  0.00    -0.048 C 
ATOM     25  C   UNL     1       1.336  -4.074   1.854  0.00  0.00    +0.026 C 
ATOM     26  C   UNL     1       1.642  -3.636  -0.616  0.00  0.00    +0.026 C 
ENDBRANCH  22  23
ENDBRANCH  17  22
ENDBRANCH   3  17
TORSDOF 7
