REMARK  Name = 135554417
REMARK  3 active torsions:
REMARK  status: ('A' for Active; 'I' for Inactive)
REMARK    1  A    between atoms: S_1  and  N_5
REMARK    2  A    between atoms: S_1  and  C_15
REMARK    3  A    between atoms: C_18  and  N_22
REMARK                            x       y       z     vdW  Elec       q    Type
REMARK                         _______ _______ _______ _____ _____    ______ ____
ROOT
ATOM      1  S   UNL     1       0.787   2.314  -0.487  0.00  0.00    +0.076 S 
ATOM      2  O   UNL     1       1.183   1.985  -1.843  0.00  0.00    -0.150 OA
ATOM      3  O   UNL     1       0.631   3.698  -0.083  0.00  0.00    -0.150 OA
ENDROOT
BRANCH   1   5
ATOM      4  O   UNL     1       4.735  -1.808   2.133  0.00  0.00    -0.274 OA
ATOM      5  N   UNL     1       1.819   1.521   0.616  0.00  0.00    -0.177 N 
ATOM      6  N   UNL     1       3.293  -0.168   1.370  0.00  0.00    -0.246 N 
ATOM      7  N   UNL     1       2.448  -0.218  -0.836  0.00  0.00    -0.380 NA
ATOM      8  C   UNL     1       2.532   0.333   0.334  0.00  0.00    +0.259 C 
ATOM      9  C   UNL     1       3.175  -1.374  -1.026  0.00  0.00    +0.099 C 
ATOM     10  C   UNL     1       4.043  -1.319   1.246  0.00  0.00    +0.236 C 
ATOM     11  C   UNL     1       3.948  -1.950  -0.090  0.00  0.00    +0.140 C 
ATOM     12  C   UNL     1       3.050  -1.977  -2.395  0.00  0.00    +0.062 C 
ATOM     13  H   UNL     1       1.926   1.918   1.510  0.00  0.00    +0.178 HD
ATOM     14  H   UNL     1       3.301   0.314   2.228  0.00  0.00    +0.159 HD
ENDBRANCH   1   5
BRANCH   1  15
ATOM     15  C   UNL     1      -0.748   1.502  -0.154  0.00  0.00    +0.125 C 
ATOM     16  C   UNL     1      -1.095   0.351  -0.862  0.00  0.00    +0.021 C 
ATOM     17  C   UNL     1      -1.611   2.012   0.815  0.00  0.00    +0.021 C 
ATOM     18  C   UNL     1      -3.170   0.220   0.370  0.00  0.00    +0.050 C 
ATOM     19  C   UNL     1      -2.306  -0.290  -0.600  0.00  0.00    +0.016 C 
ATOM     20  C   UNL     1      -2.822   1.371   1.077  0.00  0.00    +0.016 C 
BRANCH  18  22
ATOM     21  O   UNL     1      -4.375  -2.256  -0.848  0.00  0.00    -0.275 OA
ATOM     22  N   UNL     1      -4.381  -0.421   0.633  0.00  0.00    -0.284 N 
ATOM     23  C   UNL     1      -4.895  -1.577   0.031  0.00  0.00    +0.227 C 
ATOM     24  C   UNL     1      -6.242  -1.950   0.599  0.00  0.00    +0.095 C 
ATOM     25  H   UNL     1      -4.944  -0.011   1.328  0.00  0.00    +0.155 HD
ENDBRANCH  18  22
ENDBRANCH   1  15
TORSDOF 3
