REMARK  Name = 135564930
REMARK  11 active torsions:
REMARK  status: ('A' for Active; 'I' for Inactive)
REMARK    1  A    between atoms: C_1  and  C_23
REMARK    2  A    between atoms: C_3  and  C_13
REMARK    3  A    between atoms: C_5  and  O_37
REMARK    4  A    between atoms: C_15  and  C_19
REMARK    5  A    between atoms: C_19  and  C_20
REMARK    6  A    between atoms: C_23  and  C_24
REMARK    7  A    between atoms: C_24  and  N_26
REMARK    8  A    between atoms: N_25  and  C_33
REMARK    9  A    between atoms: C_33  and  C_34
REMARK   10  A    between atoms: C_34  and  O_35
REMARK   11  A    between atoms: O_37  and  C_38
REMARK                            x       y       z     vdW  Elec       q    Type
REMARK                         _______ _______ _______ _____ _____    ______ ____
ROOT
ATOM      1  C   UNL     1      -1.153  -1.761   0.637  0.00  0.00    +0.033 C 
ATOM      2  C   UNL     1      -0.180  -0.764   0.558  0.00  0.00    +0.010 C 
ATOM      3  C   UNL     1       1.090  -1.067   0.067  0.00  0.00    +0.078 C 
ATOM      4  C   UNL     1      -0.856  -3.059   0.224  0.00  0.00    +0.006 C 
ATOM      5  C   UNL     1       1.387  -2.366  -0.346  0.00  0.00    +0.142 C 
ATOM      6  C   UNL     1       0.414  -3.362  -0.268  0.00  0.00    +0.037 C 
ENDROOT
BRANCH   3  13
ATOM      7  O   UNL     1       2.333   3.170  -1.745  0.00  0.00    -0.272 OA
ATOM      8  N   UNL     1       4.913   2.869  -0.167  0.00  0.00    -0.217 N 
ATOM      9  N   UNL     1       1.782   1.107  -0.832  0.00  0.00    -0.258 N 
ATOM     10  N   UNL     1       3.231  -0.115   0.657  0.00  0.00    -0.388 NA
ATOM     11  N   UNL     1       5.870   2.362   0.642  0.00  0.00    -0.183 NA
ATOM     12  C   UNL     1       4.094   0.971   0.492  0.00  0.00    +0.154 C 
ATOM     13  C   UNL     1       2.112   0.010  -0.010  0.00  0.00    +0.188 C 
ATOM     14  C   UNL     1       3.822   2.061  -0.287  0.00  0.00    +0.220 C 
ATOM     15  C   UNL     1       5.357   1.191   1.044  0.00  0.00    +0.104 C 
ATOM     16  C   UNL     1       2.613   2.214  -1.030  0.00  0.00    +0.254 C 
ATOM     17  C   UNL     1       5.129   4.149  -0.799  0.00  0.00    +0.135 C 
ATOM     18  H   UNL     1       0.914   1.092  -1.296  0.00  0.00    +0.157 HD
BRANCH  15  19
ATOM     19  C   UNL     1       6.123   0.328   1.957  0.00  0.00    +0.050 C 
BRANCH  19  20
ATOM     20  C   UNL     1       7.254  -0.444   1.247  0.00  0.00    +0.006 C 
ATOM     21  C   UNL     1       6.735  -1.385   0.171  0.00  0.00    +0.000 C 
ENDBRANCH  19  20
ENDBRANCH  15  19
ENDBRANCH   3  13
BRANCH   1  23
ATOM     22  O   UNL     1      -3.150  -2.315   1.744  0.00  0.00    -0.294 OA
ATOM     23  C   UNL     1      -2.512  -1.438   1.165  0.00  0.00    +0.152 C 
BRANCH  23  24
ATOM     24  C   UNL     1      -3.050  -0.033   0.962  0.00  0.00    -0.007 C 
BRANCH  24  26
ATOM     25  N   UNL     1      -7.038   0.687  -0.304  0.00  0.00    +0.386 N 
ATOM     26  N   UNL     1      -4.507  -0.091   0.858  0.00  0.00    +0.389 N 
ATOM     27  C   UNL     1      -6.629   1.165   1.023  0.00  0.00    -0.101 C 
ATOM     28  C   UNL     1      -6.444  -0.627  -0.579  0.00  0.00    -0.101 C 
ATOM     29  C   UNL     1      -5.102   1.223   1.135  0.00  0.00    -0.100 C 
ATOM     30  C   UNL     1      -4.917  -0.569  -0.468  0.00  0.00    -0.100 C 
ATOM     31  H   UNL     1      -6.697   1.347  -1.003  0.00  0.00    -0.080 HD
ATOM     32  H   UNL     1      -4.847  -0.751   1.557  0.00  0.00    -0.079 HD
BRANCH  25  33
ATOM     33  C   UNL     1      -8.495   0.631  -0.409  0.00  0.00    -0.045 C 
BRANCH  33  34
ATOM     34  C   UNL     1      -9.063   2.004  -0.730  0.00  0.00    +0.115 C 
BRANCH  34  35
ATOM     35  O   UNL     1     -10.476   1.900  -0.840  0.00  0.00    -0.384 OA
ATOM     36  H   UNL     1     -10.850   2.771  -1.044  0.00  0.00    +0.210 HD
ENDBRANCH  34  35
ENDBRANCH  33  34
ENDBRANCH  25  33
ENDBRANCH  24  26
ENDBRANCH  23  24
ENDBRANCH   1  23
BRANCH   5  37
ATOM     37  O   UNL     1       2.622  -2.681  -0.829  0.00  0.00    -0.475 OA
BRANCH  37  38
ATOM     38  C   UNL     1       2.686  -3.185  -2.162  0.00  0.00    +0.206 C 
ATOM     39  C   UNL     1       4.007  -2.778  -2.780  0.00  0.00    +0.051 C 
ENDBRANCH  37  38
ENDBRANCH   5  37
TORSDOF 11
