REMARK  Name = 135532687
REMARK  5 active torsions:
REMARK  status: ('A' for Active; 'I' for Inactive)
REMARK    1  A    between atoms: C_5  and  C_18
REMARK    2  A    between atoms: C_11  and  N_15
REMARK    3  A    between atoms: C_18  and  O_19
REMARK    4  A    between atoms: C_18  and  C_21
REMARK    5  A    between atoms: C_21  and  O_22
REMARK                            x       y       z     vdW  Elec       q    Type
REMARK                         _______ _______ _______ _____ _____    ______ ____
ROOT
ATOM      1 CL   UNL     1      -2.880  -2.688   0.032  0.00  0.00    -0.079 Cl
ATOM      2  O   UNL     1      -2.546   2.371   0.177  0.00  0.00    -0.284 OA
ATOM      3  N   UNL     1       0.380   2.200  -0.122  0.00  0.00    -0.309 N 
ATOM      4  N   UNL     1       0.130  -2.371  -0.259  0.00  0.00    -0.298 NA
ATOM      5  C   UNL     1       1.527   0.306  -0.303  0.00  0.00    +0.024 C 
ATOM      6  C   UNL     1       0.149  -0.014  -0.177  0.00  0.00    +0.034 C 
ATOM      7  C   UNL     1      -0.532   1.180  -0.066  0.00  0.00    +0.090 C 
ATOM      8  C   UNL     1       1.639   1.679  -0.266  0.00  0.00    +0.060 C 
ATOM      9  C   UNL     1      -0.549  -1.280  -0.152  0.00  0.00    +0.085 C 
ATOM     10  C   UNL     1      -1.957   1.298   0.080  0.00  0.00    +0.223 C 
ATOM     11  C   UNL     1      -2.715  -0.007   0.110  0.00  0.00    +0.094 C 
ATOM     12  C   UNL     1      -2.037  -1.170   0.001  0.00  0.00    +0.091 C 
ATOM     13  H   UNL     1       0.164   3.160  -0.066  0.00  0.00    +0.152 HD
ATOM     14  H   UNL     1       1.109  -2.335  -0.356  0.00  0.00    +0.187 HD
ENDROOT
BRANCH  11  15
ATOM     15  N   UNL     1      -4.069   0.117   0.250  0.00  0.00    -0.354 N 
ATOM     16  H   UNL     1      -4.477   1.010   0.323  0.00  0.00    +0.142 HD
ATOM     17  H   UNL     1      -4.637  -0.687   0.278  0.00  0.00    +0.142 HD
ENDBRANCH  11  15
BRANCH   5  18
ATOM     18  C   UNL     1       2.655  -0.636  -0.450  0.00  0.00    +0.163 C 
BRANCH  18  19
ATOM     19  O   UNL     1       3.680  -0.056  -1.276  0.00  0.00    -0.377 OA
ATOM     20  H   UNL     1       3.298   0.210  -2.126  0.00  0.00    +0.211 HD
ENDBRANCH  18  19
BRANCH  18  21
ATOM     21  C   UNL     1       3.307  -1.043   0.887  0.00  0.00    +0.171 C 
BRANCH  21  22
ATOM     22  O   UNL     1       3.819   0.113   1.534  0.00  0.00    -0.379 OA
ATOM     23  H   UNL     1       4.228  -0.141   2.376  0.00  0.00    +0.211 HD
ENDBRANCH  21  22
ENDBRANCH  18  21
ENDBRANCH   5  18
TORSDOF 5
