135503550
  -OEChem-03292013293D

 30 32  0     1  0  0  0  0  0999 V2000
   -3.3560   -2.0848   -0.4032 F   0  0  0  0  0  0  0  0  0  0  0  0
   -2.0430    0.5039   -0.9673 O   0  0  0  0  0  0  0  0  0  0  0  0
   -1.2074   -2.2675    1.1538 O   0  0  0  0  0  0  0  0  0  0  0  0
   -3.8301    2.5803   -0.3630 O   0  0  0  0  0  0  0  0  0  0  0  0
    4.5971    1.3646    0.4149 O   0  0  0  0  0  0  0  0  0  0  0  0
    0.2438    0.2770   -0.1516 N   0  0  0  0  0  0  0  0  0  0  0  0
    1.6769    1.9128    0.3738 N   0  0  0  0  0  0  0  0  0  0  0  0
    1.7852   -1.5524   -0.5421 N   0  0  0  0  0  0  0  0  0  0  0  0
    4.0510   -0.8192   -0.2039 N   0  0  0  0  0  0  0  0  0  0  0  0
   -1.0730   -0.4123   -0.4178 C   0  0  1  0  0  0  0  0  0  0  0  0
   -1.7119   -0.9855    0.8402 C   0  0  1  0  0  0  0  0  0  0  0  0
   -3.1674   -1.0294    0.4414 C   0  0  1  0  0  0  0  0  0  0  0  0
   -3.3309    0.2442   -0.3675 C   0  0  1  0  0  0  0  0  0  0  0  0
   -3.7138    1.4479    0.4809 C   0  0  0  0  0  0  0  0  0  0  0  0
    1.4901   -0.2719   -0.2194 C   0  0  0  0  0  0  0  0  0  0  0  0
    0.4083    1.5925    0.2086 C   0  0  0  0  0  0  0  0  0  0  0  0
    2.3461    0.7547    0.1079 C   0  0  0  0  0  0  0  0  0  0  0  0
    3.7658    0.5111    0.1323 C   0  0  0  0  0  0  0  0  0  0  0  0
    3.0691   -1.7660   -0.5180 C   0  0  0  0  0  0  0  0  0  0  0  0
   -0.8565   -1.1784   -1.1721 H   0  0  0  0  0  0  0  0  0  0  0  0
   -1.5717   -0.3248    1.7037 H   0  0  0  0  0  0  0  0  0  0  0  0
   -3.8637   -1.1456    1.2754 H   0  0  0  0  0  0  0  0  0  0  0  0
   -4.0459    0.1139   -1.1869 H   0  0  0  0  0  0  0  0  0  0  0  0
   -2.9481    1.6714    1.2305 H   0  0  0  0  0  0  0  0  0  0  0  0
   -4.6725    1.2834    0.9823 H   0  0  0  0  0  0  0  0  0  0  0  0
   -0.2552   -2.1744    1.3264 H   0  0  0  0  0  0  0  0  0  0  0  0
   -0.4279    2.2658    0.3385 H   0  0  0  0  0  0  0  0  0  0  0  0
   -4.0773    3.3335    0.2001 H   0  0  0  0  0  0  0  0  0  0  0  0
    3.4923   -2.7545   -0.7545 H   0  0  0  0  0  0  0  0  0  0  0  0
    5.0246   -1.1093   -0.2192 H   0  0  0  0  0  0  0  0  0  0  0  0
  1 12  1  0  0  0  0
  2 10  1  0  0  0  0
  2 13  1  0  0  0  0
  3 11  1  0  0  0  0
  3 26  1  0  0  0  0
  4 14  1  0  0  0  0
  4 28  1  0  0  0  0
  5 18  2  0  0  0  0
  6 10  1  0  0  0  0
  6 15  1  0  0  0  0
  6 16  1  0  0  0  0
  7 16  2  0  0  0  0
  7 17  1  0  0  0  0
  8 15  1  0  0  0  0
  8 19  2  0  0  0  0
  9 18  1  0  0  0  0
  9 19  1  0  0  0  0
  9 30  1  0  0  0  0
 10 11  1  0  0  0  0
 10 20  1  0  0  0  0
 11 12  1  0  0  0  0
 11 21  1  0  0  0  0
 12 13  1  0  0  0  0
 12 22  1  0  0  0  0
 13 14  1  0  0  0  0
 13 23  1  0  0  0  0
 14 24  1  0  0  0  0
 14 25  1  0  0  0  0
 15 17  2  0  0  0  0
 16 27  1  0  0  0  0
 17 18  1  0  0  0  0
 19 29  1  0  0  0  0
M  END
> <PUBCHEM_COMPOUND_CID>
135503550

> <PUBCHEM_CONFORMER_RMSD>
0.6

> <PUBCHEM_CONFORMER_DIVERSEORDER>
1
15
13
5
7
8
12
4
10
14
6
2
16
11
9
3

> <PUBCHEM_MMFF94_PARTIAL_CHARGES>
24
1 -0.34
10 0.54
11 0.28
12 0.34
13 0.28
14 0.28
15 -0.03
16 0.04
17 0.14
18 0.72
19 0.45
2 -0.56
26 0.4
27 0.15
28 0.4
29 0.06
3 -0.68
30 0.37
4 -0.68
5 -0.57
6 0.05
7 -0.57
8 -0.58
9 -0.49

> <PUBCHEM_EFFECTIVE_ROTOR_COUNT>
3

> <PUBCHEM_PHARMACOPHORE_FEATURES>
11
1 2 acceptor
1 3 acceptor
1 3 donor
1 4 acceptor
1 4 donor
1 5 acceptor
1 9 donor
3 6 7 16 cation
5 2 10 11 12 13 rings
5 6 7 15 16 17 rings
6 8 9 15 17 18 19 rings

> <PUBCHEM_HEAVY_ATOM_COUNT>
19

> <PUBCHEM_ATOM_DEF_STEREO_COUNT>
4

> <PUBCHEM_ATOM_UDEF_STEREO_COUNT>
0

> <PUBCHEM_BOND_DEF_STEREO_COUNT>
0

> <PUBCHEM_BOND_UDEF_STEREO_COUNT>
0

> <PUBCHEM_ISOTOPIC_ATOM_COUNT>
0

> <PUBCHEM_COMPONENT_COUNT>
1

> <PUBCHEM_CACTVS_TAUTO_COUNT>
-1

> <PUBCHEM_CONFORMER_ID>
08139EBE00000001

> <PUBCHEM_MMFF94_ENERGY>
39.8538

> <PUBCHEM_FEATURE_SELFOVERLAP>
55.967

> <PUBCHEM_SHAPE_FINGERPRINT>
10366900 7 18194123142575937307
10608611 8 18411135865732148113
1100329 8 16463612335864092945
11471102 20 18342453729742370156
11578080 2 16700583849639226865
116883 192 17984146959378845316
12500047 106 18410853265531813857
13296908 3 18413390929895012790
13544592 145 18194128421354618358
13675066 3 18261122833076540401
15196674 1 18412263934955982982
15219456 202 18410857667941909494
15375358 24 18411417310933965250
15442244 35 18270122284004622504
16945 1 18120668069454310747
18186145 218 18187363169063218262
19049666 15 18409452483475853115
200 152 17917142918466781087
20201158 50 18409731793778743802
20279233 1 18335986445250069698
20645477 56 18408605855607553049
20645477 70 17845936234569497022
21421861 104 17752479863732915634
21501502 16 18335989769422751757
23402539 116 18187632648153995269
23559900 14 18268426846355752766
25 1 18263924337153943527
296302 2 18412547621761716824
335352 9 18195247719891289950
4214541 1 18412263921928760221
495365 180 17845918650809817536
5104073 3 18411698781573543922
69090 78 18342455937687993087
81228 2 17911257022132813432
8809292 202 18335706018086941874
9709674 26 18410579525775814230

> <PUBCHEM_SHAPE_MULTIPOLES>
340.34
8.1
2.31
0.82
1.61
0.05
0.05
1.48
-0.05
-0.95
0.16
-0.28
-0.16
0.75

> <PUBCHEM_SHAPE_SELFOVERLAP>
742.847

> <PUBCHEM_SHAPE_VOLUME>
185.9

> <PUBCHEM_COORDINATE_TYPE>
2
5
10

$$$$
