REMARK  Name = 135565528
REMARK  3 active torsions:
REMARK  status: ('A' for Active; 'I' for Inactive)
REMARK    1  A    between atoms: C_3  and  C_12
REMARK    2  A    between atoms: C_4  and  O_21
REMARK    3  A    between atoms: C_13  and  O_19
REMARK                            x       y       z     vdW  Elec       q    Type
REMARK                         _______ _______ _______ _____ _____    ______ ____
ROOT
ATOM      1  O   UNL     1       0.800  -2.375  -0.838  0.00  0.00    -0.286 OA
ATOM      2  O   UNL     1       3.576   1.914   0.652  0.00  0.00    -0.284 OA
ATOM      3  C   UNL     1       0.723  -0.136  -0.019  0.00  0.00    +0.082 C 
ATOM      4  C   UNL     1       1.450   0.931   0.351  0.00  0.00    +0.176 C 
ATOM      5  C   UNL     1       1.415  -1.372  -0.487  0.00  0.00    +0.199 C 
ATOM      6  C   UNL     1       3.616  -0.310  -0.156  0.00  0.00    +0.023 C 
ATOM      7  C   UNL     1       2.937   0.923   0.309  0.00  0.00    +0.225 C 
ATOM      8  C   UNL     1       2.890  -1.370  -0.523  0.00  0.00    +0.041 C 
ATOM      9  C   UNL     1       5.113  -0.302  -0.190  0.00  0.00    +0.035 C 
ENDROOT
BRANCH   3  12
ATOM     10  O   UNL     1      -0.800  -2.375   0.838  0.00  0.00    -0.286 OA
ATOM     11  O   UNL     1      -3.576   1.914  -0.652  0.00  0.00    -0.284 OA
ATOM     12  C   UNL     1      -0.723  -0.136   0.019  0.00  0.00    +0.082 C 
ATOM     13  C   UNL     1      -1.450   0.931  -0.351  0.00  0.00    +0.176 C 
ATOM     14  C   UNL     1      -1.415  -1.372   0.487  0.00  0.00    +0.199 C 
ATOM     15  C   UNL     1      -3.616  -0.310   0.156  0.00  0.00    +0.023 C 
ATOM     16  C   UNL     1      -2.936   0.923  -0.309  0.00  0.00    +0.225 C 
ATOM     17  C   UNL     1      -2.890  -1.370   0.523  0.00  0.00    +0.041 C 
ATOM     18  C   UNL     1      -5.113  -0.302   0.190  0.00  0.00    +0.035 C 
BRANCH  13  19
ATOM     19  O   UNL     1      -0.849   2.098  -0.791  0.00  0.00    -0.503 OA
ATOM     20  H   UNL     1       0.085   2.155  -0.836  0.00  0.00    +0.292 HD
ENDBRANCH  13  19
ENDBRANCH   3  12
BRANCH   4  21
ATOM     21  O   UNL     1       0.849   2.098   0.791  0.00  0.00    -0.503 OA
ATOM     22  H   UNL     1      -0.085   2.155   0.836  0.00  0.00    +0.292 HD
ENDBRANCH   4  21
TORSDOF 3
