REMARK  Name = 135502669
REMARK  5 active torsions:
REMARK  status: ('A' for Active; 'I' for Inactive)
REMARK    1  A    between atoms: N_2  and  C1*_22
REMARK    2  A    between atoms: C_7  and  C_15
REMARK    3  A    between atoms: C3*_24  and  O3*_26
REMARK    4  A    between atoms: C4*_25  and  C5*_28
REMARK    5  A    between atoms: C5*_28  and  O5*_29
REMARK                            x       y       z     vdW  Elec       q    Type
REMARK                         _______ _______ _______ _____ _____    ______ ____
ROOT
ATOM      1  O   UNL     1      -1.627  -4.339  -0.244  0.00  0.00    -0.267 OA
ATOM      2  N   UNL     1       0.099  -0.177   0.088  0.00  0.00    -0.212 N 
ATOM      3  N   UNL     1       0.577  -2.356  -0.067  0.00  0.00    -0.378 NA
ATOM      4  N   UNL     1      -2.321  -0.249   0.050  0.00  0.00    -0.355 NA
ATOM      5  N   UNL     1      -3.080  -2.515  -0.129  0.00  0.00    -0.242 N 
ATOM      6  N   UNL     1      -4.618  -0.735  -0.018  0.00  0.00    -0.321 N 
ATOM      7  C   UNL     1       1.077  -1.139   0.030  0.00  0.00    +0.191 C 
ATOM      8  C   UNL     1      -1.099  -0.826   0.024  0.00  0.00    +0.228 C 
ATOM      9  C   UNL     1      -0.772  -2.157  -0.071  0.00  0.00    +0.230 C 
ATOM     10  C   UNL     1      -1.823  -3.133  -0.158  0.00  0.00    +0.286 C 
ATOM     11  C   UNL     1      -3.303  -1.121  -0.029  0.00  0.00    +0.240 C 
ATOM     12  H   UNL     1      -3.873  -3.097  -0.183  0.00  0.00    +0.159 HD
ATOM     13  H   UNL     1      -4.851   0.219   0.049  0.00  0.00    +0.146 HD
ATOM     14  H   UNL     1      -5.330  -1.413  -0.079  0.00  0.00    +0.146 HD
ENDROOT
BRANCH   7  15
ATOM     15  C   UNL     1       2.488  -0.826   0.073  0.00  0.00    +0.044 C 
ATOM     16  C   UNL     1       3.185  -0.585  -1.111  0.00  0.00    +0.004 C 
ATOM     17  C   UNL     1       3.152  -0.764   1.298  0.00  0.00    +0.004 C 
ATOM     18  C   UNL     1       4.546  -0.282  -1.070  0.00  0.00    +0.000 C 
ATOM     19  C   UNL     1       4.513  -0.462   1.339  0.00  0.00    +0.000 C 
ATOM     20  C   UNL     1       5.210  -0.221   0.155  0.00  0.00    +0.000 C 
ENDBRANCH   7  15
BRANCH   2  22
ATOM     21  O4* UNL     1      -0.761   1.946   0.943  0.00  0.00    -0.335 OA
ATOM     22  C1* UNL     1       0.299   1.314   0.201  0.00  0.00    +0.202 C 
ATOM     23  C2* UNL     1       0.353   2.014  -1.152  0.00  0.00    +0.083 C 
ATOM     24  C3* UNL     1      -0.082   3.417  -0.798  0.00  0.00    +0.144 C 
ATOM     25  C4* UNL     1      -1.112   3.189   0.301  0.00  0.00    +0.173 C 
BRANCH  24  26
ATOM     26  O3* UNL     1       1.039   4.117  -0.265  0.00  0.00    -0.382 OA
ATOM     27  H3* UNL     1       1.694   4.262  -0.966  0.00  0.00    +0.210 HD
ENDBRANCH  24  26
BRANCH  25  28
ATOM     28  C5* UNL     1      -2.530   3.054  -0.239  0.00  0.00    +0.169 C 
BRANCH  28  29
ATOM     29  O5* UNL     1      -3.410   2.835   0.848  0.00  0.00    -0.379 OA
ATOM     30  H5* UNL     1      -4.318   2.747   0.517  0.00  0.00    +0.211 HD
ENDBRANCH  28  29
ENDBRANCH  25  28
ENDBRANCH   2  22
TORSDOF 5
