REMARK  Name = 135567459
REMARK  6 active torsions:
REMARK  status: ('A' for Active; 'I' for Inactive)
REMARK    1  A    between atoms: N_1  and  C_18
REMARK    2  A    between atoms: C_4  and  C_6
REMARK    3  A    between atoms: C_8  and  C_14
REMARK    4  A    between atoms: N_13  and  O_16
REMARK    5  A    between atoms: C_18  and  S_19
REMARK    6  A    between atoms: S_19  and  C_20
REMARK                            x       y       z     vdW  Elec       q    Type
REMARK                         _______ _______ _______ _____ _____    ______ ____
ROOT
ATOM      1  N   UNL     1      -2.311   1.712  -0.707  0.00  0.00    -0.152 NA
ATOM      2  N   UNL     1      -0.989   2.760   0.628  0.00  0.00    -0.150 NA
ATOM      3  N   UNL     1      -2.250   2.685   0.217  0.00  0.00    -0.062 NA
ATOM      4  C   UNL     1      -0.268   1.819  -0.053  0.00  0.00    +0.097 C 
ATOM      5  C   UNL     1      -1.095   1.138  -0.912  0.00  0.00    +0.144 C 
ENDROOT
BRANCH   4   6
ATOM      6  C   UNL     1       1.139   1.588   0.113  0.00  0.00    +0.017 C 
ATOM      7  C   UNL     1       1.666   0.312  -0.091  0.00  0.00    +0.006 C 
ATOM      8  C   UNL     1       3.033   0.088   0.070  0.00  0.00    +0.055 C 
ATOM      9  C   UNL     1       1.980   2.639   0.478  0.00  0.00    +0.001 C 
ATOM     10  C   UNL     1       3.874   1.139   0.435  0.00  0.00    +0.005 C 
ATOM     11  C   UNL     1       3.348   2.414   0.639  0.00  0.00    +0.000 C 
BRANCH   8  14
ATOM     12  O   UNL     1       2.882  -2.256   0.038  0.00  0.00    -0.268 OA
ATOM     13  N   UNL     1       4.910  -1.323  -0.535  0.00  0.00    -0.193 N 
ATOM     14  C   UNL     1       3.582  -1.242  -0.142  0.00  0.00    +0.268 C 
ATOM     15  H   UNL     1       5.457  -0.516  -0.676  0.00  0.00    +0.183 HD
BRANCH  13  16
ATOM     16  O   UNL     1       5.437  -2.609  -0.724  0.00  0.00    -0.295 OA
ATOM     17  H   UNL     1       6.366  -2.541  -0.996  0.00  0.00    +0.241 HD
ENDBRANCH  13  16
ENDBRANCH   8  14
ENDBRANCH   4   6
BRANCH   1  18
ATOM     18  C   UNL     1      -3.559   1.385  -1.349  0.00  0.00    +0.157 C 
BRANCH  18  19
ATOM     19  S   UNL     1      -4.636   0.414  -0.240  0.00  0.00    -0.094 S 
BRANCH  19  20
ATOM     20  C   UNL     1      -3.599  -1.004   0.095  0.00  0.00    +0.027 C 
ATOM     21  C   UNL     1      -3.170  -1.817  -0.954  0.00  0.00    +0.006 C 
ATOM     22  C   UNL     1      -3.220  -1.297   1.405  0.00  0.00    +0.006 C 
ATOM     23  C   UNL     1      -2.361  -2.924  -0.693  0.00  0.00    +0.001 C 
ATOM     24  C   UNL     1      -2.412  -2.404   1.666  0.00  0.00    +0.001 C 
ATOM     25  C   UNL     1      -1.982  -3.217   0.617  0.00  0.00    +0.000 C 
ENDBRANCH  19  20
ENDBRANCH  18  19
ENDBRANCH   1  18
TORSDOF 6
