REMARK  Name = 135565596
REMARK  9 active torsions:
REMARK  status: ('A' for Active; 'I' for Inactive)
REMARK    1  A    between atoms: N_4  and  C_10
REMARK    2  A    between atoms: N_4  and  C_19
REMARK    3  A    between atoms: C_11  and  O_16
REMARK    4  A    between atoms: C_13  and  O_29
REMARK    5  A    between atoms: C_19  and  C_23
REMARK    6  A    between atoms: O_29  and  C_30
REMARK    7  A    between atoms: C_30  and  C_31
REMARK    8  A    between atoms: C_31  and  C_32
REMARK    9  A    between atoms: C_32  and  N_34
REMARK                            x       y       z     vdW  Elec       q    Type
REMARK                         _______ _______ _______ _____ _____    ______ ____
ROOT
ATOM      1  N   UNL     1      -2.655  -2.547   0.619  0.00  0.00    -0.213 N 
ATOM      2  N   UNL     1      -2.249  -4.703   0.110  0.00  0.00    -0.299 N 
ATOM      3  N   UNL     1      -1.142  -0.702   0.424  0.00  0.00    -0.368 NA
ATOM      4  C   UNL     1      -1.712  -3.445   0.144  0.00  0.00    +0.114 C 
ATOM      5  C   UNL     1      -3.913  -3.230   0.927  0.00  0.00    +0.090 C 
ATOM      6  C   UNL     1      -3.626  -4.719   0.573  0.00  0.00    +0.080 C 
ATOM      7  C   UNL     1      -0.480  -3.033  -0.202  0.00  0.00    +0.061 C 
ATOM      8  C   UNL     1      -0.254  -1.547  -0.022  0.00  0.00    +0.174 C 
ATOM      9  C   UNL     1      -2.389  -1.202   0.760  0.00  0.00    +0.274 C 
ATOM     10  C   UNL     1       1.113  -1.060  -0.401  0.00  0.00    +0.202 C 
ATOM     11  C   UNL     1       0.586  -3.865  -0.706  0.00  0.00    +0.008 C 
ATOM     12  C   UNL     1       2.036  -1.922  -0.862  0.00  0.00    +0.175 C 
ATOM     13  C   UNL     1       1.776  -3.337  -1.018  0.00  0.00    +0.040 C 
ATOM     14  H   UNL     1      -1.761  -5.502  -0.193  0.00  0.00    +0.153 HD
ENDROOT
BRANCH  10  15
ATOM     15  O   UNL     1       1.393   0.284  -0.265  0.00  0.00    -0.466 OA
ATOM     16  C   UNL     1       1.075   0.985  -1.452  0.00  0.00    +0.253 C 
ENDBRANCH  10  15
BRANCH   9  17
ATOM     17  N   UNL     1      -3.246  -0.330   1.200  0.00  0.00    -0.132 NA
BRANCH  17  19
ATOM     18  O   UNL     1      -1.898   1.406   1.958  0.00  0.00    -0.268 OA
ATOM     19  C   UNL     1      -2.832   0.978   1.284  0.00  0.00    +0.272 C 
BRANCH  19  23
ATOM     20  N   UNL     1      -5.424   2.380  -1.072  0.00  0.00    -0.181 NA
ATOM     21  N   UNL     1      -4.032   4.187  -0.295  0.00  0.00    -0.203 NA
ATOM     22  N   UNL     1      -5.795   4.582  -1.792  0.00  0.00    -0.303 N 
ATOM     23  C   UNL     1      -3.623   1.940   0.463  0.00  0.00    +0.078 C 
ATOM     24  C   UNL     1      -4.687   1.538  -0.318  0.00  0.00    +0.113 C 
ATOM     25  C   UNL     1      -3.338   3.289   0.435  0.00  0.00    +0.170 C 
ATOM     26  C   UNL     1      -5.046   3.672  -1.014  0.00  0.00    +0.084 C 
ATOM     27  H   UNL     1      -6.548   4.261  -2.338  0.00  0.00    +0.154 HD
ATOM     28  H   UNL     1      -5.563   5.539  -1.788  0.00  0.00    +0.154 HD
ENDBRANCH  19  23
ENDBRANCH  17  19
ENDBRANCH   9  17
BRANCH  12  29
ATOM     29  O   UNL     1       3.307  -1.537  -1.226  0.00  0.00    -0.472 OA
BRANCH  29  30
ATOM     30  C   UNL     1       4.191  -1.609  -0.124  0.00  0.00    +0.203 C 
BRANCH  30  31
ATOM     31  C   UNL     1       5.583  -1.195  -0.581  0.00  0.00    +0.025 C 
BRANCH  31  32
ATOM     32  C   UNL     1       5.590   0.224  -1.139  0.00  0.00    -0.073 C 
BRANCH  32  34
ATOM     33  O   UNL     1       5.400   3.642   1.289  0.00  0.00    -0.358 OA
ATOM     34  N   UNL     1       5.170   1.175  -0.112  0.00  0.00    +0.390 N 
ATOM     35  C   UNL     1       4.749   2.446  -0.719  0.00  0.00    -0.045 C 
ATOM     36  C   UNL     1       6.252   1.413   0.854  0.00  0.00    -0.045 C 
ATOM     37  C   UNL     1       4.327   3.426   0.372  0.00  0.00    +0.119 C 
ATOM     38  C   UNL     1       5.794   2.417   1.907  0.00  0.00    +0.119 C 
ATOM     39  H   UNL     1       4.375   0.771   0.382  0.00  0.00    -0.079 HD
ENDBRANCH  32  34
ENDBRANCH  31  32
ENDBRANCH  30  31
ENDBRANCH  29  30
ENDBRANCH  12  29
TORSDOF 9
