REMARK  Name = 135508837
REMARK  4 active torsions:
REMARK  status: ('A' for Active; 'I' for Inactive)
REMARK    1  A    between atoms: N_2  and  C1*_19
REMARK    2  A    between atoms: C3*_21  and  O3*_23
REMARK    3  A    between atoms: C4*_22  and  C5*_25
REMARK    4  A    between atoms: C5*_25  and  O5*_26
REMARK                            x       y       z     vdW  Elec       q    Type
REMARK                         _______ _______ _______ _____ _____    ______ ____
ROOT
ATOM      1  O   UNL     1       4.485   0.327  -0.190  0.00  0.00    -0.267 OA
ATOM      2  N   UNL     1       0.061   1.164   0.186  0.00  0.00    -0.200 N 
ATOM      3  N   UNL     1       2.100   2.076   0.087  0.00  0.00    -0.364 NA
ATOM      4  N   UNL     1       0.617  -1.185   0.011  0.00  0.00    -0.355 NA
ATOM      5  N   UNL     1       0.181   3.512   0.312  0.00  0.00    -0.320 N 
ATOM      6  N   UNL     1       2.989  -1.465  -0.181  0.00  0.00    -0.242 N 
ATOM      7  N   UNL     1       1.553  -3.332  -0.182  0.00  0.00    -0.321 N 
ATOM      8  C   UNL     1       0.937   0.126   0.062  0.00  0.00    +0.229 C 
ATOM      9  C   UNL     1       0.808   2.316   0.197  0.00  0.00    +0.243 C 
ATOM     10  C   UNL     1       2.176   0.718   0.004  0.00  0.00    +0.232 C 
ATOM     11  C   UNL     1       3.343  -0.110  -0.130  0.00  0.00    +0.286 C 
ATOM     12  C   UNL     1       1.667  -1.967  -0.112  0.00  0.00    +0.240 C 
ATOM     13  H   UNL     1      -0.799   3.548   0.387  0.00  0.00    +0.146 HD
ATOM     14  H   UNL     1       0.707   4.344   0.321  0.00  0.00    +0.146 HD
ATOM     15  H   UNL     1       3.718  -2.121  -0.273  0.00  0.00    +0.159 HD
ATOM     16  H   UNL     1       0.664  -3.754  -0.140  0.00  0.00    +0.146 HD
ATOM     17  H   UNL     1       2.359  -3.889  -0.274  0.00  0.00    +0.146 HD
ENDROOT
BRANCH   2  19
ATOM     18  O4* UNL     1      -1.845  -0.155   0.964  0.00  0.00    -0.335 OA
ATOM     19  C1* UNL     1      -1.439   1.052   0.292  0.00  0.00    +0.203 C 
ATOM     20  C2* UNL     1      -2.135   1.042  -1.065  0.00  0.00    +0.083 C 
ATOM     21  C3* UNL     1      -3.421   0.313  -0.753  0.00  0.00    +0.144 C 
ATOM     22  C4* UNL     1      -2.990  -0.712   0.288  0.00  0.00    +0.173 C 
BRANCH  21  23
ATOM     23  O3* UNL     1      -4.335   1.237  -0.166  0.00  0.00    -0.382 OA
ATOM     24  H3* UNL     1      -4.608   1.889  -0.831  0.00  0.00    +0.210 HD
ENDBRANCH  21  23
BRANCH  22  25
ATOM     25  C5* UNL     1      -2.571  -2.039  -0.330  0.00  0.00    +0.169 C 
BRANCH  25  26
ATOM     26  O5* UNL     1      -2.179  -2.919   0.708  0.00  0.00    -0.379 OA
ATOM     27  H5* UNL     1      -1.910  -3.769   0.327  0.00  0.00    +0.211 HD
ENDBRANCH  25  26
ENDBRANCH  22  25
ENDBRANCH   2  19
TORSDOF 4
