REMARK  Name = 135517487
REMARK  8 active torsions:
REMARK  status: ('A' for Active; 'I' for Inactive)
REMARK    1  A    between atoms: N_1  and  C_16
REMARK    2  A    between atoms: C_3  and  C_25
REMARK    3  A    between atoms: C_5  and  N_8
REMARK    4  A    between atoms: C_16  and  C_17
REMARK    5  A    between atoms: C_22  and  O_23
REMARK    6  A    between atoms: C_25  and  C_26
REMARK    7  A    between atoms: C_29  and  O_32
REMARK    8  A    between atoms: C_31  and  O_34
REMARK                            x       y       z     vdW  Elec       q    Type
REMARK                         _______ _______ _______ _____ _____    ______ ____
ROOT
ATOM      1  N   UNL     1       0.501  -2.244   1.155  0.00  0.00    -0.258 N 
ATOM      2  N   UNL     1      -0.676  -2.642  -0.685  0.00  0.00    -0.376 NA
ATOM      3  C   UNL     1      -1.518  -2.463   0.383  0.00  0.00    +0.114 C 
ATOM      4  C   UNL     1      -0.811  -2.215   1.536  0.00  0.00    +0.150 C 
ATOM      5  C   UNL     1       0.532  -2.503  -0.186  0.00  0.00    +0.274 C 
ENDROOT
BRANCH   5   8
ATOM      6  O   UNL     1       0.473  -0.025  -0.686  0.00  0.00    -0.266 OA
ATOM      7  O   UNL     1       4.434   0.529  -2.994  0.00  0.00    -0.252 OA
ATOM      8  N   UNL     1       1.770  -2.591  -0.853  0.00  0.00    -0.183 NA
ATOM      9  N   UNL     1       2.370   0.699  -1.889  0.00  0.00    -0.206 N 
ATOM     10  N   UNL     1       3.381  -1.298  -2.021  0.00  0.00    -0.249 N 
ATOM     11  C   UNL     1       2.226  -1.495  -1.340  0.00  0.00    +0.194 C 
ATOM     12  C   UNL     1       1.539  -0.171  -1.244  0.00  0.00    +0.288 C 
ATOM     13  C   UNL     1       3.499   0.039  -2.372  0.00  0.00    +0.315 C 
ATOM     14  C   UNL     1       2.114   2.115  -2.051  0.00  0.00    +0.125 C 
ATOM     15  H   UNL     1       4.038  -1.998  -2.234  0.00  0.00    +0.158 HD
ENDBRANCH   5   8
BRANCH   1  16
ATOM     16  C   UNL     1       1.631  -2.036   2.031  0.00  0.00    +0.122 C 
BRANCH  16  17
ATOM     17  C   UNL     1       2.233  -0.658   1.913  0.00  0.00    -0.002 C 
ATOM     18  C   UNL     1       1.441   0.470   2.128  0.00  0.00    +0.001 C 
ATOM     19  C   UNL     1       3.582  -0.511   1.589  0.00  0.00    +0.001 C 
ATOM     20  C   UNL     1       1.998   1.744   2.019  0.00  0.00    +0.037 C 
ATOM     21  C   UNL     1       4.138   0.763   1.480  0.00  0.00    +0.037 C 
ATOM     22  C   UNL     1       3.346   1.891   1.695  0.00  0.00    +0.139 C 
BRANCH  22  23
ATOM     23  O   UNL     1       3.889   3.134   1.587  0.00  0.00    -0.471 OA
ATOM     24  C   UNL     1       5.274   3.211   1.252  0.00  0.00    +0.252 C 
ENDBRANCH  22  23
ENDBRANCH  16  17
ENDBRANCH   1  16
BRANCH   3  25
ATOM     25  C   UNL     1      -2.976  -2.547   0.210  0.00  0.00    +0.083 C 
BRANCH  25  26
ATOM     26  C   UNL     1      -3.689  -1.201   0.158  0.00  0.00    -0.012 C 
ATOM     27  C   UNL     1      -3.293  -0.238  -0.770  0.00  0.00    +0.036 C 
ATOM     28  C   UNL     1      -4.736  -0.932   1.039  0.00  0.00    -0.001 C 
ATOM     29  C   UNL     1      -3.945   0.994  -0.817  0.00  0.00    +0.172 C 
ATOM     30  C   UNL     1      -5.388   0.300   0.992  0.00  0.00    +0.040 C 
ATOM     31  C   UNL     1      -4.992   1.263   0.064  0.00  0.00    +0.172 C 
BRANCH  29  32
ATOM     32  O   UNL     1      -3.549   1.927  -1.728  0.00  0.00    -0.468 OA
ATOM     33  C   UNL     1      -2.471   1.572  -2.592  0.00  0.00    +0.253 C 
ENDBRANCH  29  32
BRANCH  31  34
ATOM     34  O   UNL     1      -5.635   2.464   0.029  0.00  0.00    -0.468 OA
ATOM     35  C   UNL     1      -6.695   2.659   0.964  0.00  0.00    +0.253 C 
ENDBRANCH  31  34
ENDBRANCH  25  26
ENDBRANCH   3  25
TORSDOF 8
