REMARK  Name = 135565976
REMARK  9 active torsions:
REMARK  status: ('A' for Active; 'I' for Inactive)
REMARK    1  A    between atoms: N_3  and  C_7
REMARK    2  A    between atoms: C_4  and  C_22
REMARK    3  A    between atoms: C_12  and  C_16
REMARK    4  A    between atoms: C_17  and  O_20
REMARK    5  A    between atoms: C_22  and  N_23
REMARK    6  A    between atoms: N_24  and  C_31
REMARK    7  A    between atoms: C_31  and  C_33
REMARK    8  A    between atoms: C_33  and  O_34
REMARK    9  A    between atoms: O_34  and  C_35
REMARK                            x       y       z     vdW  Elec       q    Type
REMARK                         _______ _______ _______ _____ _____    ______ ____
ROOT
ATOM      1  O   UNL     1      -0.423  -4.110   0.269  0.00  0.00    -0.438 OA
ATOM      2  O   UNL     1       1.709  -4.584  -0.342  0.00  0.00    -0.226 OA
ATOM      3  N   UNL     1       1.081  -2.434   0.422  0.00  0.00    -0.221 N 
ATOM      4  C   UNL     1      -1.178  -2.922   0.548  0.00  0.00    +0.170 C 
ATOM      5  C   UNL     1      -0.138  -1.909   0.977  0.00  0.00    +0.143 C 
ATOM      6  C   UNL     1       0.895  -3.767   0.066  0.00  0.00    +0.409 C 
ENDROOT
BRANCH   3   7
ATOM      7  C   UNL     1       2.291  -1.685   0.371  0.00  0.00    +0.057 C 
ATOM      8  C   UNL     1       2.301  -0.349   0.770  0.00  0.00    +0.015 C 
ATOM      9  C   UNL     1       3.466  -2.288  -0.077  0.00  0.00    +0.015 C 
ATOM     10  C   UNL     1       3.486   0.385   0.722  0.00  0.00    +0.004 C 
ATOM     11  C   UNL     1       4.652  -1.554  -0.126  0.00  0.00    +0.004 C 
ATOM     12  C   UNL     1       4.662  -0.218   0.274  0.00  0.00    +0.031 C 
BRANCH  12  16
ATOM     13  O   UNL     1       8.030   2.632  -0.048  0.00  0.00    -0.226 OA
ATOM     14  N   UNL     1       5.803   1.931  -0.021  0.00  0.00    -0.235 N 
ATOM     15  N   UNL     1       7.064  -0.029   0.383  0.00  0.00    -0.285 NA
ATOM     16  C   UNL     1       5.898   0.546   0.223  0.00  0.00    +0.128 C 
ATOM     17  C   UNL     1       6.830   2.865  -0.139  0.00  0.00    +0.407 C 
ATOM     18  H   UNL     1       4.890   2.286  -0.120  0.00  0.00    +0.160 HD
ATOM     19  H   UNL     1       7.887   0.510   0.344  0.00  0.00    +0.188 HD
BRANCH  17  20
ATOM     20  O   UNL     1       6.296   4.102  -0.371  0.00  0.00    -0.430 OA
ATOM     21  C   UNL     1       7.237   5.172  -0.511  0.00  0.00    +0.257 C 
ENDBRANCH  17  20
ENDBRANCH  12  16
ENDBRANCH   3   7
BRANCH   4  22
ATOM     22  C   UNL     1      -1.932  -2.511  -0.709  0.00  0.00    -0.031 C 
BRANCH  22  23
ATOM     23  N   UNL     1      -2.617  -1.234  -0.520  0.00  0.00    +0.387 N 
ATOM     24  N   UNL     1      -4.861   0.559  -0.850  0.00  0.00    +0.391 N 
ATOM     25  C   UNL     1      -3.857  -1.415   0.245  0.00  0.00    -0.101 C 
ATOM     26  C   UNL     1      -2.902  -0.600  -1.813  0.00  0.00    -0.101 C 
ATOM     27  C   UNL     1      -3.622   0.739  -1.617  0.00  0.00    -0.100 C 
ATOM     28  C   UNL     1      -4.576  -0.076   0.443  0.00  0.00    -0.100 C 
ATOM     29  H   UNL     1      -1.998  -0.621   0.010  0.00  0.00    -0.080 HD
ATOM     30  H   UNL     1      -5.481  -0.054  -1.379  0.00  0.00    -0.079 HD
BRANCH  24  31
ATOM     31  C   UNL     1      -5.544   1.837  -0.660  0.00  0.00    +0.035 C 
BRANCH  31  33
ATOM     32  O   UNL     1      -7.652   0.620  -0.715  0.00  0.00    -0.252 OA
ATOM     33  C   UNL     1      -6.992   1.575  -0.328  0.00  0.00    +0.296 C 
BRANCH  33  34
ATOM     34  O   UNL     1      -7.443   2.582   0.479  0.00  0.00    -0.450 OA
BRANCH  34  35
ATOM     35  C   UNL     1      -8.812   2.480   0.886  0.00  0.00    +0.208 C 
ATOM     36  C   UNL     1      -9.153   3.662   1.768  0.00  0.00    +0.051 C 
ENDBRANCH  34  35
ENDBRANCH  33  34
ENDBRANCH  31  33
ENDBRANCH  24  31
ENDBRANCH  22  23
ENDBRANCH   4  22
TORSDOF 9
