REMARK  Name = 135563646
REMARK  6 active torsions:
REMARK  status: ('A' for Active; 'I' for Inactive)
REMARK    1  A    between atoms: N_2  and  C_17
REMARK    2  A    between atoms: C_18  and  O_21
REMARK    3  A    between atoms: C_19  and  O_23
REMARK    4  A    between atoms: C_20  and  C_25
REMARK    5  A    between atoms: C_25  and  O_26
REMARK    6  A    between atoms: O_26  and  P_27
REMARK                            x       y       z     vdW  Elec       q    Type
REMARK                         _______ _______ _______ _____ _____    ______ ____
ROOT
ATOM      1  O   UNL     1      -4.371   2.768  -0.329  0.00  0.00    -0.273 OA
ATOM      2  N   UNL     1      -0.798  -0.074   0.169  0.00  0.00    -0.247 N 
ATOM      3  N   UNL     1      -1.403   1.965  -0.217  0.00  0.00    -0.241 NA
ATOM      4  N   UNL     1      -3.006  -1.129   0.406  0.00  0.00    -0.361 NA
ATOM      5  N   UNL     1      -4.716   0.526   0.110  0.00  0.00    -0.246 N 
ATOM      6  N   UNL     1      -5.272  -1.711   0.552  0.00  0.00    -0.321 N 
ATOM      7  C   UNL     1      -2.179  -0.073   0.188  0.00  0.00    +0.189 C 
ATOM      8  C   UNL     1      -0.344   1.160  -0.077  0.00  0.00    +0.173 C 
ATOM      9  C   UNL     1      -2.553   1.231  -0.059  0.00  0.00    +0.204 C 
ATOM     10  C   UNL     1      -3.907   1.650  -0.120  0.00  0.00    +0.252 C 
ATOM     11  C   UNL     1      -1.322   3.384  -0.495  0.00  0.00    +0.092 C 
ATOM     12  C   UNL     1      -4.273  -0.791   0.359  0.00  0.00    +0.239 C 
ATOM     13  H   UNL     1      -5.689   0.671   0.096  0.00  0.00    +0.159 HD
ATOM     14  H   UNL     1      -5.045  -2.652   0.731  0.00  0.00    +0.146 HD
ATOM     15  H   UNL     1      -6.215  -1.430   0.511  0.00  0.00    +0.146 HD
ENDROOT
BRANCH   2  17
ATOM     16  O   UNL     1       1.324  -0.919   1.030  0.00  0.00    -0.333 OA
ATOM     17  C   UNL     1       0.082  -1.281   0.392  0.00  0.00    +0.225 C 
ATOM     18  C   UNL     1       0.472  -1.981  -0.906  0.00  0.00    +0.187 C 
ATOM     19  C   UNL     1       1.764  -2.671  -0.515  0.00  0.00    +0.171 C 
ATOM     20  C   UNL     1       2.408  -1.645   0.408  0.00  0.00    +0.176 C 
BRANCH  18  21
ATOM     21  O   UNL     1      -0.517  -2.880  -1.367  0.00  0.00    -0.378 OA
ATOM     22  H   UNL     1      -1.318  -2.387  -1.602  0.00  0.00    +0.211 HD
ENDBRANCH  18  21
BRANCH  19  23
ATOM     23  O   UNL     1       1.490  -3.843   0.251  0.00  0.00    -0.379 OA
ATOM     24  H   UNL     1       1.078  -4.512  -0.317  0.00  0.00    +0.211 HD
ENDBRANCH  19  23
BRANCH  20  25
ATOM     25  C   UNL     1       3.288  -0.646  -0.330  0.00  0.00    +0.186 C 
BRANCH  25  26
ATOM     26  O   UNL     1       3.828   0.265   0.611  0.00  0.00    -0.268 OA
BRANCH  26  27
ATOM     27  P   UNL     1       4.829   1.466   0.073  0.00  0.00    +0.533 P 
ATOM     28  O   UNL     1       5.198   2.224   1.345  0.00  0.00    -0.115 OA
ATOM     29  O   UNL     1       3.976   2.272  -0.903  0.00  0.00    -0.222 OA
ATOM     30  O   UNL     1       6.000   0.732  -0.573  0.00  0.00    -0.115 OA
ENDBRANCH  26  27
ENDBRANCH  25  26
ENDBRANCH  20  25
ENDBRANCH   2  17
TORSDOF 6
