REMARK  Name = 135562677
REMARK  5 active torsions:
REMARK  status: ('A' for Active; 'I' for Inactive)
REMARK    1  A    between atoms: C_2  and  C_21
REMARK    2  A    between atoms: C_3  and  O_17
REMARK    3  A    between atoms: C_4  and  O_19
REMARK    4  A    between atoms: C_5  and  N_7
REMARK    5  A    between atoms: C_21  and  O_23
REMARK                            x       y       z     vdW  Elec       q    Type
REMARK                         _______ _______ _______ _____ _____    ______ ____
ROOT
ATOM      1  O   UNL     1       1.776   0.313   1.111  0.00  0.00    -0.333 OA
ATOM      2  C   UNL     1       3.068   0.032   0.529  0.00  0.00    +0.173 C 
ATOM      3  C   UNL     1       2.889  -1.211  -0.334  0.00  0.00    +0.171 C 
ATOM      4  C   UNL     1       1.438  -1.097  -0.759  0.00  0.00    +0.187 C 
ATOM      5  C   UNL     1       0.783  -0.535   0.498  0.00  0.00    +0.225 C 
ENDROOT
BRANCH   5   7
ATOM      6  O   UNL     1      -4.766   1.535  -0.471  0.00  0.00    -0.268 OA
ATOM      7  N   UNL     1      -0.490   0.225   0.210  0.00  0.00    -0.247 N 
ATOM      8  N   UNL     1      -1.827   1.943  -0.307  0.00  0.00    -0.241 NA
ATOM      9  N   UNL     1      -2.128  -1.542   0.480  0.00  0.00    -0.232 NA
ATOM     10  N   UNL     1      -4.343  -0.692   0.088  0.00  0.00    -0.279 N 
ATOM     11  C   UNL     1      -1.762  -0.267   0.214  0.00  0.00    +0.154 C 
ATOM     12  C   UNL     1      -0.581   1.558  -0.109  0.00  0.00    +0.223 C 
ATOM     13  C   UNL     1      -2.558   0.810  -0.107  0.00  0.00    +0.162 C 
ATOM     14  C   UNL     1      -3.985   0.634  -0.190  0.00  0.00    +0.267 C 
ATOM     15  C   UNL     1      -3.418  -1.694   0.403  0.00  0.00    +0.220 C 
ATOM     16  H   UNL     1      -5.298  -0.932   0.060  0.00  0.00    +0.152 HD
ENDBRANCH   5   7
BRANCH   3  17
ATOM     17  O   UNL     1       3.074  -2.355   0.498  0.00  0.00    -0.379 OA
ATOM     18  H   UNL     1       4.006  -2.415   0.762  0.00  0.00    +0.211 HD
ENDBRANCH   3  17
BRANCH   4  19
ATOM     19  O   UNL     1       0.883  -2.331  -1.167  0.00  0.00    -0.378 OA
ATOM     20  H   UNL     1       1.336  -2.641  -1.967  0.00  0.00    +0.211 HD
ENDBRANCH   4  19
BRANCH   2  21
ATOM     21  C   UNL     1       3.508   1.253  -0.267  0.00  0.00    +0.140 C 
ATOM     22  C   UNL     1       3.716   2.465   0.627  0.00  0.00    +0.034 C 
BRANCH  21  23
ATOM     23  O   UNL     1       4.724   0.955  -0.946  0.00  0.00    -0.382 OA
ATOM     24  H   UNL     1       4.594   0.182  -1.517  0.00  0.00    +0.210 HD
ENDBRANCH  21  23
ENDBRANCH   2  21
TORSDOF 5
