REMARK  Name = 135581705
REMARK  5 active torsions:
REMARK  status: ('A' for Active; 'I' for Inactive)
REMARK    1  A    between atoms: C_1  and  C_6
REMARK    2  A    between atoms: C_1  and  C_13
REMARK    3  A    between atoms: C_6  and  C_7
REMARK    4  A    between atoms: C_13  and  N_15
REMARK    5  A    between atoms: C_16  and  C_19
REMARK                            x       y       z     vdW  Elec       q    Type
REMARK                         _______ _______ _______ _____ _____    ______ ____
ROOT
ATOM      1  C   UNL     1      -0.951   2.438   0.509  0.00  0.00    +0.029 C 
ENDROOT
BRANCH   1   2
ATOM      2  C   UNL     1      -1.813   1.620  -0.408  0.00  0.00    +0.066 C 
BRANCH   2   7
ATOM      3  O   UNL     1      -3.519  -0.072  -2.135  0.00  0.00    -0.267 OA
ATOM      4  N   UNL     1      -3.416  -1.490  -0.273  0.00  0.00    -0.242 N 
ATOM      5  N   UNL     1      -2.129  -0.263   1.087  0.00  0.00    -0.373 NA
ATOM      6  N   UNL     1      -2.911  -2.386   1.850  0.00  0.00    -0.321 N 
ATOM      7  C   UNL     1      -2.311   0.419  -0.093  0.00  0.00    +0.165 C 
ATOM      8  C   UNL     1      -3.160  -0.371  -1.014  0.00  0.00    +0.278 C 
ATOM      9  C   UNL     1      -2.793  -1.377   0.940  0.00  0.00    +0.238 C 
ATOM     10  H   UNL     1      -3.961  -2.256  -0.564  0.00  0.00    +0.159 HD
ATOM     11  H   UNL     1      -3.441  -3.186   1.631  0.00  0.00    +0.146 HD
ATOM     12  H   UNL     1      -2.467  -2.314   2.726  0.00  0.00    +0.146 HD
ENDBRANCH   2   7
ENDBRANCH   1   2
BRANCH   1  13
ATOM     13  C   UNL     1       0.394   2.791  -0.120  0.00  0.00    +0.090 C 
BRANCH  13  15
ATOM     14  O   UNL     1       2.281   1.459   1.585  0.00  0.00    -0.269 OA
ATOM     15  N   UNL     1       1.168   1.624  -0.444  0.00  0.00    -0.300 N 
ATOM     16  C   UNL     1       2.062   1.045   0.450  0.00  0.00    +0.259 C 
ATOM     17  H   UNL     1       1.061   1.218  -1.334  0.00  0.00    +0.150 HD
BRANCH  16  19
ATOM     18  N   UNL     1       3.720  -0.835   0.703  0.00  0.00    -0.308 N 
ATOM     19  C   UNL     1       2.805  -0.141  -0.046  0.00  0.00    +0.102 C 
ATOM     20  C   UNL     1       2.725  -0.746  -1.281  0.00  0.00    +0.021 C 
ATOM     21  C   UNL     1       4.225  -1.873  -0.036  0.00  0.00    +0.062 C 
ATOM     22  C   UNL     1       3.623  -1.842  -1.274  0.00  0.00    +0.017 C 
ATOM     23  H   UNL     1       3.976  -0.619   1.629  0.00  0.00    +0.152 HD
ENDBRANCH  16  19
ENDBRANCH  13  15
ENDBRANCH   1  13
TORSDOF 5
