135529435
  -OEChem-03292013293D

 23 23  0     0  0  0  0  0  0999 V2000
    5.1175    0.9989   -0.8023 Cl  0  0  0  0  0  0  0  0  0  0  0  0
    2.3548   -0.0325   -1.1904 S   0  0  0  0  0  0  0  0  0  0  0  0
   -2.0611    2.4258   -0.8823 O   0  5  0  0  0  0  0  0  0  0  0  0
   -2.1960    2.2239    1.2831 O   0  0  0  0  0  0  0  0  0  0  0  0
   -0.7849   -0.2938    0.0096 N   0  0  0  0  0  0  0  0  0  0  0  0
   -2.5708   -1.7885   -0.2257 N   0  0  0  0  0  0  0  0  0  0  0  0
    3.6550   -0.2813    1.0300 N   0  0  0  0  0  0  0  0  0  0  0  0
   -2.9597    0.5802   -0.0127 N   0  0  0  0  0  0  0  0  0  0  0  0
   -2.3735    1.7877    0.1352 N   0  3  0  0  0  0  0  0  0  0  0  0
    0.1792   -1.3684   -0.0476 C   0  0  0  0  0  0  0  0  0  0  0  0
    1.5753   -0.8331    0.1108 C   0  0  0  0  0  0  0  0  0  0  0  0
   -2.1607   -0.4648   -0.0753 C   0  0  0  0  0  0  0  0  0  0  0  0
    2.4169   -0.8687    1.2028 C   0  0  0  0  0  0  0  0  0  0  0  0
   -3.9256   -2.2780   -0.3416 C   0  0  0  0  0  0  0  0  0  0  0  0
    3.7335    0.1925   -0.1936 C   0  0  0  0  0  0  0  0  0  0  0  0
    0.1034   -1.9040   -1.0018 H   0  0  0  0  0  0  0  0  0  0  0  0
   -0.0090   -2.0867    0.7597 H   0  0  0  0  0  0  0  0  0  0  0  0
   -0.4000    0.6403    0.1159 H   0  0  0  0  0  0  0  0  0  0  0  0
    2.1766   -1.3142    2.1590 H   0  0  0  0  0  0  0  0  0  0  0  0
   -1.8673   -2.5184   -0.2678 H   0  0  0  0  0  0  0  0  0  0  0  0
   -4.5029   -2.0186    0.5505 H   0  0  0  0  0  0  0  0  0  0  0  0
   -3.9246   -3.3667   -0.4477 H   0  0  0  0  0  0  0  0  0  0  0  0
   -4.4139   -1.8459   -1.2199 H   0  0  0  0  0  0  0  0  0  0  0  0
  1 15  1  0  0  0  0
  2 11  1  0  0  0  0
  2 15  1  0  0  0  0
  3  9  1  0  0  0  0
  4  9  2  0  0  0  0
  5 10  1  0  0  0  0
  5 12  1  0  0  0  0
  5 18  1  0  0  0  0
  6 12  1  0  0  0  0
  6 14  1  0  0  0  0
  6 20  1  0  0  0  0
  7 13  1  0  0  0  0
  7 15  2  0  0  0  0
  8  9  1  0  0  0  0
  8 12  2  0  0  0  0
 10 11  1  0  0  0  0
 10 16  1  0  0  0  0
 10 17  1  0  0  0  0
 11 13  2  0  0  0  0
 13 19  1  0  0  0  0
 14 21  1  0  0  0  0
 14 22  1  0  0  0  0
 14 23  1  0  0  0  0
M  CHG  2   3  -1   9   1
M  END
> <PUBCHEM_COMPOUND_CID>
135529435

> <PUBCHEM_CONFORMER_RMSD>
0.6

> <PUBCHEM_CONFORMER_DIVERSEORDER>
1
23
143
45
122
135
133
68
96
148
64
3
129
149
103
44
152
159
32
162
65
52
73
118
84
137
166
21
37
24
93
58
119
165
50
100
62
79
20
27
86
157
66
33
116
12
147
163
108
29
38
99
134
19
141
146
13
107
89
22
140
112
72
92
74
46
48
8
76
161
31
101
49
110
51
83
94
15
85
131
61
128
57
67
121
5
56
4
69
127
28
87
40
136
54
25
104
113
126
114
71
154
6
105
78
39
90
91
18
80
150
82
151
139
138
144
109
75
97
88
10
7
111
156
34
17
16
106
26
155
53
77
102
14
98
60
160
145
142
153
164
125
41
158
63
130
2
59
124
43
70
30
55
123
117
115
11
81
95
36
9
35
120
132
42
47

> <PUBCHEM_MMFF94_PARTIAL_CHARGES>
18
1 -0.12
10 0.55
11 -0.14
12 0.55
13 0.08
14 0.37
15 0.5
18 0.4
19 0.15
2 -0.08
20 0.4
3 -0.52
4 -0.52
5 -0.82
6 -0.82
7 -0.57
8 -0.5
9 1.09

> <PUBCHEM_EFFECTIVE_ROTOR_COUNT>
5

> <PUBCHEM_PHARMACOPHORE_FEATURES>
7
1 3 acceptor
1 4 acceptor
1 5 donor
1 6 donor
1 7 acceptor
4 5 6 8 12 cation
5 2 7 11 13 15 rings

> <PUBCHEM_HEAVY_ATOM_COUNT>
15

> <PUBCHEM_ATOM_DEF_STEREO_COUNT>
0

> <PUBCHEM_ATOM_UDEF_STEREO_COUNT>
0

> <PUBCHEM_BOND_DEF_STEREO_COUNT>
1

> <PUBCHEM_BOND_UDEF_STEREO_COUNT>
0

> <PUBCHEM_ISOTOPIC_ATOM_COUNT>
0

> <PUBCHEM_COMPONENT_COUNT>
1

> <PUBCHEM_CACTVS_TAUTO_COUNT>
-1

> <PUBCHEM_CONFORMER_ID>
081403DB00000001

> <PUBCHEM_MMFF94_ENERGY>
30.1572

> <PUBCHEM_FEATURE_SELFOVERLAP>
35.651

> <PUBCHEM_SHAPE_FINGERPRINT>
10498660 4 18411135818661743748
13764800 53 18201163144046270153
13897977 58 18410299120398544825
14123260 362 18334865995662020044
15775835 57 18261397702414817576
1741750 31 18128817439301864841
17834072 32 18190461567092824452
18186145 218 15841548591938859878
200 152 17895468245474431327
201361 129 18113617833904937762
20300324 65 18411423950784638862
20510252 161 18413109480635501411
20645477 70 15358238443308137106
20671657 1 17976829691968233470
22485316 2 9367350323523447942
2297311 6 18200887277985955910
23048698 100 17385996295702467370
23402539 116 18339637957562466583
23557571 272 18130234834091042095
3268164 11 18272644675273894790
6049 1 17561079224294823634
7615 1 18041829636936839082
81228 2 18411711976077372195

> <PUBCHEM_SHAPE_MULTIPOLES>
277.77
8.73
2.25
1.07
4.82
1.1
0.12
0.17
-1.12
-3.25
0.03
0.63
0.16
-1.03

> <PUBCHEM_SHAPE_SELFOVERLAP>
537.546

> <PUBCHEM_SHAPE_VOLUME>
169.6

> <PUBCHEM_COORDINATE_TYPE>
2
5
10

$$$$
