13558996
  -OEChem-03292013303D

 44 47  0     1  0  0  0  0  0999 V2000
    2.8464   -0.2533    0.6612 O   0  0  0  0  0  0  0  0  0  0  0  0
    2.0043    1.6775   -0.3418 O   0  0  0  0  0  0  0  0  0  0  0  0
    4.7756   -1.0872   -2.2605 O   0  0  0  0  0  0  0  0  0  0  0  0
    5.6966   -0.4584    1.2064 O   0  0  0  0  0  0  0  0  0  0  0  0
    4.0839    1.5902   -2.2530 O   0  0  0  0  0  0  0  0  0  0  0  0
    2.1424   -2.4301    2.1617 O   0  0  0  0  0  0  0  0  0  0  0  0
   -2.3406   -0.0933   -1.0763 O   0  0  0  0  0  0  0  0  0  0  0  0
   -6.7131   -1.7790   -1.6329 O   0  0  0  0  0  0  0  0  0  0  0  0
   -3.2366    1.0015    1.4222 N   0  0  0  0  0  0  0  0  0  0  0  0
    5.1135   -0.2921   -1.1240 C   0  0  2  0  0  0  0  0  0  0  0  0
    5.0554   -1.1551    0.1390 C   0  0  2  0  0  0  0  0  0  0  0  0
    4.1694    0.9100   -1.0047 C   0  0  2  0  0  0  0  0  0  0  0  0
    3.6011   -1.4635    0.5352 C   0  0  1  0  0  0  0  0  0  0  0  0
    2.7689    0.4907   -0.5545 C   0  0  1  0  0  0  0  0  0  0  0  0
    3.5082   -2.1967    1.8695 C   0  0  0  0  0  0  0  0  0  0  0  0
    0.7154    1.5070    0.0829 C   0  0  0  0  0  0  0  0  0  0  0  0
   -0.1814    0.7920   -0.7024 C   0  0  0  0  0  0  0  0  0  0  0  0
    0.3112    2.0499    1.2977 C   0  0  0  0  0  0  0  0  0  0  0  0
   -1.4949    0.6211   -0.2620 C   0  0  0  0  0  0  0  0  0  0  0  0
   -1.9206    1.1599    0.9579 C   0  0  0  0  0  0  0  0  0  0  0  0
   -1.0039    1.8767    1.7341 C   0  0  0  0  0  0  0  0  0  0  0  0
   -3.6444   -0.2627   -0.6380 C   0  0  0  0  0  0  0  0  0  0  0  0
   -4.0491    0.3288    0.6663 C   0  0  0  0  0  0  0  0  0  0  0  0
   -4.5201   -0.9472   -1.3802 C   0  0  0  0  0  0  0  0  0  0  0  0
   -5.4519    0.1231    1.0952 C   0  0  0  0  0  0  0  0  0  0  0  0
   -5.9174   -1.1479   -0.9462 C   0  0  0  0  0  0  0  0  0  0  0  0
   -6.3184   -0.5619    0.3472 C   0  0  0  0  0  0  0  0  0  0  0  0
    6.1307    0.0814   -1.2920 H   0  0  0  0  0  0  0  0  0  0  0  0
    5.5978   -2.0947   -0.0143 H   0  0  0  0  0  0  0  0  0  0  0  0
    4.5852    1.6206   -0.2796 H   0  0  0  0  0  0  0  0  0  0  0  0
    3.1167   -2.0760   -0.2364 H   0  0  0  0  0  0  0  0  0  0  0  0
    2.2953   -0.1137   -1.3386 H   0  0  0  0  0  0  0  0  0  0  0  0
    3.9196   -1.6048    2.6932 H   0  0  0  0  0  0  0  0  0  0  0  0
    4.0282   -3.1583    1.8314 H   0  0  0  0  0  0  0  0  0  0  0  0
    5.4153   -1.8181   -2.3074 H   0  0  0  0  0  0  0  0  0  0  0  0
    5.1375    0.2963    1.4570 H   0  0  0  0  0  0  0  0  0  0  0  0
    3.4658    2.3324   -2.1390 H   0  0  0  0  0  0  0  0  0  0  0  0
    1.6936   -1.5674    2.1810 H   0  0  0  0  0  0  0  0  0  0  0  0
    0.1195    0.3792   -1.6612 H   0  0  0  0  0  0  0  0  0  0  0  0
    1.0124    2.6080    1.9118 H   0  0  0  0  0  0  0  0  0  0  0  0
   -1.3087    2.3052    2.6858 H   0  0  0  0  0  0  0  0  0  0  0  0
   -4.2308   -1.3805   -2.3319 H   0  0  0  0  0  0  0  0  0  0  0  0
   -5.7580    0.5496    2.0444 H   0  0  0  0  0  0  0  0  0  0  0  0
   -7.3429   -0.7064    0.6711 H   0  0  0  0  0  0  0  0  0  0  0  0
  1 13  1  0  0  0  0
  1 14  1  0  0  0  0
  2 14  1  0  0  0  0
  2 16  1  0  0  0  0
  3 10  1  0  0  0  0
  3 35  1  0  0  0  0
  4 11  1  0  0  0  0
  4 36  1  0  0  0  0
  5 12  1  0  0  0  0
  5 37  1  0  0  0  0
  6 15  1  0  0  0  0
  6 38  1  0  0  0  0
  7 19  1  0  0  0  0
  7 22  1  0  0  0  0
  8 26  2  0  0  0  0
  9 20  1  0  0  0  0
  9 23  2  0  0  0  0
 10 11  1  0  0  0  0
 10 12  1  0  0  0  0
 10 28  1  0  0  0  0
 11 13  1  0  0  0  0
 11 29  1  0  0  0  0
 12 14  1  0  0  0  0
 12 30  1  0  0  0  0
 13 15  1  0  0  0  0
 13 31  1  0  0  0  0
 14 32  1  0  0  0  0
 15 33  1  0  0  0  0
 15 34  1  0  0  0  0
 16 17  2  0  0  0  0
 16 18  1  0  0  0  0
 17 19  1  0  0  0  0
 17 39  1  0  0  0  0
 18 21  2  0  0  0  0
 18 40  1  0  0  0  0
 19 20  2  0  0  0  0
 20 21  1  0  0  0  0
 21 41  1  0  0  0  0
 22 23  1  0  0  0  0
 22 24  2  0  0  0  0
 23 25  1  0  0  0  0
 24 26  1  0  0  0  0
 24 42  1  0  0  0  0
 25 27  2  0  0  0  0
 25 43  1  0  0  0  0
 26 27  1  0  0  0  0
 27 44  1  0  0  0  0
M  END
> <PUBCHEM_COMPOUND_CID>
13558996

> <PUBCHEM_CONFORMER_RMSD>
0.8

> <PUBCHEM_CONFORMER_DIVERSEORDER>
1
43
46
57
13
24
47
21
58
31
19
26
39
49
55
45
42
56
28
27
44
22
32
52
54
4
50
51
48
34
17
60
37
11
9
18
41
23
3
14
53
2
6
61
20
40
25
30
38
33
12
59
10
7
8
15
36
5
16
35
29

> <PUBCHEM_MMFF94_PARTIAL_CHARGES>
37
1 -0.56
10 0.28
11 0.28
12 0.28
13 0.28
14 0.56
15 0.28
16 0.08
17 -0.15
18 -0.15
19 0.08
2 -0.36
20 0.18
21 -0.15
22 0.09
23 0.42
24 -0.14
25 -0.14
26 0.54
27 -0.14
3 -0.68
35 0.4
36 0.4
37 0.4
38 0.4
39 0.15
4 -0.68
40 0.15
41 0.15
42 0.15
43 0.15
44 0.15
5 -0.68
6 -0.68
7 -0.16
8 -0.57
9 -0.63

> <PUBCHEM_EFFECTIVE_ROTOR_COUNT>
4.2

> <PUBCHEM_PHARMACOPHORE_FEATURES>
17
1 1 acceptor
1 2 acceptor
1 3 acceptor
1 3 donor
1 4 acceptor
1 4 donor
1 5 acceptor
1 5 donor
1 6 acceptor
1 6 donor
1 7 acceptor
1 8 acceptor
1 9 acceptor
6 1 10 11 12 13 14 rings
6 16 17 18 19 20 21 rings
6 22 23 24 25 26 27 rings
6 7 9 19 20 22 23 rings

> <PUBCHEM_HEAVY_ATOM_COUNT>
27

> <PUBCHEM_ATOM_DEF_STEREO_COUNT>
5

> <PUBCHEM_ATOM_UDEF_STEREO_COUNT>
0

> <PUBCHEM_BOND_DEF_STEREO_COUNT>
0

> <PUBCHEM_BOND_UDEF_STEREO_COUNT>
0

> <PUBCHEM_ISOTOPIC_ATOM_COUNT>
0

> <PUBCHEM_COMPONENT_COUNT>
1

> <PUBCHEM_CACTVS_TAUTO_COUNT>
1

> <PUBCHEM_CONFORMER_ID>
00CEE4D400000001

> <PUBCHEM_MMFF94_ENERGY>
84.8325

> <PUBCHEM_FEATURE_SELFOVERLAP>
86.417

> <PUBCHEM_SHAPE_FINGERPRINT>
10319926 262 16415484852876019387
10622 236 18044927978978565194
11045977 3 14620794894714387821
11069576 57 18114738214431373058
11443803 9 18129104593307464436
11545043 162 16200157560348332771
11796584 16 18413105065762315239
12236239 1 18341901778899747233
12516196 113 17917992793161720409
12596602 18 17917708002591375728
12788726 201 18200042745961353265
13533116 47 18408604777127559360
13782708 43 18199175369548852815
13911987 19 17314821635656576452
14341114 176 14908181954116644914
15001296 14 18271239546763868487
15119646 104 18040996193989942554
15183329 4 17530679888603824537
15348495 7 14333123100766648295
15537594 2 18407759235627548419
17134984 74 18114177600892421603
17138139 8 18266169715738989259
17349148 13 18131077047535055125
17857418 61 18412260636389366747
1813 80 18342744013375771372
18222031 100 18060142045989313193
19315092 285 18191566577132496648
19319366 153 18187639228556401226
20028762 73 17346597517161762183
20567600 234 12679455418005452985
20567600 247 18187640345268620275
20645477 70 17313390006849777680
21285901 2 16226043366801377590
21315763 178 18410290285434442027
21792934 111 15554452929811005043
22061861 79 17312821576264904815
23366157 5 17770771614177936025
235170 7 16515402945573737535
23522609 53 18054542255161254785
23559900 14 17677055766912501953
23569914 152 16304248219224883255
2838139 119 11602813631797167223
3004659 81 18271813444615483196
312425 54 15841281393539066087
3383291 50 17988358286873010103
3411729 13 17273684567512736696
345986 75 18269543966874325809
351380 3 18343021086221460687
392239 28 13470687066544455559
397830 11 13398341434835399013
4098825 35 17603863361385021261
46194498 28 16081951350137140005
463206 1 18261674869286201099
5104073 3 16557912380992932195
5283173 99 15068618266793360807
559249 180 17989209240299961717
59682541 52 17531234059443633071
7970288 3 17989209239361595663
960060 61 17894346678872540165

> <PUBCHEM_SHAPE_MULTIPOLES>
503.71
15.76
2.09
1.95
9.36
0.3
-0.44
-9.29
1.64
0.55
-0.39
-2.68
-0.68
-2.37

> <PUBCHEM_SHAPE_SELFOVERLAP>
1102.436

> <PUBCHEM_SHAPE_VOLUME>
267.8

> <PUBCHEM_COORDINATE_TYPE>
2
5
10

$$$$
