REMARK  Name = 135554434
REMARK  3 active torsions:
REMARK  status: ('A' for Active; 'I' for Inactive)
REMARK    1  A    between atoms: N_5  and  C_15
REMARK    2  A    between atoms: C_9  and  O_25
REMARK    3  A    between atoms: C_22  and  O_27
REMARK                            x       y       z     vdW  Elec       q    Type
REMARK                         _______ _______ _______ _____ _____    ______ ____
ROOT
ATOM      1  O   UNL     1       4.231  -1.224  -0.921  0.00  0.00    -0.346 OA
ATOM      2  O   UNL     1       3.837   1.944  -0.091  0.00  0.00    -0.289 OA
ATOM      3  O   UNL     1      -0.828  -2.736   0.240  0.00  0.00    -0.291 OA
ATOM      4  O   UNL     1      -2.118   2.471  -0.088  0.00  0.00    -0.287 OA
ATOM      5  C   UNL     1       4.216  -0.374   0.238  0.00  0.00    +0.175 C 
ATOM      6  C   UNL     1       3.578  -1.754   0.243  0.00  0.00    +0.178 C 
ATOM      7  C   UNL     1       2.087  -1.907   0.132  0.00  0.00    +0.159 C 
ATOM      8  C   UNL     1       3.354   0.829   0.050  0.00  0.00    +0.200 C 
ATOM      9  C   UNL     1       1.326  -0.619   0.079  0.00  0.00    -0.000 C 
ATOM     10  C   UNL     1       1.906   0.589   0.046  0.00  0.00    +0.049 C 
ATOM     11  C   UNL     1       5.563  -0.231   0.884  0.00  0.00    +0.040 C 
ATOM     12  C   UNL     1      -0.115  -0.482   0.071  0.00  0.00    +0.109 C 
ATOM     13  C   UNL     1       0.784   1.517  -0.019  0.00  0.00    +0.089 C 
ATOM     14  C   UNL     1      -0.484   0.800   0.002  0.00  0.00    +0.044 C 
ATOM     15  C   UNL     1      -1.128  -1.554   0.142  0.00  0.00    +0.181 C 
ATOM     16  C   UNL     1      -1.866   1.276  -0.028  0.00  0.00    +0.197 C 
ATOM     17  C   UNL     1      -2.551  -1.131   0.099  0.00  0.00    +0.041 C 
ATOM     18  C   UNL     1      -2.905   0.224   0.018  0.00  0.00    +0.075 C 
ATOM     19  C   UNL     1      -3.553  -2.107   0.144  0.00  0.00    +0.003 C 
ATOM     20  C   UNL     1      -4.254   0.595  -0.019  0.00  0.00    +0.137 C 
ATOM     21  C   UNL     1      -4.897  -1.732   0.107  0.00  0.00    +0.003 C 
ATOM     22  C   UNL     1      -5.246  -0.385   0.026  0.00  0.00    +0.037 C 
ENDROOT
BRANCH  13  23
ATOM     23  N   UNL     1       0.901   2.820  -0.083  0.00  0.00    -0.130 NA
ATOM     24  N   UNL     1       1.004   3.961  -0.138  0.00  0.00    +0.004 NA
ENDBRANCH  13  23
BRANCH   7  25
ATOM     25  O   UNL     1       1.819  -2.684  -1.035  0.00  0.00    -0.378 OA
ATOM     26  H   UNL     1       2.317  -3.516  -0.991  0.00  0.00    +0.211 HD
ENDBRANCH   7  25
BRANCH  20  27
ATOM     27  O   UNL     1      -4.660   1.894  -0.099  0.00  0.00    -0.505 OA
ATOM     28  H   UNL     1      -4.025   2.582  -0.131  0.00  0.00    +0.292 HD
ENDBRANCH  20  27
TORSDOF 3
