REMARK  Name = 135525717
REMARK  1 active torsions:
REMARK  status: ('A' for Active; 'I' for Inactive)
REMARK    1  A    between atoms: C_8  and  C_13
REMARK                            x       y       z     vdW  Elec       q    Type
REMARK                         _______ _______ _______ _____ _____    ______ ____
ROOT
ATOM      1  O   UNL     1      -4.337  -0.406   0.247  0.00  0.00    -0.269 OA
ATOM      2  N   UNL     1      -2.607  -1.839   0.393  0.00  0.00    -0.300 N 
ATOM      3  N   UNL     1      -2.731   1.845  -0.026  0.00  0.00    -0.308 N 
ATOM      4  C   UNL     1       0.151  -0.340  -0.288  0.00  0.00    +0.082 C 
ATOM      5  C   UNL     1      -0.356  -1.720  -0.614  0.00  0.00    +0.033 C 
ATOM      6  C   UNL     1      -0.841   0.697  -0.211  0.00  0.00    +0.004 C 
ATOM      7  C   UNL     1      -1.226  -2.260   0.507  0.00  0.00    +0.091 C 
ATOM      8  C   UNL     1      -2.212   0.559   0.003  0.00  0.00    +0.099 C 
ATOM      9  C   UNL     1      -3.113  -0.565   0.218  0.00  0.00    +0.259 C 
ATOM     10  C   UNL     1      -0.569   2.094  -0.356  0.00  0.00    +0.013 C 
ATOM     11  C   UNL     1      -1.754   2.771  -0.235  0.00  0.00    +0.062 C 
ATOM     12  H   UNL     1      -3.277  -2.559   0.448  0.00  0.00    +0.150 HD
ATOM     13  H   UNL     1      -3.685   2.061   0.089  0.00  0.00    +0.152 HD
ENDROOT
BRANCH   4  18
ATOM     14  O   UNL     1       2.270  -2.398  -0.423  0.00  0.00    -0.267 OA
ATOM     15  N   UNL     1       2.072   1.058   0.184  0.00  0.00    -0.373 NA
ATOM     16  N   UNL     1       3.625  -0.550   0.067  0.00  0.00    -0.242 N 
ATOM     17  N   UNL     1       4.358   1.639   0.548  0.00  0.00    -0.321 N 
ATOM     18  C   UNL     1       1.468  -0.136  -0.102  0.00  0.00    +0.169 C 
ATOM     19  C   UNL     1       2.462  -1.222  -0.187  0.00  0.00    +0.278 C 
ATOM     20  C   UNL     1       3.341   0.772   0.276  0.00  0.00    +0.238 C 
ATOM     21  H   UNL     1       4.523  -0.952   0.095  0.00  0.00    +0.159 HD
ATOM     22  H   UNL     1       4.165   2.593   0.700  0.00  0.00    +0.146 HD
ATOM     23  H   UNL     1       5.286   1.312   0.593  0.00  0.00    +0.146 HD
ENDBRANCH   4  18
TORSDOF 1
