REMARK  Name = 135565297
REMARK  5 active torsions:
REMARK  status: ('A' for Active; 'I' for Inactive)
REMARK    1  A    between atoms: C_8  and  C_21
REMARK    2  A    between atoms: C_9  and  S_19
REMARK    3  A    between atoms: C_21  and  O_22
REMARK    4  A    between atoms: C_21  and  C_24
REMARK    5  A    between atoms: C_24  and  O_25
REMARK                            x       y       z     vdW  Elec       q    Type
REMARK                         _______ _______ _______ _____ _____    ______ ____
ROOT
ATOM      1  S   UNL     1       1.740   1.845   0.109  0.00  0.00    -0.053 S 
ATOM      2  O   UNL     1      -3.046  -2.517   0.273  0.00  0.00    -0.266 OA
ATOM      3  N   UNL     1      -0.725  -1.137   0.283  0.00  0.00    -0.382 NA
ATOM      4  N   UNL     1      -0.926   1.699  -0.071  0.00  0.00    -0.328 NA
ATOM      5  N   UNL     1      -4.274  -0.581  -0.049  0.00  0.00    -0.241 N 
ATOM      6  N   UNL     1      -3.244   1.529  -0.224  0.00  0.00    -0.307 NA
ATOM      7  N   UNL     1      -5.577   1.333  -0.374  0.00  0.00    -0.320 N 
ATOM      8  C   UNL     1       2.583   0.373   0.348  0.00  0.00    +0.047 A 
ATOM      9  C   UNL     1       1.733  -0.711   0.415  0.00  0.00    +0.062 A 
ATOM     10  C   UNL     1       0.369  -0.328   0.268  0.00  0.00    +0.175 A 
ATOM     11  C   UNL     1       0.240   1.042   0.094  0.00  0.00    +0.203 A 
ATOM     12  C   UNL     1      -1.888  -0.479   0.117  0.00  0.00    +0.269 C 
ATOM     13  C   UNL     1      -2.003   0.890  -0.055  0.00  0.00    +0.177 C 
ATOM     14  C   UNL     1      -3.105  -1.302   0.124  0.00  0.00    +0.294 C 
ATOM     15  C   UNL     1      -4.325   0.799  -0.217  0.00  0.00    +0.249 C 
ATOM     16  H   UNL     1      -5.125  -1.077  -0.053  0.00  0.00    +0.159 HD
ATOM     17  H   UNL     1      -6.367   0.746  -0.364  0.00  0.00    +0.146 HD
ATOM     18  H   UNL     1      -5.686   2.303  -0.498  0.00  0.00    +0.146 HD
ENDROOT
BRANCH   9  19
ATOM     19  S   UNL     1       2.251  -2.374   0.654  0.00  0.00    -0.110 S 
ATOM     20  C   UNL     1       2.497  -2.957  -1.052  0.00  0.00    +0.074 C 
ENDBRANCH   9  19
BRANCH   8  21
ATOM     21  C   UNL     1       4.061   0.415   0.454  0.00  0.00    +0.168 C 
BRANCH  21  22
ATOM     22  O   UNL     1       4.446   1.174   1.611  0.00  0.00    -0.377 OA
ATOM     23  H   UNL     1       4.022   0.800   2.398  0.00  0.00    +0.211 HD
ENDBRANCH  21  22
BRANCH  21  24
ATOM     24  C   UNL     1       4.750   1.031  -0.779  0.00  0.00    +0.171 C 
BRANCH  24  25
ATOM     25  O   UNL     1       4.441   0.257  -1.930  0.00  0.00    -0.379 OA
ATOM     26  H   UNL     1       4.875   0.645  -2.706  0.00  0.00    +0.211 HD
ENDBRANCH  24  25
ENDBRANCH  21  24
ENDBRANCH   8  21
TORSDOF 5
