REMARK  Name = 135596617
REMARK  11 active torsions:
REMARK  status: ('A' for Active; 'I' for Inactive)
REMARK    1  A    between atoms: C_1  and  C_23
REMARK    2  A    between atoms: C_6  and  C_9
REMARK    3  A    between atoms: N_8  and  CA_11
REMARK    4  A    between atoms: CA_11  and  C_13
REMARK    5  A    between atoms: CA_11  and  C_16
REMARK    6  A    between atoms: C_13  and  O_14
REMARK    7  A    between atoms: C_16  and  C_17
REMARK    8  A    between atoms: C_17  and  C_18
REMARK    9  A    between atoms: C_18  and  N_19
REMARK   10  A    between atoms: C_23  and  C_24
REMARK   11  A    between atoms: C_24  and  C_29
REMARK                            x       y       z     vdW  Elec       q    Type
REMARK                         _______ _______ _______ _____ _____    ______ ____
ROOT
ATOM      1  C   UNL     1       0.119   1.090   0.840  0.00  0.00    -0.022 C 
ATOM      2  C   UNL     1       0.812   0.891  -0.354  0.00  0.00    -0.004 C 
ATOM      3  C   UNL     1       0.821   1.268   2.032  0.00  0.00    -0.004 C 
ATOM      4  C   UNL     1       2.207   0.871  -0.356  0.00  0.00    +0.004 C 
ATOM      5  C   UNL     1       2.215   1.248   2.030  0.00  0.00    +0.004 C 
ATOM      6  C   UNL     1       2.908   1.049   0.836  0.00  0.00    +0.053 C 
ENDROOT
BRANCH   6   9
ATOM      7  O   UNL     1       5.005   1.630   1.712  0.00  0.00    -0.270 OA
ATOM      8  N   UNL     1       4.985   0.285  -0.177  0.00  0.00    -0.293 N 
ATOM      9  C   UNL     1       4.363   1.027   0.834  0.00  0.00    +0.246 C 
ATOM     10  H   UNL     1       4.415  -0.168  -0.840  0.00  0.00    +0.150 HD
BRANCH   8  11
ATOM     11  CA  UNL     1       6.418   0.147  -0.299  0.00  0.00    +0.171 C 
BRANCH  11  13
ATOM     12  OXT UNL     1       6.299   1.859  -2.029  0.00  0.00    -0.248 OA
ATOM     13  C   UNL     1       6.907   1.335  -1.104  0.00  0.00    +0.332 C 
BRANCH  13  14
ATOM     14  O   UNL     1       8.144   1.739  -0.714  0.00  0.00    -0.479 OA
ATOM     15  H   UNL     1       8.573   1.310   0.000  0.00  0.00    +0.295 HD
ENDBRANCH  13  14
ENDBRANCH  11  13
BRANCH  11  16
ATOM     16  C   UNL     1       6.819  -1.161  -0.984  0.00  0.00    +0.029 C 
BRANCH  16  17
ATOM     17  C   UNL     1       6.321  -2.394  -0.223  0.00  0.00    -0.022 C 
BRANCH  17  18
ATOM     18  C   UNL     1       6.705  -3.682  -0.951  0.00  0.00    -0.086 C 
BRANCH  18  19
ATOM     19  N   UNL     1       6.242  -4.844  -0.203  0.00  0.00    +0.380 N 
ATOM     20  H   UNL     1       6.505  -5.696  -0.699  0.00  0.00    -0.089 HD
ATOM     21  H   UNL     1       5.227  -4.805  -0.109  0.00  0.00    -0.089 HD
ATOM     22  H   UNL     1       6.669  -4.845   0.724  0.00  0.00    -0.089 HD
ENDBRANCH  18  19
ENDBRANCH  17  18
ENDBRANCH  16  17
ENDBRANCH  11  16
ENDBRANCH   8  11
ENDBRANCH   6   9
BRANCH   1  23
ATOM     23  C   UNL     1      -1.388   1.112   0.843  0.00  0.00    +0.026 C 
BRANCH  23  24
ATOM     24  C   UNL     1      -1.967  -0.283   1.065  0.00  0.00    +0.005 C 
BRANCH  24  29
ATOM     25  O   UNL     1      -5.651   1.472  -2.280  0.00  0.00    -0.274 OA
ATOM     26  N   UNL     1      -7.610  -0.999   0.285  0.00  0.00    -0.382 NA
ATOM     27  N   UNL     1      -7.595   0.477  -1.542  0.00  0.00    -0.247 N 
ATOM     28  N   UNL     1      -9.597  -0.506  -0.856  0.00  0.00    -0.321 N 
ATOM     29  C   UNL     1      -3.493  -0.251   1.088  0.00  0.00    +0.002 C 
ATOM     30  C   UNL     1      -4.071  -1.628   1.423  0.00  0.00    +0.007 C 
ATOM     31  C   UNL     1      -4.049   0.242  -0.258  0.00  0.00    +0.016 C 
ATOM     32  C   UNL     1      -5.598  -1.572   1.511  0.00  0.00    +0.055 C 
ATOM     33  C   UNL     1      -5.528   0.013  -0.405  0.00  0.00    +0.125 C 
ATOM     34  C   UNL     1      -6.253  -0.793   0.394  0.00  0.00    +0.098 C 
ATOM     35  C   UNL     1      -6.238   0.731  -1.498  0.00  0.00    +0.235 C 
ATOM     36  C   UNL     1      -8.248  -0.372  -0.662  0.00  0.00    +0.237 C 
ATOM     37  H   UNL     1      -8.128   0.926  -2.237  0.00  0.00    +0.158 HD
ATOM     38  H   UNL     1     -10.123  -1.094  -0.267  0.00  0.00    +0.146 HD
ATOM     39  H   UNL     1     -10.041  -0.015  -1.585  0.00  0.00    +0.146 HD
ENDBRANCH  24  29
ENDBRANCH  23  24
ENDBRANCH   1  23
TORSDOF 11
