REMARK  Name = 135565273
REMARK  8 active torsions:
REMARK  status: ('A' for Active; 'I' for Inactive)
REMARK    1  A    between atoms: C_1  and  S_22
REMARK    2  A    between atoms: C_4  and  C_12
REMARK    3  A    between atoms: C_5  and  O_34
REMARK    4  A    between atoms: C_15  and  C_19
REMARK    5  A    between atoms: C_19  and  C_20
REMARK    6  A    between atoms: S_22  and  N_25
REMARK    7  A    between atoms: N_26  and  C_32
REMARK    8  A    between atoms: O_34  and  C_35
REMARK                            x       y       z     vdW  Elec       q    Type
REMARK                         _______ _______ _______ _____ _____    ______ ____
ROOT
ATOM      1  C   UNL     1      -2.038   1.579  -0.966  0.00  0.00    +0.123 C 
ATOM      2  C   UNL     1      -0.923   0.743  -1.024  0.00  0.00    +0.027 C 
ATOM      3  C   UNL     1      -2.076   2.628  -0.048  0.00  0.00    +0.023 C 
ATOM      4  C   UNL     1       0.154   0.956  -0.165  0.00  0.00    +0.079 C 
ATOM      5  C   UNL     1       0.117   2.006   0.754  0.00  0.00    +0.142 C 
ATOM      6  C   UNL     1      -0.999   2.842   0.812  0.00  0.00    +0.038 C 
ENDROOT
BRANCH   4  12
ATOM      7  O   UNL     1       1.841  -3.493   0.208  0.00  0.00    -0.272 OA
ATOM      8  N   UNL     1       1.077  -1.308   0.013  0.00  0.00    -0.258 N 
ATOM      9  N   UNL     1       2.510   0.554  -0.526  0.00  0.00    -0.388 NA
ATOM     10  N   UNL     1       4.556  -2.313  -0.474  0.00  0.00    -0.217 N 
ATOM     11  N   UNL     1       5.528  -1.425  -0.783  0.00  0.00    -0.183 NA
ATOM     12  C   UNL     1       1.334   0.054  -0.244  0.00  0.00    +0.188 C 
ATOM     13  C   UNL     1       3.521  -0.408  -0.567  0.00  0.00    +0.154 C 
ATOM     14  C   UNL     1       3.328  -1.742  -0.334  0.00  0.00    +0.220 C 
ATOM     15  C   UNL     1       4.881  -0.253  -0.839  0.00  0.00    +0.104 C 
ATOM     16  C   UNL     1       2.055  -2.307  -0.015  0.00  0.00    +0.254 C 
ATOM     17  C   UNL     1       4.896  -3.708  -0.324  0.00  0.00    +0.135 C 
ATOM     18  H   UNL     1       0.153  -1.573   0.224  0.00  0.00    +0.157 HD
BRANCH  15  19
ATOM     19  C   UNL     1       5.619   0.980  -1.157  0.00  0.00    +0.050 C 
BRANCH  19  20
ATOM     20  C   UNL     1       6.433   1.518   0.039  0.00  0.00    +0.006 C 
ATOM     21  C   UNL     1       5.556   1.888   1.225  0.00  0.00    +0.000 C 
ENDBRANCH  19  20
ENDBRANCH  15  19
ENDBRANCH   4  12
BRANCH   1  22
ATOM     22  S   UNL     1      -3.402   1.310  -2.054  0.00  0.00    +0.063 S 
ATOM     23  O   UNL     1      -4.110   2.564  -2.196  0.00  0.00    -0.153 OA
ATOM     24  O   UNL     1      -2.912   0.595  -3.214  0.00  0.00    -0.153 OA
BRANCH  22  25
ATOM     25  N   UNL     1      -4.341   0.242  -1.099  0.00  0.00    -0.160 NA
ATOM     26  N   UNL     1      -5.365  -1.383   1.040  0.00  0.00    +0.389 N 
ATOM     27  C   UNL     1      -5.026   0.862   0.070  0.00  0.00    +0.073 C 
ATOM     28  C   UNL     1      -3.675  -1.038  -0.725  0.00  0.00    +0.073 C 
ATOM     29  C   UNL     1      -6.030  -0.129   0.657  0.00  0.00    -0.058 C 
ATOM     30  C   UNL     1      -4.705  -1.992  -0.123  0.00  0.00    -0.058 C 
ATOM     31  H   UNL     1      -4.653  -1.169   1.739  0.00  0.00    -0.080 HD
BRANCH  26  32
ATOM     32  C   UNL     1      -6.325  -2.314   1.633  0.00  0.00    -0.077 C 
ATOM     33  C   UNL     1      -5.640  -3.588   2.095  0.00  0.00    -0.025 C 
ENDBRANCH  26  32
ENDBRANCH  22  25
ENDBRANCH   1  22
BRANCH   5  34
ATOM     34  O   UNL     1       1.159   2.230   1.603  0.00  0.00    -0.475 OA
BRANCH  34  35
ATOM     35  C   UNL     1       0.880   2.163   3.000  0.00  0.00    +0.206 C 
ATOM     36  C   UNL     1       2.120   1.685   3.727  0.00  0.00    +0.051 C 
ENDBRANCH  34  35
ENDBRANCH   5  34
TORSDOF 8
