REMARK  Name = 135564841
REMARK  7 active torsions:
REMARK  status: ('A' for Active; 'I' for Inactive)
REMARK    1  A    between atoms: N_1  and  C_24
REMARK    2  A    between atoms: C_8  and  C_14
REMARK    3  A    between atoms: C_10  and  O_34
REMARK    4  A    between atoms: C_11  and  O_36
REMARK    5  A    between atoms: C_15  and  O_20
REMARK    6  A    between atoms: C_23  and  C_29
REMARK    7  A    between atoms: C_29  and  O_32
REMARK                            x       y       z     vdW  Elec       q    Type
REMARK                         _______ _______ _______ _____ _____    ______ ____
ROOT
ATOM      1  N   UNL     1      -1.033   1.456   0.364  0.00  0.00    -0.314 N 
ATOM      2  N   UNL     1       0.919   0.204   0.188  0.00  0.00    -0.329 NA
ATOM      3  N   UNL     1       0.809  -2.192  -0.047  0.00  0.00    -0.343 NA
ATOM      4  C   UNL     1      -0.427   0.218   0.226  0.00  0.00    +0.180 C 
ATOM      5  C   UNL     1      -1.218  -0.923   0.133  0.00  0.00    +0.146 C 
ATOM      6  C   UNL     1      -0.534  -2.142  -0.006  0.00  0.00    +0.136 C 
ATOM      7  C   UNL     1      -2.623  -0.883   0.175  0.00  0.00    +0.029 C 
ATOM      8  C   UNL     1       1.462  -1.016   0.052  0.00  0.00    +0.142 C 
ATOM      9  C   UNL     1      -1.293  -3.306  -0.102  0.00  0.00    +0.069 C 
ATOM     10  C   UNL     1      -3.356  -2.062   0.078  0.00  0.00    +0.169 C 
ATOM     11  C   UNL     1      -2.690  -3.274  -0.061  0.00  0.00    +0.174 C 
ATOM     12  H   UNL     1      -2.016   1.491   0.394  0.00  0.00    +0.149 HD
ENDROOT
BRANCH   8  14
ATOM     13  F   UNL     1       5.510  -2.183  -2.276  0.00  0.00    -0.204 F 
ATOM     14  C   UNL     1       2.900  -1.077   0.006  0.00  0.00    +0.121 C 
ATOM     15  C   UNL     1       3.671  -0.616   1.073  0.00  0.00    +0.145 C 
ATOM     16  C   UNL     1       3.521  -1.607  -1.125  0.00  0.00    +0.045 C 
ATOM     17  C   UNL     1       5.062  -0.684   1.009  0.00  0.00    +0.040 C 
ATOM     18  C   UNL     1       4.913  -1.675  -1.189  0.00  0.00    +0.141 C 
ATOM     19  C   UNL     1       5.684  -1.214  -0.122  0.00  0.00    +0.033 C 
BRANCH  15  20
ATOM     20  O   UNL     1       3.090  -0.093   2.191  0.00  0.00    -0.505 OA
ATOM     21  H   UNL     1       2.157  -0.039   2.252  0.00  0.00    +0.292 HD
ENDBRANCH  15  20
ENDBRANCH   8  14
BRANCH   1  24
ATOM     22  N   UNL     1      -0.460   4.147   2.359  0.00  0.00    +0.385 N 
ATOM     23  C   UNL     1      -1.222   3.888   0.184  0.00  0.00    +0.019 C 
ATOM     24  C   UNL     1      -0.303   2.698   0.468  0.00  0.00    +0.050 C 
ATOM     25  C   UNL     1      -0.726   4.942   1.163  0.00  0.00    -0.078 C 
ATOM     26  C   UNL     1       0.204   2.927   1.894  0.00  0.00    -0.062 C 
ATOM     27  H   UNL     1      -1.334   3.916   2.833  0.00  0.00    -0.084 HD
ATOM     28  H   UNL     1       0.119   4.657   3.026  0.00  0.00    -0.084 HD
BRANCH  23  29
ATOM     29  C   UNL     1      -1.177   4.355  -1.262  0.00  0.00    +0.088 C 
ATOM     30  C   UNL     1      -2.064   5.584  -1.466  0.00  0.00    +0.029 C 
ATOM     31  C   UNL     1      -1.595   3.234  -2.217  0.00  0.00    +0.029 C 
BRANCH  29  32
ATOM     32  O   UNL     1       0.163   4.741  -1.581  0.00  0.00    -0.387 OA
ATOM     33  H   UNL     1       0.445   5.452  -0.985  0.00  0.00    +0.210 HD
ENDBRANCH  29  32
ENDBRANCH  23  29
ENDBRANCH   1  24
BRANCH  10  34
ATOM     34  O   UNL     1      -4.716  -2.017   0.119  0.00  0.00    -0.469 OA
ATOM     35  C   UNL     1      -5.398  -1.870  -1.125  0.00  0.00    +0.253 C 
ENDBRANCH  10  34
BRANCH  11  36
ATOM     36  O   UNL     1      -3.387  -4.441  -0.161  0.00  0.00    -0.468 OA
ATOM     37  C   UNL     1      -3.687  -5.122   1.056  0.00  0.00    +0.253 C 
ENDBRANCH  11  36
TORSDOF 7
