REMARK  Name = 135564756
REMARK  3 active torsions:
REMARK  status: ('A' for Active; 'I' for Inactive)
REMARK    1  A    between atoms: C_2  and  C_17
REMARK    2  A    between atoms: C_4  and  C_10
REMARK    3  A    between atoms: C_18  and  O_23
REMARK                            x       y       z     vdW  Elec       q    Type
REMARK                         _______ _______ _______ _____ _____    ______ ____
ROOT
ATOM      1  O   UNL     1      -0.634   0.203   0.215  0.00  0.00    -0.449 OA
ATOM      2  C   UNL     1       0.525   0.793   0.608  0.00  0.00    +0.148 C 
ATOM      3  C   UNL     1       0.271   1.988   1.238  0.00  0.00    +0.041 C 
ATOM      4  C   UNL     1      -1.641   1.032   0.599  0.00  0.00    +0.199 C 
ATOM      5  C   UNL     1      -1.136   2.144   1.233  0.00  0.00    +0.045 C 
ENDROOT
BRANCH   4  10
ATOM      6  O   UNL     1      -3.960   1.343   0.651  0.00  0.00    -0.266 OA
ATOM      7  N   UNL     1      -3.168  -0.598  -0.380  0.00  0.00    -0.250 N 
ATOM      8  N   UNL     1      -4.227  -2.417  -1.411  0.00  0.00    -0.372 N 
ATOM      9  N   UNL     1      -5.503  -0.668  -0.500  0.00  0.00    -0.270 NA
ATOM     10  C   UNL     1      -2.976   0.640   0.302  0.00  0.00    +0.286 C 
ATOM     11  C   UNL     1      -4.357  -1.219  -0.761  0.00  0.00    +0.186 C 
ATOM     12  H   UNL     1      -2.344  -1.083  -0.616  0.00  0.00    +0.158 HD
ATOM     13  H   UNL     1      -3.332  -2.789  -1.583  0.00  0.00    +0.159 HD
ATOM     14  H   UNL     1      -5.028  -2.906  -1.708  0.00  0.00    +0.159 HD
ATOM     15  H   UNL     1      -5.538   0.195  -0.028  0.00  0.00    +0.190 HD
ENDBRANCH   4  10
BRANCH   2  17
ATOM     16 CL   UNL     1       3.276  -3.526   1.151  0.00  0.00    -0.082 Cl
ATOM     17  C   UNL     1       1.731   0.062   0.290  0.00  0.00    +0.069 C 
ATOM     18  C   UNL     1       2.714   0.625  -0.524  0.00  0.00    +0.142 C 
ATOM     19  C   UNL     1       1.904  -1.221   0.808  0.00  0.00    +0.017 C 
ATOM     20  C   UNL     1       3.871  -0.097  -0.820  0.00  0.00    +0.038 C 
ATOM     21  C   UNL     1       3.061  -1.942   0.512  0.00  0.00    +0.058 C 
ATOM     22  C   UNL     1       4.045  -1.380  -0.302  0.00  0.00    +0.015 C 
BRANCH  18  23
ATOM     23  O   UNL     1       2.571   1.877  -1.044  0.00  0.00    -0.471 OA
ATOM     24  C   UNL     1       3.632   2.361  -1.864  0.00  0.00    +0.252 C 
ENDBRANCH  18  23
ENDBRANCH   2  17
TORSDOF 3
