REMARK  Name = 135555939
REMARK  7 active torsions:
REMARK  status: ('A' for Active; 'I' for Inactive)
REMARK    1  A    between atoms: C_1  and  S_22
REMARK    2  A    between atoms: C_4  and  C_12
REMARK    3  A    between atoms: C_5  and  O_35
REMARK    4  A    between atoms: C_15  and  C_19
REMARK    5  A    between atoms: C_19  and  C_20
REMARK    6  A    between atoms: S_22  and  N_25
REMARK    7  A    between atoms: O_35  and  C_36
REMARK                            x       y       z     vdW  Elec       q    Type
REMARK                         _______ _______ _______ _____ _____    ______ ____
ROOT
ATOM      1  C   UNL     1       2.130  -1.052  -1.173  0.00  0.00    +0.123 C 
ATOM      2  C   UNL     1       0.974  -0.284  -1.033  0.00  0.00    +0.027 C 
ATOM      3  C   UNL     1       2.194  -2.326  -0.610  0.00  0.00    +0.023 C 
ATOM      4  C   UNL     1      -0.119  -0.792  -0.330  0.00  0.00    +0.079 C 
ATOM      5  C   UNL     1      -0.056  -2.066   0.233  0.00  0.00    +0.142 C 
ATOM      6  C   UNL     1       1.101  -2.833   0.093  0.00  0.00    +0.038 C 
ENDROOT
BRANCH   4  12
ATOM      7  O   UNL     1      -2.058   3.265   1.272  0.00  0.00    -0.272 OA
ATOM      8  N   UNL     1      -1.170   1.274   0.470  0.00  0.00    -0.258 N 
ATOM      9  N   UNL     1      -2.479  -0.398  -0.669  0.00  0.00    -0.388 NA
ATOM     10  N   UNL     1      -4.680   2.232   0.136  0.00  0.00    -0.217 N 
ATOM     11  N   UNL     1      -5.591   1.439  -0.471  0.00  0.00    -0.183 NA
ATOM     12  C   UNL     1      -1.343   0.042  -0.194  0.00  0.00    +0.188 C 
ATOM     13  C   UNL     1      -3.540   0.489  -0.471  0.00  0.00    +0.154 C 
ATOM     14  C   UNL     1      -3.428   1.697   0.159  0.00  0.00    +0.220 C 
ATOM     15  C   UNL     1      -4.879   0.365  -0.843  0.00  0.00    +0.104 C 
ATOM     16  C   UNL     1      -2.200   2.193   0.694  0.00  0.00    +0.254 C 
ATOM     17  C   UNL     1      -5.101   3.502   0.680  0.00  0.00    +0.135 C 
ATOM     18  H   UNL     1      -0.269   1.501   0.796  0.00  0.00    +0.157 HD
BRANCH  15  19
ATOM     19  C   UNL     1      -5.538  -0.744  -1.550  0.00  0.00    +0.050 C 
BRANCH  19  20
ATOM     20  C   UNL     1      -6.361  -1.651  -0.612  0.00  0.00    +0.006 C 
ATOM     21  C   UNL     1      -5.506  -2.323   0.451  0.00  0.00    +0.000 C 
ENDBRANCH  19  20
ENDBRANCH  15  19
ENDBRANCH   4  12
BRANCH   1  22
ATOM     22  S   UNL     1       3.513  -0.411  -2.063  0.00  0.00    +0.063 S 
ATOM     23  O   UNL     1       4.293  -1.534  -2.537  0.00  0.00    -0.153 OA
ATOM     24  O   UNL     1       3.025   0.598  -2.978  0.00  0.00    -0.153 OA
BRANCH  22  25
ATOM     25  N   UNL     1       4.359   0.358  -0.788  0.00  0.00    -0.160 NA
ATOM     26  N   UNL     1       5.290   1.344   1.741  0.00  0.00    +0.388 N 
ATOM     27  C   UNL     1       4.560   2.231   0.827  0.00  0.00    -0.044 C 
ATOM     28  C   UNL     1       5.993   0.254   1.056  0.00  0.00    -0.044 C 
ATOM     29  C   UNL     1       3.612   1.438  -0.081  0.00  0.00    +0.074 C 
ATOM     30  C   UNL     1       5.033  -0.555   0.179  0.00  0.00    +0.074 C 
ATOM     31  C   UNL     1       6.644  -0.648   2.104  0.00  0.00    -0.022 C 
ATOM     32  C   UNL     1       5.499   3.138   0.026  0.00  0.00    -0.022 C 
ATOM     33  H   UNL     1       4.624   0.937   2.397  0.00  0.00    -0.084 HD
ATOM     34  H   UNL     1       5.996   1.911   2.210  0.00  0.00    -0.084 HD
ENDBRANCH  22  25
ENDBRANCH   1  22
BRANCH   5  35
ATOM     35  O   UNL     1      -1.112  -2.579   0.925  0.00  0.00    -0.475 OA
BRANCH  35  36
ATOM     36  C   UNL     1      -0.886  -2.924   2.290  0.00  0.00    +0.206 C 
ATOM     37  C   UNL     1      -2.174  -2.739   3.065  0.00  0.00    +0.051 C 
ENDBRANCH  35  36
ENDBRANCH   5  35
TORSDOF 7
