REMARK  Name = 135530051
REMARK  5 active torsions:
REMARK  status: ('A' for Active; 'I' for Inactive)
REMARK    1  A    between atoms: N_3  and  C_17
REMARK    2  A    between atoms: C_17  and  O_18
REMARK    3  A    between atoms: O_18  and  C_19
REMARK    4  A    between atoms: C_19  and  C_20
REMARK    5  A    between atoms: C_20  and  O_21
REMARK                            x       y       z     vdW  Elec       q    Type
REMARK                         _______ _______ _______ _____ _____    ______ ____
ROOT
ATOM      1  O   UNL     1      -0.305   3.411  -0.065  0.00  0.00    -0.252 OA
ATOM      2  O   UNL     1       3.943   0.320   0.901  0.00  0.00    -0.272 OA
ATOM      3  N   UNL     1      -0.340   1.055  -0.478  0.00  0.00    -0.193 N 
ATOM      4  N   UNL     1       1.545   1.978   0.341  0.00  0.00    -0.276 N 
ATOM      5  N   UNL     1       0.448  -1.259  -0.595  0.00  0.00    -0.360 NA
ATOM      6  N   UNL     1       2.693  -1.500   0.153  0.00  0.00    -0.246 N 
ATOM      7  N   UNL     1       1.482  -3.367  -0.591  0.00  0.00    -0.321 N 
ATOM      8  C   UNL     1       0.611   0.066  -0.312  0.00  0.00    +0.199 C 
ATOM      9  C   UNL     1       1.718   0.637   0.174  0.00  0.00    +0.218 C 
ATOM     10  C   UNL     1       0.218   2.308  -0.069  0.00  0.00    +0.312 C 
ATOM     11  C   UNL     1       2.909  -0.158   0.457  0.00  0.00    +0.255 C 
ATOM     12  C   UNL     1       1.492  -2.016  -0.357  0.00  0.00    +0.239 C 
ATOM     13  H   UNL     1       2.217   2.610   0.685  0.00  0.00    +0.152 HD
ATOM     14  H   UNL     1       3.434  -2.130   0.306  0.00  0.00    +0.159 HD
ATOM     15  H   UNL     1       0.673  -3.799  -0.948  0.00  0.00    +0.146 HD
ATOM     16  H   UNL     1       2.284  -3.905  -0.400  0.00  0.00    +0.146 HD
ENDROOT
BRANCH   3  17
ATOM     17  C   UNL     1      -1.675   0.850  -0.982  0.00  0.00    +0.250 C 
BRANCH  17  18
ATOM     18  O   UNL     1      -2.456   0.244   0.037  0.00  0.00    -0.331 OA
BRANCH  18  19
ATOM     19  C   UNL     1      -3.781  -0.017  -0.408  0.00  0.00    +0.176 C 
BRANCH  19  20
ATOM     20  C   UNL     1      -4.564  -0.661   0.719  0.00  0.00    +0.169 C 
BRANCH  20  21
ATOM     21  O   UNL     1      -3.940  -1.889   1.075  0.00  0.00    -0.379 OA
ATOM     22  H   UNL     1      -4.436  -2.307   1.796  0.00  0.00    +0.211 HD
ENDBRANCH  20  21
ENDBRANCH  19  20
ENDBRANCH  18  19
ENDBRANCH  17  18
ENDBRANCH   3  17
TORSDOF 5
