REMARK  Name = 135515469
REMARK  3 active torsions:
REMARK  status: ('A' for Active; 'I' for Inactive)
REMARK    1  A    between atoms: C_6  and  O_24
REMARK    2  A    between atoms: C_6  and  C_28
REMARK    3  A    between atoms: C_22  and  O_26
REMARK                            x       y       z     vdW  Elec       q    Type
REMARK                         _______ _______ _______ _____ _____    ______ ____
ROOT
ATOM      1  O   UNL     1      -5.207  -0.365   0.417  0.00  0.00    -0.442 OA
ATOM      2  O   UNL     1      -2.245  -3.326  -0.195  0.00  0.00    -0.270 OA
ATOM      3  O   UNL     1      -5.572   1.700   1.218  0.00  0.00    -0.247 OA
ATOM      4  N   UNL     1      -0.562  -1.745  -0.067  0.00  0.00    -0.249 N 
ATOM      5  N   UNL     1       2.044   0.730   0.083  0.00  0.00    -0.404 NA
ATOM      6  C   UNL     1      -3.495   1.357   0.035  0.00  0.00    +0.196 C 
ATOM      7  C   UNL     1      -2.481   0.247   0.023  0.00  0.00    +0.017 C 
ATOM      8  C   UNL     1      -0.171  -0.419   0.007  0.00  0.00    +0.084 C 
ATOM      9  C   UNL     1      -2.887  -1.033  -0.063  0.00  0.00    +0.074 C 
ATOM     10  C   UNL     1       0.611  -2.643  -0.106  0.00  0.00    +0.127 C 
ATOM     11  C   UNL     1      -1.063   0.574   0.048  0.00  0.00    +0.016 C 
ATOM     12  C   UNL     1       1.748  -1.678  -0.045  0.00  0.00    +0.025 C 
ATOM     13  C   UNL     1       1.284  -0.372   0.020  0.00  0.00    +0.142 C 
ATOM     14  C   UNL     1      -1.883  -2.154  -0.114  0.00  0.00    +0.252 C 
ATOM     15  C   UNL     1      -4.335  -1.380  -0.127  0.00  0.00    +0.239 C 
ATOM     16  C   UNL     1      -4.832   0.919   0.622  0.00  0.00    +0.346 C 
ATOM     17  C   UNL     1       3.106  -1.891  -0.046  0.00  0.00    -0.015 C 
ATOM     18  C   UNL     1       3.954  -0.773   0.018  0.00  0.00    +0.096 C 
ATOM     19  C   UNL     1       3.378   0.527   0.082  0.00  0.00    +0.120 C 
ATOM     20  C   UNL     1       5.350  -0.925   0.021  0.00  0.00    -0.012 C 
ATOM     21  C   UNL     1       4.237   1.619   0.145  0.00  0.00    +0.065 C 
ATOM     22  C   UNL     1       5.625   1.461   0.146  0.00  0.00    +0.136 C 
ATOM     23  C   UNL     1       6.182   0.189   0.084  0.00  0.00    +0.033 C 
ENDROOT
BRANCH   6  24
ATOM     24  O   UNL     1      -3.052   2.407   0.897  0.00  0.00    -0.373 OA
ATOM     25  H   UNL     1      -2.197   2.742   0.585  0.00  0.00    +0.211 HD
ENDBRANCH   6  24
BRANCH  22  26
ATOM     26  O   UNL     1       6.433   2.555   0.209  0.00  0.00    -0.505 OA
ATOM     27  H   UNL     1       6.057   3.412   0.251  0.00  0.00    +0.292 HD
ENDBRANCH  22  26
BRANCH   6  28
ATOM     28  C   UNL     1      -3.723   1.928  -1.367  0.00  0.00    +0.042 C 
ATOM     29  C   UNL     1      -2.441   2.491  -1.946  0.00  0.00    +0.003 C 
ENDBRANCH   6  28
TORSDOF 3
