135511072
  -OEChem-03292013293D

 59 62  0     0  0  0  0  0  0999 V2000
    7.3227    0.4223    0.4491 O   0  0  0  0  0  0  0  0  0  0  0  0
    5.4982   -0.6453    2.2542 O   0  0  0  0  0  0  0  0  0  0  0  0
   -4.2423   -5.0663   -0.7729 O   0  0  0  0  0  0  0  0  0  0  0  0
   -2.4724    5.1997    0.5251 O   0  0  0  0  0  0  0  0  0  0  0  0
   -5.3220    1.7350   -0.5687 O   0  0  0  0  0  0  0  0  0  0  0  0
    0.6239    1.2259   -0.5275 N   0  0  0  0  0  0  0  0  0  0  0  0
   -0.6860    0.4053    1.0671 N   0  0  0  0  0  0  0  0  0  0  0  0
   -0.9298    2.7684    0.4592 N   0  0  0  0  0  0  0  0  0  0  0  0
   -3.0515    1.8635   -0.0988 N   0  0  0  0  0  0  0  0  0  0  0  0
   -4.2500    3.7562   -0.0479 N   0  0  0  0  0  0  0  0  0  0  0  0
    0.9706   -0.0896   -0.3984 C   0  0  0  0  0  0  0  0  0  0  0  0
    0.1487   -0.5748    0.5914 C   0  0  0  0  0  0  0  0  0  0  0  0
    2.0201   -0.7345   -1.2078 C   0  0  0  0  0  0  0  0  0  0  0  0
    0.0863   -1.9375    1.1432 C   0  0  0  0  0  0  0  0  0  0  0  0
   -0.3742    1.4769    0.3725 C   0  0  0  0  0  0  0  0  0  0  0  0
    3.4426   -0.4258   -0.7606 C   0  0  0  0  0  0  0  0  0  0  0  0
   -1.0762   -2.7778    0.6292 C   0  0  0  0  0  0  0  0  0  0  0  0
    1.2109    2.1721   -1.4500 C   0  0  0  0  0  0  0  0  0  0  0  0
    3.8295   -0.6777    0.5558 C   0  0  0  0  0  0  0  0  0  0  0  0
    4.3584    0.1093   -1.6664 C   0  0  0  0  0  0  0  0  0  0  0  0
   -0.8643   -3.7182   -0.3790 C   0  0  0  0  0  0  0  0  0  0  0  0
   -2.3522   -2.6066    1.1663 C   0  0  0  0  0  0  0  0  0  0  0  0
   -2.1879    2.8566    0.2238 C   0  0  0  0  0  0  0  0  0  0  0  0
    5.1323   -0.3948    0.9660 C   0  0  0  0  0  0  0  0  0  0  0  0
    5.6612    0.3921   -1.2563 C   0  0  0  0  0  0  0  0  0  0  0  0
    6.0481    0.1401    0.0599 C   0  0  0  0  0  0  0  0  0  0  0  0
   -1.9282   -4.4875   -0.8500 C   0  0  0  0  0  0  0  0  0  0  0  0
   -3.4160   -3.3758    0.6953 C   0  0  0  0  0  0  0  0  0  0  0  0
   -2.9731    4.1280    0.2620 C   0  0  0  0  0  0  0  0  0  0  0  0
   -3.2040   -4.3163   -0.3128 C   0  0  0  0  0  0  0  0  0  0  0  0
   -4.3255    2.3829   -0.2724 C   0  0  0  0  0  0  0  0  0  0  0  0
   -5.3739    4.6660   -0.1320 C   0  0  0  0  0  0  0  0  0  0  0  0
    8.1960    0.9670   -0.5384 C   0  0  0  0  0  0  0  0  0  0  0  0
   -5.5201   -4.8389   -0.1799 C   0  0  0  0  0  0  0  0  0  0  0  0
    1.8933   -0.4698   -2.2649 H   0  0  0  0  0  0  0  0  0  0  0  0
    1.9026   -1.8256   -1.1810 H   0  0  0  0  0  0  0  0  0  0  0  0
    0.0088   -1.8804    2.2374 H   0  0  0  0  0  0  0  0  0  0  0  0
    1.0245   -2.4762    0.9613 H   0  0  0  0  0  0  0  0  0  0  0  0
    1.2535    1.7226   -2.4448 H   0  0  0  0  0  0  0  0  0  0  0  0
    0.6030    3.0778   -1.5036 H   0  0  0  0  0  0  0  0  0  0  0  0
    2.2124    2.4229   -1.0924 H   0  0  0  0  0  0  0  0  0  0  0  0
    3.1242   -1.1024    1.2648 H   0  0  0  0  0  0  0  0  0  0  0  0
    4.0694    0.3113   -2.6944 H   0  0  0  0  0  0  0  0  0  0  0  0
    0.1244   -3.8601   -0.8071 H   0  0  0  0  0  0  0  0  0  0  0  0
   -2.5287   -1.8772    1.9524 H   0  0  0  0  0  0  0  0  0  0  0  0
    6.3176    0.8066   -2.0136 H   0  0  0  0  0  0  0  0  0  0  0  0
   -1.7572   -5.2180   -1.6359 H   0  0  0  0  0  0  0  0  0  0  0  0
   -4.3802   -3.1914    1.1565 H   0  0  0  0  0  0  0  0  0  0  0  0
   -2.8211    0.8820   -0.2026 H   0  0  0  0  0  0  0  0  0  0  0  0
   -5.7972    4.6054   -1.1387 H   0  0  0  0  0  0  0  0  0  0  0  0
   -5.0626    5.6904    0.0858 H   0  0  0  0  0  0  0  0  0  0  0  0
   -6.1380    4.3433    0.5809 H   0  0  0  0  0  0  0  0  0  0  0  0
    4.7365   -1.0124    2.7349 H   0  0  0  0  0  0  0  0  0  0  0  0
    9.1660    1.1288   -0.0566 H   0  0  0  0  0  0  0  0  0  0  0  0
    7.8486    1.9448   -0.8892 H   0  0  0  0  0  0  0  0  0  0  0  0
    8.3635    0.2638   -1.3613 H   0  0  0  0  0  0  0  0  0  0  0  0
   -5.8761   -3.8205   -0.3691 H   0  0  0  0  0  0  0  0  0  0  0  0
   -5.5185   -5.0868    0.8870 H   0  0  0  0  0  0  0  0  0  0  0  0
   -6.2272   -5.5198   -0.6650 H   0  0  0  0  0  0  0  0  0  0  0  0
  1 26  1  0  0  0  0
  1 33  1  0  0  0  0
  2 24  1  0  0  0  0
  2 53  1  0  0  0  0
  3 30  1  0  0  0  0
  3 34  1  0  0  0  0
  4 29  2  0  0  0  0
  5 31  2  0  0  0  0
  6 11  1  0  0  0  0
  6 15  1  0  0  0  0
  6 18  1  0  0  0  0
  7 12  1  0  0  0  0
  7 15  2  0  0  0  0
  8 15  1  0  0  0  0
  8 23  2  3  0  0  0
  9 23  1  0  0  0  0
  9 31  1  0  0  0  0
  9 49  1  0  0  0  0
 10 29  1  0  0  0  0
 10 31  1  0  0  0  0
 10 32  1  0  0  0  0
 11 12  2  0  0  0  0
 11 13  1  0  0  0  0
 12 14  1  0  0  0  0
 13 16  1  0  0  0  0
 13 35  1  0  0  0  0
 13 36  1  0  0  0  0
 14 17  1  0  0  0  0
 14 37  1  0  0  0  0
 14 38  1  0  0  0  0
 16 19  2  0  0  0  0
 16 20  1  0  0  0  0
 17 21  2  0  0  0  0
 17 22  1  0  0  0  0
 18 39  1  0  0  0  0
 18 40  1  0  0  0  0
 18 41  1  0  0  0  0
 19 24  1  0  0  0  0
 19 42  1  0  0  0  0
 20 25  2  0  0  0  0
 20 43  1  0  0  0  0
 21 27  1  0  0  0  0
 21 44  1  0  0  0  0
 22 28  2  0  0  0  0
 22 45  1  0  0  0  0
 23 29  1  0  0  0  0
 24 26  2  0  0  0  0
 25 26  1  0  0  0  0
 25 46  1  0  0  0  0
 27 30  2  0  0  0  0
 27 47  1  0  0  0  0
 28 30  1  0  0  0  0
 28 48  1  0  0  0  0
 32 50  1  0  0  0  0
 32 51  1  0  0  0  0
 32 52  1  0  0  0  0
 33 54  1  0  0  0  0
 33 55  1  0  0  0  0
 33 56  1  0  0  0  0
 34 57  1  0  0  0  0
 34 58  1  0  0  0  0
 34 59  1  0  0  0  0
M  END
> <PUBCHEM_COMPOUND_CID>
135511072

> <PUBCHEM_CONFORMER_RMSD>
1

> <PUBCHEM_CONFORMER_DIVERSEORDER>
1
125
87
24
137
220
282
51
109
42
138
147
168
286
285
111
72
283
130
16
186
40
277
101
233
20
144
257
103
206
269
104
53
262
69
121
162
105
27
182
238
173
110
82
180
159
214
60
270
102
188
254
251
278
195
275
78
281
209
279
23
145
99
240
83
228
158
258
139
39
96
163
30
116
212
295
150
271
100
142
249
218
152
200
292
86
44
164
140
66
242
71
8
52
117
194
246
175
95
75
274
21
120
203
64
261
128
4
126
135
112
252
288
68
12
263
204
227
18
273
178
243
106
290
192
124
38
119
287
85
201
276
247
134
58
202
199
225
229
157
208
9
67
289
215
155
46
151
118
57
93
146
291
77
41
61
10
11
97
133
241
98
235
136
177
176
211
129
237
193
207
184
217
74
170
90
280
167
28
266
219
22
294
210
250
131
25
222
179
171
54
185
84
50
80
154
265
132
256
81
239
197
37
284
113
29
13
48
19
181
32
293
34
236
244
161
174
259
223
143
88
122
123
216
115
231
70
92
260
226
224
160
5
267
33
264
196
198
76
253
56
248
183
255
153
17
55
268
189
36
165
245
73
26
31
63
65
205
79
232
156
62
15
3
172
221
169
43
272
47
2
148
89
230
234
149
94
127
187
14
166
213
191
108
7
49
59
45
35
91
190
107
6
141
114

> <PUBCHEM_MMFF94_PARTIAL_CHARGES>
43
1 -0.36
10 -0.42
11 -0.33
12 0.05
13 0.32
14 0.32
15 0.31
16 -0.14
17 -0.14
18 0.26
19 -0.15
2 -0.53
20 -0.15
21 -0.15
22 -0.15
23 0.51
24 0.08
25 -0.15
26 0.08
27 -0.15
28 -0.15
29 0.63
3 -0.36
30 0.08
31 0.69
32 0.3
33 0.28
34 0.28
4 -0.57
42 0.15
43 0.15
44 0.15
45 0.15
46 0.15
47 0.15
48 0.15
49 0.37
5 -0.57
53 0.45
6 0.05
7 -0.57
8 -0.58
9 -0.49

> <PUBCHEM_EFFECTIVE_ROTOR_COUNT>
7.4

> <PUBCHEM_PHARMACOPHORE_FEATURES>
11
1 1 acceptor
1 2 donor
1 3 acceptor
1 4 acceptor
1 5 acceptor
1 9 donor
4 6 7 8 15 cation
5 6 7 11 12 15 rings
5 9 10 23 29 31 rings
6 16 19 20 24 25 26 rings
6 17 21 22 27 28 30 rings

> <PUBCHEM_HEAVY_ATOM_COUNT>
34

> <PUBCHEM_ATOM_DEF_STEREO_COUNT>
0

> <PUBCHEM_ATOM_UDEF_STEREO_COUNT>
0

> <PUBCHEM_BOND_DEF_STEREO_COUNT>
0

> <PUBCHEM_BOND_UDEF_STEREO_COUNT>
1

> <PUBCHEM_ISOTOPIC_ATOM_COUNT>
0

> <PUBCHEM_COMPONENT_COUNT>
1

> <PUBCHEM_CACTVS_TAUTO_COUNT>
-1

> <PUBCHEM_CONFORMER_ID>
0813BC2000000001

> <PUBCHEM_MMFF94_ENERGY>
97.0101

> <PUBCHEM_FEATURE_SELFOVERLAP>
55.823

> <PUBCHEM_SHAPE_FINGERPRINT>
10411042 1 18122627425166942147
10675989 125 17254010047794306484
11297750 10 18128250301512938673
12160290 23 17977708356319328378
12788726 201 18190472730050157210
12977781 61 17915764010505550118
13150687 139 18192155888793735830
13540713 5 17895770598941114348
13590594 115 18193282021066909219
13692114 37 18124024642283898871
13757389 114 18336557019024032732
13899415 180 18053657268216756847
14068700 675 18191586565499230806
14068700 686 17902799552928119973
14294032 229 18411709772595502547
14400156 188 11094721590562666941
14556957 393 18044955690639822014
14790565 3 18050285869086027785
15131766 46 14998858764365055606
15198563 99 18340205305598945695
15400415 2 17979072687315713845
15927050 60 18265335010720800730
16087824 20 18411140252043906779
18365409 1 18410575063953381101
19319366 153 17909539563695773173
20511986 3 17676202455821544240
21304303 172 18337392755081993062
2132832 1 18043536221091478500
21703447 108 18051971712975963704
23559900 14 17618782900365620131
23929065 36 18339915021960750392
24180151 214 17701258015020796377
255183 313 18197807477782284395
3103668 31 18409445930157723319
38695281 34 18191871111272023773
4017518 198 18123760760036883606
4066623 53 18048023358220109871
4409770 3 18410295826480622507
5171179 24 18055911241003916521
5969126 39 18268992158177235758
6700243 42 17840625709371450054
9658208 31 18269557144134682394
9981440 41 18120381960350683513

> <PUBCHEM_SHAPE_MULTIPOLES>
645.45
15.22
7.87
1.27
26.19
0.22
-0.1
-2.04
0.81
-22.45
0.58
1.39
0.38
-1.06

> <PUBCHEM_SHAPE_SELFOVERLAP>
1404.855

> <PUBCHEM_SHAPE_VOLUME>
352.2

> <PUBCHEM_COORDINATE_TYPE>
2
5
10

$$$$
