REMARK  Name = 135565903
REMARK  5 active torsions:
REMARK  status: ('A' for Active; 'I' for Inactive)
REMARK    1  A    between atoms: C_4  and  C_10
REMARK    2  A    between atoms: C_5  and  C_17
REMARK    3  A    between atoms: C_20  and  N_25
REMARK    4  A    between atoms: C_21  and  O_26
REMARK    5  A    between atoms: C_22  and  O_28
REMARK                            x       y       z     vdW  Elec       q    Type
REMARK                         _______ _______ _______ _____ _____    ______ ____
ROOT
ATOM      1  O   UNL     1       0.575   1.592   0.353  0.00  0.00    -0.311 OA
ATOM      2  N   UNL     1      -0.346  -0.398  -0.103  0.00  0.00    -0.308 NA
ATOM      3  N   UNL     1      -0.811   1.787   0.390  0.00  0.00    -0.007 NA
ATOM      4  C   UNL     1      -1.285   0.569   0.111  0.00  0.00    +0.129 C 
ATOM      5  C   UNL     1       0.762   0.279   0.056  0.00  0.00    +0.317 C 
ENDROOT
BRANCH   4  10
ATOM      6 CL   UNL     1      -5.581  -0.902   2.547  0.00  0.00    -0.081 Cl
ATOM      7 CL   UNL     1      -2.558   0.911  -2.608  0.00  0.00    -0.059 Cl
ATOM      8  O   UNL     1      -5.376   0.247  -2.328  0.00  0.00    -0.163 OA
ATOM      9  N   UNL     1      -4.740   0.134  -1.226  0.00  0.00    -0.122 N 
ATOM     10  C   UNL     1      -2.689   0.284   0.039  0.00  0.00    +0.104 A 
ATOM     11  C   UNL     1      -3.364  -0.120   1.186  0.00  0.00    +0.003 A 
ATOM     12  C   UNL     1      -5.400  -0.267  -0.081  0.00  0.00    +0.091 A 
ATOM     13  C   UNL     1      -4.725  -0.397   1.129  0.00  0.00    +0.070 A 
ATOM     14  C   UNL     1      -3.387   0.407  -1.158  0.00  0.00    +0.169 A 
ATOM     15  C   UNL     1      -2.623  -0.254   2.483  0.00  0.00    +0.033 C 
ATOM     16  C   UNL     1      -6.861  -0.549  -0.209  0.00  0.00    +0.055 C 
ENDBRANCH   4  10
BRANCH   5  17
ATOM     17  C   UNL     1       2.136  -0.151  -0.033  0.00  0.00    +0.074 C 
ATOM     18  C   UNL     1       3.169   0.763   0.179  0.00  0.00    +0.033 C 
ATOM     19  C   UNL     1       2.433  -1.481  -0.330  0.00  0.00    +0.046 C 
ATOM     20  C   UNL     1       4.497   0.346   0.094  0.00  0.00    +0.180 C 
ATOM     21  C   UNL     1       3.761  -1.898  -0.415  0.00  0.00    +0.169 C 
ATOM     22  C   UNL     1       4.793  -0.984  -0.203  0.00  0.00    +0.190 C 
BRANCH  20  25
ATOM     23  O   UNL     1       5.973   1.454   1.476  0.00  0.00    -0.126 OA
ATOM     24  O   UNL     1       5.985   1.936  -0.665  0.00  0.00    -0.126 OA
ATOM     25  N   UNL     1       5.536   1.292   0.313  0.00  0.00    +0.061 N 
ENDBRANCH  20  25
BRANCH  21  26
ATOM     26  O   UNL     1       4.037  -3.200  -0.706  0.00  0.00    -0.503 OA
ATOM     27  H   UNL     1       3.337  -3.806  -0.847  0.00  0.00    +0.292 HD
ENDBRANCH  21  26
BRANCH  22  28
ATOM     28  O   UNL     1       6.089  -1.403  -0.290  0.00  0.00    -0.502 OA
ATOM     29  H   UNL     1       6.789  -0.795  -0.149  0.00  0.00    +0.292 HD
ENDBRANCH  22  28
ENDBRANCH   5  17
TORSDOF 5
