REMARK  Name = 135508389
REMARK  4 active torsions:
REMARK  status: ('A' for Active; 'I' for Inactive)
REMARK    1  A    between atoms: N_2  and  C_9
REMARK    2  A    between atoms: C_5  and  C_15
REMARK    3  A    between atoms: C_16  and  O_21
REMARK    4  A    between atoms: C_20  and  O_23
REMARK                            x       y       z     vdW  Elec       q    Type
REMARK                         _______ _______ _______ _____ _____    ______ ____
ROOT
ATOM      1  S   UNL     1      -0.607  -1.309   0.602  0.00  0.00    -0.030 S 
ATOM      2  N   UNL     1       2.037  -0.966   0.460  0.00  0.00    -0.291 N 
ATOM      3  N   UNL     1      -0.748   0.934  -0.628  0.00  0.00    -0.139 NA
ATOM      4  N   UNL     1       0.603   0.681  -0.467  0.00  0.00    -0.125 NA
ATOM      5  C   UNL     1      -1.489  -0.025  -0.116  0.00  0.00    +0.138 A 
ATOM      6  C   UNL     1       0.815  -0.456   0.160  0.00  0.00    +0.186 A 
ATOM      7  H   UNL     1       1.987  -1.829   0.931  0.00  0.00    +0.154 HD
ENDROOT
BRANCH   2   9
ATOM      8  F   UNL     1       7.274   0.743  -0.388  0.00  0.00    -0.204 F 
ATOM      9  C   UNL     1       3.394  -0.523   0.240  0.00  0.00    +0.050 C 
ATOM     10  C   UNL     1       4.462  -1.301   0.685  0.00  0.00    +0.017 C 
ATOM     11  C   UNL     1       3.636   0.684  -0.416  0.00  0.00    +0.017 C 
ATOM     12  C   UNL     1       5.773  -0.874   0.473  0.00  0.00    +0.031 C 
ATOM     13  C   UNL     1       4.947   1.112  -0.628  0.00  0.00    +0.031 C 
ATOM     14  C   UNL     1       6.015   0.333  -0.183  0.00  0.00    +0.140 C 
ENDBRANCH   2   9
BRANCH   5  15
ATOM     15  C   UNL     1      -2.933  -0.068  -0.117  0.00  0.00    +0.060 C 
ATOM     16  C   UNL     1      -3.680   0.933   0.505  0.00  0.00    +0.139 C 
ATOM     17  C   UNL     1      -3.580  -1.129  -0.751  0.00  0.00    +0.008 C 
ATOM     18  C   UNL     1      -5.073   0.873   0.493  0.00  0.00    +0.073 C 
ATOM     19  C   UNL     1      -4.973  -1.189  -0.763  0.00  0.00    +0.037 C 
ATOM     20  C   UNL     1      -5.720  -0.188  -0.141  0.00  0.00    +0.137 C 
BRANCH  16  21
ATOM     21  O   UNL     1      -3.073   1.982   1.132  0.00  0.00    -0.505 OA
ATOM     22  H   UNL     1      -2.138   2.039   1.150  0.00  0.00    +0.292 HD
ENDBRANCH  16  21
BRANCH  20  23
ATOM     23  O   UNL     1      -7.080  -0.247  -0.152  0.00  0.00    -0.505 OA
ATOM     24  H   UNL     1      -7.582   0.425   0.265  0.00  0.00    +0.292 HD
ENDBRANCH  20  23
ENDBRANCH   5  15
TORSDOF 4
