135554415
  -OEChem-03292013293D

 36 37  0     0  0  0  0  0  0999 V2000
   -4.3002   -2.2457    1.2586 Cl  0  0  0  0  0  0  0  0  0  0  0  0
   -8.6903    0.7987    0.6078 Cl  0  0  0  0  0  0  0  0  0  0  0  0
    5.3735   -2.9910   -0.1525 Cl  0  0  0  0  0  0  0  0  0  0  0  0
    2.1948    1.9619    1.0933 O   0  0  0  0  0  0  0  0  0  0  0  0
   -2.0952   -0.0980   -0.1571 N   0  0  0  0  0  0  0  0  0  0  0  0
    1.3954    0.0971   -0.0447 N   0  0  0  0  0  0  0  0  0  0  0  0
   -0.8236   -0.4847   -0.3920 N   0  0  0  0  0  0  0  0  0  0  0  0
    3.9558   -0.8560    0.1484 N   0  0  0  0  0  0  0  0  0  0  0  0
    6.1014    0.9283   -0.1327 N   0  0  0  0  0  0  0  0  0  0  0  0
    4.6014    2.7454    0.1714 N   0  0  0  0  0  0  0  0  0  0  0  0
    7.5701   -0.9091   -0.4335 N   0  0  0  0  0  0  0  0  0  0  0  0
   -4.4922   -0.2911   -0.6311 C   0  0  0  0  0  0  0  0  0  0  0  0
   -3.0922   -0.6230   -1.0745 C   0  0  0  0  0  0  0  0  0  0  0  0
   -5.1104   -0.9760    0.4153 C   0  0  0  0  0  0  0  0  0  0  0  0
   -5.1722    0.7309   -1.2937 C   0  0  0  0  0  0  0  0  0  0  0  0
   -6.4086   -0.6390    0.7986 C   0  0  0  0  0  0  0  0  0  0  0  0
   -6.4704    1.0677   -0.9104 C   0  0  0  0  0  0  0  0  0  0  0  0
   -7.0886    0.3827    0.1358 C   0  0  0  0  0  0  0  0  0  0  0  0
    3.7878    0.4791    0.2220 C   0  0  0  0  0  0  0  0  0  0  0  0
    4.8416    1.3556    0.0839 C   0  0  0  0  0  0  0  0  0  0  0  0
    2.3921    0.9280    0.4604 C   0  0  0  0  0  0  0  0  0  0  0  0
    6.2694   -0.4070   -0.2063 C   0  0  0  0  0  0  0  0  0  0  0  0
    0.0452    0.3289    0.1015 C   0  0  0  0  0  0  0  0  0  0  0  0
    5.2155   -1.2834   -0.0683 C   0  0  0  0  0  0  0  0  0  0  0  0
   -2.9913   -1.7104   -1.1826 H   0  0  0  0  0  0  0  0  0  0  0  0
   -2.9098   -0.2165   -2.0779 H   0  0  0  0  0  0  0  0  0  0  0  0
   -4.7046    1.2767   -2.1089 H   0  0  0  0  0  0  0  0  0  0  0  0
   -2.1786    0.9163   -0.0861 H   0  0  0  0  0  0  0  0  0  0  0  0
   -6.8923   -1.1721    1.6144 H   0  0  0  0  0  0  0  0  0  0  0  0
   -6.9880    1.8664   -1.4355 H   0  0  0  0  0  0  0  0  0  0  0  0
    1.6712   -0.7396   -0.5520 H   0  0  0  0  0  0  0  0  0  0  0  0
   -0.1973    1.2472    0.6648 H   0  0  0  0  0  0  0  0  0  0  0  0
    3.7022    3.1029   -0.1263 H   0  0  0  0  0  0  0  0  0  0  0  0
    5.4052    3.3529    0.0686 H   0  0  0  0  0  0  0  0  0  0  0  0
    8.3193   -0.2340   -0.5217 H   0  0  0  0  0  0  0  0  0  0  0  0
    7.7944   -1.8364   -0.0944 H   0  0  0  0  0  0  0  0  0  0  0  0
  1 14  1  0  0  0  0
  2 18  1  0  0  0  0
  3 24  1  0  0  0  0
  4 21  2  0  0  0  0
  5  7  1  0  0  0  0
  5 13  1  0  0  0  0
  5 28  1  0  0  0  0
  6 21  1  0  0  0  0
  6 23  1  0  0  0  0
  6 31  1  0  0  0  0
  7 23  2  0  0  0  0
  8 19  1  0  0  0  0
  8 24  2  0  0  0  0
  9 20  1  0  0  0  0
  9 22  2  0  0  0  0
 10 20  1  0  0  0  0
 10 33  1  0  0  0  0
 10 34  1  0  0  0  0
 11 22  1  0  0  0  0
 11 35  1  0  0  0  0
 11 36  1  0  0  0  0
 12 13  1  0  0  0  0
 12 14  2  0  0  0  0
 12 15  1  0  0  0  0
 13 25  1  0  0  0  0
 13 26  1  0  0  0  0
 14 16  1  0  0  0  0
 15 17  2  0  0  0  0
 15 27  1  0  0  0  0
 16 18  2  0  0  0  0
 16 29  1  0  0  0  0
 17 18  1  0  0  0  0
 17 30  1  0  0  0  0
 19 20  2  0  0  0  0
 19 21  1  0  0  0  0
 22 24  1  0  0  0  0
 23 32  1  0  0  0  0
M  END
> <PUBCHEM_COMPOUND_CID>
135554415

> <PUBCHEM_CONFORMER_RMSD>
1

> <PUBCHEM_CONFORMER_DIVERSEORDER>
1
172
170
71
110
23
143
73
95
217
24
108
88
4
208
145
46
122
8
140
106
155
53
70
86
193
125
131
83
120
35
19
157
135
72
87
62
59
117
18
97
98
84
207
184
66
158
189
74
156
34
68
174
12
216
79
162
57
171
164
179
50
28
206
175
6
136
153
100
52
32
115
129
96
176
14
38
3
182
201
56
205
75
190
147
43
194
29
78
21
80
185
69
107
124
139
17
212
58
37
101
30
203
9
33
160
199
178
42
142
26
133
104
7
134
126
197
183
188
25
204
146
47
123
61
54
173
214
77
137
65
141
82
198
111
36
121
15
149
92
215
94
2
218
154
85
192
67
144
138
169
13
60
187
45
105
76
22
181
148
44
209
159
177
180
150
81
93
191
5
112
63
49
91
200
31
213
51
116
102
11
202
195
161
152
132
90
163
16
127
39
114
20
41
166
113
119
109
167
99
211
168
130
55
118
64
151
48
10
165
186
210
196
89
40
128
27
103

> <PUBCHEM_MMFF94_PARTIAL_CHARGES>
34
1 -0.18
10 -0.9
11 -0.9
12 -0.14
13 0.41
14 0.18
15 -0.15
16 -0.15
17 -0.15
18 0.18
19 0.4
2 -0.18
20 0.41
21 0.54
22 0.41
23 0.45
24 0.49
27 0.15
28 0.36
29 0.15
3 -0.18
30 0.15
31 0.37
32 0.06
33 0.4
34 0.4
35 0.4
36 0.4
4 -0.57
5 -0.58
6 -0.49
7 -0.5
8 -0.62
9 -0.62

> <PUBCHEM_EFFECTIVE_ROTOR_COUNT>
6

> <PUBCHEM_PHARMACOPHORE_FEATURES>
10
1 10 cation
1 10 donor
1 11 donor
1 4 acceptor
1 5 donor
1 6 donor
1 8 acceptor
3 9 11 22 cation
6 12 14 15 16 17 18 rings
6 8 9 19 20 22 24 rings

> <PUBCHEM_HEAVY_ATOM_COUNT>
24

> <PUBCHEM_ATOM_DEF_STEREO_COUNT>
0

> <PUBCHEM_ATOM_UDEF_STEREO_COUNT>
0

> <PUBCHEM_BOND_DEF_STEREO_COUNT>
1

> <PUBCHEM_BOND_UDEF_STEREO_COUNT>
0

> <PUBCHEM_ISOTOPIC_ATOM_COUNT>
0

> <PUBCHEM_COMPONENT_COUNT>
1

> <PUBCHEM_CACTVS_TAUTO_COUNT>
-1

> <PUBCHEM_CONFORMER_ID>
0814656F00000001

> <PUBCHEM_MMFF94_ENERGY>
71.9287

> <PUBCHEM_FEATURE_SELFOVERLAP>
50.747

> <PUBCHEM_SHAPE_FINGERPRINT>
10299344 5 18273777151044738167
11719270 70 17131834248297685214
11724838 91 11241972581736826536
12516196 113 8646773296354061743
13533116 47 18272367560269393834
13914758 101 17203613645220321347
14341114 176 18333449850634674413
14933364 13 18261110785730321797
15183329 4 17561084713310526301
15348495 7 18263082265987066315
15352257 5 18260267464422597403
15461852 350 18411409636734698055
17844677 252 18260833717295267317
20281389 69 18411697691037361461
21033648 29 18265884925157828625
21150785 3 16515689935594112692
21267235 1 18272374140734154878
220451 1 18131068272473796958
22224240 67 8286196146037481460
2303208 19 18113623386817772275
23035841 295 17676202477069085659
23081809 10 17774995825986717149
23559900 14 18335697278092401241
28498 318 18131634452421797430
29717793 49 17632861936589938452
3004659 81 18409726262483033936
3014965 18 18341608192220588190
328311 84 18333733511591268631
34797466 226 16877949343180982142
4073 2 18041564749081829210
439807 62 18261675879373759034
46194498 28 17967531281921362564
59755656 215 18187925041180639387
59755656 520 18411694409961987511

> <PUBCHEM_SHAPE_MULTIPOLES>
458.78
26
2.16
0.97
11.02
0.59
-0.03
0.35
0.22
-3.21
0.39
1.27
0.03
1.67

> <PUBCHEM_SHAPE_SELFOVERLAP>
945.316

> <PUBCHEM_SHAPE_VOLUME>
264.3

> <PUBCHEM_COORDINATE_TYPE>
2
5
10

$$$$
