REMARK  Name = 135508376
REMARK  8 active torsions:
REMARK  status: ('A' for Active; 'I' for Inactive)
REMARK    1  A    between atoms: N_3  and  C_17
REMARK    2  A    between atoms: N_4  and  C_21
REMARK    3  A    between atoms: C_6  and  O_15
REMARK    4  A    between atoms: C_8  and  C_11
REMARK    5  A    between atoms: C_17  and  C_18
REMARK    6  A    between atoms: C_18  and  C_19
REMARK    7  A    between atoms: C_21  and  C_22
REMARK    8  A    between atoms: C_22  and  C_23
REMARK                            x       y       z     vdW  Elec       q    Type
REMARK                         _______ _______ _______ _____ _____    ______ ____
ROOT
ATOM      1  O   UNL     1       0.487   2.026   1.214  0.00  0.00    -0.246 OA
ATOM      2  O   UNL     1       2.030  -2.167  -0.056  0.00  0.00    -0.267 OA
ATOM      3  N   UNL     1      -1.040   0.358   0.680  0.00  0.00    -0.252 N 
ATOM      4  N   UNL     1       1.297  -0.053   0.596  0.00  0.00    -0.249 N 
ATOM      5  C   UNL     1       0.257   0.866   0.856  0.00  0.00    +0.336 A 
ATOM      6  C   UNL     1      -1.291  -0.948   0.274  0.00  0.00    +0.213 A 
ATOM      7  C   UNL     1       1.119  -1.373   0.178  0.00  0.00    +0.271 A 
ATOM      8  C   UNL     1      -0.295  -1.816   0.013  0.00  0.00    +0.138 A 
ENDROOT
BRANCH   8  11
ATOM      9  N   UNL     1      -1.935  -3.569  -0.552  0.00  0.00    -0.343 N 
ATOM     10  N   UNL     1       0.352  -4.031  -0.674  0.00  0.00    -0.285 NA
ATOM     11  C   UNL     1      -0.617  -3.186  -0.419  0.00  0.00    +0.126 C 
ATOM     12  H   UNL     1      -2.154  -4.485  -0.841  0.00  0.00    +0.144 HD
ATOM     13  H   UNL     1      -2.656  -2.928  -0.359  0.00  0.00    +0.144 HD
ATOM     14  H   UNL     1       0.141  -4.948  -0.964  0.00  0.00    +0.188 HD
ENDBRANCH   8  11
BRANCH   6  15
ATOM     15  O   UNL     1      -2.609  -1.359   0.137  0.00  0.00    -0.493 OA
ATOM     16  H   UNL     1      -3.307  -0.760   0.318  0.00  0.00    +0.294 HD
ENDBRANCH   6  15
BRANCH   3  17
ATOM     17  C   UNL     1      -2.161   1.272   0.919  0.00  0.00    +0.113 C 
BRANCH  17  18
ATOM     18  C   UNL     1      -2.748   1.823  -0.376  0.00  0.00    +0.025 C 
BRANCH  18  19
ATOM     19  C   UNL     1      -3.902   2.799  -0.130  0.00  0.00    +0.002 C 
ATOM     20  C   UNL     1      -4.427   3.378  -1.434  0.00  0.00    +0.000 C 
ENDBRANCH  18  19
ENDBRANCH  17  18
ENDBRANCH   3  17
BRANCH   4  21
ATOM     21  C   UNL     1       2.668   0.414   0.779  0.00  0.00    +0.114 C 
BRANCH  21  22
ATOM     22  C   UNL     1       3.150   1.274  -0.384  0.00  0.00    +0.025 C 
BRANCH  22  23
ATOM     23  C   UNL     1       4.596   1.744  -0.209  0.00  0.00    +0.002 C 
ATOM     24  C   UNL     1       5.068   2.548  -1.410  0.00  0.00    +0.000 C 
ENDBRANCH  22  23
ENDBRANCH  21  22
ENDBRANCH   4  21
TORSDOF 8
