REMARK  Name = 135565220
REMARK  7 active torsions:
REMARK  status: ('A' for Active; 'I' for Inactive)
REMARK    1  A    between atoms: C_1  and  S_22
REMARK    2  A    between atoms: C_4  and  C_12
REMARK    3  A    between atoms: C_5  and  O_31
REMARK    4  A    between atoms: C_14  and  C_19
REMARK    5  A    between atoms: C_19  and  C_20
REMARK    6  A    between atoms: S_22  and  N_25
REMARK    7  A    between atoms: O_31  and  C_32
REMARK                            x       y       z     vdW  Elec       q    Type
REMARK                         _______ _______ _______ _____ _____    ______ ____
ROOT
ATOM      1  C   UNL     1      -2.726  -0.030  -1.193  0.00  0.00    +0.122 C 
ATOM      2  C   UNL     1      -1.466   0.510  -0.939  0.00  0.00    +0.026 C 
ATOM      3  C   UNL     1      -2.854  -1.380  -1.520  0.00  0.00    +0.023 C 
ATOM      4  C   UNL     1      -0.332  -0.299  -1.013  0.00  0.00    +0.069 C 
ATOM      5  C   UNL     1      -0.459  -1.649  -1.340  0.00  0.00    +0.141 C 
ATOM      6  C   UNL     1      -1.720  -2.190  -1.594  0.00  0.00    +0.038 C 
ENDROOT
BRANCH   4  12
ATOM      7  O   UNL     1       2.455   3.562  -1.115  0.00  0.00    -0.272 OA
ATOM      8  N   UNL     1       3.122   0.214  -0.024  0.00  0.00    -0.173 N 
ATOM      9  N   UNL     1       1.145   1.657  -1.044  0.00  0.00    -0.266 N 
ATOM     10  N   UNL     1       1.951  -0.442  -0.229  0.00  0.00    -0.160 NA
ATOM     11  N   UNL     1       5.232   0.605   0.554  0.00  0.00    -0.396 NA
ATOM     12  C   UNL     1       1.001   0.296  -0.738  0.00  0.00    +0.155 C 
ATOM     13  C   UNL     1       3.355   1.539  -0.299  0.00  0.00    +0.222 C 
ATOM     14  C   UNL     1       4.281  -0.301   0.487  0.00  0.00    +0.179 C 
ATOM     15  C   UNL     1       4.663   1.756   0.065  0.00  0.00    +0.117 C 
ATOM     16  C   UNL     1       2.326   2.371  -0.849  0.00  0.00    +0.254 C 
ATOM     17  C   UNL     1       5.448   2.998  -0.010  0.00  0.00    +0.064 C 
ATOM     18  H   UNL     1       0.369   2.134  -1.417  0.00  0.00    +0.156 HD
BRANCH  14  19
ATOM     19  C   UNL     1       4.397  -1.715   0.899  0.00  0.00    +0.077 C 
BRANCH  19  20
ATOM     20  C   UNL     1       3.734  -1.994   2.261  0.00  0.00    +0.009 C 
ATOM     21  C   UNL     1       4.371  -1.202   3.392  0.00  0.00    +0.000 C 
ENDBRANCH  19  20
ENDBRANCH  14  19
ENDBRANCH   4  12
BRANCH   1  22
ATOM     22  S   UNL     1      -4.161   0.994  -1.100  0.00  0.00    +0.063 S 
ATOM     23  O   UNL     1      -3.744   2.362  -1.313  0.00  0.00    -0.153 OA
ATOM     24  O   UNL     1      -5.193   0.391  -1.916  0.00  0.00    -0.153 OA
BRANCH  22  25
ATOM     25  N   UNL     1      -4.569   0.785   0.552  0.00  0.00    -0.156 NA
ATOM     26  C   UNL     1      -4.862  -0.619   0.964  0.00  0.00    +0.096 C 
ATOM     27  C   UNL     1      -3.670   1.479   1.522  0.00  0.00    +0.096 C 
ATOM     28  C   UNL     1      -5.536  -0.621   2.332  0.00  0.00    +0.019 C 
ATOM     29  C   UNL     1      -4.326   1.506   2.899  0.00  0.00    +0.019 C 
ATOM     30  C   UNL     1      -4.683   0.100   3.372  0.00  0.00    +0.003 C 
ENDBRANCH  22  25
ENDBRANCH   1  22
BRANCH   5  31
ATOM     31  O   UNL     1       0.636  -2.457  -1.418  0.00  0.00    -0.475 OA
BRANCH  31  32
ATOM     32  C   UNL     1       0.448  -3.835  -1.104  0.00  0.00    +0.206 C 
ATOM     33  C   UNL     1       1.738  -4.393  -0.542  0.00  0.00    +0.051 C 
ENDBRANCH  31  32
ENDBRANCH   5  31
TORSDOF 7
