135596594
  -OEChem-03292013293D

 36 38  0     1  0  0  0  0  0999 V2000
   -2.3430    0.2856    0.7952 O   0  0  0  0  0  0  0  0  0  0  0  0
   -4.1309   -1.0873   -1.9981 O   0  0  0  0  0  0  0  0  0  0  0  0
   -4.8166    1.2950    1.6868 O   0  0  0  0  0  0  0  0  0  0  0  0
    4.3940    1.4243   -0.2549 O   0  0  0  0  0  0  0  0  0  0  0  0
   -0.0280    0.2208    0.0384 N   0  3  0  0  0  0  0  0  0  0  0  0
    1.3473    1.8526   -0.3010 N   0  0  0  0  0  0  0  0  0  0  0  0
    1.5731   -1.6131    0.3813 N   0  0  0  0  0  0  0  0  0  0  0  0
    3.8083   -0.7666    0.1861 N   0  0  0  0  0  0  0  0  0  0  0  0
    3.4176   -3.0364    0.6391 N   0  0  0  0  0  0  0  0  0  0  0  0
   -1.3184   -0.5402    0.2033 C   0  0  2  0  0  0  0  0  0  0  0  0
   -1.8842   -1.0580   -1.1126 C   0  0  0  0  0  0  0  0  0  0  0  0
   -3.3636   -1.1117   -0.8129 C   0  0  1  0  0  0  0  0  0  0  0  0
   -3.5465    0.1455    0.0215 C   0  0  1  0  0  0  0  0  0  0  0  0
   -4.7447    0.0841    0.9517 C   0  0  0  0  0  0  0  0  0  0  0  0
    1.2392   -0.3203    0.1301 C   0  0  0  0  0  0  0  0  0  0  0  0
    0.0526    1.5302   -0.2215 C   0  0  0  0  0  0  0  0  0  0  0  0
    2.1080    0.7287   -0.0878 C   0  0  0  0  0  0  0  0  0  0  0  0
    3.5185    0.5813   -0.0768 C   0  0  0  0  0  0  0  0  0  0  0  0
    1.8450    3.1861   -0.5697 C   0  0  0  0  0  0  0  0  0  0  0  0
    2.8723   -1.8006    0.4018 C   0  0  0  0  0  0  0  0  0  0  0  0
   -1.1364   -1.3647    0.9028 H   0  0  0  0  0  0  0  0  0  0  0  0
   -1.4652   -2.0270   -1.4004 H   0  0  0  0  0  0  0  0  0  0  0  0
   -1.6771   -0.3635   -1.9364 H   0  0  0  0  0  0  0  0  0  0  0  0
   -3.6070   -2.0138   -0.2389 H   0  0  0  0  0  0  0  0  0  0  0  0
   -3.6258    1.0371   -0.6139 H   0  0  0  0  0  0  0  0  0  0  0  0
   -4.6398   -0.7345    1.6714 H   0  0  0  0  0  0  0  0  0  0  0  0
   -5.6745   -0.0440    0.3891 H   0  0  0  0  0  0  0  0  0  0  0  0
   -0.7787    2.2055   -0.3491 H   0  0  0  0  0  0  0  0  0  0  0  0
   -3.8819   -1.8666   -2.5237 H   0  0  0  0  0  0  0  0  0  0  0  0
    2.4604    3.5198    0.2702 H   0  0  0  0  0  0  0  0  0  0  0  0
    1.0087    3.8793   -0.6958 H   0  0  0  0  0  0  0  0  0  0  0  0
    2.4385    3.1736   -1.4878 H   0  0  0  0  0  0  0  0  0  0  0  0
   -5.5899    1.2287    2.2726 H   0  0  0  0  0  0  0  0  0  0  0  0
    4.7911   -1.0222    0.2242 H   0  0  0  0  0  0  0  0  0  0  0  0
    2.8298   -3.8459    0.8064 H   0  0  0  0  0  0  0  0  0  0  0  0
    4.4216   -3.1779    0.6545 H   0  0  0  0  0  0  0  0  0  0  0  0
  1 10  1  0  0  0  0
  1 13  1  0  0  0  0
  2 12  1  0  0  0  0
  2 29  1  0  0  0  0
  3 14  1  0  0  0  0
  3 33  1  0  0  0  0
  4 18  2  0  0  0  0
  5 10  1  0  0  0  0
  5 15  1  0  0  0  0
  5 16  2  0  0  0  0
  6 16  1  0  0  0  0
  6 17  1  0  0  0  0
  6 19  1  0  0  0  0
  7 15  1  0  0  0  0
  7 20  2  0  0  0  0
  8 18  1  0  0  0  0
  8 20  1  0  0  0  0
  8 34  1  0  0  0  0
  9 20  1  0  0  0  0
  9 35  1  0  0  0  0
  9 36  1  0  0  0  0
 10 11  1  0  0  0  0
 10 21  1  0  0  0  0
 11 12  1  0  0  0  0
 11 22  1  0  0  0  0
 11 23  1  0  0  0  0
 12 13  1  0  0  0  0
 12 24  1  0  0  0  0
 13 14  1  0  0  0  0
 13 25  1  0  0  0  0
 14 26  1  0  0  0  0
 14 27  1  0  0  0  0
 15 17  2  0  0  0  0
 16 28  1  0  0  0  0
 17 18  1  0  0  0  0
 19 30  1  0  0  0  0
 19 31  1  0  0  0  0
 19 32  1  0  0  0  0
M  CHG  1   5   1
M  END
> <PUBCHEM_COMPOUND_CID>
135596594

> <PUBCHEM_CONFORMER_RMSD>
0.6

> <PUBCHEM_CONFORMER_DIVERSEORDER>
1
14
17
10
7
18
12
3
16
2
4
6
11
13
15
8
5
9

> <PUBCHEM_MMFF94_PARTIAL_CHARGES>
25
1 -0.56
10 0.79
12 0.28
13 0.28
14 0.28
15 0.49
16 0.65
17 0.28
18 0.7
19 0.51
2 -0.68
20 0.56
28 0.15
29 0.4
3 -0.68
33 0.4
34 0.37
35 0.4
36 0.4
4 -0.57
5 -0.76
6 -0.76
7 -0.59
8 -0.49
9 -0.85

> <PUBCHEM_EFFECTIVE_ROTOR_COUNT>
3

> <PUBCHEM_PHARMACOPHORE_FEATURES>
12
1 1 acceptor
1 2 acceptor
1 2 donor
1 3 acceptor
1 3 donor
1 4 acceptor
1 8 donor
1 9 donor
3 5 6 16 cation
5 1 10 11 12 13 rings
5 5 6 15 16 17 rings
6 7 8 15 17 18 20 rings

> <PUBCHEM_HEAVY_ATOM_COUNT>
20

> <PUBCHEM_ATOM_DEF_STEREO_COUNT>
3

> <PUBCHEM_ATOM_UDEF_STEREO_COUNT>
0

> <PUBCHEM_BOND_DEF_STEREO_COUNT>
0

> <PUBCHEM_BOND_UDEF_STEREO_COUNT>
0

> <PUBCHEM_ISOTOPIC_ATOM_COUNT>
0

> <PUBCHEM_COMPONENT_COUNT>
1

> <PUBCHEM_CACTVS_TAUTO_COUNT>
-1

> <PUBCHEM_CONFORMER_ID>
08150A3200000001

> <PUBCHEM_MMFF94_ENERGY>
42.5036

> <PUBCHEM_FEATURE_SELFOVERLAP>
61.076

> <PUBCHEM_SHAPE_FINGERPRINT>
10062212 137 18131910468912091935
10967382 1 18335701667722829904
11471102 20 18334287708438186212
11578080 2 17771309115985813905
11796584 16 15913065200385684428
12107183 9 18052545361634377761
12236239 1 18202285822949193003
12553582 1 18263639563685164762
12670546 56 18060411447970969985
13140716 1 18118968241942663536
13167823 11 18201439211722692247
13583140 156 18334303089243607001
13760787 5 18335136492485966398
14178342 30 18196355138627983762
14251717 144 18336255834246838326
14576447 43 18198610215259135759
14790565 3 18118978116173424964
15375462 189 18413388730660539896
15442244 35 18339360751693245705
15806764 133 16732703844298428429
15842332 3 18201437038690578887
16945 1 18334573594473014156
17818456 19 17773889588297997265
1813 80 18267033756058653254
18186145 218 17095521755914518675
18785283 64 17606136201294339556
200 152 18271798082002443679
20281475 54 18341604910765502991
20645477 70 18187630397676086735
20739085 24 18265065651624467520
21065201 7 16271931527673301911
21267235 1 18337401439542866650
2255824 54 18337109098282994988
23557571 272 14979962505990260923
23598291 2 18271519819297637159
2748010 2 18191572070068807836
2838139 119 15358838884368669958
474 4 18192149510730559544
5104073 3 18412825802256036139
543358 83 18411422808365620476
573450 72 17703784813005458735
602551 16 15840981303567225911
6049 1 17385439925823228853
633830 44 18196105540814239052
7615 1 18130781304814078621
77492 1 18130787888735166783
8272917 22 18409175410824750974
84936 182 17912644901743572816
9981440 41 17476066299448327249

> <PUBCHEM_SHAPE_MULTIPOLES>
363.21
9.15
2.55
1.1
5.92
0.37
0.16
-0.73
-1.21
-3.14
0.05
1.69
-0.11
-1.84

> <PUBCHEM_SHAPE_SELFOVERLAP>
783.447

> <PUBCHEM_SHAPE_VOLUME>
199.4

> <PUBCHEM_COORDINATE_TYPE>
2
5
10

$$$$
