REMARK  Name = 135565210
REMARK  7 active torsions:
REMARK  status: ('A' for Active; 'I' for Inactive)
REMARK    1  A    between atoms: C_1  and  S_22
REMARK    2  A    between atoms: C_3  and  C_12
REMARK    3  A    between atoms: C_5  and  O_33
REMARK    4  A    between atoms: C_14  and  C_19
REMARK    5  A    between atoms: C_19  and  C_20
REMARK    6  A    between atoms: S_22  and  N_25
REMARK    7  A    between atoms: O_33  and  C_34
REMARK                            x       y       z     vdW  Elec       q    Type
REMARK                         _______ _______ _______ _____ _____    ______ ____
ROOT
ATOM      1  C   UNL     1      -2.559  -0.855   1.001  0.00  0.00    +0.122 C 
ATOM      2  C   UNL     1      -1.371  -0.129   0.908  0.00  0.00    +0.026 C 
ATOM      3  C   UNL     1      -0.272  -0.673   0.243  0.00  0.00    +0.069 C 
ATOM      4  C   UNL     1      -2.647  -2.124   0.430  0.00  0.00    +0.023 C 
ATOM      5  C   UNL     1      -0.360  -1.942  -0.328  0.00  0.00    +0.141 C 
ATOM      6  C   UNL     1      -1.548  -2.668  -0.235  0.00  0.00    +0.038 C 
ENDROOT
BRANCH   3  12
ATOM      7  O   UNL     1       1.886   3.320  -1.203  0.00  0.00    -0.272 OA
ATOM      8  N   UNL     1       3.166   0.454   0.525  0.00  0.00    -0.173 N 
ATOM      9  N   UNL     1       0.887   1.362  -0.480  0.00  0.00    -0.266 N 
ATOM     10  N   UNL     1       2.087  -0.358   0.667  0.00  0.00    -0.160 NA
ATOM     11  N   UNL     1       5.253   1.210   0.654  0.00  0.00    -0.396 NA
ATOM     12  C   UNL     1       0.984   0.117   0.156  0.00  0.00    +0.155 C 
ATOM     13  C   UNL     1       3.167   1.683  -0.087  0.00  0.00    +0.222 C 
ATOM     14  C   UNL     1       4.443   0.216   0.953  0.00  0.00    +0.179 C 
ATOM     15  C   UNL     1       4.464   2.129   0.005  0.00  0.00    +0.117 C 
ATOM     16  C   UNL     1       1.967   2.229  -0.647  0.00  0.00    +0.254 C 
ATOM     17  C   UNL     1       5.043   3.390  -0.483  0.00  0.00    +0.064 C 
ATOM     18  H   UNL     1       0.009   1.640  -0.827  0.00  0.00    +0.156 HD
BRANCH  14  19
ATOM     19  C   UNL     1       4.816  -1.025   1.662  0.00  0.00    +0.077 C 
BRANCH  19  20
ATOM     20  C   UNL     1       5.556  -2.028   0.757  0.00  0.00    +0.009 C 
ATOM     21  C   UNL     1       4.706  -2.487  -0.417  0.00  0.00    +0.000 C 
ENDBRANCH  19  20
ENDBRANCH  14  19
ENDBRANCH   3  12
BRANCH   1  22
ATOM     22  S   UNL     1      -3.950  -0.168   1.843  0.00  0.00    +0.063 S 
ATOM     23  O   UNL     1      -4.787  -1.264   2.283  0.00  0.00    -0.153 OA
ATOM     24  O   UNL     1      -3.460   0.819   2.781  0.00  0.00    -0.153 OA
BRANCH  22  25
ATOM     25  N   UNL     1      -4.720   0.636   0.542  0.00  0.00    -0.160 NA
ATOM     26  N   UNL     1      -5.450   1.621  -2.058  0.00  0.00    +0.386 N 
ATOM     27  C   UNL     1      -5.395  -0.251  -0.450  0.00  0.00    +0.072 C 
ATOM     28  C   UNL     1      -3.908   1.690  -0.132  0.00  0.00    +0.072 C 
ATOM     29  C   UNL     1      -4.799   2.491  -1.077  0.00  0.00    -0.062 C 
ATOM     30  C   UNL     1      -6.251   0.595  -1.388  0.00  0.00    -0.062 C 
ATOM     31  H   UNL     1      -4.736   1.168  -2.629  0.00  0.00    -0.084 HD
ATOM     32  H   UNL     1      -6.064   2.188  -2.642  0.00  0.00    -0.084 HD
ENDBRANCH  22  25
ENDBRANCH   1  22
BRANCH   5  33
ATOM     33  O   UNL     1       0.702  -2.490  -0.983  0.00  0.00    -0.475 OA
BRANCH  33  34
ATOM     34  C   UNL     1       0.514  -2.821  -2.358  0.00  0.00    +0.206 C 
ATOM     35  C   UNL     1       1.835  -2.680  -3.084  0.00  0.00    +0.051 C 
ENDBRANCH  33  34
ENDBRANCH   5  33
TORSDOF 7
