REMARK  Name = 135538020
REMARK  6 active torsions:
REMARK  status: ('A' for Active; 'I' for Inactive)
REMARK    1  A    between atoms: N_2  and  C_15
REMARK    2  A    between atoms: C_15  and  C_16
REMARK    3  A    between atoms: C_16  and  S_17
REMARK    4  A    between atoms: S_17  and  C_18
REMARK    5  A    between atoms: C_18  and  C_19
REMARK    6  A    between atoms: C_19  and  O_20
REMARK                            x       y       z     vdW  Elec       q    Type
REMARK                         _______ _______ _______ _____ _____    ______ ____
ROOT
ATOM      1  O   UNL     1       1.439   2.465  -0.162  0.00  0.00    -0.272 OA
ATOM      2  N   UNL     1      -0.113  -0.032  -0.903  0.00  0.00    -0.232 NA
ATOM      3  N   UNL     1       0.725  -2.082  -0.641  0.00  0.00    -0.194 NA
ATOM      4  N   UNL     1       3.108   0.989   0.472  0.00  0.00    -0.245 N 
ATOM      5  N   UNL     1       2.914  -1.396   0.294  0.00  0.00    -0.323 NA
ATOM      6  N   UNL     1       4.862  -0.410   1.140  0.00  0.00    -0.320 N 
ATOM      7  C   UNL     1       1.136   0.130  -0.380  0.00  0.00    +0.235 C 
ATOM      8  C   UNL     1       1.633  -1.143  -0.227  0.00  0.00    +0.087 C 
ATOM      9  C   UNL     1      -0.315  -1.380  -1.042  0.00  0.00    +0.214 C 
ATOM     10  C   UNL     1       1.852   1.317  -0.036  0.00  0.00    +0.259 C 
ATOM     11  C   UNL     1       3.595  -0.322   0.620  0.00  0.00    +0.248 C 
ATOM     12  H   UNL     1       3.697   1.729   0.746  0.00  0.00    +0.159 HD
ATOM     13  H   UNL     1       5.355   0.408   1.378  0.00  0.00    +0.146 HD
ATOM     14  H   UNL     1       5.277  -1.292   1.276  0.00  0.00    +0.146 HD
ENDROOT
BRANCH   2  15
ATOM     15  C   UNL     1      -1.058   1.001  -1.252  0.00  0.00    +0.087 C 
BRANCH  15  16
ATOM     16  C   UNL     1      -1.836   1.574  -0.065  0.00  0.00    +0.075 C 
BRANCH  16  17
ATOM     17  S   UNL     1      -2.793   0.307   0.824  0.00  0.00    -0.136 S 
BRANCH  17  18
ATOM     18  C   UNL     1      -4.206   0.216  -0.298  0.00  0.00    +0.089 C 
BRANCH  18  19
ATOM     19  C   UNL     1      -5.233  -0.798   0.182  0.00  0.00    +0.149 C 
BRANCH  19  20
ATOM     20  O   UNL     1      -5.708  -0.436   1.472  0.00  0.00    -0.381 OA
ATOM     21  H   UNL     1      -6.362  -1.087   1.770  0.00  0.00    +0.210 HD
ENDBRANCH  19  20
ENDBRANCH  18  19
ENDBRANCH  17  18
ENDBRANCH  16  17
ENDBRANCH  15  16
ENDBRANCH   2  15
TORSDOF 6
