REMARK  Name = 135554419
REMARK  5 active torsions:
REMARK  status: ('A' for Active; 'I' for Inactive)
REMARK    1  A    between atoms: N_1  and  C_16
REMARK    2  A    between atoms: C_15  and  O_19
REMARK    3  A    between atoms: C_17  and  O_21
REMARK    4  A    between atoms: C_18  and  C_23
REMARK    5  A    between atoms: C_23  and  O_24
REMARK                            x       y       z     vdW  Elec       q    Type
REMARK                         _______ _______ _______ _____ _____    ______ ____
ROOT
ATOM      1  N   UNL     1      -0.048   0.483   0.194  0.00  0.00    -0.211 NA
ATOM      2  N   UNL     1      -1.627  -1.220   0.816  0.00  0.00    -0.264 NA
ATOM      3  N   UNL     1      -1.456   2.006  -0.641  0.00  0.00    -0.251 NA
ATOM      4  N   UNL     1      -3.970  -0.545   0.256  0.00  0.00    -0.277 N 
ATOM      5  N   UNL     1      -4.290   1.647  -0.763  0.00  0.00    -0.284 NA
ATOM      6  C   UNL     1      -1.301  -0.032   0.304  0.00  0.00    +0.164 C 
ATOM      7  C   UNL     1      -0.194   1.720  -0.384  0.00  0.00    +0.204 C 
ATOM      8  C   UNL     1      -2.151   0.906  -0.210  0.00  0.00    +0.116 C 
ATOM      9  C   UNL     1      -3.048  -1.553   0.845  0.00  0.00    +0.168 C 
ATOM     10  C   UNL     1      -3.577   0.695  -0.260  0.00  0.00    +0.140 C 
ATOM     11  C   UNL     1      -5.381  -0.922   0.275  0.00  0.00    +0.115 C 
ATOM     12  H   UNL     1      -0.944  -1.842   1.156  0.00  0.00    +0.126 HD
ATOM     13  H   UNL     1      -5.269   1.552  -0.819  0.00  0.00    +0.188 HD
ENDROOT
BRANCH   1  16
ATOM     14  O   UNL     1       2.215   0.840   1.036  0.00  0.00    -0.336 OA
ATOM     15  C   UNL     1       1.931  -0.929  -0.510  0.00  0.00    +0.187 C 
ATOM     16  C   UNL     1       1.256  -0.152   0.615  0.00  0.00    +0.209 C 
ATOM     17  C   UNL     1       3.385  -0.898  -0.086  0.00  0.00    +0.171 C 
ATOM     18  C   UNL     1       3.516   0.499   0.508  0.00  0.00    +0.175 C 
BRANCH  15  19
ATOM     19  O   UNL     1       1.426  -2.241  -0.656  0.00  0.00    -0.347 OA
ATOM     20  C   UNL     1       1.806  -2.821  -1.900  0.00  0.00    +0.174 C 
ENDBRANCH  15  19
BRANCH  17  21
ATOM     21  O   UNL     1       3.620  -1.843   0.957  0.00  0.00    -0.379 OA
ATOM     22  H   UNL     1       3.541  -2.742   0.601  0.00  0.00    +0.211 HD
ENDBRANCH  17  21
BRANCH  18  23
ATOM     23  C   UNL     1       3.904   1.552  -0.521  0.00  0.00    +0.169 C 
BRANCH  23  24
ATOM     24  O   UNL     1       3.988   2.809   0.126  0.00  0.00    -0.379 OA
ATOM     25  H   UNL     1       4.234   3.489  -0.521  0.00  0.00    +0.211 HD
ENDBRANCH  23  24
ENDBRANCH  18  23
ENDBRANCH   1  16
TORSDOF 5
