REMARK  Name = 135512468
REMARK  2 active torsions:
REMARK  status: ('A' for Active; 'I' for Inactive)
REMARK    1  A    between atoms: C_6  and  C_16
REMARK    2  A    between atoms: C_16  and  C_18
REMARK                            x       y       z     vdW  Elec       q    Type
REMARK                         _______ _______ _______ _____ _____    ______ ____
ROOT
ATOM      1  O   UNL     1       4.068  -0.383  -0.935  0.00  0.00    -0.272 OA
ATOM      2  N   UNL     1       1.747  -2.149  -0.178  0.00  0.00    -0.321 N 
ATOM      3  N   UNL     1       0.488   1.085   0.597  0.00  0.00    -0.376 NA
ATOM      4  N   UNL     1       2.715   1.374  -0.252  0.00  0.00    -0.246 N 
ATOM      5  N   UNL     1       1.434   3.220   0.412  0.00  0.00    -0.321 N 
ATOM      6  C   UNL     1      -0.169  -1.338   0.644  0.00  0.00    +0.024 C 
ATOM      7  C   UNL     1       0.720  -0.280   0.388  0.00  0.00    +0.136 C 
ATOM      8  C   UNL     1       1.890  -0.790  -0.116  0.00  0.00    +0.200 C 
ATOM      9  C   UNL     1       0.496  -2.493   0.282  0.00  0.00    +0.057 C 
ATOM     10  C   UNL     1       3.005   0.028  -0.482  0.00  0.00    +0.254 C 
ATOM     11  C   UNL     1       1.499   1.857   0.268  0.00  0.00    +0.237 C 
ATOM     12  H   UNL     1       2.430  -2.781  -0.501  0.00  0.00    +0.148 HD
ATOM     13  H   UNL     1       3.412   2.034  -0.468  0.00  0.00    +0.159 HD
ATOM     14  H   UNL     1       0.618   3.638   0.769  0.00  0.00    +0.146 HD
ATOM     15  H   UNL     1       2.204   3.779   0.159  0.00  0.00    +0.146 HD
ENDROOT
BRANCH   6  16
ATOM     16  C   UNL     1      -1.537  -1.250   1.188  0.00  0.00    +0.057 C 
BRANCH  16  18
ATOM     17  S   UNL     1      -4.206   1.350  -0.389  0.00  0.00    -0.086 S 
ATOM     18  C   UNL     1      -2.500  -0.425   0.344  0.00  0.00    -0.011 C 
ATOM     19  C   UNL     1      -2.759  -0.672  -1.035  0.00  0.00    +0.004 C 
ATOM     20  C   UNL     1      -3.221   0.646   0.822  0.00  0.00    +0.032 C 
ATOM     21  C   UNL     1      -3.669   0.220  -1.558  0.00  0.00    +0.035 C 
ENDBRANCH  16  18
ENDBRANCH   6  16
TORSDOF 2
