135515565
  -OEChem-03292013293D

 62 65  0     0  0  0  0  0  0999 V2000
   -0.6236    3.7839   -1.0776 O   0  0  0  0  0  0  0  0  0  0  0  0
    2.1046   -1.8452   -0.1745 O   0  0  0  0  0  0  0  0  0  0  0  0
    7.1397    1.8065    0.6273 O   0  0  0  0  0  0  0  0  0  0  0  0
   -6.6153    0.5308    0.2045 N   0  0  0  0  0  0  0  0  0  0  0  0
   -3.1026    0.8770    0.6104 N   0  0  0  0  0  0  0  0  0  0  0  0
   -2.6409    2.0033    0.0222 N   0  0  0  0  0  0  0  0  0  0  0  0
    0.3337    0.0441    0.5178 N   0  0  0  0  0  0  0  0  0  0  0  0
    0.9238    2.1307   -0.5352 N   0  0  0  0  0  0  0  0  0  0  0  0
    4.3391   -1.2552   -0.1258 N   0  0  0  0  0  0  0  0  0  0  0  0
   -4.6400    0.6707    0.9209 C   0  0  0  0  0  0  0  0  0  0  0  0
   -5.4470   -0.3772    0.1015 C   0  0  0  0  0  0  0  0  0  0  0  0
   -5.6757    1.6715    0.3321 C   0  0  0  0  0  0  0  0  0  0  0  0
   -7.3322    0.5936   -1.0638 C   0  0  0  0  0  0  0  0  0  0  0  0
   -2.1314   -0.0431    0.9033 C   0  0  0  0  0  0  0  0  0  0  0  0
   -0.9718    0.5356    0.4723 C   0  0  0  0  0  0  0  0  0  0  0  0
   -8.2985   -0.5702   -1.2063 C   0  0  0  0  0  0  0  0  0  0  0  0
   -2.4059   -1.3410    1.5452 C   0  0  0  0  0  0  0  0  0  0  0  0
   -1.3268    1.7810   -0.0581 C   0  0  0  0  0  0  0  0  0  0  0  0
   -0.3550    2.6836   -0.6110 C   0  0  0  0  0  0  0  0  0  0  0  0
   -2.3803   -2.5142    0.5581 C   0  0  0  0  0  0  0  0  0  0  0  0
    1.2150    0.8626    0.0060 C   0  0  0  0  0  0  0  0  0  0  0  0
    2.6495    0.4705   -0.0150 C   0  0  0  0  0  0  0  0  0  0  0  0
    3.0484   -0.8535   -0.1034 C   0  0  0  0  0  0  0  0  0  0  0  0
    3.6390    1.4450    0.0550 C   0  0  0  0  0  0  0  0  0  0  0  0
    4.9781    1.0710    0.0348 C   0  0  0  0  0  0  0  0  0  0  0  0
    2.5829   -3.1801   -0.2634 C   0  0  0  0  0  0  0  0  0  0  0  0
    1.3925   -4.1242   -0.3528 C   0  0  0  0  0  0  0  0  0  0  0  0
    5.2727   -0.2798   -0.0558 C   0  0  0  0  0  0  0  0  0  0  0  0
    1.8345   -5.5825   -0.4352 C   0  0  0  0  0  0  0  0  0  0  0  0
    6.0350    2.0646    0.1066 C   0  0  0  0  0  0  0  0  0  0  0  0
    0.6422   -6.5245   -0.4808 C   0  0  0  0  0  0  0  0  0  0  0  0
    5.8159    3.4647   -0.4592 C   0  0  0  0  0  0  0  0  0  0  0  0
   -4.7584    0.5559    2.0089 H   0  0  0  0  0  0  0  0  0  0  0  0
   -6.0043    2.4549    1.0216 H   0  0  0  0  0  0  0  0  0  0  0  0
   -5.3693    2.1413   -0.6116 H   0  0  0  0  0  0  0  0  0  0  0  0
   -5.0506   -0.5494   -0.9076 H   0  0  0  0  0  0  0  0  0  0  0  0
   -5.5823   -1.3449    0.5939 H   0  0  0  0  0  0  0  0  0  0  0  0
   -7.9215    1.5190   -1.0889 H   0  0  0  0  0  0  0  0  0  0  0  0
   -6.6645    0.6267   -1.9346 H   0  0  0  0  0  0  0  0  0  0  0  0
   -1.6431   -1.5234    2.3130 H   0  0  0  0  0  0  0  0  0  0  0  0
   -3.3628   -1.3439    2.0763 H   0  0  0  0  0  0  0  0  0  0  0  0
   -7.7699   -1.5288   -1.2315 H   0  0  0  0  0  0  0  0  0  0  0  0
   -9.0142   -0.5947   -0.3776 H   0  0  0  0  0  0  0  0  0  0  0  0
   -8.8671   -0.4761   -2.1372 H   0  0  0  0  0  0  0  0  0  0  0  0
   -3.1477   -2.3960   -0.2136 H   0  0  0  0  0  0  0  0  0  0  0  0
   -2.5647   -3.4556    1.0848 H   0  0  0  0  0  0  0  0  0  0  0  0
   -1.4095   -2.5870    0.0572 H   0  0  0  0  0  0  0  0  0  0  0  0
    1.6697    2.6916   -0.9351 H   0  0  0  0  0  0  0  0  0  0  0  0
    3.3825    2.4938    0.1715 H   0  0  0  0  0  0  0  0  0  0  0  0
    3.1753   -3.4246    0.6272 H   0  0  0  0  0  0  0  0  0  0  0  0
    3.2053   -3.2982   -1.1594 H   0  0  0  0  0  0  0  0  0  0  0  0
    0.7816   -3.8610   -1.2254 H   0  0  0  0  0  0  0  0  0  0  0  0
    0.7471   -3.9738    0.5217 H   0  0  0  0  0  0  0  0  0  0  0  0
    6.2971   -0.6391   -0.0796 H   0  0  0  0  0  0  0  0  0  0  0  0
    2.4556   -5.8337    0.4326 H   0  0  0  0  0  0  0  0  0  0  0  0
    2.4497   -5.7352   -1.3295 H   0  0  0  0  0  0  0  0  0  0  0  0
    0.9817   -7.5633   -0.5406 H   0  0  0  0  0  0  0  0  0  0  0  0
    0.0249   -6.4198    0.4172 H   0  0  0  0  0  0  0  0  0  0  0  0
    0.0150   -6.3210   -1.3546 H   0  0  0  0  0  0  0  0  0  0  0  0
    5.4142    4.1150    0.3216 H   0  0  0  0  0  0  0  0  0  0  0  0
    5.1366    3.4355   -1.3154 H   0  0  0  0  0  0  0  0  0  0  0  0
    6.7729    3.8612   -0.8115 H   0  0  0  0  0  0  0  0  0  0  0  0
  1 19  2  0  0  0  0
  2 23  1  0  0  0  0
  2 26  1  0  0  0  0
  3 30  2  0  0  0  0
  4 11  1  0  0  0  0
  4 12  1  0  0  0  0
  4 13  1  0  0  0  0
  5  6  1  0  0  0  0
  5 10  1  0  0  0  0
  5 14  1  0  0  0  0
  6 18  2  0  0  0  0
  7 15  1  0  0  0  0
  7 21  2  0  0  0  0
  8 19  1  0  0  0  0
  8 21  1  0  0  0  0
  8 48  1  0  0  0  0
  9 23  1  0  0  0  0
  9 28  2  0  0  0  0
 10 11  1  0  0  0  0
 10 12  1  0  0  0  0
 10 33  1  0  0  0  0
 11 36  1  0  0  0  0
 11 37  1  0  0  0  0
 12 34  1  0  0  0  0
 12 35  1  0  0  0  0
 13 16  1  0  0  0  0
 13 38  1  0  0  0  0
 13 39  1  0  0  0  0
 14 15  2  0  0  0  0
 14 17  1  0  0  0  0
 15 18  1  0  0  0  0
 16 42  1  0  0  0  0
 16 43  1  0  0  0  0
 16 44  1  0  0  0  0
 17 20  1  0  0  0  0
 17 40  1  0  0  0  0
 17 41  1  0  0  0  0
 18 19  1  0  0  0  0
 20 45  1  0  0  0  0
 20 46  1  0  0  0  0
 20 47  1  0  0  0  0
 21 22  1  0  0  0  0
 22 23  2  0  0  0  0
 22 24  1  0  0  0  0
 24 25  2  0  0  0  0
 24 49  1  0  0  0  0
 25 28  1  0  0  0  0
 25 30  1  0  0  0  0
 26 27  1  0  0  0  0
 26 50  1  0  0  0  0
 26 51  1  0  0  0  0
 27 29  1  0  0  0  0
 27 52  1  0  0  0  0
 27 53  1  0  0  0  0
 28 54  1  0  0  0  0
 29 31  1  0  0  0  0
 29 55  1  0  0  0  0
 29 56  1  0  0  0  0
 30 32  1  0  0  0  0
 31 57  1  0  0  0  0
 31 58  1  0  0  0  0
 31 59  1  0  0  0  0
 32 60  1  0  0  0  0
 32 61  1  0  0  0  0
 32 62  1  0  0  0  0
M  END
> <PUBCHEM_COMPOUND_CID>
135515565

> <PUBCHEM_CONFORMER_RMSD>
1

> <PUBCHEM_CONFORMER_DIVERSEORDER>
1
14
25
48
52
51
35
24
11
36
29
44
50
28
47
40
32
42
3
49
26
46
22
55
23
41
54
18
39
43
21
12
31
30
20
7
34
15
19
45
2
27
9
17
16
56
33
8
38
10
37
5
53
6
13
4

> <PUBCHEM_MMFF94_PARTIAL_CHARGES>
30
1 -0.57
10 0.09
11 0.21
12 0.21
13 0.27
14 -0.33
15 0.12
17 0.18
18 0.2
19 0.72
2 -0.36
21 0.42
22 0.09
23 0.39
24 -0.15
25 0.09
26 0.28
28 0.16
3 -0.57
30 0.42
32 0.06
4 -0.69
48 0.37
49 0.15
5 0.48
54 0.15
6 -0.71
7 -0.57
8 -0.49
9 -0.62

> <PUBCHEM_EFFECTIVE_ROTOR_COUNT>
9.8

> <PUBCHEM_PHARMACOPHORE_FEATURES>
13
1 1 acceptor
1 2 acceptor
1 20 hydrophobe
1 3 acceptor
1 31 hydrophobe
1 4 cation
1 6 acceptor
1 8 donor
1 9 acceptor
4 4 10 11 12 rings
5 5 6 14 15 18 rings
6 7 8 15 18 19 21 rings
6 9 22 23 24 25 28 rings

> <PUBCHEM_HEAVY_ATOM_COUNT>
32

> <PUBCHEM_ATOM_DEF_STEREO_COUNT>
0

> <PUBCHEM_ATOM_UDEF_STEREO_COUNT>
0

> <PUBCHEM_BOND_DEF_STEREO_COUNT>
0

> <PUBCHEM_BOND_UDEF_STEREO_COUNT>
0

> <PUBCHEM_ISOTOPIC_ATOM_COUNT>
0

> <PUBCHEM_COMPONENT_COUNT>
1

> <PUBCHEM_CACTVS_TAUTO_COUNT>
-1

> <PUBCHEM_CONFORMER_ID>
0813CDAD00000001

> <PUBCHEM_MMFF94_ENERGY>
81.8716

> <PUBCHEM_FEATURE_SELFOVERLAP>
66.161

> <PUBCHEM_SHAPE_FINGERPRINT>
10050765 1 18123751942241924049
10595046 47 18272652303800814321
10693767 8 18268134385243342671
10906281 52 18042144157281538568
11135609 187 18410849963319213217
11135926 11 18410002239131622255
11409948 41 18270100333698391559
11719270 70 18411415107752970618
12107183 9 17263577508558228257
12166972 35 11312063157915054698
12202916 173 18114176441092665250
12838862 33 18262502788609703913
13533116 47 18202283559237723217
13590594 115 17472986580844226210
1361 2 18411981347699254887
140371 6 18187943767164560725
14117953 113 18334862736119686924
1454969 45 18410576218809375604
14790565 3 18266748050824037716
15264996 163 17981318212324787031
15400415 2 18411984671518515648
16993438 75 18119251911337264403
17492 89 17979353053852829846
17980427 23 17459476735254281412
18365409 1 18126004003510499526
19319366 153 18272645732368904638
19427546 62 18339083791481335688
21033648 29 18128530651783471304
21285901 2 17895476917028843365
21344244 246 18410852141184760527
21703447 108 18045780091821035418
22224240 67 18272083933524929288
23559900 14 18338795740646607409
23569914 152 17039199054740369967
24771750 20 17535490419416468069
3103668 31 17979078515217303679
34934 24 18333449867355432537
3633792 109 18408884019486699641
4017518 198 18341336677611121526
4403749 210 18121780792781330336
4461854 278 18123773081739087891
59755656 215 18261398801921125134
6004065 56 18338514248521461289

> <PUBCHEM_SHAPE_MULTIPOLES>
611.05
17.15
6.26
0.94
17.59
13.7
0.05
-10.97
-2.62
-7.03
-1.84
1.04
-0.01
0.36

> <PUBCHEM_SHAPE_SELFOVERLAP>
1294.304

> <PUBCHEM_SHAPE_VOLUME>
341

> <PUBCHEM_COORDINATE_TYPE>
2
5
10

$$$$
