REMARK  Name = 135511072
REMARK  8 active torsions:
REMARK  status: ('A' for Active; 'I' for Inactive)
REMARK    1  A    between atoms: C_3  and  C_17
REMARK    2  A    between atoms: C_4  and  C_28
REMARK    3  A    between atoms: C_5  and  N_9
REMARK    4  A    between atoms: C_17  and  C_18
REMARK    5  A    between atoms: C_21  and  O_26
REMARK    6  A    between atoms: C_23  and  O_24
REMARK    7  A    between atoms: C_28  and  C_29
REMARK    8  A    between atoms: C_34  and  O_35
REMARK                            x       y       z     vdW  Elec       q    Type
REMARK                         _______ _______ _______ _____ _____    ______ ____
ROOT
ATOM      1  N   UNL     1       0.624   1.226  -0.527  0.00  0.00    -0.262 N 
ATOM      2  N   UNL     1      -0.686   0.405   1.067  0.00  0.00    -0.376 NA
ATOM      3  C   UNL     1       0.971  -0.090  -0.398  0.00  0.00    +0.129 C 
ATOM      4  C   UNL     1       0.149  -0.575   0.591  0.00  0.00    +0.113 C 
ATOM      5  C   UNL     1      -0.374   1.477   0.372  0.00  0.00    +0.274 C 
ATOM      6  C   UNL     1       1.211   2.172  -1.450  0.00  0.00    +0.116 C 
ENDROOT
BRANCH   5   9
ATOM      7  O   UNL     1      -2.472   5.200   0.525  0.00  0.00    -0.266 OA
ATOM      8  O   UNL     1      -5.322   1.735  -0.569  0.00  0.00    -0.252 OA
ATOM      9  N   UNL     1      -0.930   2.768   0.459  0.00  0.00    -0.183 NA
ATOM     10  N   UNL     1      -3.051   1.863  -0.099  0.00  0.00    -0.249 N 
ATOM     11  N   UNL     1      -4.250   3.756  -0.048  0.00  0.00    -0.206 N 
ATOM     12  C   UNL     1      -2.188   2.857   0.224  0.00  0.00    +0.194 C 
ATOM     13  C   UNL     1      -2.973   4.128   0.262  0.00  0.00    +0.288 C 
ATOM     14  C   UNL     1      -4.325   2.383  -0.272  0.00  0.00    +0.315 C 
ATOM     15  C   UNL     1      -5.374   4.666  -0.132  0.00  0.00    +0.125 C 
ATOM     16  H   UNL     1      -2.810   0.914  -0.196  0.00  0.00    +0.158 HD
ENDBRANCH   5   9
BRANCH   3  17
ATOM     17  C   UNL     1       2.020  -0.735  -1.208  0.00  0.00    +0.053 C 
BRANCH  17  18
ATOM     18  C   UNL     1       3.443  -0.426  -0.761  0.00  0.00    -0.017 C 
ATOM     19  C   UNL     1       3.829  -0.678   0.556  0.00  0.00    +0.036 C 
ATOM     20  C   UNL     1       4.358   0.109  -1.666  0.00  0.00    -0.001 C 
ATOM     21  C   UNL     1       5.132  -0.395   0.966  0.00  0.00    +0.167 C 
ATOM     22  C   UNL     1       5.661   0.392  -1.256  0.00  0.00    +0.040 C 
ATOM     23  C   UNL     1       6.048   0.140   0.060  0.00  0.00    +0.172 C 
BRANCH  23  24
ATOM     24  O   UNL     1       7.323   0.422   0.449  0.00  0.00    -0.468 OA
ATOM     25  C   UNL     1       8.196   0.967  -0.538  0.00  0.00    +0.253 C 
ENDBRANCH  23  24
BRANCH  21  26
ATOM     26  O   UNL     1       5.498  -0.645   2.254  0.00  0.00    -0.503 OA
ATOM     27  H   UNL     1       4.877  -1.005   2.856  0.00  0.00    +0.292 HD
ENDBRANCH  21  26
ENDBRANCH  17  18
ENDBRANCH   3  17
BRANCH   4  28
ATOM     28  C   UNL     1       0.086  -1.938   1.143  0.00  0.00    +0.082 C 
BRANCH  28  29
ATOM     29  C   UNL     1      -1.076  -2.778   0.629  0.00  0.00    -0.015 C 
ATOM     30  C   UNL     1      -0.864  -3.718  -0.379  0.00  0.00    -0.001 C 
ATOM     31  C   UNL     1      -2.352  -2.607   1.166  0.00  0.00    -0.001 C 
ATOM     32  C   UNL     1      -1.928  -4.487  -0.850  0.00  0.00    +0.037 C 
ATOM     33  C   UNL     1      -3.416  -3.376   0.695  0.00  0.00    +0.037 C 
ATOM     34  C   UNL     1      -3.204  -4.316  -0.313  0.00  0.00    +0.139 C 
BRANCH  34  35
ATOM     35  O   UNL     1      -4.242  -5.066  -0.773  0.00  0.00    -0.471 OA
ATOM     36  C   UNL     1      -5.520  -4.839  -0.180  0.00  0.00    +0.252 C 
ENDBRANCH  34  35
ENDBRANCH  28  29
ENDBRANCH   4  28
TORSDOF 8
