REMARK  Name = 135508815
REMARK  3 active torsions:
REMARK  status: ('A' for Active; 'I' for Inactive)
REMARK    1  A    between atoms: N_2  and  C_13
REMARK    2  A    between atoms: C_16  and  C_17
REMARK    3  A    between atoms: C_17  and  O_18
REMARK                            x       y       z     vdW  Elec       q    Type
REMARK                         _______ _______ _______ _____ _____    ______ ____
ROOT
ATOM      1  O   UNL     1       4.091  -1.723  -0.345  0.00  0.00    -0.268 OA
ATOM      2  N   UNL     1       0.000   0.095   0.075  0.00  0.00    -0.160 N 
ATOM      3  N   UNL     1      -0.126  -1.206  -0.266  0.00  0.00    -0.041 NA
ATOM      4  N   UNL     1       1.102  -1.717  -0.383  0.00  0.00    -0.136 NA
ATOM      5  N   UNL     1       1.810   1.657   0.506  0.00  0.00    -0.231 NA
ATOM      6  N   UNL     1       3.922   0.532   0.240  0.00  0.00    -0.279 N 
ATOM      7  C   UNL     1       1.310   0.444   0.183  0.00  0.00    +0.173 C 
ATOM      8  C   UNL     1       1.980  -0.718  -0.111  0.00  0.00    +0.188 C 
ATOM      9  C   UNL     1       3.417  -0.732  -0.096  0.00  0.00    +0.269 C 
ATOM     10  C   UNL     1       3.112   1.641   0.518  0.00  0.00    +0.220 C 
ATOM     11  H   UNL     1       4.899   0.647   0.282  0.00  0.00    +0.152 HD
ENDROOT
BRANCH   2  13
ATOM     12  O   UNL     1      -2.323   0.177   0.799  0.00  0.00    -0.336 OA
ATOM     13  C   UNL     1      -1.225   0.957   0.285  0.00  0.00    +0.213 C 
ATOM     14  C   UNL     1      -1.714   1.620  -1.001  0.00  0.00    +0.055 C 
ATOM     15  C   UNL     1      -2.879   0.751  -1.415  0.00  0.00    +0.037 C 
ATOM     16  C   UNL     1      -3.453   0.352  -0.069  0.00  0.00    +0.146 C 
BRANCH  16  17
ATOM     17  C   UNL     1      -4.274  -0.922  -0.113  0.00  0.00    +0.167 C 
BRANCH  17  18
ATOM     18  O   UNL     1      -4.751  -1.207   1.192  0.00  0.00    -0.379 OA
ATOM     19  H   UNL     1      -5.278  -2.021   1.174  0.00  0.00    +0.211 HD
ENDBRANCH  17  18
ENDBRANCH  16  17
ENDBRANCH   2  13
TORSDOF 3
