REMARK  Name = 135524540
REMARK  9 active torsions:
REMARK  status: ('A' for Active; 'I' for Inactive)
REMARK    1  A    between atoms: N_2  and  C_15
REMARK    2  A    between atoms: C_15  and  C_16
REMARK    3  A    between atoms: C_16  and  O_17
REMARK    4  A    between atoms: C_16  and  C_25
REMARK    5  A    between atoms: O_17  and  C_18
REMARK    6  A    between atoms: C_18  and  P_19
REMARK    7  A    between atoms: P_19  and  O_21
REMARK    8  A    between atoms: P_19  and  O_23
REMARK    9  A    between atoms: C_25  and  O_26
REMARK                            x       y       z     vdW  Elec       q    Type
REMARK                         _______ _______ _______ _____ _____    ______ ____
ROOT
ATOM      1  O   UNL     1      -4.611   0.896  -0.837  0.00  0.00    -0.268 OA
ATOM      2  N   UNL     1      -1.041  -1.683   0.174  0.00  0.00    -0.259 N 
ATOM      3  N   UNL     1      -3.074  -1.645  -0.756  0.00  0.00    -0.240 NA
ATOM      4  N   UNL     1      -0.819   0.631   0.850  0.00  0.00    -0.357 NA
ATOM      5  N   UNL     1      -2.783   1.864   0.247  0.00  0.00    -0.243 N 
ATOM      6  N   UNL     1      -0.987   2.923   1.340  0.00  0.00    -0.321 N 
ATOM      7  C   UNL     1      -1.488  -0.399   0.286  0.00  0.00    +0.210 C 
ATOM      8  C   UNL     1      -2.734  -0.409  -0.293  0.00  0.00    +0.176 C 
ATOM      9  C   UNL     1      -2.030  -2.394  -0.459  0.00  0.00    +0.222 C 
ATOM     10  C   UNL     1      -3.494   0.809  -0.343  0.00  0.00    +0.273 C 
ATOM     11  C   UNL     1      -1.493   1.761   0.818  0.00  0.00    +0.239 C 
ATOM     12  H   UNL     1      -3.217   2.748   0.266  0.00  0.00    +0.159 HD
ATOM     13  H   UNL     1      -0.094   2.929   1.754  0.00  0.00    +0.146 HD
ATOM     14  H   UNL     1      -1.516   3.752   1.301  0.00  0.00    +0.146 HD
ENDROOT
BRANCH   2  15
ATOM     15  C   UNL     1       0.223  -2.209   0.629  0.00  0.00    +0.127 C 
BRANCH  15  16
ATOM     16  C   UNL     1       1.377  -1.839  -0.309  0.00  0.00    +0.165 C 
BRANCH  16  17
ATOM     17  O   UNL     1       1.825  -0.522   0.018  0.00  0.00    -0.340 OA
BRANCH  17  18
ATOM     18  C   UNL     1       2.546   0.058  -1.057  0.00  0.00    +0.258 C 
BRANCH  18  19
ATOM     19  P   UNL     1       3.042   1.657  -0.451  0.00  0.00    +0.367 P 
ATOM     20  O   UNL     1       1.910   2.572  -0.087  0.00  0.00    -0.256 OA
BRANCH  19  21
ATOM     21  O   UNL     1       4.032   2.211  -1.602  0.00  0.00    -0.322 OA
ATOM     22  H   UNL     1       4.356   3.091  -1.354  0.00  0.00    +0.220 HD
ENDBRANCH  19  21
BRANCH  19  23
ATOM     23  O   UNL     1       4.047   1.296   0.762  0.00  0.00    -0.322 OA
ATOM     24  H   UNL     1       4.376   2.116   1.164  0.00  0.00    +0.220 HD
ENDBRANCH  19  23
ENDBRANCH  18  19
ENDBRANCH  17  18
ENDBRANCH  16  17
BRANCH  16  25
ATOM     25  C   UNL     1       2.550  -2.801  -0.140  0.00  0.00    +0.168 C 
BRANCH  25  26
ATOM     26  O   UNL     1       3.004  -2.779   1.209  0.00  0.00    -0.379 OA
ATOM     27  H   UNL     1       3.748  -3.392   1.310  0.00  0.00    +0.211 HD
ENDBRANCH  25  26
ENDBRANCH  16  25
ENDBRANCH  15  16
ENDBRANCH   2  15
TORSDOF 9
