REMARK  Name = 135583307
REMARK  5 active torsions:
REMARK  status: ('A' for Active; 'I' for Inactive)
REMARK    1  A    between atoms: N_2  and  C_17
REMARK    2  A    between atoms: C_16  and  C_20
REMARK    3  A    between atoms: C_18  and  C_23
REMARK    4  A    between atoms: C_20  and  O_21
REMARK    5  A    between atoms: C_23  and  O_24
REMARK                            x       y       z     vdW  Elec       q    Type
REMARK                         _______ _______ _______ _____ _____    ______ ____
ROOT
ATOM      1  O   UNL     1       4.473   1.337   0.739  0.00  0.00    -0.267 OA
ATOM      2  N   UNL     1       0.120   0.757  -0.328  0.00  0.00    -0.244 N 
ATOM      3  N   UNL     1       1.673   2.234   0.310  0.00  0.00    -0.387 NA
ATOM      4  N   UNL     1       1.451  -1.262  -0.448  0.00  0.00    -0.355 NA
ATOM      5  N   UNL     1       3.725  -0.794   0.143  0.00  0.00    -0.242 N 
ATOM      6  N   UNL     1       3.059  -2.974  -0.443  0.00  0.00    -0.321 N 
ATOM      7  C   UNL     1       1.287   0.059  -0.215  0.00  0.00    +0.226 C 
ATOM      8  C   UNL     1       0.404   2.061  -0.002  0.00  0.00    +0.258 C 
ATOM      9  C   UNL     1       2.217   0.991   0.177  0.00  0.00    +0.230 C 
ATOM     10  C   UNL     1       3.577   0.579   0.390  0.00  0.00    +0.286 C 
ATOM     11  C   UNL     1       2.688  -1.668  -0.260  0.00  0.00    +0.240 C 
ATOM     12  H   UNL     1       4.623  -1.180   0.260  0.00  0.00    +0.159 HD
ATOM     13  H   UNL     1       2.392  -3.641  -0.724  0.00  0.00    +0.146 HD
ATOM     14  H   UNL     1       3.994  -3.246  -0.294  0.00  0.00    +0.146 HD
ENDROOT
BRANCH   2  16
ATOM     15  C   UNL     1      -2.591   0.677  -0.014  0.00  0.00    +0.050 C 
ATOM     16  C   UNL     1      -1.299   0.187  -0.754  0.00  0.00    +0.084 C 
ATOM     17  C   UNL     1      -3.154  -0.762  -0.204  0.00  0.00    +0.035 C 
ATOM     18  C   UNL     1      -1.685  -1.242  -0.265  0.00  0.00    +0.023 C 
BRANCH  15  19
ATOM     19  C   UNL     1      -3.385   1.783  -0.682  0.00  0.00    +0.139 C 
BRANCH  19  20
ATOM     20  O   UNL     1      -4.511   2.086   0.129  0.00  0.00    -0.382 OA
ATOM     21  H   UNL     1      -5.029   2.792  -0.288  0.00  0.00    +0.210 HD
ENDBRANCH  19  20
ENDBRANCH  15  19
BRANCH  17  22
ATOM     22  C   UNL     1      -3.997  -1.316   0.927  0.00  0.00    +0.137 C 
BRANCH  22  23
ATOM     23  O   UNL     1      -4.053  -2.730   0.802  0.00  0.00    -0.382 OA
ATOM     24  H   UNL     1      -4.591  -3.098   1.521  0.00  0.00    +0.210 HD
ENDBRANCH  22  23
ENDBRANCH  17  22
ENDBRANCH   2  16
TORSDOF 5
