REMARK  Name = 135568382
REMARK  9 active torsions:
REMARK  status: ('A' for Active; 'I' for Inactive)
REMARK    1  A    between atoms: N_3  and  C_13
REMARK    2  A    between atoms: C_5  and  O_23
REMARK    3  A    between atoms: C_6  and  O_29
REMARK    4  A    between atoms: C_7  and  O_33
REMARK    5  A    between atoms: C_8  and  O_25
REMARK    6  A    between atoms: C_19  and  O_27
REMARK    7  A    between atoms: O_29  and  C_31
REMARK    8  A    between atoms: O_33  and  C_35
REMARK    9  A    between atoms: C_35  and  C_36
REMARK                            x       y       z     vdW  Elec       q    Type
REMARK                         _______ _______ _______ _____ _____    ______ ____
ROOT
ATOM      1  O   UNL     1       2.263   2.460   0.835  0.00  0.00    -0.287 OA
ATOM      2  O   UNL     1       2.900  -2.647  -0.719  0.00  0.00    -0.286 OA
ATOM      3  C   UNL     1      -2.996   0.747   0.726  0.00  0.00    +0.168 C 
ATOM      4  C   UNL     1      -2.259   2.072   0.373  0.00  0.00    +0.224 C 
ATOM      5  C   UNL     1      -2.358  -0.456  -0.020  0.00  0.00    +0.217 C 
ATOM      6  C   UNL     1      -0.741   2.033   0.667  0.00  0.00    +0.161 C 
ATOM      7  C   UNL     1      -0.875  -0.374   0.013  0.00  0.00    +0.020 C 
ATOM      8  C   UNL     1      -0.137   0.701   0.329  0.00  0.00    +0.079 C 
ATOM      9  C   UNL     1       1.271   0.399   0.224  0.00  0.00    +0.027 C 
ATOM     10  C   UNL     1      -3.055   0.529   2.247  0.00  0.00    +0.037 C 
ATOM     11  C   UNL     1       0.118  -1.389  -0.311  0.00  0.00    +0.085 C 
ATOM     12  C   UNL     1       1.469  -0.864  -0.161  0.00  0.00    +0.055 C 
ATOM     13  C   UNL     1       2.412   1.298   0.481  0.00  0.00    +0.192 C 
ATOM     14  C   UNL     1       2.778  -1.483  -0.364  0.00  0.00    +0.200 C 
ATOM     15  C   UNL     1       3.769   0.725   0.292  0.00  0.00    +0.045 C 
ATOM     16  C   UNL     1       3.945  -0.607  -0.113  0.00  0.00    +0.076 C 
ATOM     17  C   UNL     1       5.235  -1.123  -0.284  0.00  0.00    +0.137 C 
ATOM     18  C   UNL     1       4.888   1.533   0.523  0.00  0.00    +0.003 C 
ATOM     19  C   UNL     1       6.345  -0.310  -0.052  0.00  0.00    +0.037 C 
ATOM     20  C   UNL     1       6.172   1.013   0.351  0.00  0.00    +0.003 C 
ENDROOT
BRANCH  11  21
ATOM     21  N   UNL     1      -0.164  -2.607  -0.702  0.00  0.00    -0.130 NA
ATOM     22  N   UNL     1      -0.411  -3.674  -1.044  0.00  0.00    +0.004 NA
ENDBRANCH  11  21
BRANCH   3  23
ATOM     23  O   UNL     1      -4.354   0.855   0.276  0.00  0.00    -0.379 OA
ATOM     24  H   UNL     1      -4.366   0.994  -0.684  0.00  0.00    +0.211 HD
ENDBRANCH   3  23
BRANCH   6  25
ATOM     25  O   UNL     1      -0.537   2.314   2.049  0.00  0.00    -0.380 OA
ATOM     26  H   UNL     1      -0.928   3.176   2.265  0.00  0.00    +0.211 HD
ENDBRANCH   6  25
BRANCH  17  27
ATOM     27  O   UNL     1       5.470  -2.408  -0.674  0.00  0.00    -0.505 OA
ATOM     28  H   UNL     1       4.751  -2.986  -0.840  0.00  0.00    +0.292 HD
ENDBRANCH  17  27
BRANCH   4  29
ATOM     29  O   UNL     1      -2.448   2.372  -1.016  0.00  0.00    -0.447 OA
BRANCH  29  31
ATOM     30  O   UNL     1      -2.398   4.633  -0.544  0.00  0.00    -0.250 OA
ATOM     31  C   UNL     1      -2.498   3.699  -1.328  0.00  0.00    +0.318 C 
ATOM     32  C   UNL     1      -2.698   3.861  -2.804  0.00  0.00    +0.121 C 
ENDBRANCH  29  31
ENDBRANCH   4  29
BRANCH   5  33
ATOM     33  O   UNL     1      -2.785  -1.687   0.558  0.00  0.00    -0.445 OA
BRANCH  33  35
ATOM     34  O   UNL     1      -4.608  -1.730  -0.855  0.00  0.00    -0.250 OA
ATOM     35  C   UNL     1      -3.936  -2.220   0.042  0.00  0.00    +0.317 C 
BRANCH  35  36
ATOM     36  C   UNL     1      -4.249  -3.513   0.757  0.00  0.00    +0.110 C 
ATOM     37  C   UNL     1      -5.529  -4.153   0.248  0.00  0.00    +0.012 C 
ENDBRANCH  35  36
ENDBRANCH  33  35
ENDBRANCH   5  33
TORSDOF 9
