REMARK  Name = 135562676
REMARK  5 active torsions:
REMARK  status: ('A' for Active; 'I' for Inactive)
REMARK    1  A    between atoms: N_2  and  C_19
REMARK    2  A    between atoms: C_16  and  C_24
REMARK    3  A    between atoms: C_17  and  O_20
REMARK    4  A    between atoms: C_18  and  O_22
REMARK    5  A    between atoms: C_24  and  O_26
REMARK                            x       y       z     vdW  Elec       q    Type
REMARK                         _______ _______ _______ _____ _____    ______ ____
ROOT
ATOM      1  O   UNL     1      -4.413   2.065  -0.479  0.00  0.00    -0.268 OA
ATOM      2  N   UNL     1      -0.273   0.385   0.191  0.00  0.00    -0.237 N 
ATOM      3  N   UNL     1      -1.455   2.227  -0.267  0.00  0.00    -0.240 NA
ATOM      4  N   UNL     1      -2.049  -1.250   0.365  0.00  0.00    -0.357 NA
ATOM      5  N   UNL     1      -4.175  -0.211  -0.013  0.00  0.00    -0.243 N 
ATOM      6  N   UNL     1      -4.028  -2.515   0.451  0.00  0.00    -0.321 N 
ATOM      7  C   UNL     1      -1.581   0.000   0.159  0.00  0.00    +0.211 C 
ATOM      8  C   UNL     1      -0.248   1.733  -0.071  0.00  0.00    +0.224 C 
ATOM      9  C   UNL     1      -2.278   1.150  -0.124  0.00  0.00    +0.176 C 
ATOM     10  C   UNL     1      -3.710   1.094  -0.231  0.00  0.00    +0.273 C 
ATOM     11  C   UNL     1      -3.359  -1.331   0.274  0.00  0.00    +0.239 C 
ATOM     12  H   UNL     1      -5.146  -0.360  -0.064  0.00  0.00    +0.159 HD
ATOM     13  H   UNL     1      -3.527  -3.338   0.653  0.00  0.00    +0.146 HD
ATOM     14  H   UNL     1      -5.009  -2.542   0.375  0.00  0.00    +0.146 HD
ENDROOT
BRANCH   2  19
ATOM     15  O   UNL     1       1.980   0.247   1.121  0.00  0.00    -0.333 OA
ATOM     16  C   UNL     1       3.253  -0.116   0.541  0.00  0.00    +0.173 C 
ATOM     17  C   UNL     1       2.984  -1.302  -0.376  0.00  0.00    +0.171 C 
ATOM     18  C   UNL     1       1.554  -1.051  -0.812  0.00  0.00    +0.187 C 
ATOM     19  C   UNL     1       0.929  -0.489   0.461  0.00  0.00    +0.226 C 
BRANCH  17  20
ATOM     20  O   UNL     1       3.063  -2.491   0.409  0.00  0.00    -0.379 OA
ATOM     21  H   UNL     1       3.982  -2.639   0.681  0.00  0.00    +0.211 HD
ENDBRANCH  17  20
BRANCH  18  22
ATOM     22  O   UNL     1       0.906  -2.217  -1.278  0.00  0.00    -0.378 OA
ATOM     23  H   UNL     1       1.343  -2.530  -2.085  0.00  0.00    +0.211 HD
ENDBRANCH  18  22
BRANCH  16  24
ATOM     24  C   UNL     1       3.803   1.097  -0.197  0.00  0.00    +0.140 C 
ATOM     25  C   UNL     1       4.097   2.249   0.750  0.00  0.00    +0.034 C 
BRANCH  24  26
ATOM     26  O   UNL     1       5.000   0.727  -0.874  0.00  0.00    -0.382 OA
ATOM     27  H   UNL     1       4.816  -0.008  -1.479  0.00  0.00    +0.210 HD
ENDBRANCH  24  26
ENDBRANCH  16  24
ENDBRANCH   2  19
TORSDOF 5
