REMARK  Name = 135565113
REMARK  6 active torsions:
REMARK  status: ('A' for Active; 'I' for Inactive)
REMARK    1  A    between atoms: C_7  and  C_16
REMARK    2  A    between atoms: C_16  and  O_17
REMARK    3  A    between atoms: C_16  and  C_19
REMARK    4  A    between atoms: C_19  and  O_20
REMARK    5  A    between atoms: C_19  and  C_22
REMARK    6  A    between atoms: C_22  and  O_23
REMARK                            x       y       z     vdW  Elec       q    Type
REMARK                         _______ _______ _______ _____ _____    ______ ____
ROOT
ATOM      1  O   UNL     1      -1.432  -2.557  -0.534  0.00  0.00    -0.266 OA
ATOM      2  N   UNL     1       0.297  -0.460  -0.633  0.00  0.00    -0.390 NA
ATOM      3  N   UNL     1      -0.735   2.071   0.023  0.00  0.00    -0.200 NA
ATOM      4  N   UNL     1      -3.167  -1.164   0.117  0.00  0.00    -0.241 N 
ATOM      5  N   UNL     1      -2.858   1.155   0.405  0.00  0.00    -0.318 NA
ATOM      6  N   UNL     1      -4.962   0.185   0.774  0.00  0.00    -0.320 N 
ATOM      7  C   UNL     1       1.062   0.648  -0.648  0.00  0.00    +0.142 C 
ATOM      8  C   UNL     1      -0.989  -0.266  -0.283  0.00  0.00    +0.257 C 
ATOM      9  C   UNL     1       0.556   1.889  -0.326  0.00  0.00    +0.194 C 
ATOM     10  C   UNL     1      -1.514   0.970   0.043  0.00  0.00    +0.121 C 
ATOM     11  C   UNL     1      -1.861  -1.445  -0.252  0.00  0.00    +0.293 C 
ATOM     12  C   UNL     1      -3.637   0.108   0.434  0.00  0.00    +0.248 C 
ATOM     13  H   UNL     1      -3.805  -1.913   0.157  0.00  0.00    +0.159 HD
ATOM     14  H   UNL     1      -5.516  -0.629   0.783  0.00  0.00    +0.146 HD
ATOM     15  H   UNL     1      -5.360   1.054   1.010  0.00  0.00    +0.146 HD
ENDROOT
BRANCH   7  16
ATOM     16  C   UNL     1       2.494   0.492  -1.029  0.00  0.00    +0.190 C 
BRANCH  16  17
ATOM     17  O   UNL     1       2.630  -0.529  -2.032  0.00  0.00    -0.376 OA
ATOM     18  H   UNL     1       3.565  -0.623  -2.273  0.00  0.00    +0.211 HD
ENDBRANCH  16  17
BRANCH  16  19
ATOM     19  C   UNL     1       3.470   0.152   0.127  0.00  0.00    +0.173 C 
BRANCH  19  20
ATOM     20  O   UNL     1       3.507   1.241   1.052  0.00  0.00    -0.379 OA
ATOM     21  H   UNL     1       3.750   2.055   0.584  0.00  0.00    +0.211 HD
ENDBRANCH  19  20
BRANCH  19  22
ATOM     22  C   UNL     1       3.087  -1.124   0.872  0.00  0.00    +0.169 C 
BRANCH  22  23
ATOM     23  O   UNL     1       4.053  -1.367   1.890  0.00  0.00    -0.379 OA
ATOM     24  H   UNL     1       3.819  -2.176   2.371  0.00  0.00    +0.211 HD
ENDBRANCH  22  23
ENDBRANCH  19  22
ENDBRANCH  16  19
ENDBRANCH   7  16
TORSDOF 6
