REMARK  Name = 135598554
REMARK  5 active torsions:
REMARK  status: ('A' for Active; 'I' for Inactive)
REMARK    1  A    between atoms: N_1  and  N_16
REMARK    2  A    between atoms: N_16  and  C_17
REMARK    3  A    between atoms: C_17  and  C_18
REMARK    4  A    between atoms: C_21  and  O_24
REMARK    5  A    between atoms: C_22  and  O_26
REMARK                            x       y       z     vdW  Elec       q    Type
REMARK                         _______ _______ _______ _____ _____    ______ ____
ROOT
ATOM      1  N   UNL     1       0.545   0.193  -0.002  0.00  0.00    -0.249 N 
ATOM      2  H   UNL     1       0.703  -0.779   0.003  0.00  0.00    +0.169 HD
ATOM      3  S   UNL     1       5.522   0.923   0.007  0.00  0.00    -0.077 S 
ATOM      4  N   UNL     1       3.756   2.915   0.004  0.00  0.00    -0.241 NA
ATOM      5  N   UNL     1       1.388   2.405  -0.005  0.00  0.00    -0.232 NA
ATOM      6  C   UNL     1       2.780  -2.007   0.001  0.00  0.00    +0.023 C 
ATOM      7  C   UNL     1       3.681  -3.193  -0.376  0.00  0.00    +0.005 C 
ATOM      8  C   UNL     1       5.032  -3.131   0.350  0.00  0.00    +0.006 C 
ATOM      9  C   UNL     1       3.530  -0.708  -0.010  0.00  0.00    -0.030 C 
ATOM     10  C   UNL     1       5.813  -1.860  -0.014  0.00  0.00    +0.032 C 
ATOM     11  C   UNL     1       4.912  -0.664   0.006  0.00  0.00    +0.001 C 
ATOM     12  C   UNL     1       2.958   0.609  -0.007  0.00  0.00    +0.119 C 
ATOM     13  C   UNL     1       3.951   1.581   0.000  0.00  0.00    +0.095 C 
ATOM     14  C   UNL     1       1.639   1.078  -0.008  0.00  0.00    +0.126 C 
ATOM     15  C   UNL     1       2.450   3.232   0.000  0.00  0.00    +0.252 C 
ENDROOT
BRANCH   1  16
ATOM     16  N   UNL     1      -0.715   0.664  -0.003  0.00  0.00    -0.128 NA
BRANCH  16  17
ATOM     17  C   UNL     1      -1.615  -0.265   0.003  0.00  0.00    +0.138 C 
BRANCH  17  18
ATOM     18  C   UNL     1      -3.056   0.046   0.003  0.00  0.00    +0.000 C 
ATOM     19  C   UNL     1      -3.992  -0.987   0.009  0.00  0.00    +0.037 C 
ATOM     20  C   UNL     1      -3.482   1.374  -0.004  0.00  0.00    +0.000 C 
ATOM     21  C   UNL     1      -5.356  -0.693   0.009  0.00  0.00    +0.172 C 
ATOM     22  C   UNL     1      -5.783   0.635   0.002  0.00  0.00    +0.168 C 
ATOM     23  C   UNL     1      -4.846   1.668  -0.005  0.00  0.00    +0.039 C 
BRANCH  21  24
ATOM     24  O   UNL     1      -6.261  -1.711   0.016  0.00  0.00    -0.468 OA
ATOM     25  C   UNL     1      -5.741  -3.040   0.023  0.00  0.00    +0.253 C 
ENDBRANCH  21  24
BRANCH  22  26
ATOM     26  O   UNL     1      -7.111   0.935   0.002  0.00  0.00    -0.503 OA
ATOM     27  H   UNL     1      -7.747   0.247   0.006  0.00  0.00    +0.292 HD
ENDBRANCH  22  26
ENDBRANCH  17  18
ENDBRANCH  16  17
ENDBRANCH   1  16
TORSDOF 5
