REMARK  Name = 135513256
REMARK  8 active torsions:
REMARK  status: ('A' for Active; 'I' for Inactive)
REMARK    1  A    between atoms: N_2  and  C_5
REMARK    2  A    between atoms: N_2  and  N_21
REMARK    3  A    between atoms: C_3  and  C_12
REMARK    4  A    between atoms: C_8  and  O_32
REMARK    5  A    between atoms: C_11  and  O_34
REMARK    6  A    between atoms: C_17  and  O_18
REMARK    7  A    between atoms: C_22  and  C_24
REMARK    8  A    between atoms: C_25  and  O_30
REMARK                            x       y       z     vdW  Elec       q    Type
REMARK                         _______ _______ _______ _____ _____    ______ ____
ROOT
ATOM      1  O   UNL     1      -2.874   0.624  -0.016  0.00  0.00    -0.475 OA
ATOM      2  C   UNL     1      -1.539   0.979   0.375  0.00  0.00    +0.190 C 
ATOM      3  C   UNL     1      -0.513   0.266  -0.499  0.00  0.00    +0.072 C 
ATOM      4  C   UNL     1      -0.694  -1.221  -0.323  0.00  0.00    +0.126 C 
ATOM      5  C   UNL     1      -2.087  -1.690  -0.149  0.00  0.00    +0.063 C 
ATOM      6  C   UNL     1      -3.100  -0.729  -0.024  0.00  0.00    +0.142 C 
ATOM      7  C   UNL     1      -2.420  -3.049  -0.148  0.00  0.00    +0.137 C 
ATOM      8  C   UNL     1      -4.436  -1.127   0.073  0.00  0.00    +0.073 C 
ATOM      9  C   UNL     1      -3.756  -3.439  -0.033  0.00  0.00    +0.073 C 
ATOM     10  C   UNL     1      -4.762  -2.481   0.074  0.00  0.00    +0.140 C 
ENDROOT
BRANCH   2  11
ATOM     11  C   UNL     1      -1.395   2.482   0.272  0.00  0.00    +0.017 C 
ATOM     12  C   UNL     1      -1.139   3.239   1.416  0.00  0.00    +0.002 C 
ATOM     13  C   UNL     1      -1.514   3.111  -0.967  0.00  0.00    +0.002 C 
ATOM     14  C   UNL     1      -1.004   4.624   1.321  0.00  0.00    +0.036 C 
ATOM     15  C   UNL     1      -1.379   4.496  -1.062  0.00  0.00    +0.036 C 
ATOM     16  C   UNL     1      -1.124   5.252   0.081  0.00  0.00    +0.134 C 
BRANCH  16  17
ATOM     17  O   UNL     1      -0.990   6.604  -0.012  0.00  0.00    -0.506 OA
ATOM     18  H   UNL     1      -0.818   7.112   0.757  0.00  0.00    +0.292 HD
ENDBRANCH  16  17
ENDBRANCH   2  11
BRANCH   7  19
ATOM     19  O   UNL     1      -1.483  -4.031  -0.269  0.00  0.00    -0.506 OA
ATOM     20  H   UNL     1      -0.577  -3.808  -0.349  0.00  0.00    +0.292 HD
ENDBRANCH   7  19
BRANCH  10  21
ATOM     21  O   UNL     1      -6.063  -2.867   0.177  0.00  0.00    -0.505 OA
ATOM     22  H   UNL     1      -6.739  -2.222   0.249  0.00  0.00    +0.292 HD
ENDBRANCH  10  21
BRANCH   4  23
ATOM     23  N   UNL     1       0.353  -1.980  -0.360  0.00  0.00    -0.128 NA
BRANCH  23  25
ATOM     24  O   UNL     1       2.717  -2.839   0.710  0.00  0.00    -0.269 OA
ATOM     25  N   UNL     1       1.509  -1.297  -0.524  0.00  0.00    -0.228 N 
ATOM     26  C   UNL     1       2.659  -1.803   0.051  0.00  0.00    +0.263 C 
ATOM     27  H   UNL     1       1.531  -0.460  -1.042  0.00  0.00    +0.171 HD
BRANCH  26  28
ATOM     28  C   UNL     1       3.891  -0.997  -0.147  0.00  0.00    +0.088 C 
ATOM     29  C   UNL     1       4.909  -0.997   0.806  0.00  0.00    +0.138 C 
ATOM     30  C   UNL     1       4.021  -0.231  -1.306  0.00  0.00    +0.008 C 
ATOM     31  C   UNL     1       6.057  -0.231   0.602  0.00  0.00    +0.037 C 
ATOM     32  C   UNL     1       5.169   0.535  -1.511  0.00  0.00    +0.000 C 
ATOM     33  C   UNL     1       6.187   0.534  -0.557  0.00  0.00    +0.003 C 
BRANCH  29  34
ATOM     34  O   UNL     1       4.799  -1.737   1.946  0.00  0.00    -0.505 OA
ATOM     35  H   UNL     1       4.034  -2.255   2.096  0.00  0.00    +0.292 HD
ENDBRANCH  29  34
ENDBRANCH  26  28
ENDBRANCH  23  25
ENDBRANCH   4  23
TORSDOF 8
