135565672
  -OEChem-03292013293D

 52 53  0     1  0  0  0  0  0999 V2000
   -3.5584   -1.8946   -1.0870 S   0  0  0  0  0  0  0  0  0  0  0  0
   -4.2539    2.1461   -1.1688 O   0  0  0  0  0  0  0  0  0  0  0  0
    2.5526   -2.1814    0.7841 O   0  0  0  0  0  0  0  0  0  0  0  0
   -2.0359    1.6204   -1.1760 O   0  0  0  0  0  0  0  0  0  0  0  0
    0.3903   -0.4781    0.5278 O   0  0  0  0  0  0  0  0  0  0  0  0
    3.8913   -0.0937   -0.5172 O   0  0  0  0  0  0  0  0  0  0  0  0
    2.9343    2.4687   -0.0159 O   0  0  0  0  0  0  0  0  0  0  0  0
    0.3346    4.9788    0.3561 O   0  0  0  0  0  0  0  0  0  0  0  0
   -2.3287   -0.3330    0.5886 N   0  0  0  0  0  0  0  0  0  0  0  0
   -3.5717    0.3755    0.2268 C   0  0  1  0  0  0  0  0  0  0  0  0
   -4.5862   -0.6072   -0.3513 C   0  0  0  0  0  0  0  0  0  0  0  0
   -4.1167    1.0661    1.4746 C   0  0  0  0  0  0  0  0  0  0  0  0
   -2.2218   -1.4567   -0.0453 C   0  0  0  0  0  0  0  0  0  0  0  0
   -3.1736    1.4294   -0.7730 C   0  0  0  0  0  0  0  0  0  0  0  0
   -1.0436   -2.3454    0.0981 C   0  0  0  0  0  0  0  0  0  0  0  0
    0.2189   -1.8233    0.3790 C   0  0  0  0  0  0  0  0  0  0  0  0
   -1.2114   -3.7221   -0.0521 C   0  0  0  0  0  0  0  0  0  0  0  0
    1.3138   -2.6775    0.5096 C   0  0  0  0  0  0  0  0  0  0  0  0
   -0.1166   -4.5764    0.0785 C   0  0  0  0  0  0  0  0  0  0  0  0
    1.1461   -4.0541    0.3594 C   0  0  0  0  0  0  0  0  0  0  0  0
    3.5805   -2.4417   -0.1698 C   0  0  0  0  0  0  0  0  0  0  0  0
    4.5690   -1.2917   -0.1584 C   0  0  0  0  0  0  0  0  0  0  0  0
    4.7723    1.0210   -0.5228 C   0  0  0  0  0  0  0  0  0  0  0  0
    4.0003    2.2599   -0.9343 C   0  0  0  0  0  0  0  0  0  0  0  0
    2.1877    3.6329   -0.3410 C   0  0  0  0  0  0  0  0  0  0  0  0
    1.0696    3.8020    0.6696 C   0  0  0  0  0  0  0  0  0  0  0  0
   -0.7429    5.1760    1.2608 C   0  0  0  0  0  0  0  0  0  0  0  0
   -5.1906   -1.0720    0.4349 H   0  0  0  0  0  0  0  0  0  0  0  0
   -5.2582   -0.1770   -1.0987 H   0  0  0  0  0  0  0  0  0  0  0  0
   -4.2838    0.3443    2.2824 H   0  0  0  0  0  0  0  0  0  0  0  0
   -5.0671    1.5739    1.2758 H   0  0  0  0  0  0  0  0  0  0  0  0
   -3.4127    1.8177    1.8516 H   0  0  0  0  0  0  0  0  0  0  0  0
   -2.1799   -4.1721   -0.2482 H   0  0  0  0  0  0  0  0  0  0  0  0
   -0.2479   -5.6489   -0.0314 H   0  0  0  0  0  0  0  0  0  0  0  0
    1.9877   -4.7328    0.4676 H   0  0  0  0  0  0  0  0  0  0  0  0
    4.0864   -3.3762    0.0950 H   0  0  0  0  0  0  0  0  0  0  0  0
    3.1506   -2.5367   -1.1754 H   0  0  0  0  0  0  0  0  0  0  0  0
   -4.0149    2.8396   -1.8200 H   0  0  0  0  0  0  0  0  0  0  0  0
    5.3796   -1.4895   -0.8684 H   0  0  0  0  0  0  0  0  0  0  0  0
    4.9878   -1.1741    0.8477 H   0  0  0  0  0  0  0  0  0  0  0  0
    5.1770    1.1569    0.4869 H   0  0  0  0  0  0  0  0  0  0  0  0
    5.5963    0.8458   -1.2232 H   0  0  0  0  0  0  0  0  0  0  0  0
    3.5794    2.1173   -1.9363 H   0  0  0  0  0  0  0  0  0  0  0  0
    4.6665    3.1297   -0.9406 H   0  0  0  0  0  0  0  0  0  0  0  0
    1.3303   -0.3055    0.7110 H   0  0  0  0  0  0  0  0  0  0  0  0
    2.8384    4.5157   -0.3279 H   0  0  0  0  0  0  0  0  0  0  0  0
    1.7674    3.5443   -1.3501 H   0  0  0  0  0  0  0  0  0  0  0  0
    1.4870    3.8767    1.6810 H   0  0  0  0  0  0  0  0  0  0  0  0
    0.4102    2.9257    0.6456 H   0  0  0  0  0  0  0  0  0  0  0  0
   -1.2685    6.0915    0.9763 H   0  0  0  0  0  0  0  0  0  0  0  0
   -0.3698    5.2907    2.2831 H   0  0  0  0  0  0  0  0  0  0  0  0
   -1.4462    4.3390    1.2075 H   0  0  0  0  0  0  0  0  0  0  0  0
  1 11  1  0  0  0  0
  1 13  1  0  0  0  0
  2 14  1  0  0  0  0
  2 38  1  0  0  0  0
  3 18  1  0  0  0  0
  3 21  1  0  0  0  0
  4 14  2  0  0  0  0
  5 16  1  0  0  0  0
  5 45  1  0  0  0  0
  6 22  1  0  0  0  0
  6 23  1  0  0  0  0
  7 24  1  0  0  0  0
  7 25  1  0  0  0  0
  8 26  1  0  0  0  0
  8 27  1  0  0  0  0
  9 10  1  0  0  0  0
  9 13  2  0  0  0  0
 10 11  1  0  0  0  0
 10 12  1  0  0  0  0
 10 14  1  0  0  0  0
 11 28  1  0  0  0  0
 11 29  1  0  0  0  0
 12 30  1  0  0  0  0
 12 31  1  0  0  0  0
 12 32  1  0  0  0  0
 13 15  1  0  0  0  0
 15 16  2  0  0  0  0
 15 17  1  0  0  0  0
 16 18  1  0  0  0  0
 17 19  2  0  0  0  0
 17 33  1  0  0  0  0
 18 20  2  0  0  0  0
 19 20  1  0  0  0  0
 19 34  1  0  0  0  0
 20 35  1  0  0  0  0
 21 22  1  0  0  0  0
 21 36  1  0  0  0  0
 21 37  1  0  0  0  0
 22 39  1  0  0  0  0
 22 40  1  0  0  0  0
 23 24  1  0  0  0  0
 23 41  1  0  0  0  0
 23 42  1  0  0  0  0
 24 43  1  0  0  0  0
 24 44  1  0  0  0  0
 25 26  1  0  0  0  0
 25 46  1  0  0  0  0
 25 47  1  0  0  0  0
 26 48  1  0  0  0  0
 26 49  1  0  0  0  0
 27 50  1  0  0  0  0
 27 51  1  0  0  0  0
 27 52  1  0  0  0  0
M  END
> <PUBCHEM_COMPOUND_CID>
135565672

> <PUBCHEM_CONFORMER_RMSD>
1

> <PUBCHEM_CONFORMER_DIVERSEORDER>
1
130
111
82
142
47
74
135
99
163
39
17
56
31
148
115
160
119
159
60
54
106
103
41
124
66
129
141
19
29
89
4
84
136
107
155
28
30
140
79
143
51
118
71
43
22
108
134
154
146
145
133
94
91
81
116
27
5
65
114
88
113
96
152
75
38
125
90
9
128
86
138
33
36
48
49
127
158
18
161
85
53
132
58
37
63
80
32
120
68
76
164
42
147
62
77
73
78
45
117
156
162
70
122
69
123
61
149
98
21
50
151
2
109
105
7
144
11
59
97
57
25
3
153
46
67
26
10
23
102
104
44
95
14
92
55
12
121
16
24
101
20
93
150
64
6
100
34
157
137
139
72
83
126
87
110
165
40
13
35
131
112
8
15
52

> <PUBCHEM_MMFF94_PARTIAL_CHARGES>
31
1 -0.37
10 0.31
11 0.23
13 0.5
14 0.66
15 0.09
16 0.08
17 -0.15
18 0.08
19 -0.15
2 -0.65
20 -0.15
21 0.28
22 0.28
23 0.28
24 0.28
25 0.28
26 0.28
27 0.28
3 -0.36
33 0.15
34 0.15
35 0.15
38 0.5
4 -0.57
45 0.45
5 -0.53
6 -0.56
7 -0.56
8 -0.56
9 -0.7

> <PUBCHEM_EFFECTIVE_ROTOR_COUNT>
12.6

> <PUBCHEM_PHARMACOPHORE_FEATURES>
11
1 2 acceptor
1 3 acceptor
1 4 acceptor
1 5 donor
1 6 acceptor
1 7 acceptor
1 8 acceptor
1 9 acceptor
3 2 4 14 anion
5 1 9 10 11 13 rings
6 15 16 17 18 19 20 rings

> <PUBCHEM_HEAVY_ATOM_COUNT>
27

> <PUBCHEM_ATOM_DEF_STEREO_COUNT>
1

> <PUBCHEM_ATOM_UDEF_STEREO_COUNT>
0

> <PUBCHEM_BOND_DEF_STEREO_COUNT>
0

> <PUBCHEM_BOND_UDEF_STEREO_COUNT>
0

> <PUBCHEM_ISOTOPIC_ATOM_COUNT>
0

> <PUBCHEM_COMPONENT_COUNT>
1

> <PUBCHEM_CACTVS_TAUTO_COUNT>
-1

> <PUBCHEM_CONFORMER_ID>
0814916800000001

> <PUBCHEM_MMFF94_ENERGY>
76.527

> <PUBCHEM_FEATURE_SELFOVERLAP>
55.899

> <PUBCHEM_SHAPE_FINGERPRINT>
10439779 11 18124301964586228680
11513181 2 17409079201965350695
11578080 2 16043312016335595211
12038231 1 17832989725618062980
13122387 1 18049724023150366884
13590594 115 17544197073813155586
14466204 15 18122337141723744192
14790565 3 18410863157168817043
15082195 135 18192967376289607599
15320467 1 18266178520769923764
19591789 44 18409167748566243063
19930381 70 18337108969027560189
20398071 114 18049722124764123156
20764821 26 18409158892454734500
23227448 37 18338800125491640358
23559900 14 17765715015793340176
25265897 201 17769129982823861566
373842 8 17617671955714127161
463206 1 18338523070246994180
5047190 48 15744441193383403109
6371009 1 18265031700077122550

> <PUBCHEM_SHAPE_MULTIPOLES>
513.43
8.91
7.64
1.05
2.76
4.46
0
2.5
-2.3
2.72
1.86
-0.59
0.61
-0.44

> <PUBCHEM_SHAPE_SELFOVERLAP>
1042.542

> <PUBCHEM_SHAPE_VOLUME>
300.6

> <PUBCHEM_COORDINATE_TYPE>
2
5
10

$$$$
