REMARK  Name = 135529435
REMARK  3 active torsions:
REMARK  status: ('A' for Active; 'I' for Inactive)
REMARK    1  A    between atoms: N_1  and  C_11
REMARK    2  A    between atoms: N_3  and  N_10
REMARK    3  A    between atoms: C_11  and  C_15
REMARK                            x       y       z     vdW  Elec       q    Type
REMARK                         _______ _______ _______ _____ _____    ______ ____
ROOT
ATOM      1  N   UNL     1      -0.785  -0.294   0.010  0.00  0.00    -0.339 N 
ATOM      2  N   UNL     1      -2.571  -1.788  -0.226  0.00  0.00    -0.342 N 
ATOM      3  N   UNL     1      -2.960   0.580  -0.013  0.00  0.00    -0.060 NA
ATOM      4  C   UNL     1      -2.161  -0.465  -0.075  0.00  0.00    +0.224 C 
ATOM      5  C   UNL     1      -3.926  -2.278  -0.342  0.00  0.00    +0.124 C 
ATOM      6  H   UNL     1      -0.443   0.623   0.116  0.00  0.00    +0.164 HD
ATOM      7  H   UNL     1      -1.857  -2.466  -0.256  0.00  0.00    +0.163 HD
ENDROOT
BRANCH   3  10
ATOM      8  O   UNL     1      -2.061   2.426  -0.882  0.00  0.00    -0.106 OA
ATOM      9  O   UNL     1      -2.196   2.224   1.283  0.00  0.00    -0.106 OA
ATOM     10  N   UNL     1      -2.373   1.788   0.135  0.00  0.00    +0.156 N 
ENDBRANCH   3  10
BRANCH   1  11
ATOM     11  C   UNL     1       0.179  -1.368  -0.048  0.00  0.00    +0.135 C 
BRANCH  11  15
ATOM     12 CL   UNL     1       5.117   0.999  -0.802  0.00  0.00    -0.054 Cl
ATOM     13  S   UNL     1       2.355  -0.033  -1.190  0.00  0.00    -0.058 S 
ATOM     14  N   UNL     1       3.655  -0.281   1.030  0.00  0.00    -0.226 NA
ATOM     15  C   UNL     1       1.575  -0.833   0.111  0.00  0.00    +0.051 C 
ATOM     16  C   UNL     1       2.417  -0.869   1.203  0.00  0.00    +0.105 C 
ATOM     17  C   UNL     1       3.733   0.193  -0.194  0.00  0.00    +0.168 C 
ENDBRANCH  11  15
ENDBRANCH   1  11
TORSDOF 3
