135517852
  -OEChem-03292013293D

 32 32  0     0  0  0  0  0  0999 V2000
   -5.1819    0.7865   -0.3621 S   0  0  0  0  0  0  0  0  0  0  0  0
    4.2759   -0.2221   -0.6657 O   0  0  0  0  0  0  0  0  0  0  0  0
    1.9733   -2.7078    0.6058 O   0  0  0  0  0  0  0  0  0  0  0  0
   -1.5980   -0.7974   -0.3445 N   0  0  0  0  0  0  0  0  0  0  0  0
    3.1853   -1.0768   -0.4944 N   0  0  0  0  0  0  0  0  0  0  0  0
    0.6911   -2.1752    0.4629 N   0  0  0  0  0  0  0  0  0  0  0  0
   -2.6334    0.0486   -0.5597 N   0  0  0  0  0  0  0  0  0  0  0  0
   -4.0481   -1.4283    0.5709 N   0  0  0  0  0  0  0  0  0  0  0  0
    0.9471    1.8520    0.2808 C   0  0  0  0  0  0  0  0  0  0  0  0
   -0.3171    1.2869   -0.4036 C   0  0  0  0  0  0  0  0  0  0  0  0
    2.2153    1.1469   -0.2495 C   0  0  0  0  0  0  0  0  0  0  0  0
    0.8497    1.7204    1.8138 C   0  0  0  0  0  0  0  0  0  0  0  0
    1.0498    3.3537   -0.0551 C   0  0  0  0  0  0  0  0  0  0  0  0
   -0.4571   -0.2023   -0.2456 C   0  0  0  0  0  0  0  0  0  0  0  0
    2.1425   -0.3597   -0.2428 C   0  0  0  0  0  0  0  0  0  0  0  0
    0.7997   -0.9779   -0.0071 C   0  0  0  0  0  0  0  0  0  0  0  0
   -3.8940   -0.2476   -0.1041 C   0  0  0  0  0  0  0  0  0  0  0  0
   -0.2942    1.5039   -1.4792 H   0  0  0  0  0  0  0  0  0  0  0  0
   -1.1705    1.8161    0.0349 H   0  0  0  0  0  0  0  0  0  0  0  0
    3.0734    1.4816    0.3465 H   0  0  0  0  0  0  0  0  0  0  0  0
    2.3937    1.4508   -1.2899 H   0  0  0  0  0  0  0  0  0  0  0  0
    1.9411    3.8010    0.3995 H   0  0  0  0  0  0  0  0  0  0  0  0
    0.1762    3.9035    0.3131 H   0  0  0  0  0  0  0  0  0  0  0  0
    1.7224    2.1693    2.3020 H   0  0  0  0  0  0  0  0  0  0  0  0
    0.7945    0.6785    2.1429 H   0  0  0  0  0  0  0  0  0  0  0  0
   -0.0408    2.2325    2.1960 H   0  0  0  0  0  0  0  0  0  0  0  0
    1.1118    3.5162   -1.1372 H   0  0  0  0  0  0  0  0  0  0  0  0
   -2.4776    0.8970   -1.0914 H   0  0  0  0  0  0  0  0  0  0  0  0
    4.9927   -0.8534   -0.8464 H   0  0  0  0  0  0  0  0  0  0  0  0
    1.7795   -3.5925    0.9590 H   0  0  0  0  0  0  0  0  0  0  0  0
   -3.2654   -2.0545    0.7272 H   0  0  0  0  0  0  0  0  0  0  0  0
   -4.9499   -1.7145    0.9370 H   0  0  0  0  0  0  0  0  0  0  0  0
  1 17  2  0  0  0  0
  2  5  1  0  0  0  0
  2 29  1  0  0  0  0
  3  6  1  0  0  0  0
  3 30  1  0  0  0  0
  4  7  1  0  0  0  0
  4 14  2  3  0  0  0
  5 15  2  3  0  0  0
  6 16  2  3  0  0  0
  7 17  1  0  0  0  0
  7 28  1  0  0  0  0
  8 17  1  0  0  0  0
  8 31  1  0  0  0  0
  8 32  1  0  0  0  0
  9 10  1  0  0  0  0
  9 11  1  0  0  0  0
  9 12  1  0  0  0  0
  9 13  1  0  0  0  0
 10 14  1  0  0  0  0
 10 18  1  0  0  0  0
 10 19  1  0  0  0  0
 11 15  1  0  0  0  0
 11 20  1  0  0  0  0
 11 21  1  0  0  0  0
 12 24  1  0  0  0  0
 12 25  1  0  0  0  0
 12 26  1  0  0  0  0
 13 22  1  0  0  0  0
 13 23  1  0  0  0  0
 13 27  1  0  0  0  0
 14 16  1  0  0  0  0
 15 16  1  0  0  0  0
M  END
> <PUBCHEM_COMPOUND_CID>
135517852

> <PUBCHEM_CONFORMER_RMSD>
0.6

> <PUBCHEM_CONFORMER_DIVERSEORDER>
1
12
10
13
14
6
9
15
11
3
8
7
2
5
4

> <PUBCHEM_MMFF94_PARTIAL_CHARGES>
19
1 -0.38
10 0.06
11 0.06
14 0.39
15 0.39
16 0.45
17 0.5
2 -0.34
28 0.37
29 0.4
3 -0.34
30 0.4
31 0.37
32 0.37
4 -0.51
5 -0.51
6 -0.51
7 -0.37
8 -0.8

> <PUBCHEM_EFFECTIVE_ROTOR_COUNT>
2.6

> <PUBCHEM_PHARMACOPHORE_FEATURES>
10
1 1 acceptor
1 2 anion
1 3 anion
1 4 acceptor
1 5 acceptor
1 6 acceptor
1 7 donor
1 8 donor
3 9 12 13 hydrophobe
6 9 10 11 14 15 16 rings

> <PUBCHEM_HEAVY_ATOM_COUNT>
17

> <PUBCHEM_ATOM_DEF_STEREO_COUNT>
0

> <PUBCHEM_ATOM_UDEF_STEREO_COUNT>
0

> <PUBCHEM_BOND_DEF_STEREO_COUNT>
0

> <PUBCHEM_BOND_UDEF_STEREO_COUNT>
3

> <PUBCHEM_ISOTOPIC_ATOM_COUNT>
0

> <PUBCHEM_COMPONENT_COUNT>
1

> <PUBCHEM_CACTVS_TAUTO_COUNT>
-1

> <PUBCHEM_CONFORMER_ID>
0813D69C00000001

> <PUBCHEM_MMFF94_ENERGY>
57.9012

> <PUBCHEM_FEATURE_SELFOVERLAP>
50.795

> <PUBCHEM_SHAPE_FINGERPRINT>
10366900 7 18113334232908937223
104564 63 18056764230220226881
10608611 8 18335698403685062485
11471102 20 18410852174847588661
12500047 106 18186799184777227799
12654215 9 18410287012775045669
13132413 78 18271251504000650385
13134695 92 17704347779790921049
13140716 1 18193546989908768546
13380536 305 18337110193283371036
14178342 30 17838596100889826003
14252887 29 17917437497072246286
15442244 35 18195526996214159177
15490181 8 17619050072926206716
1601671 61 18271247110401678253
16945 1 18337096921765581902
18186145 218 18409439311338572933
20511035 2 17696188489085312972
20645477 70 18272366490827649935
20671657 1 18198063775376251773
221490 88 18265059217974785955
22289505 5 18264197033534201149
2255824 54 18339639052757449677
22854114 111 18341047527543137589
23402539 116 18272645741006370686
23419403 2 15305251706559839184
23526113 38 17968098577738167307
23559900 14 18336820979397857765
23598291 2 18059001912850541509
25 1 18334293197016201702
2748010 2 18047188841157004398
3060560 45 17988923353426955303
3250762 1 17761221311859997986
53812653 166 18410006675853846643
5895379 119 15122971520728041401
7364860 26 18201434839134800401
7832392 63 18271236218311972191
81228 2 17478325340644768947
9999458 23 18334857276820276837

> <PUBCHEM_SHAPE_MULTIPOLES>
317.06
7.31
2.79
0.93
9.81
0.88
-0.35
-1.26
1.22
-1.91
-0.56
-0.21
0.26
0.35

> <PUBCHEM_SHAPE_SELFOVERLAP>
636.233

> <PUBCHEM_SHAPE_VOLUME>
190.2

> <PUBCHEM_COORDINATE_TYPE>
2
5
10

$$$$
