135565707
  -OEChem-03292013293D

 38 38  0     0  0  0  0  0  0999 V2000
   -1.1548   -2.6654   -0.8236 Cl  0  0  0  0  0  0  0  0  0  0  0  0
    2.9430    1.7087   -0.3489 O   0  0  0  0  0  0  0  0  0  0  0  0
   -2.9401   -0.3970    0.1104 N   0  0  0  0  0  0  0  0  0  0  0  0
   -1.1575    1.1148    0.4420 N   0  0  0  0  0  0  0  0  0  0  0  0
    0.6438   -0.8655   -0.3949 N   0  0  0  0  0  0  0  0  0  0  0  0
    0.6645    2.6050    0.7638 N   0  0  0  0  0  0  0  0  0  0  0  0
    3.3126   -0.5498    0.1214 N   0  0  0  0  0  0  0  0  0  0  0  0
    5.2500   -1.8518    0.3284 N   0  0  0  0  0  0  0  0  0  0  0  0
    5.4130    0.4376   -0.1706 N   0  0  0  0  0  0  0  0  0  0  0  0
   -3.8886    0.3664   -0.6715 C   0  0  0  0  0  0  0  0  0  0  0  0
   -3.4447   -1.4765    0.9580 C   0  0  0  0  0  0  0  0  0  0  0  0
   -3.8430    1.8271   -0.2421 C   0  0  0  0  0  0  0  0  0  0  0  0
   -3.5592    0.2122   -2.1504 C   0  0  0  0  0  0  0  0  0  0  0  0
   -1.5693   -0.1139    0.0710 C   0  0  0  0  0  0  0  0  0  0  0  0
   -4.4089   -0.9234    1.9895 C   0  0  0  0  0  0  0  0  0  0  0  0
   -0.6846   -1.0865   -0.3401 C   0  0  0  0  0  0  0  0  0  0  0  0
    0.1708    1.3355    0.3874 C   0  0  0  0  0  0  0  0  0  0  0  0
    1.0556    0.3629   -0.0237 C   0  0  0  0  0  0  0  0  0  0  0  0
    2.4927    0.5799   -0.0895 C   0  0  0  0  0  0  0  0  0  0  0  0
    4.7048   -0.6202    0.0834 C   0  0  0  0  0  0  0  0  0  0  0  0
   -4.9079   -0.0090   -0.5270 H   0  0  0  0  0  0  0  0  0  0  0  0
   -3.9516   -2.2293    0.3433 H   0  0  0  0  0  0  0  0  0  0  0  0
   -2.6357   -1.9795    1.5009 H   0  0  0  0  0  0  0  0  0  0  0  0
   -2.5780    0.6263   -2.4075 H   0  0  0  0  0  0  0  0  0  0  0  0
   -4.7198    2.3515   -0.6403 H   0  0  0  0  0  0  0  0  0  0  0  0
   -3.8679    1.9355    0.8475 H   0  0  0  0  0  0  0  0  0  0  0  0
   -2.9715    2.3627   -0.6314 H   0  0  0  0  0  0  0  0  0  0  0  0
   -4.3038    0.7323   -2.7630 H   0  0  0  0  0  0  0  0  0  0  0  0
   -3.5639   -0.8430   -2.4453 H   0  0  0  0  0  0  0  0  0  0  0  0
   -3.9439   -0.1237    2.5760 H   0  0  0  0  0  0  0  0  0  0  0  0
   -5.3232   -0.5243    1.5413 H   0  0  0  0  0  0  0  0  0  0  0  0
   -4.7091   -1.7167    2.6823 H   0  0  0  0  0  0  0  0  0  0  0  0
    1.5894    2.6659    1.1709 H   0  0  0  0  0  0  0  0  0  0  0  0
   -0.0218    3.2909    1.0543 H   0  0  0  0  0  0  0  0  0  0  0  0
    2.8357   -1.4255    0.3229 H   0  0  0  0  0  0  0  0  0  0  0  0
    6.2539   -1.9957    0.3217 H   0  0  0  0  0  0  0  0  0  0  0  0
    4.6672   -2.6583    0.5244 H   0  0  0  0  0  0  0  0  0  0  0  0
    6.4063    0.1817   -0.1530 H   0  0  0  0  0  0  0  0  0  0  0  0
  1 16  1  0  0  0  0
  2 19  2  0  0  0  0
  3 10  1  0  0  0  0
  3 11  1  0  0  0  0
  3 14  1  0  0  0  0
  4 14  2  0  0  0  0
  4 17  1  0  0  0  0
  5 16  2  0  0  0  0
  5 18  1  0  0  0  0
  6 17  1  0  0  0  0
  6 33  1  0  0  0  0
  6 34  1  0  0  0  0
  7 19  1  0  0  0  0
  7 20  1  0  0  0  0
  7 35  1  0  0  0  0
  8 20  1  0  0  0  0
  8 36  1  0  0  0  0
  8 37  1  0  0  0  0
  9 20  2  0  0  0  0
  9 38  1  0  0  0  0
 10 12  1  0  0  0  0
 10 13  1  0  0  0  0
 10 21  1  0  0  0  0
 11 15  1  0  0  0  0
 11 22  1  0  0  0  0
 11 23  1  0  0  0  0
 12 25  1  0  0  0  0
 12 26  1  0  0  0  0
 12 27  1  0  0  0  0
 13 24  1  0  0  0  0
 13 28  1  0  0  0  0
 13 29  1  0  0  0  0
 14 16  1  0  0  0  0
 15 30  1  0  0  0  0
 15 31  1  0  0  0  0
 15 32  1  0  0  0  0
 17 18  2  0  0  0  0
 18 19  1  0  0  0  0
M  END
> <PUBCHEM_COMPOUND_CID>
135565707

> <PUBCHEM_CONFORMER_RMSD>
0.8

> <PUBCHEM_CONFORMER_DIVERSEORDER>
2
18
31
27
32
25
23
34
10
28
12
30
14
13
17
35
19
20
26
5
16
6
11
9
33
24
29
21
3
8
1
15
4
7
22

> <PUBCHEM_MMFF94_PARTIAL_CHARGES>
23
1 -0.18
10 0.37
11 0.37
14 0.41
16 0.49
17 0.41
18 0.4
19 0.54
2 -0.57
20 0.56
3 -0.84
33 0.4
34 0.4
35 0.37
36 0.4
37 0.4
38 0.4
4 -0.62
5 -0.62
6 -0.9
7 -0.49
8 -0.85
9 -0.85

> <PUBCHEM_EFFECTIVE_ROTOR_COUNT>
6

> <PUBCHEM_PHARMACOPHORE_FEATURES>
10
1 2 acceptor
1 5 acceptor
1 6 cation
1 6 donor
1 7 donor
1 8 donor
1 9 donor
3 10 12 13 hydrophobe
3 3 4 14 cation
6 4 5 14 16 17 18 rings

> <PUBCHEM_HEAVY_ATOM_COUNT>
20

> <PUBCHEM_ATOM_DEF_STEREO_COUNT>
0

> <PUBCHEM_ATOM_UDEF_STEREO_COUNT>
0

> <PUBCHEM_BOND_DEF_STEREO_COUNT>
0

> <PUBCHEM_BOND_UDEF_STEREO_COUNT>
0

> <PUBCHEM_ISOTOPIC_ATOM_COUNT>
0

> <PUBCHEM_COMPONENT_COUNT>
1

> <PUBCHEM_CACTVS_TAUTO_COUNT>
-1

> <PUBCHEM_CONFORMER_ID>
0814918B00000002

> <PUBCHEM_MMFF94_ENERGY>
76.4947

> <PUBCHEM_FEATURE_SELFOVERLAP>
50.87

> <PUBCHEM_SHAPE_FINGERPRINT>
11401426 45 17989197127505977237
12403259 226 18269265941072935489
124424 183 18409162212490418685
12507560 40 18187367678705136213
12553582 1 18201728366237870364
13140716 1 17986115333883968707
13583140 156 17821721754252224543
13675066 3 18334010631497398106
13760787 19 17168137919134002891
13760787 5 18271809063627385205
13862211 1 18271800207700369502
14251751 93 18259981608700473299
15099037 51 18412256216572633278
15196674 1 18410575076558473514
15209294 21 16845024419899750243
16752209 62 18269261396644121552
16945 1 18272367633067429953
17349148 13 17846775221838949198
18186145 218 17676200281992962424
19026448 4 17676485089832470925
200 152 18131624573823073092
20645477 70 18410291406890703358
21029758 11 18059848463526240584
21029758 27 18408892853516612940
21267235 1 18411150125856955658
22182313 1 18056779649316116335
23175994 123 18410575080452774133
23402539 116 17988351594590288652
23493267 7 18040991817893131897
23557571 272 17530684295250612397
23559900 14 18343294899693979248
2748010 2 18127704742161465359
34934 24 18341321276095144334
5104073 3 18410011005813969056
59755656 520 17822003165632250151

> <PUBCHEM_SHAPE_MULTIPOLES>
372.72
10.13
2.24
1.24
10.15
0.09
0.08
1.73
-0.8
-0.16
-0.07
-2.08
0.22
0.6

> <PUBCHEM_SHAPE_SELFOVERLAP>
755.808

> <PUBCHEM_SHAPE_VOLUME>
217.9

> <PUBCHEM_COORDINATE_TYPE>
2
5
10

$$$$
