REMARK  Name = 135501934
REMARK  5 active torsions:
REMARK  status: ('A' for Active; 'I' for Inactive)
REMARK    1  A    between atoms: N_2  and  C1*_17
REMARK    2  A    between atoms: C2*_16  and  O2*_20
REMARK    3  A    between atoms: C3*_18  and  O3*_22
REMARK    4  A    between atoms: C4*_19  and  C5*_24
REMARK    5  A    between atoms: C5*_24  and  O5*_25
REMARK                            x       y       z     vdW  Elec       q    Type
REMARK                         _______ _______ _______ _____ _____    ______ ____
ROOT
ATOM      1  O   UNL     1      -3.880   2.529  -0.400  0.00  0.00    -0.268 OA
ATOM      2  N   UNL     1       0.165   0.589   0.136  0.00  0.00    -0.237 N 
ATOM      3  N   UNL     1      -0.915   2.513  -0.231  0.00  0.00    -0.240 NA
ATOM      4  N   UNL     1      -1.700  -0.947   0.275  0.00  0.00    -0.356 NA
ATOM      5  N   UNL     1      -3.767   0.226  -0.027  0.00  0.00    -0.242 N 
ATOM      6  N   UNL     1      -3.747  -2.099   0.343  0.00  0.00    -0.294 N 
ATOM      7  C   UNL     1      -1.163   0.282   0.110  0.00  0.00    +0.211 C 
ATOM      8  C   UNL     1       0.264   1.943  -0.074  0.00  0.00    +0.224 C 
ATOM      9  C   UNL     1      -1.797   1.480  -0.116  0.00  0.00    +0.176 C 
ATOM     10  C   UNL     1      -3.231   1.510  -0.201  0.00  0.00    +0.273 C 
ATOM     11  C   UNL     1      -3.013  -0.950   0.202  0.00  0.00    +0.243 C 
ATOM     12  C   UNL     1      -3.136  -3.370   0.579  0.00  0.00    +0.112 C 
ATOM     13  H   UNL     1      -4.746   0.135  -0.068  0.00  0.00    +0.159 HD
ATOM     14  H   UNL     1      -4.728  -2.048   0.280  0.00  0.00    +0.150 HD
ENDROOT
BRANCH   2  17
ATOM     15  O4* UNL     1       2.419   0.286   1.022  0.00  0.00    -0.333 OA
ATOM     16  C2* UNL     1       1.892  -0.907  -0.953  0.00  0.00    +0.187 C 
ATOM     17  C1* UNL     1       1.318  -0.362   0.351  0.00  0.00    +0.226 C 
ATOM     18  C3* UNL     1       3.311  -1.257  -0.550  0.00  0.00    +0.171 C 
ATOM     19  C4* UNL     1       3.661  -0.126   0.409  0.00  0.00    +0.175 C 
BRANCH  16  20
ATOM     20  O2* UNL     1       1.171  -2.015  -1.453  0.00  0.00    -0.378 OA
ATOM     21  H2* UNL     1       0.274  -1.735  -1.694  0.00  0.00    +0.211 HD
ENDBRANCH  16  20
BRANCH  18  22
ATOM     22  O3* UNL     1       3.332  -2.480   0.186  0.00  0.00    -0.379 OA
ATOM     23  H3* UNL     1       3.111  -3.217  -0.404  0.00  0.00    +0.211 HD
ENDBRANCH  18  22
BRANCH  19  24
ATOM     24  C5* UNL     1       4.270   1.082  -0.291  0.00  0.00    +0.169 C 
BRANCH  24  25
ATOM     25  O5* UNL     1       4.547   2.076   0.680  0.00  0.00    -0.379 OA
ATOM     26  H5* UNL     1       4.936   2.851   0.247  0.00  0.00    +0.211 HD
ENDBRANCH  24  25
ENDBRANCH  19  24
ENDBRANCH   2  17
TORSDOF 5
