135567459
  -OEChem-03292013293D

 37 39  0     0  0  0  0  0  0999 V2000
   -4.6363    0.4141   -0.2402 S   0  0  0  0  0  0  0  0  0  0  0  0
    2.8818   -2.2555    0.0383 O   0  0  0  0  0  0  0  0  0  0  0  0
    5.4371   -2.6089   -0.7244 O   0  0  0  0  0  0  0  0  0  0  0  0
   -2.3112    1.7119   -0.7065 N   0  0  0  0  0  0  0  0  0  0  0  0
   -0.9889    2.7601    0.6277 N   0  0  0  0  0  0  0  0  0  0  0  0
   -2.2499    2.6854    0.2166 N   0  0  0  0  0  0  0  0  0  0  0  0
    4.9103   -1.3231   -0.5355 N   0  0  0  0  0  0  0  0  0  0  0  0
    1.1394    1.5876    0.1126 C   0  0  0  0  0  0  0  0  0  0  0  0
   -0.2683    1.8188   -0.0535 C   0  0  0  0  0  0  0  0  0  0  0  0
   -1.0946    1.1376   -0.9116 C   0  0  0  0  0  0  0  0  0  0  0  0
    1.6658    0.3120   -0.0913 C   0  0  0  0  0  0  0  0  0  0  0  0
   -3.5589    1.3852   -1.3486 C   0  0  0  0  0  0  0  0  0  0  0  0
    3.0330    0.0876    0.0700 C   0  0  0  0  0  0  0  0  0  0  0  0
    1.9804    2.6389    0.4779 C   0  0  0  0  0  0  0  0  0  0  0  0
    3.8740    1.1390    0.4352 C   0  0  0  0  0  0  0  0  0  0  0  0
    3.3476    2.4145    0.6394 C   0  0  0  0  0  0  0  0  0  0  0  0
   -3.5991   -1.0043    0.0946 C   0  0  0  0  0  0  0  0  0  0  0  0
    3.5822   -1.2424   -0.1417 C   0  0  0  0  0  0  0  0  0  0  0  0
   -3.1695   -1.8174   -0.9542 C   0  0  0  0  0  0  0  0  0  0  0  0
   -3.2204   -1.2972    1.4047 C   0  0  0  0  0  0  0  0  0  0  0  0
   -2.3609   -2.9236   -0.6928 C   0  0  0  0  0  0  0  0  0  0  0  0
   -2.4119   -2.4036    1.6661 C   0  0  0  0  0  0  0  0  0  0  0  0
   -1.9819   -3.2166    0.6173 C   0  0  0  0  0  0  0  0  0  0  0  0
   -0.9369    0.3405   -1.6251 H   0  0  0  0  0  0  0  0  0  0  0  0
    1.0189   -0.5175   -0.3694 H   0  0  0  0  0  0  0  0  0  0  0  0
   -4.0587    2.3226   -1.6123 H   0  0  0  0  0  0  0  0  0  0  0  0
   -3.3520    0.8372   -2.2727 H   0  0  0  0  0  0  0  0  0  0  0  0
    1.5921    3.6416    0.6399 H   0  0  0  0  0  0  0  0  0  0  0  0
    4.9392    1.0008    0.5956 H   0  0  0  0  0  0  0  0  0  0  0  0
    4.0014    3.2322    0.9289 H   0  0  0  0  0  0  0  0  0  0  0  0
   -3.4581   -1.6130   -1.9821 H   0  0  0  0  0  0  0  0  0  0  0  0
   -3.5445   -0.6740    2.2345 H   0  0  0  0  0  0  0  0  0  0  0  0
   -2.0270   -3.5574   -1.5091 H   0  0  0  0  0  0  0  0  0  0  0  0
   -2.1162   -2.6315    2.6859 H   0  0  0  0  0  0  0  0  0  0  0  0
   -1.3520   -4.0776    0.8207 H   0  0  0  0  0  0  0  0  0  0  0  0
    5.5558   -0.5545   -0.6734 H   0  0  0  0  0  0  0  0  0  0  0  0
    5.3852   -2.6740   -1.6931 H   0  0  0  0  0  0  0  0  0  0  0  0
  1 12  1  0  0  0  0
  1 17  1  0  0  0  0
  2 18  2  0  0  0  0
  3  7  1  0  0  0  0
  3 37  1  0  0  0  0
  4  6  1  0  0  0  0
  4 10  1  0  0  0  0
  4 12  1  0  0  0  0
  5  6  2  0  0  0  0
  5  9  1  0  0  0  0
  7 18  1  0  0  0  0
  7 36  1  0  0  0  0
  8  9  1  0  0  0  0
  8 11  2  0  0  0  0
  8 14  1  0  0  0  0
  9 10  2  0  0  0  0
 10 24  1  0  0  0  0
 11 13  1  0  0  0  0
 11 25  1  0  0  0  0
 12 26  1  0  0  0  0
 12 27  1  0  0  0  0
 13 15  2  0  0  0  0
 13 18  1  0  0  0  0
 14 16  2  0  0  0  0
 14 28  1  0  0  0  0
 15 16  1  0  0  0  0
 15 29  1  0  0  0  0
 16 30  1  0  0  0  0
 17 19  2  0  0  0  0
 17 20  1  0  0  0  0
 19 21  1  0  0  0  0
 19 31  1  0  0  0  0
 20 22  2  0  0  0  0
 20 32  1  0  0  0  0
 21 23  2  0  0  0  0
 21 33  1  0  0  0  0
 22 23  1  0  0  0  0
 22 34  1  0  0  0  0
 23 35  1  0  0  0  0
M  END
> <PUBCHEM_COMPOUND_CID>
135567459

> <PUBCHEM_CONFORMER_RMSD>
0.8

> <PUBCHEM_CONFORMER_DIVERSEORDER>
1
131
49
154
93
96
122
4
174
51
115
112
181
132
116
19
168
159
66
188
46
25
103
43
164
104
10
193
141
158
110
153
185
151
77
75
120
121
16
63
204
196
33
187
20
82
80
88
48
99
149
36
155
169
130
38
165
64
182
203
34
57
163
11
30
206
127
134
210
178
166
18
61
59
41
191
53
84
214
143
177
71
124
201
23
86
95
70
148
89
62
28
102
72
55
209
13
136
139
37
189
106
212
14
205
44
17
192
9
52
160
175
140
79
74
107
90
22
35
42
137
135
133
24
92
152
186
58
31
47
108
3
101
207
97
39
100
162
167
85
142
156
190
194
114
60
113
161
78
171
200
50
8
87
117
12
69
67
40
118
208
73
179
29
216
76
202
32
2
27
184
123
83
198
68
147
65
125
211
183
197
128
15
157
176
21
45
173
170
109
138
146
7
111
98
199
195
6
145
54
126
217
94
105
56
213
91
26
144
5
150
81
172
119
180
129
215

> <PUBCHEM_MMFF94_PARTIAL_CHARGES>
35
1 -0.33
10 -0.3
11 -0.15
12 0.49
13 0.09
14 -0.15
15 -0.15
16 -0.15
17 0.1
18 0.54
19 -0.15
2 -0.57
20 -0.15
21 -0.15
22 -0.15
23 -0.15
24 0.15
25 0.15
28 0.15
29 0.15
3 -0.44
30 0.15
31 0.15
32 0.15
33 0.15
34 0.15
35 0.15
36 0.37
37 0.4
4 0.31
5 -0.23
6 -0.42
7 -0.39
8 0.05
9 0.17

> <PUBCHEM_EFFECTIVE_ROTOR_COUNT>
6

> <PUBCHEM_PHARMACOPHORE_FEATURES>
5
1 2 acceptor
1 7 donor
5 4 5 6 9 10 rings
6 17 19 20 21 22 23 rings
6 8 11 13 14 15 16 rings

> <PUBCHEM_HEAVY_ATOM_COUNT>
23

> <PUBCHEM_ATOM_DEF_STEREO_COUNT>
0

> <PUBCHEM_ATOM_UDEF_STEREO_COUNT>
0

> <PUBCHEM_BOND_DEF_STEREO_COUNT>
0

> <PUBCHEM_BOND_UDEF_STEREO_COUNT>
0

> <PUBCHEM_ISOTOPIC_ATOM_COUNT>
0

> <PUBCHEM_COMPONENT_COUNT>
1

> <PUBCHEM_CACTVS_TAUTO_COUNT>
-1

> <PUBCHEM_CONFORMER_ID>
0814986300000001

> <PUBCHEM_MMFF94_ENERGY>
55.7275

> <PUBCHEM_FEATURE_SELFOVERLAP>
25.373

> <PUBCHEM_SHAPE_FINGERPRINT>
10616163 171 18266175226244547589
107951 10 17241045384785225867
1100329 8 17184747992218587299
11014199 57 17186722161072865206
11135609 12 18187372081236681536
11370993 144 18341900718364533281
11552529 35 17629765831814976911
12506688 2 18196092363785963745
12553582 1 18047481307123629095
12596599 1 17702965740755877775
12596602 18 14691988272697553158
12633257 1 18059309694285856659
13122387 1 17616530657847913227
13135754 10 17386872602649527025
13402501 40 18410576154305582383
13533116 47 18129094709933107359
14081887 123 18268980046089860433
14251740 79 18337955571606552659
14251757 5 18334023778287478158
14617045 38 18336273434922356599
14931854 50 18190736436520383135
15927050 60 17261033221566961469
17627616 140 17467635892805736826
17913733 40 17702370948821980392
20693207 138 18335417950483554148
21279426 13 18335689543351952757
221490 88 18410857685580785996
23466295 7 18115045055315778211
23559900 14 18410566293187420552
3298306 158 17900241023913808741
3737641 26 18196107740063860142
4015057 19 18199449113062522005
5309563 4 17253995767323381035
5486654 36 18268440044310173376
56633871 153 18049174542684566915
6138700 20 18337389349663492239
6433294 58 18410854330968871114
8809292 202 18408882932257983005
9709674 26 18337386140447189684

> <PUBCHEM_SHAPE_MULTIPOLES>
445.52
9.78
4.2
1.12
6.09
1.11
-0.15
4.52
0.94
0.26
-0.21
-0.9
0.31
1.91

> <PUBCHEM_SHAPE_SELFOVERLAP>
950.157

> <PUBCHEM_SHAPE_VOLUME>
249

> <PUBCHEM_COORDINATE_TYPE>
2
5
10

$$$$
