REMARK  Name = 135547541
REMARK  5 active torsions:
REMARK  status: ('A' for Active; 'I' for Inactive)
REMARK    1  A    between atoms: CA_7  and  C_30
REMARK    2  A    between atoms: C_8  and  C_16
REMARK    3  A    between atoms: C_11  and  O_27
REMARK    4  A    between atoms: C_22  and  O_25
REMARK    5  A    between atoms: C_30  and  O_31
REMARK                            x       y       z     vdW  Elec       q    Type
REMARK                         _______ _______ _______ _____ _____    ______ ____
ROOT
ATOM      1  N   UNL     1      -3.145   2.892   0.758  0.00  0.00    -0.312 N 
ATOM      2  N   UNL     1      -1.044  -1.677  -0.132  0.00  0.00    -0.261 NA
ATOM      3  C   UNL     1      -1.787   1.273   0.047  0.00  0.00    +0.015 C 
ATOM      4  C   UNL     1      -2.733   0.717   0.958  0.00  0.00    -0.004 C 
ATOM      5  C   UNL     1      -2.829  -0.729   1.291  0.00  0.00    +0.063 C 
ATOM      6  C   UNL     1      -0.715   0.728  -0.690  0.00  0.00    +0.052 C 
ATOM      7  CA  UNL     1      -2.482  -1.580   0.068  0.00  0.00    +0.205 C 
ATOM      8  C   UNL     1      -0.291  -0.690  -0.478  0.00  0.00    +0.081 C 
ATOM      9  C   UNL     1      -2.095   2.627  -0.091  0.00  0.00    +0.048 C 
ATOM     10  C   UNL     1      -3.542   1.745   1.391  0.00  0.00    +0.058 C 
ATOM     11  C   UNL     1      -0.029   1.567  -1.587  0.00  0.00    +0.135 C 
ATOM     12  C   UNL     1      -1.402   3.474  -0.960  0.00  0.00    +0.018 C 
ATOM     13  C   UNL     1      -0.371   2.913  -1.717  0.00  0.00    +0.038 C 
ATOM     14  H   UNL     1      -3.552   3.778   0.891  0.00  0.00    +0.152 HD
ENDROOT
BRANCH   8  16
ATOM     15  N   UNL     1       3.005  -1.962  -1.420  0.00  0.00    -0.312 N 
ATOM     16  C   UNL     1       1.154  -1.018  -0.640  0.00  0.00    +0.033 C 
ATOM     17  C   UNL     1       2.260  -0.490   0.082  0.00  0.00    +0.019 C 
ATOM     18  C   UNL     1       3.410  -1.099  -0.426  0.00  0.00    +0.049 C 
ATOM     19  C   UNL     1       1.643  -1.920  -1.556  0.00  0.00    +0.063 C 
ATOM     20  C   UNL     1       2.395   0.450   1.123  0.00  0.00    +0.038 C 
ATOM     21  C   UNL     1       4.692  -0.814   0.056  0.00  0.00    +0.018 C 
ATOM     22  C   UNL     1       3.671   0.745   1.615  0.00  0.00    +0.134 C 
ATOM     23  C   UNL     1       4.801   0.121   1.089  0.00  0.00    +0.038 C 
ATOM     24  H   UNL     1       3.608  -2.528  -1.954  0.00  0.00    +0.152 HD
BRANCH  22  25
ATOM     25  O   UNL     1       3.810   1.654   2.622  0.00  0.00    -0.506 OA
ATOM     26  H   UNL     1       3.053   2.076   2.979  0.00  0.00    +0.292 HD
ENDBRANCH  22  25
ENDBRANCH   8  16
BRANCH  11  27
ATOM     27  O   UNL     1       0.975   1.105  -2.389  0.00  0.00    -0.505 OA
ATOM     28  H   UNL     1       1.240   0.207  -2.338  0.00  0.00    +0.292 HD
ENDBRANCH  11  27
BRANCH   7  30
ATOM     29  OXT UNL     1      -2.252  -3.853   0.853  0.00  0.00    -0.248 OA
ATOM     30  C   UNL     1      -2.923  -2.991   0.306  0.00  0.00    +0.337 C 
BRANCH  30  31
ATOM     31  O   UNL     1      -4.176  -3.187  -0.172  0.00  0.00    -0.479 OA
ATOM     32  H   UNL     1      -4.637  -2.482  -0.582  0.00  0.00    +0.295 HD
ENDBRANCH  30  31
ENDBRANCH   7  30
TORSDOF 5
