REMARK  Name = 135503550
REMARK  4 active torsions:
REMARK  status: ('A' for Active; 'I' for Inactive)
REMARK    1  A    between atoms: N_2  and  C_14
REMARK    2  A    between atoms: C_15  and  O_18
REMARK    3  A    between atoms: C_17  and  C_20
REMARK    4  A    between atoms: C_20  and  O_21
REMARK                            x       y       z     vdW  Elec       q    Type
REMARK                         _______ _______ _______ _____ _____    ______ ____
ROOT
ATOM      1  O   UNL     1       4.597   1.365   0.415  0.00  0.00    -0.268 OA
ATOM      2  N   UNL     1       0.244   0.277  -0.152  0.00  0.00    -0.247 N 
ATOM      3  N   UNL     1       1.677   1.913   0.374  0.00  0.00    -0.241 NA
ATOM      4  N   UNL     1       1.785  -1.552  -0.542  0.00  0.00    -0.232 NA
ATOM      5  N   UNL     1       4.051  -0.819  -0.204  0.00  0.00    -0.279 N 
ATOM      6  C   UNL     1       1.490  -0.272  -0.219  0.00  0.00    +0.154 C 
ATOM      7  C   UNL     1       0.408   1.593   0.209  0.00  0.00    +0.223 C 
ATOM      8  C   UNL     1       2.346   0.755   0.108  0.00  0.00    +0.162 C 
ATOM      9  C   UNL     1       3.766   0.511   0.132  0.00  0.00    +0.267 C 
ATOM     10  C   UNL     1       3.069  -1.766  -0.518  0.00  0.00    +0.220 C 
ATOM     11  H   UNL     1       4.993  -1.103  -0.220  0.00  0.00    +0.152 HD
ENDROOT
BRANCH   2  14
ATOM     12  F   UNL     1      -3.356  -2.085  -0.403  0.00  0.00    -0.232 F 
ATOM     13  O   UNL     1      -2.043   0.504  -0.967  0.00  0.00    -0.333 OA
ATOM     14  C   UNL     1      -1.073  -0.412  -0.418  0.00  0.00    +0.225 C 
ATOM     15  C   UNL     1      -1.712  -0.986   0.840  0.00  0.00    +0.193 C 
ATOM     16  C   UNL     1      -3.167  -1.029   0.441  0.00  0.00    +0.221 C 
ATOM     17  C   UNL     1      -3.331   0.244  -0.367  0.00  0.00    +0.181 C 
BRANCH  15  18
ATOM     18  O   UNL     1      -1.207  -2.268   1.154  0.00  0.00    -0.378 OA
ATOM     19  H   UNL     1      -0.273  -2.195   1.404  0.00  0.00    +0.211 HD
ENDBRANCH  15  18
BRANCH  17  20
ATOM     20  C   UNL     1      -3.714   1.448   0.481  0.00  0.00    +0.170 C 
BRANCH  20  21
ATOM     21  O   UNL     1      -3.830   2.580  -0.363  0.00  0.00    -0.379 OA
ATOM     22  H   UNL     1      -4.074   3.355   0.167  0.00  0.00    +0.211 HD
ENDBRANCH  20  21
ENDBRANCH  17  20
ENDBRANCH   2  14
TORSDOF 4
