REMARK  Name = 135543745
REMARK  8 active torsions:
REMARK  status: ('A' for Active; 'I' for Inactive)
REMARK    1  A    between atoms: C_3  and  C_16
REMARK    2  A    between atoms: C_4  and  C_26
REMARK    3  A    between atoms: C_5  and  C_7
REMARK    4  A    between atoms: C_12  and  O_13
REMARK    5  A    between atoms: C_16  and  C_17
REMARK    6  A    between atoms: C_22  and  O_23
REMARK    7  A    between atoms: C_26  and  C_27
REMARK    8  A    between atoms: C_32  and  O_33
REMARK                            x       y       z     vdW  Elec       q    Type
REMARK                         _______ _______ _______ _____ _____    ______ ____
ROOT
ATOM      1  N   UNL     1      -1.480  -0.258   0.612  0.00  0.00    -0.399 NA
ATOM      2  N   UNL     1      -0.770  -2.780  -0.388  0.00  0.00    -0.257 NA
ATOM      3  C   UNL     1      -0.234  -0.755   0.748  0.00  0.00    +0.190 C 
ATOM      4  C   UNL     1       0.114  -1.994   0.257  0.00  0.00    +0.148 C 
ATOM      5  C   UNL     1      -2.364  -1.045  -0.033  0.00  0.00    +0.134 C 
ATOM      6  C   UNL     1      -2.016  -2.284  -0.524  0.00  0.00    +0.184 C 
ENDROOT
BRANCH   5   7
ATOM      7  C   UNL     1      -3.700  -0.508  -0.179  0.00  0.00    +0.028 C 
ATOM      8  C   UNL     1      -3.898   0.688  -0.868  0.00  0.00    +0.005 C 
ATOM      9  C   UNL     1      -4.789  -1.188   0.367  0.00  0.00    +0.005 C 
ATOM     10  C   UNL     1      -5.186   1.205  -1.011  0.00  0.00    +0.037 C 
ATOM     11  C   UNL     1      -6.076  -0.671   0.224  0.00  0.00    +0.037 C 
ATOM     12  C   UNL     1      -6.275   0.525  -0.465  0.00  0.00    +0.134 C 
BRANCH  12  13
ATOM     13  O   UNL     1      -7.532   1.028  -0.606  0.00  0.00    -0.506 OA
ATOM     14  H   UNL     1      -7.665   1.832  -1.068  0.00  0.00    +0.292 HD
ENDBRANCH  12  13
ENDBRANCH   5   7
BRANCH   3  16
ATOM     15  O   UNL     1       1.255  -0.285   2.489  0.00  0.00    -0.284 OA
ATOM     16  C   UNL     1       0.709   0.103   1.445  0.00  0.00    +0.226 C 
BRANCH  16  17
ATOM     17  C   UNL     1       1.066   1.469   0.953  0.00  0.00    +0.042 C 
ATOM     18  C   UNL     1       0.486   1.963  -0.215  0.00  0.00    +0.006 C 
ATOM     19  C   UNL     1       1.979   2.249   1.662  0.00  0.00    +0.006 C 
ATOM     20  C   UNL     1       0.819   3.237  -0.675  0.00  0.00    +0.037 C 
ATOM     21  C   UNL     1       2.313   3.523   1.203  0.00  0.00    +0.037 C 
ATOM     22  C   UNL     1       1.733   4.017   0.034  0.00  0.00    +0.134 C 
BRANCH  22  23
ATOM     23  O   UNL     1       2.058   5.260  -0.414  0.00  0.00    -0.506 OA
ATOM     24  H   UNL     1       1.669   5.592  -1.199  0.00  0.00    +0.292 HD
ENDBRANCH  22  23
ENDBRANCH  16  17
ENDBRANCH   3  16
BRANCH   4  26
ATOM     25  O   UNL     1       1.637  -3.604   1.003  0.00  0.00    -0.285 OA
ATOM     26  C   UNL     1       1.455  -2.539   0.395  0.00  0.00    +0.215 C 
BRANCH  26  27
ATOM     27  C   UNL     1       2.659  -1.861  -0.176  0.00  0.00    +0.041 C 
ATOM     28  C   UNL     1       2.541  -1.085  -1.329  0.00  0.00    +0.006 C 
ATOM     29  C   UNL     1       3.900  -2.005   0.445  0.00  0.00    +0.006 C 
ATOM     30  C   UNL     1       3.665  -0.453  -1.861  0.00  0.00    +0.037 C 
ATOM     31  C   UNL     1       5.023  -1.374  -0.088  0.00  0.00    +0.037 C 
ATOM     32  C   UNL     1       4.906  -0.598  -1.241  0.00  0.00    +0.134 C 
BRANCH  32  33
ATOM     33  O   UNL     1       6.002   0.019  -1.762  0.00  0.00    -0.506 OA
ATOM     34  H   UNL     1       5.923   0.540  -2.536  0.00  0.00    +0.292 HD
ENDBRANCH  32  33
ENDBRANCH  26  27
ENDBRANCH   4  26
TORSDOF 8
