REMARK  Name = 135570616
REMARK  7 active torsions:
REMARK  status: ('A' for Active; 'I' for Inactive)
REMARK    1  A    between atoms: C_8  and  O_33
REMARK    2  A    between atoms: C_12  and  O_31
REMARK    3  A    between atoms: C_13  and  C_25
REMARK    4  A    between atoms: C_14  and  N_19
REMARK    5  A    between atoms: C_20  and  C_23
REMARK    6  A    between atoms: C_27  and  C_29
REMARK    7  A    between atoms: O_33  and  C_35
REMARK                            x       y       z     vdW  Elec       q    Type
REMARK                         _______ _______ _______ _____ _____    ______ ____
ROOT
ATOM      1  O   UNL     1      -3.654  -2.708   0.186  0.00  0.00    -0.438 OA
ATOM      2  O   UNL     1      -4.354  -0.471  -0.274  0.00  0.00    -0.438 OA
ATOM      3  O   UNL     1       0.842  -3.696  -0.866  0.00  0.00    -0.287 OA
ATOM      4  C   UNL     1      -0.572  -0.515   0.091  0.00  0.00    +0.046 A 
ATOM      5  C   UNL     1      -2.006  -0.905  -0.041  0.00  0.00    +0.071 C 
ATOM      6  C   UNL     1       0.409  -1.486  -0.172  0.00  0.00    +0.077 A 
ATOM      7  C   UNL     1      -2.329  -2.339   0.021  0.00  0.00    +0.145 C 
ATOM      8  C   UNL     1      -0.136   0.739   0.550  0.00  0.00    +0.146 A 
ATOM      9  C   UNL     1      -1.397  -3.287  -0.185  0.00  0.00    +0.051 C 
ATOM     10  C   UNL     1       1.225   1.046   0.636  0.00  0.00    +0.029 A 
ATOM     11  C   UNL     1       0.017  -2.885  -0.458  0.00  0.00    +0.198 C 
ATOM     12  C   UNL     1       1.775  -1.178  -0.094  0.00  0.00    +0.150 A 
ATOM     13  C   UNL     1      -3.031  -0.057  -0.305  0.00  0.00    +0.142 C 
ATOM     14  C   UNL     1       2.180   0.094   0.297  0.00  0.00    +0.084 A 
ATOM     15  C   UNL     1      -1.675  -4.761  -0.206  0.00  0.00    +0.038 C 
ATOM     16  C   UNL     1      -4.502  -1.627   0.545  0.00  0.00    +0.429 C 
ATOM     17  C   UNL     1       1.652   2.397   1.124  0.00  0.00    +0.036 C 
ENDROOT
BRANCH  14  19
ATOM     18  O   UNL     1       4.559  -0.946  -1.281  0.00  0.00    -0.267 OA
ATOM     19  N   UNL     1       3.542   0.402   0.383  0.00  0.00    -0.276 N 
ATOM     20  C   UNL     1       4.574  -0.112  -0.390  0.00  0.00    +0.284 C 
ATOM     21  H   UNL     1       3.799   1.059   1.071  0.00  0.00    +0.155 HD
BRANCH  20  23
ATOM     22  O   UNL     1       6.769  -0.329   0.385  0.00  0.00    -0.286 OA
ATOM     23  C   UNL     1       5.917   0.449  -0.017  0.00  0.00    +0.227 C 
ATOM     24  C   UNL     1       6.103   1.929  -0.161  0.00  0.00    +0.082 C 
ENDBRANCH  20  23
ENDBRANCH  14  19
BRANCH  13  25
ATOM     25  C   UNL     1      -2.947   1.328  -0.697  0.00  0.00    +0.015 C 
ATOM     26  C   UNL     1      -3.992   2.218  -0.080  0.00  0.00    +0.034 C 
ATOM     27  C   UNL     1      -1.995   1.716  -1.569  0.00  0.00    +0.036 C 
BRANCH  27  29
ATOM     28  O   UNL     1      -1.978   4.087  -1.312  0.00  0.00    -0.291 OA
ATOM     29  C   UNL     1      -1.770   3.115  -2.031  0.00  0.00    +0.173 C 
ATOM     30  C   UNL     1      -1.211   3.278  -3.420  0.00  0.00    +0.077 C 
ENDBRANCH  27  29
ENDBRANCH  13  25
BRANCH  12  31
ATOM     31  O   UNL     1       2.741  -2.106  -0.363  0.00  0.00    -0.504 OA
ATOM     32  H   UNL     1       2.498  -2.971  -0.629  0.00  0.00    +0.292 HD
ENDBRANCH  12  31
BRANCH   8  33
ATOM     33  O   UNL     1      -1.003   1.657   1.076  0.00  0.00    -0.424 OA
BRANCH  33  35
ATOM     34  O   UNL     1      -1.096   0.513   3.116  0.00  0.00    -0.250 OA
ATOM     35  C   UNL     1      -1.175   1.545   2.462  0.00  0.00    +0.322 C 
ATOM     36  C   UNL     1      -1.482   2.892   3.046  0.00  0.00    +0.122 C 
ENDBRANCH  33  35
ENDBRANCH   8  33
TORSDOF 7
