135564756
  -OEChem-03292013293D

 32 33  0     0  0  0  0  0  0999 V2000
    3.2759   -3.5260    1.1511 Cl  0  0  0  0  0  0  0  0  0  0  0  0
   -0.6342    0.2035    0.2150 O   0  0  0  0  0  0  0  0  0  0  0  0
    2.5712    1.8769   -1.0444 O   0  0  0  0  0  0  0  0  0  0  0  0
   -3.9601    1.3428    0.6510 O   0  0  0  0  0  0  0  0  0  0  0  0
   -3.1677   -0.5980   -0.3804 N   0  0  0  0  0  0  0  0  0  0  0  0
   -4.2267   -2.4166   -1.4114 N   0  0  0  0  0  0  0  0  0  0  0  0
   -5.5028   -0.6681   -0.4998 N   0  0  0  0  0  0  0  0  0  0  0  0
    1.7307    0.0622    0.2897 C   0  0  0  0  0  0  0  0  0  0  0  0
    0.5255    0.7928    0.6077 C   0  0  0  0  0  0  0  0  0  0  0  0
    2.7142    0.6245   -0.5241 C   0  0  0  0  0  0  0  0  0  0  0  0
    0.2706    1.9885    1.2383 C   0  0  0  0  0  0  0  0  0  0  0  0
   -1.6407    1.0321    0.5990 C   0  0  0  0  0  0  0  0  0  0  0  0
    1.9042   -1.2213    0.8078 C   0  0  0  0  0  0  0  0  0  0  0  0
   -1.1362    2.1438    1.2328 C   0  0  0  0  0  0  0  0  0  0  0  0
    3.8710   -0.0967   -0.8200 C   0  0  0  0  0  0  0  0  0  0  0  0
    3.0610   -1.9424    0.5122 C   0  0  0  0  0  0  0  0  0  0  0  0
    4.0445   -1.3801   -0.3016 C   0  0  0  0  0  0  0  0  0  0  0  0
   -2.9759    0.6399    0.3016 C   0  0  0  0  0  0  0  0  0  0  0  0
    3.6324    2.3615   -1.8640 C   0  0  0  0  0  0  0  0  0  0  0  0
   -4.3569   -1.2193   -0.7607 C   0  0  0  0  0  0  0  0  0  0  0  0
    1.0030    2.6669    1.6527 H   0  0  0  0  0  0  0  0  0  0  0  0
    1.1401   -1.6630    1.4450 H   0  0  0  0  0  0  0  0  0  0  0  0
   -1.7057    2.9663    1.6417 H   0  0  0  0  0  0  0  0  0  0  0  0
    4.6785    0.2710   -1.4433 H   0  0  0  0  0  0  0  0  0  0  0  0
    4.9507   -1.9314   -0.5396 H   0  0  0  0  0  0  0  0  0  0  0  0
   -2.3200   -1.1058   -0.6228 H   0  0  0  0  0  0  0  0  0  0  0  0
    3.3515    3.3685   -2.1901 H   0  0  0  0  0  0  0  0  0  0  0  0
    3.7519    1.7585   -2.7706 H   0  0  0  0  0  0  0  0  0  0  0  0
    4.5663    2.4619   -1.3003 H   0  0  0  0  0  0  0  0  0  0  0  0
   -5.0380   -2.9381   -1.7250 H   0  0  0  0  0  0  0  0  0  0  0  0
   -3.3152   -2.8193   -1.6002 H   0  0  0  0  0  0  0  0  0  0  0  0
   -6.2494   -1.2742   -0.8572 H   0  0  0  0  0  0  0  0  0  0  0  0
  1 16  1  0  0  0  0
  2  9  1  0  0  0  0
  2 12  1  0  0  0  0
  3 10  1  0  0  0  0
  3 19  1  0  0  0  0
  4 18  2  0  0  0  0
  5 18  1  0  0  0  0
  5 20  1  0  0  0  0
  5 26  1  0  0  0  0
  6 20  1  0  0  0  0
  6 30  1  0  0  0  0
  6 31  1  0  0  0  0
  7 20  2  0  0  0  0
  7 32  1  0  0  0  0
  8  9  1  0  0  0  0
  8 10  2  0  0  0  0
  8 13  1  0  0  0  0
  9 11  2  0  0  0  0
 10 15  1  0  0  0  0
 11 14  1  0  0  0  0
 11 21  1  0  0  0  0
 12 14  2  0  0  0  0
 12 18  1  0  0  0  0
 13 16  2  0  0  0  0
 13 22  1  0  0  0  0
 14 23  1  0  0  0  0
 15 17  2  0  0  0  0
 15 24  1  0  0  0  0
 16 17  1  0  0  0  0
 17 25  1  0  0  0  0
 19 27  1  0  0  0  0
 19 28  1  0  0  0  0
 19 29  1  0  0  0  0
M  END
> <PUBCHEM_COMPOUND_CID>
135564756

> <PUBCHEM_CONFORMER_RMSD>
0.8

> <PUBCHEM_CONFORMER_DIVERSEORDER>
4
10
26
47
44
34
40
25
18
42
32
46
43
16
38
39
7
35
12
30
8
48
20
27
13
22
45
1
24
3
28
19
15
37
5
9
21
29
41
23
17
6
33
36
11
2
31
14

> <PUBCHEM_MMFF94_PARTIAL_CHARGES>
29
1 -0.18
10 0.08
11 -0.15
12 0.05
13 -0.15
14 -0.15
15 -0.15
16 0.18
17 -0.15
18 0.71
19 0.28
2 -0.28
20 0.56
21 0.15
22 0.15
23 0.15
24 0.15
25 0.15
26 0.37
3 -0.36
30 0.4
31 0.4
32 0.4
4 -0.57
5 -0.49
6 -0.85
7 -0.85
8 0.05
9 0.09

> <PUBCHEM_EFFECTIVE_ROTOR_COUNT>
5

> <PUBCHEM_PHARMACOPHORE_FEATURES>
8
1 2 acceptor
1 3 acceptor
1 4 acceptor
1 5 donor
1 6 donor
1 7 donor
5 2 9 11 12 14 rings
6 8 10 13 15 16 17 rings

> <PUBCHEM_HEAVY_ATOM_COUNT>
20

> <PUBCHEM_ATOM_DEF_STEREO_COUNT>
0

> <PUBCHEM_ATOM_UDEF_STEREO_COUNT>
0

> <PUBCHEM_BOND_DEF_STEREO_COUNT>
0

> <PUBCHEM_BOND_UDEF_STEREO_COUNT>
0

> <PUBCHEM_ISOTOPIC_ATOM_COUNT>
0

> <PUBCHEM_COMPONENT_COUNT>
1

> <PUBCHEM_CACTVS_TAUTO_COUNT>
-1

> <PUBCHEM_CONFORMER_ID>
08148DD400000004

> <PUBCHEM_MMFF94_ENERGY>
50.9836

> <PUBCHEM_FEATURE_SELFOVERLAP>
40.721

> <PUBCHEM_SHAPE_FINGERPRINT>
10062212 137 18342175514740743747
10616163 171 18201159862670650503
10759866 29 18336829796132598446
11069576 57 18339067233750213054
11543360 7 18040434429874989821
11578080 2 18195786523740014016
11582403 64 16518486161220713940
11725454 13 15937807643394484452
11806522 49 18412543181118882912
12410352 35 18341605984639377743
12553582 1 18131627911519200631
12788726 201 18059590074346516089
12892183 10 11455879304624280709
13009979 54 18126567817274307002
13167823 11 18411141316346184223
13899415 180 17459465538385167086
14252887 29 14548740586363527100
14576447 43 18409168771227603258
15003188 105 17551199167400909175
15003188 33 18188759562269621861
15099037 8 18266458711366257722
15342816 4 18202003252207416757
15375462 189 18342184370863055609
15537594 2 18199196255531707399
15842332 3 18268730323896137264
18186145 218 16153434930312422297
18222031 100 17132112485517608213
18915474 69 18342177773445129015
200 152 18336271162758206096
20281475 54 18341611491008718177
20291156 8 18201432597509882107
20626108 58 18190165794554613810
20645477 70 17822303383081473168
21054139 6 18338515348059242094
21634736 98 18409452466491467946
2255824 54 18188787071687684584
235170 7 17241036704266424295
23557571 272 16987161505132433608
23559900 14 17702390537777115012
23598288 3 18126311673767165217
25147074 1 18341063916706076200
3004659 81 18410852136018932999
312425 83 17677314074887853135
495365 180 15213289838034167048
603831 33 18340779194839571364
633830 44 17458629982388837521
67856867 119 18410290328938502960
7164475 11 18336544893940920044
7471813 234 18188772739292504500
960060 61 18337946900489328495

> <PUBCHEM_SHAPE_MULTIPOLES>
380.91
9.85
3.16
1.36
9.69
1.4
-0.22
5.08
-3.68
-2.36
0.14
-0.29
-0.36
-3.38

> <PUBCHEM_SHAPE_SELFOVERLAP>
809.742

> <PUBCHEM_SHAPE_VOLUME>
213.2

> <PUBCHEM_COORDINATE_TYPE>
2
5
10

$$$$
