REMARK  Name = 135508007
REMARK  5 active torsions:
REMARK  status: ('A' for Active; 'I' for Inactive)
REMARK    1  A    between atoms: N_2  and  C_15
REMARK    2  A    between atoms: C_15  and  O_16
REMARK    3  A    between atoms: O_16  and  C_17
REMARK    4  A    between atoms: C_17  and  C_19
REMARK    5  A    between atoms: C_19  and  O_20
REMARK                            x       y       z     vdW  Elec       q    Type
REMARK                         _______ _______ _______ _____ _____    ______ ____
ROOT
ATOM      1  O   UNL     1      -4.236   0.610   0.991  0.00  0.00    -0.268 OA
ATOM      2  N   UNL     1      -0.038   1.146  -0.592  0.00  0.00    -0.235 N 
ATOM      3  N   UNL     1      -1.825   2.185   0.261  0.00  0.00    -0.240 NA
ATOM      4  N   UNL     1      -0.821  -1.144  -0.607  0.00  0.00    -0.357 NA
ATOM      5  N   UNL     1      -3.052  -1.265   0.258  0.00  0.00    -0.243 N 
ATOM      6  N   UNL     1      -1.934  -3.208  -0.460  0.00  0.00    -0.321 N 
ATOM      7  C   UNL     1      -0.969   0.177  -0.362  0.00  0.00    +0.211 C 
ATOM      8  C   UNL     1      -2.050   0.844   0.160  0.00  0.00    +0.176 C 
ATOM      9  C   UNL     1      -0.600   2.337  -0.202  0.00  0.00    +0.224 C 
ATOM     10  C   UNL     1      -3.227   0.102   0.520  0.00  0.00    +0.273 C 
ATOM     11  C   UNL     1      -1.884  -1.849  -0.287  0.00  0.00    +0.239 C 
ATOM     12  H   UNL     1      -3.803  -1.866   0.469  0.00  0.00    +0.159 HD
ATOM     13  H   UNL     1      -1.158  -3.685  -0.834  0.00  0.00    +0.146 HD
ATOM     14  H   UNL     1      -2.745  -3.707  -0.210  0.00  0.00    +0.146 HD
ENDROOT
BRANCH   2  15
ATOM     15  C   UNL     1       1.285   0.973  -1.140  0.00  0.00    +0.244 C 
BRANCH  15  16
ATOM     16  O   UNL     1       2.122   0.416  -0.131  0.00  0.00    -0.323 OA
BRANCH  16  17
ATOM     17  C   UNL     1       3.452   0.228  -0.596  0.00  0.00    +0.253 C 
BRANCH  17  19
ATOM     18  O   UNL     1       3.919  -0.619   1.633  0.00  0.00    -0.247 OA
ATOM     19  C   UNL     1       4.296  -0.361   0.500  0.00  0.00    +0.344 C 
BRANCH  19  20
ATOM     20  O   UNL     1       5.561  -0.572   0.054  0.00  0.00    -0.478 OA
ATOM     21  H   UNL     1       5.790  -0.352  -0.827  0.00  0.00    +0.295 HD
ENDBRANCH  19  20
ENDBRANCH  17  19
ENDBRANCH  16  17
ENDBRANCH  15  16
ENDBRANCH   2  15
TORSDOF 5
