REMARK  Name = 135596587
REMARK  6 active torsions:
REMARK  status: ('A' for Active; 'I' for Inactive)
REMARK    1  A    between atoms: N_2  and  C_4
REMARK    2  A    between atoms: N_2  and  N_20
REMARK    3  A    between atoms: N_3  and  C_4
REMARK    4  A    between atoms: C_5  and  C_11
REMARK    5  A    between atoms: N_20  and  C_22
REMARK    6  A    between atoms: C_22  and  C_23
REMARK                            x       y       z     vdW  Elec       q    Type
REMARK                         _______ _______ _______ _____ _____    ______ ____
ROOT
ATOM      1  O   UNL     1       2.193   1.975   1.066  0.00  0.00    -0.267 OA
ATOM      2  N   UNL     1       1.389   0.094  -0.043  0.00  0.00    -0.283 N 
ATOM      3  C   UNL     1       2.388   0.931   0.448  0.00  0.00    +0.281 C 
ATOM      4  H   UNL     1       1.666  -0.719  -0.525  0.00  0.00    +0.151 HD
ENDROOT
BRANCH   3   9
ATOM      5 CL   UNL     1       5.363  -3.001  -0.108  0.00  0.00    -0.044 Cl
ATOM      6  N   UNL     1       3.949  -0.860   0.162  0.00  0.00    -0.378 NA
ATOM      7  N   UNL     1       6.097   0.917  -0.147  0.00  0.00    -0.367 NA
ATOM      8  N   UNL     1       7.563  -0.927  -0.422  0.00  0.00    -0.330 N 
ATOM      9  C   UNL     1       3.783   0.477   0.216  0.00  0.00    +0.229 C 
ATOM     10  C   UNL     1       4.838   1.349   0.064  0.00  0.00    +0.213 C 
ATOM     11  C   UNL     1       6.263  -0.419  -0.201  0.00  0.00    +0.220 C 
ATOM     12  C   UNL     1       5.208  -1.292  -0.049  0.00  0.00    +0.232 C 
ATOM     13  H   UNL     1       8.320  -0.308  -0.531  0.00  0.00    +0.145 HD
ATOM     14  H   UNL     1       7.710  -1.899  -0.466  0.00  0.00    +0.145 HD
ATOM     15  N   UNL     1       4.600   2.741   0.131  0.00  0.00    -0.331 N 
ATOM     16  H   UNL     1       5.346   3.374   0.023  0.00  0.00    +0.145 HD
ATOM     17  H   UNL     1       3.687   3.077   0.285  0.00  0.00    +0.145 HD
ENDBRANCH   3   9
BRANCH   2  18
ATOM     18  C   UNL     1       0.040   0.331   0.100  0.00  0.00    +0.200 C 
BRANCH  18  19
ATOM     19  N   UNL     1      -0.831  -0.489  -0.380  0.00  0.00    -0.128 NA
BRANCH  19  20
ATOM     20  N   UNL     1      -2.101  -0.097  -0.150  0.00  0.00    -0.222 NA
ATOM     21  H   UNL     1      -2.337   0.513   0.586  0.00  0.00    +0.143 HD
BRANCH  20  22
ATOM     22  C   UNL     1      -3.100  -0.634  -1.059  0.00  0.00    +0.112 C 
BRANCH  22  23
ATOM     23  C   UNL     1      -4.499  -0.294  -0.620  0.00  0.00    -0.009 C 
ATOM     24  C   UNL     1      -5.104  -0.972   0.439  0.00  0.00    -0.025 C 
ATOM     25  C   UNL     1      -7.093   0.372   0.162  0.00  0.00    -0.022 C 
ATOM     26  C   UNL     1      -6.401  -0.639   0.830  0.00  0.00    -0.009 C 
ATOM     27  C   UNL     1      -5.191   0.717  -1.287  0.00  0.00    -0.004 C 
ATOM     28  C   UNL     1      -6.488   1.050  -0.896  0.00  0.00    -0.005 C 
ATOM     29  C   UNL     1      -4.383  -2.057   1.168  0.00  0.00    +0.031 C 
ATOM     30  C   UNL     1      -8.480   0.727   0.579  0.00  0.00    +0.031 C 
ENDBRANCH  22  23
ENDBRANCH  20  22
ENDBRANCH  19  20
ENDBRANCH  18  19
ENDBRANCH   2  18
TORSDOF 6
