REMARK  Name = 135508868
REMARK  5 active torsions:
REMARK  status: ('A' for Active; 'I' for Inactive)
REMARK    1  A    between atoms: N_2  and  C_15
REMARK    2  A    between atoms: C_15  and  C_18
REMARK    3  A    between atoms: C_20  and  P_21
REMARK    4  A    between atoms: P_21  and  O_23
REMARK    5  A    between atoms: P_21  and  O_25
REMARK                            x       y       z     vdW  Elec       q    Type
REMARK                         _______ _______ _______ _____ _____    ______ ____
ROOT
ATOM      1  O   UNL     1      -4.841  -0.131  -1.229  0.00  0.00    -0.268 OA
ATOM      2  N   UNL     1      -0.979   1.436   0.515  0.00  0.00    -0.259 N 
ATOM      3  N   UNL     1      -2.825   1.967  -0.630  0.00  0.00    -0.240 NA
ATOM      4  N   UNL     1      -1.350  -0.927   0.885  0.00  0.00    -0.357 NA
ATOM      5  N   UNL     1      -3.429  -1.605  -0.094  0.00  0.00    -0.243 N 
ATOM      6  N   UNL     1      -2.066  -3.159   1.033  0.00  0.00    -0.321 N 
ATOM      7  C   UNL     1      -1.700   0.284   0.398  0.00  0.00    +0.210 C 
ATOM      8  C   UNL     1      -1.697   2.420  -0.119  0.00  0.00    +0.222 C 
ATOM      9  C   UNL     1      -2.823   0.642  -0.307  0.00  0.00    +0.176 C 
ATOM     10  C   UNL     1      -3.811  -0.357  -0.607  0.00  0.00    +0.273 C 
ATOM     11  C   UNL     1      -2.237  -1.862   0.624  0.00  0.00    +0.239 C 
ATOM     12  H   UNL     1      -4.039  -2.362  -0.246  0.00  0.00    +0.159 HD
ATOM     13  H   UNL     1      -1.261  -3.415   1.538  0.00  0.00    +0.146 HD
ATOM     14  H   UNL     1      -2.750  -3.836   0.821  0.00  0.00    +0.146 HD
ENDROOT
BRANCH   2  15
ATOM     15  C   UNL     1       0.352   1.614   1.203  0.00  0.00    +0.127 C 
BRANCH  15  18
ATOM     16  O   UNL     1       1.606   0.478  -0.528  0.00  0.00    -0.320 OA
ATOM     17  O   UNL     1       3.746   1.370  -0.156  0.00  0.00    -0.319 OA
ATOM     18  C   UNL     1       1.498   1.694   0.217  0.00  0.00    +0.168 C 
ATOM     19  C   UNL     1       2.856   1.826   0.864  0.00  0.00    +0.177 C 
ATOM     20  C   UNL     1       2.986   0.403  -0.879  0.00  0.00    +0.343 C 
BRANCH  20  21
ATOM     21  P   UNL     1       3.540  -1.190  -0.294  0.00  0.00    +0.393 P 
ATOM     22  O   UNL     1       3.367  -1.404   1.178  0.00  0.00    -0.253 OA
BRANCH  21  23
ATOM     23  O   UNL     1       2.747  -2.228  -1.242  0.00  0.00    -0.320 OA
ATOM     24  H   UNL     1       2.986  -3.136  -0.998  0.00  0.00    +0.220 HD
ENDBRANCH  21  23
BRANCH  21  25
ATOM     25  O   UNL     1       5.061  -1.272  -0.831  0.00  0.00    -0.320 OA
ATOM     26  H   UNL     1       5.455  -2.115  -0.559  0.00  0.00    +0.220 HD
ENDBRANCH  21  25
ENDBRANCH  20  21
ENDBRANCH  15  18
ENDBRANCH   2  15
TORSDOF 5
