135565267
  -OEChem-03292013293D

 39 41  0     1  0  0  0  0  0999 V2000
   -3.9120    0.5987    1.5208 O   0  0  0  0  0  0  0  0  0  0  0  0
   -5.0995   -1.1843   -0.4333 O   0  0  0  0  0  0  0  0  0  0  0  0
    0.1503    2.5126   -0.0490 O   0  0  0  0  0  0  0  0  0  0  0  0
   -0.2778   -2.8136   -0.0050 O   0  0  0  0  0  0  0  0  0  0  0  0
    2.6808    2.3980    0.1245 O   0  0  0  0  0  0  0  0  0  0  0  0
    2.2542   -3.1009    0.1517 O   0  0  0  0  0  0  0  0  0  0  0  0
    4.8973    0.8201    0.2805 O   0  0  0  0  0  0  0  0  0  0  0  0
   -3.8255    0.8313    0.1095 C   0  0  2  0  0  0  0  0  0  0  0  0
   -3.8612   -0.5100   -0.6409 C   0  0  1  0  0  0  0  0  0  0  0  0
   -2.4825    1.5384   -0.1596 C   0  0  0  0  0  0  0  0  0  0  0  0
   -2.7108   -1.4283   -0.2122 C   0  0  0  0  0  0  0  0  0  0  0  0
   -1.2796    0.6205   -0.1022 C   0  0  0  0  0  0  0  0  0  0  0  0
   -1.3846   -0.7187   -0.1077 C   0  0  0  0  0  0  0  0  0  0  0  0
   -4.9935    1.7424   -0.2781 C   0  0  0  0  0  0  0  0  0  0  0  0
    0.0494    1.2907   -0.0321 C   0  0  0  0  0  0  0  0  0  0  0  0
   -0.1809   -1.5914   -0.0181 C   0  0  0  0  0  0  0  0  0  0  0  0
    1.2517    0.4433    0.0531 C   0  0  0  0  0  0  0  0  0  0  0  0
    1.1407   -0.9454    0.0600 C   0  0  0  0  0  0  0  0  0  0  0  0
    2.5153    1.0431    0.1272 C   0  0  0  0  0  0  0  0  0  0  0  0
    2.2928   -1.7378    0.1412 C   0  0  0  0  0  0  0  0  0  0  0  0
    3.6610    0.2511    0.2078 C   0  0  0  0  0  0  0  0  0  0  0  0
    3.5498   -1.1373    0.2148 C   0  0  0  0  0  0  0  0  0  0  0  0
    5.5647    1.0776   -0.9531 C   0  0  0  0  0  0  0  0  0  0  0  0
   -3.7833   -0.3151   -1.7189 H   0  0  0  0  0  0  0  0  0  0  0  0
   -2.3511    2.3443    0.5743 H   0  0  0  0  0  0  0  0  0  0  0  0
   -2.4989    1.9997   -1.1559 H   0  0  0  0  0  0  0  0  0  0  0  0
   -2.6464   -2.2501   -0.9371 H   0  0  0  0  0  0  0  0  0  0  0  0
   -2.9449   -1.8983    0.7520 H   0  0  0  0  0  0  0  0  0  0  0  0
   -5.9525    1.2989    0.0118 H   0  0  0  0  0  0  0  0  0  0  0  0
   -5.0112    1.9374   -1.3552 H   0  0  0  0  0  0  0  0  0  0  0  0
   -4.9293    2.7036    0.2449 H   0  0  0  0  0  0  0  0  0  0  0  0
   -3.8996    1.4600    1.9720 H   0  0  0  0  0  0  0  0  0  0  0  0
   -5.0692   -2.0152   -0.9375 H   0  0  0  0  0  0  0  0  0  0  0  0
    4.4439   -1.7530    0.2783 H   0  0  0  0  0  0  0  0  0  0  0  0
    1.8273    2.8547    0.1047 H   0  0  0  0  0  0  0  0  0  0  0  0
    1.3427   -3.4220    0.0872 H   0  0  0  0  0  0  0  0  0  0  0  0
    5.7439    0.1431   -1.4941 H   0  0  0  0  0  0  0  0  0  0  0  0
    4.9799    1.7644   -1.5731 H   0  0  0  0  0  0  0  0  0  0  0  0
    6.5289    1.5428   -0.7303 H   0  0  0  0  0  0  0  0  0  0  0  0
  1  8  1  0  0  0  0
  1 32  1  0  0  0  0
  2  9  1  0  0  0  0
  2 33  1  0  0  0  0
  3 15  2  0  0  0  0
  4 16  2  0  0  0  0
  5 19  1  0  0  0  0
  5 35  1  0  0  0  0
  6 20  1  0  0  0  0
  6 36  1  0  0  0  0
  7 21  1  0  0  0  0
  7 23  1  0  0  0  0
  8  9  1  0  0  0  0
  8 10  1  0  0  0  0
  8 14  1  0  0  0  0
  9 11  1  0  0  0  0
  9 24  1  0  0  0  0
 10 12  1  0  0  0  0
 10 25  1  0  0  0  0
 10 26  1  0  0  0  0
 11 13  1  0  0  0  0
 11 27  1  0  0  0  0
 11 28  1  0  0  0  0
 12 13  2  0  0  0  0
 12 15  1  0  0  0  0
 13 16  1  0  0  0  0
 14 29  1  0  0  0  0
 14 30  1  0  0  0  0
 14 31  1  0  0  0  0
 15 17  1  0  0  0  0
 16 18  1  0  0  0  0
 17 18  2  0  0  0  0
 17 19  1  0  0  0  0
 18 20  1  0  0  0  0
 19 21  2  0  0  0  0
 20 22  2  0  0  0  0
 21 22  1  0  0  0  0
 22 34  1  0  0  0  0
 23 37  1  0  0  0  0
 23 38  1  0  0  0  0
 23 39  1  0  0  0  0
M  END
> <PUBCHEM_COMPOUND_CID>
135565267

> <PUBCHEM_CONFORMER_RMSD>
0.6

> <PUBCHEM_CONFORMER_DIVERSEORDER>
1
2

> <PUBCHEM_MMFF94_PARTIAL_CHARGES>
27
1 -0.68
10 0.14
11 0.14
12 -0.12
13 -0.12
15 0.47
16 0.47
17 0.09
18 0.09
19 0.08
2 -0.68
20 0.08
21 0.08
22 -0.15
23 0.28
3 -0.57
32 0.4
33 0.4
34 0.15
35 0.45
36 0.45
4 -0.57
5 -0.53
6 -0.53
7 -0.36
8 0.28
9 0.28

> <PUBCHEM_EFFECTIVE_ROTOR_COUNT>
1.8

> <PUBCHEM_PHARMACOPHORE_FEATURES>
12
1 1 acceptor
1 1 donor
1 2 acceptor
1 2 donor
1 3 acceptor
1 4 acceptor
1 5 donor
1 6 donor
1 7 acceptor
6 12 13 15 16 17 18 rings
6 17 18 19 20 21 22 rings
6 8 9 10 11 12 13 rings

> <PUBCHEM_HEAVY_ATOM_COUNT>
23

> <PUBCHEM_ATOM_DEF_STEREO_COUNT>
2

> <PUBCHEM_ATOM_UDEF_STEREO_COUNT>
0

> <PUBCHEM_BOND_DEF_STEREO_COUNT>
0

> <PUBCHEM_BOND_UDEF_STEREO_COUNT>
0

> <PUBCHEM_ISOTOPIC_ATOM_COUNT>
0

> <PUBCHEM_COMPONENT_COUNT>
1

> <PUBCHEM_CACTVS_TAUTO_COUNT>
-1

> <PUBCHEM_CONFORMER_ID>
08148FD300000001

> <PUBCHEM_MMFF94_ENERGY>
75.669

> <PUBCHEM_FEATURE_SELFOVERLAP>
60.94

> <PUBCHEM_SHAPE_FINGERPRINT>
10411042 1 17545881525368295810
10616163 171 18340486763390778271
10906281 52 18262252074673693536
10967382 1 18410571743410787130
11132069 177 18411130312486893689
11471102 20 18410570661158006926
12011746 2 18410290349853689694
12107183 9 17693943986273247681
12236239 1 17917991655533320561
12403814 3 17603297163565801917
12644460 14 18261393308837165754
12788726 201 17702953517373938320
13140716 1 18266460906110623531
13224815 77 18410009918854802931
138480 1 17978508629313256810
13862211 1 18409725154265485482
14787075 74 18334575750061228762
14790565 3 18337115686837160820
15196674 1 18410853235446073687
15442244 35 18196370316773096315
15536298 74 18343299232487818646
1601671 61 18409730660197443524
16945 1 18265895937416791906
17492 89 18340765958120208551
18186145 218 18271810090134858575
19591789 44 18338797947726306478
200 152 18202556290109444381
20645477 70 18265607698172662311
20739085 24 18120115899668628360
21267235 1 18339930406206686607
21279426 13 18340489963536702238
21421861 104 17897437299042914714
221490 88 18337114453754077459
2334 1 18411133649544756703
23366157 5 17969504810482569018
23402539 116 18343013402424865044
23402655 69 18342452625619153573
23463225 33 18410571743299926415
23559900 14 18197769999666115202
2748010 2 18409725123525448782
3004659 81 18335140857127527718
335352 9 18267019457874966142
34797466 226 16558746870719508568
34934 24 18410851040670202223
350125 39 18411139186416808841
3545911 37 18411981364889309805
3680242 22 18335133151502505538
4409770 3 16023937423443220294
474 4 18334294292269596938
5104073 3 18410853231283067035
7364860 26 18341048498142709318
9709674 26 18410858750253062767

> <PUBCHEM_SHAPE_MULTIPOLES>
432.24
10.04
2.69
0.75
0.47
0.85
0.06
-3
-0.98
-0.72
-0.02
0.18
-0.08
-0.49

> <PUBCHEM_SHAPE_SELFOVERLAP>
955.318

> <PUBCHEM_SHAPE_VOLUME>
230.4

> <PUBCHEM_COORDINATE_TYPE>
2
5
10

$$$$
