135505752
  -OEChem-03292013293D

 35 35  0     1  0  0  0  0  0999 V2000
    0.4458    1.3438   -1.0639 S   0  0  0  0  0  0  0  0  0  0  0  0
   -0.5981   -1.6925    1.2695 O   0  0  0  0  0  0  0  0  0  0  0  0
   -1.8378    2.5265   -0.4922 O   0  0  0  0  0  0  0  0  0  0  0  0
   -3.6681   -1.5085    0.0417 O   0  0  0  0  0  0  0  0  0  0  0  0
   -4.9011    0.4284    0.1334 N   0  0  0  0  0  0  0  0  0  0  0  0
    0.7467   -0.2949   -0.2787 C   0  0  2  0  0  0  0  0  0  0  0  0
    0.9118   -1.3411   -1.3844 C   0  0  0  0  0  0  0  0  0  0  0  0
   -0.4981   -0.5276    0.5392 C   0  0  0  0  0  0  0  0  0  0  0  0
   -1.4684    0.3967    0.5354 C   0  0  0  0  0  0  0  0  0  0  0  0
    1.9806   -0.1816    0.5657 C   0  0  0  0  0  0  0  0  0  0  0  0
   -1.1264    1.5502   -0.3185 C   0  0  0  0  0  0  0  0  0  0  0  0
   -0.2633   -1.3197   -2.3404 C   0  0  0  0  0  0  0  0  0  0  0  0
   -2.7647    0.3662    1.2650 C   0  0  0  0  0  0  0  0  0  0  0  0
    3.2549    0.0251    0.1733 C   0  0  0  0  0  0  0  0  0  0  0  0
    3.6792    0.1973   -1.2618 C   0  0  0  0  0  0  0  0  0  0  0  0
   -3.8007   -0.3471    0.4218 C   0  0  0  0  0  0  0  0  0  0  0  0
    4.2988    0.0910    1.1965 C   0  0  0  0  0  0  0  0  0  0  0  0
    5.6087    0.2878    0.9986 C   0  0  0  0  0  0  0  0  0  0  0  0
    1.8174   -1.2563   -1.9840 H   0  0  0  0  0  0  0  0  0  0  0  0
    0.9707   -2.3428   -0.9363 H   0  0  0  0  0  0  0  0  0  0  0  0
    1.8056   -0.2814    1.6391 H   0  0  0  0  0  0  0  0  0  0  0  0
   -0.1837   -2.1838   -3.0117 H   0  0  0  0  0  0  0  0  0  0  0  0
   -0.2779   -0.4426   -2.9934 H   0  0  0  0  0  0  0  0  0  0  0  0
   -1.2326   -1.4135   -1.8429 H   0  0  0  0  0  0  0  0  0  0  0  0
   -3.0896    1.3774    1.5322 H   0  0  0  0  0  0  0  0  0  0  0  0
   -2.6722   -0.1847    2.2085 H   0  0  0  0  0  0  0  0  0  0  0  0
    0.2267   -2.1936    1.1553 H   0  0  0  0  0  0  0  0  0  0  0  0
    4.1898   -0.7038   -1.6185 H   0  0  0  0  0  0  0  0  0  0  0  0
    4.3732    1.0410   -1.3574 H   0  0  0  0  0  0  0  0  0  0  0  0
    2.8832    0.4406   -1.9626 H   0  0  0  0  0  0  0  0  0  0  0  0
    3.9752   -0.0276    2.2296 H   0  0  0  0  0  0  0  0  0  0  0  0
   -4.9963    1.3863    0.4547 H   0  0  0  0  0  0  0  0  0  0  0  0
   -5.6650    0.0596   -0.4233 H   0  0  0  0  0  0  0  0  0  0  0  0
    6.2830    0.3193    1.8489 H   0  0  0  0  0  0  0  0  0  0  0  0
    6.0513    0.4127    0.0178 H   0  0  0  0  0  0  0  0  0  0  0  0
  1  6  1  0  0  0  0
  1 11  1  0  0  0  0
  2  8  1  0  0  0  0
  2 27  1  0  0  0  0
  3 11  2  0  0  0  0
  4 16  2  0  0  0  0
  5 16  1  0  0  0  0
  5 32  1  0  0  0  0
  5 33  1  0  0  0  0
  6  7  1  0  0  0  0
  6  8  1  0  0  0  0
  6 10  1  0  0  0  0
  7 12  1  0  0  0  0
  7 19  1  0  0  0  0
  7 20  1  0  0  0  0
  8  9  2  0  0  0  0
  9 11  1  0  0  0  0
  9 13  1  0  0  0  0
 10 14  2  0  0  0  0
 10 21  1  0  0  0  0
 12 22  1  0  0  0  0
 12 23  1  0  0  0  0
 12 24  1  0  0  0  0
 13 16  1  0  0  0  0
 13 25  1  0  0  0  0
 13 26  1  0  0  0  0
 14 15  1  0  0  0  0
 14 17  1  0  0  0  0
 15 28  1  0  0  0  0
 15 29  1  0  0  0  0
 15 30  1  0  0  0  0
 17 18  2  0  0  0  0
 17 31  1  0  0  0  0
 18 34  1  0  0  0  0
 18 35  1  0  0  0  0
M  END
> <PUBCHEM_COMPOUND_CID>
135505752

> <PUBCHEM_CONFORMER_RMSD>
0.8

> <PUBCHEM_CONFORMER_DIVERSEORDER>
1
45
21
57
37
38
6
60
46
27
22
39
56
34
41
10
59
48
18
30
54
52
36
15
26
50
25
51
47
7
55
35
58
33
61
4
62
53
16
44
11
40
29
19
14
9
43
24
28
32
23
31
8
12
20
2
49
13
42
5
17
3

> <PUBCHEM_MMFF94_PARTIAL_CHARGES>
23
1 -0.37
10 -0.29
11 0.7
13 0.2
14 -0.14
15 0.14
16 0.57
17 -0.15
18 -0.3
2 -0.53
21 0.15
27 0.45
3 -0.57
31 0.15
32 0.37
33 0.37
34 0.15
35 0.15
4 -0.57
5 -0.8
6 0.51
8 -0.06
9 -0.12

> <PUBCHEM_EFFECTIVE_ROTOR_COUNT>
5.4

> <PUBCHEM_PHARMACOPHORE_FEATURES>
7
1 12 hydrophobe
1 15 hydrophobe
1 18 hydrophobe
1 2 donor
1 4 acceptor
1 5 donor
5 1 6 8 9 11 rings

> <PUBCHEM_HEAVY_ATOM_COUNT>
18

> <PUBCHEM_ATOM_DEF_STEREO_COUNT>
0

> <PUBCHEM_ATOM_UDEF_STEREO_COUNT>
1

> <PUBCHEM_BOND_DEF_STEREO_COUNT>
1

> <PUBCHEM_BOND_UDEF_STEREO_COUNT>
0

> <PUBCHEM_ISOTOPIC_ATOM_COUNT>
0

> <PUBCHEM_COMPONENT_COUNT>
1

> <PUBCHEM_CACTVS_TAUTO_COUNT>
-1

> <PUBCHEM_CONFORMER_ID>
0813A75800000001

> <PUBCHEM_MMFF94_ENERGY>
33.778

> <PUBCHEM_FEATURE_SELFOVERLAP>
35.523

> <PUBCHEM_SHAPE_FINGERPRINT>
10922049 32 16271932614252405438
11132069 177 18271813427435249841
11401426 45 18260545628263677361
12119455 92 18060414716214118530
12236239 1 16877664564983946000
12251169 10 17967250906139495080
12403814 3 18272922838836068556
12507560 40 18339074875034238266
13134695 92 15502667030367038903
13296909 8 17604143718820967388
13583140 156 18265309769323888352
14943859 89 15841550782102882562
15048467 5 17275107206814950473
15207287 21 18411707594735879091
15219456 202 18128258887178683236
15375462 478 18333730221525065724
16945 1 18335713744606493820
17862501 102 17821725022769576000
17980427 23 18334017176885945029
1813 80 15430323460812476138
18186145 218 16845570877642913156
18915476 22 17344911815053154653
19010151 120 18334582373280672377
200 152 16515677845250696312
20344682 1 18202003226653708693
204376 136 17346596387337052742
20600515 1 18187662305114599209
20645477 56 17560792269498947280
20645477 70 14129057007010982696
22079108 93 16558458768734698402
22224240 67 17418089949374897139
22854114 59 18060421309152415912
23175994 123 12540700301269166759
23227448 37 16629386142461071592
23402539 116 18334287686741900867
23419403 2 16408108366060659253
23532345 42 18339932596455235367
23557571 272 18268446649843274013
23559900 14 18263100846169135046
26918003 58 16950285113296695033
2748010 2 17900555479453612301
296302 2 17022912275785037797
347723 3 8646776607467703508
4072396 5 17894908499560766665
4340502 62 16773806904680682687
474 4 15769487716682730504
474229 33 17060335262233239927
59755656 520 16773792606744909324
69090 78 17775562057189748166
81228 2 17973751107087741041
9925002 15 17699558448868657013

> <PUBCHEM_SHAPE_MULTIPOLES>
351.69
8.53
1.65
1.56
4.15
0.92
0.29
-2.54
-2.55
-0.33
0.59
-0.19
-0.16
0.88

> <PUBCHEM_SHAPE_SELFOVERLAP>
708.173

> <PUBCHEM_SHAPE_VOLUME>
208

> <PUBCHEM_COORDINATE_TYPE>
2
5
10

$$$$
