REMARK  Name = 135533054
REMARK  7 active torsions:
REMARK  status: ('A' for Active; 'I' for Inactive)
REMARK    1  A    between atoms: N_2  and  N_17
REMARK    2  A    between atoms: C_3  and  C_7
REMARK    3  A    between atoms: C_10  and  O_15
REMARK    4  A    between atoms: N_17  and  C_18
REMARK    5  A    between atoms: C_18  and  C_19
REMARK    6  A    between atoms: C_22  and  O_25
REMARK    7  A    between atoms: C_23  and  O_27
REMARK                            x       y       z     vdW  Elec       q    Type
REMARK                         _______ _______ _______ _____ _____    ______ ____
ROOT
ATOM      1  O   UNL     1       0.568   2.405   0.577  0.00  0.00    -0.269 OA
ATOM      2  N   UNL     1      -0.107   0.276  -0.032  0.00  0.00    -0.228 N 
ATOM      3  C   UNL     1       0.860   1.249   0.225  0.00  0.00    +0.263 C 
ATOM      4  H   UNL     1       0.163  -0.629  -0.310  0.00  0.00    +0.171 HD
ENDROOT
BRANCH   3   7
ATOM      5  C   UNL     1       3.938  -0.902   0.202  0.00  0.00    +0.000 C 
ATOM      6  C   UNL     1       4.927   0.034  -0.184  0.00  0.00    +0.003 C 
ATOM      7  C   UNL     1       2.252   0.848   0.081  0.00  0.00    +0.088 C 
ATOM      8  C   UNL     1       2.605  -0.479   0.331  0.00  0.00    +0.008 C 
ATOM      9  C   UNL     1       4.554   1.365  -0.431  0.00  0.00    +0.037 C 
ATOM     10  C   UNL     1       3.225   1.768  -0.299  0.00  0.00    +0.138 C 
ATOM     11  C   UNL     1       4.311  -2.233   0.449  0.00  0.00    +0.000 C 
ATOM     12  C   UNL     1       6.260  -0.390  -0.312  0.00  0.00    +0.000 C 
ATOM     13  C   UNL     1       5.640  -2.636   0.317  0.00  0.00    +0.000 C 
ATOM     14  C   UNL     1       6.613  -1.716  -0.063  0.00  0.00    +0.000 C 
BRANCH  10  15
ATOM     15  O   UNL     1       2.899   3.068  -0.547  0.00  0.00    -0.505 OA
ATOM     16  H   UNL     1       2.010   3.353  -0.462  0.00  0.00    +0.292 HD
ENDBRANCH  10  15
ENDBRANCH   3   7
BRANCH   2  17
ATOM     17  N   UNL     1      -1.419   0.585   0.103  0.00  0.00    -0.126 NA
BRANCH  17  18
ATOM     18  C   UNL     1      -2.219  -0.396  -0.161  0.00  0.00    +0.138 C 
BRANCH  18  19
ATOM     19  C   UNL     1      -3.683  -0.255  -0.068  0.00  0.00    +0.000 C 
ATOM     20  C   UNL     1      -4.508  -1.340  -0.363  0.00  0.00    +0.037 C 
ATOM     21  C   UNL     1      -4.243   0.964   0.314  0.00  0.00    +0.000 C 
ATOM     22  C   UNL     1      -5.894  -1.206  -0.276  0.00  0.00    +0.167 C 
ATOM     23  C   UNL     1      -6.454   0.013   0.106  0.00  0.00    +0.167 C 
ATOM     24  C   UNL     1      -5.629   1.098   0.401  0.00  0.00    +0.039 C 
BRANCH  22  25
ATOM     25  O   UNL     1      -6.690  -2.274  -0.565  0.00  0.00    -0.503 OA
ATOM     26  H   UNL     1      -6.305  -3.089  -0.821  0.00  0.00    +0.292 HD
ENDBRANCH  22  25
BRANCH  23  27
ATOM     27  O   UNL     1      -7.806   0.156   0.196  0.00  0.00    -0.503 OA
ATOM     28  H   UNL     1      -8.368  -0.568   0.000  0.00  0.00    +0.292 HD
ENDBRANCH  23  27
ENDBRANCH  18  19
ENDBRANCH  17  18
ENDBRANCH   2  17
TORSDOF 7
