135583307
  -OEChem-03292013293D

 34 36  0     1  0  0  0  0  0999 V2000
   -4.5113    2.0855    0.1287 O   0  0  0  0  0  0  0  0  0  0  0  0
   -4.0533   -2.7304    0.8017 O   0  0  0  0  0  0  0  0  0  0  0  0
    4.4729    1.3367    0.7387 O   0  0  0  0  0  0  0  0  0  0  0  0
    0.1205    0.7566   -0.3279 N   0  0  0  0  0  0  0  0  0  0  0  0
    1.6731    2.2342    0.3104 N   0  0  0  0  0  0  0  0  0  0  0  0
    1.4510   -1.2618   -0.4477 N   0  0  0  0  0  0  0  0  0  0  0  0
    3.7252   -0.7936    0.1431 N   0  0  0  0  0  0  0  0  0  0  0  0
    3.0595   -2.9744   -0.4433 N   0  0  0  0  0  0  0  0  0  0  0  0
   -2.5905    0.6766   -0.0136 C   0  0  2  0  0  0  0  0  0  0  0  0
   -1.2989    0.1872   -0.7545 C   0  0  2  0  0  0  0  0  0  0  0  0
   -3.1541   -0.7624   -0.2043 C   0  0  1  0  0  0  0  0  0  0  0  0
   -1.6851   -1.2420   -0.2654 C   0  0  0  0  0  0  0  0  0  0  0  0
   -3.3855    1.7826   -0.6821 C   0  0  0  0  0  0  0  0  0  0  0  0
   -3.9969   -1.3164    0.9269 C   0  0  0  0  0  0  0  0  0  0  0  0
    1.2870    0.0592   -0.2153 C   0  0  0  0  0  0  0  0  0  0  0  0
    0.4038    2.0605   -0.0015 C   0  0  0  0  0  0  0  0  0  0  0  0
    2.2174    0.9911    0.1767 C   0  0  0  0  0  0  0  0  0  0  0  0
    3.5771    0.5785    0.3895 C   0  0  0  0  0  0  0  0  0  0  0  0
    2.6882   -1.6677   -0.2603 C   0  0  0  0  0  0  0  0  0  0  0  0
   -2.3798    0.9227    1.0382 H   0  0  0  0  0  0  0  0  0  0  0  0
   -1.3727    0.2821   -1.8481 H   0  0  0  0  0  0  0  0  0  0  0  0
   -3.6606   -0.9003   -1.1711 H   0  0  0  0  0  0  0  0  0  0  0  0
   -1.2613   -1.5125    0.7095 H   0  0  0  0  0  0  0  0  0  0  0  0
   -1.4859   -2.0512   -0.9735 H   0  0  0  0  0  0  0  0  0  0  0  0
   -3.7303    1.4940   -1.6802 H   0  0  0  0  0  0  0  0  0  0  0  0
   -2.7802    2.6899   -0.7712 H   0  0  0  0  0  0  0  0  0  0  0  0
   -5.0144   -0.9156    0.8863 H   0  0  0  0  0  0  0  0  0  0  0  0
   -3.5639   -1.0786    1.9040 H   0  0  0  0  0  0  0  0  0  0  0  0
   -0.3518    2.8334   -0.0105 H   2  0  0  0  0  0  0  0  0  0  0  0
   -4.9986    2.8004   -0.3150 H   0  0  0  0  0  0  0  0  0  0  0  0
   -4.6012   -3.0600    1.5342 H   0  0  0  0  0  0  0  0  0  0  0  0
    4.6519   -1.1919    0.2645 H   0  0  0  0  0  0  0  0  0  0  0  0
    2.3862   -3.6759   -0.7318 H   0  0  0  0  0  0  0  0  0  0  0  0
    4.0157   -3.2783   -0.2961 H   0  0  0  0  0  0  0  0  0  0  0  0
  1 13  1  0  0  0  0
  1 30  1  0  0  0  0
  2 14  1  0  0  0  0
  2 31  1  0  0  0  0
  3 18  2  0  0  0  0
  4 10  1  0  0  0  0
  4 15  1  0  0  0  0
  4 16  1  0  0  0  0
  5 16  2  0  0  0  0
  5 17  1  0  0  0  0
  6 15  1  0  0  0  0
  6 19  2  0  0  0  0
  7 18  1  0  0  0  0
  7 19  1  0  0  0  0
  7 32  1  0  0  0  0
  8 19  1  0  0  0  0
  8 33  1  0  0  0  0
  8 34  1  0  0  0  0
  9 10  1  0  0  0  0
  9 11  1  0  0  0  0
  9 13  1  0  0  0  0
  9 20  1  0  0  0  0
 10 12  1  0  0  0  0
 10 21  1  0  0  0  0
 11 12  1  0  0  0  0
 11 14  1  0  0  0  0
 11 22  1  0  0  0  0
 12 23  1  0  0  0  0
 12 24  1  0  0  0  0
 13 25  1  0  0  0  0
 13 26  1  0  0  0  0
 14 27  1  0  0  0  0
 14 28  1  0  0  0  0
 15 17  2  0  0  0  0
 16 29  1  0  0  0  0
 17 18  1  0  0  0  0
M  ISO  1  29   3
M  END
> <PUBCHEM_COMPOUND_CID>
135583307

> <PUBCHEM_CONFORMER_RMSD>
0.6

> <PUBCHEM_CONFORMER_DIVERSEORDER>
1
186
175
160
141
166
172
154
180
75
178
102
184
168
179
48
156
69
91
182
6
183
174
163
126
4
24
164
177
176
151
120
153
161
187
181
130
143
65
146
124
157
82
135
105
84
103
173
125
99
78
29
115
25
159
116
121
106
27
33
5
61
169
114
109
51
158
43
95
63
171
34
127
46
37
139
86
152
57
74
170
97
41
98
73
8
136
150
119
165
2
21
148
56
52
101
185
68
162
133
3
36
155
107
138
67
38
13
118
76
110
79
70
122
66
90
15
26
132
85
71
64
104
88
40
35
62
134
45
137
144
44
111
50
80
14
87
16
7
131
94
140
32
11
145
18
72
89
9
112
77
20
93
167
22
31
113
12
108
19
28
10
53
142
128
147
81
96
17
123
39
117
30
59
55
129
47
42
54
49
100
149
58
92
60
83
23

> <PUBCHEM_MMFF94_PARTIAL_CHARGES>
22
1 -0.68
10 0.09
13 0.28
14 0.28
15 -0.03
16 0.04
17 0.14
18 0.72
19 0.56
2 -0.68
29 0.15
3 -0.57
30 0.4
31 0.4
32 0.37
33 0.4
34 0.4
4 0.22
5 -0.57
6 -0.58
7 -0.49
8 -0.85

> <PUBCHEM_EFFECTIVE_ROTOR_COUNT>
3.8

> <PUBCHEM_PHARMACOPHORE_FEATURES>
11
1 1 acceptor
1 1 donor
1 2 acceptor
1 2 donor
1 3 acceptor
1 7 donor
1 8 donor
3 4 5 16 cation
4 9 10 11 12 rings
5 4 5 15 16 17 rings
6 6 7 15 17 18 19 rings

> <PUBCHEM_HEAVY_ATOM_COUNT>
19

> <PUBCHEM_ATOM_DEF_STEREO_COUNT>
0

> <PUBCHEM_ATOM_UDEF_STEREO_COUNT>
3

> <PUBCHEM_BOND_DEF_STEREO_COUNT>
0

> <PUBCHEM_BOND_UDEF_STEREO_COUNT>
0

> <PUBCHEM_ISOTOPIC_ATOM_COUNT>
1

> <PUBCHEM_COMPONENT_COUNT>
1

> <PUBCHEM_CACTVS_TAUTO_COUNT>
-1

> <PUBCHEM_CONFORMER_ID>
0814D64B00000001

> <PUBCHEM_MMFF94_ENERGY>
46.9459

> <PUBCHEM_FEATURE_SELFOVERLAP>
56

> <PUBCHEM_SHAPE_FINGERPRINT>
10366900 7 18191032411364401555
10608611 8 18411132545843819173
1100329 8 16176506738838500791
11405975 8 18337389327286601818
12251169 10 18270683198259525119
12507560 40 18412546500838491165
13140716 1 18338796693564545451
13296908 3 18410012108950572343
13583140 156 18059849610387821633
13675066 3 18343298193026663760
14115302 16 18043544810456286871
14223421 5 18338518654972725347
14252887 29 18411422834272645978
14790565 3 18194966468760222356
15196674 1 18411416202769092846
15219456 202 18411697677487366756
15375358 24 18411410687836029476
15442244 35 18126847101306071288
15653759 3 18334579053286796057
17804303 29 18336274431618591559
1813 80 17022908938722264253
18186145 218 17895191043752381206
19049666 15 18409448072697316779
200 152 17988069102291696557
20281475 54 18187367627218114006
20645477 70 18059849511423972974
21065198 57 18410575054893745933
21065199 12 18411420622290466571
21421861 104 17825378588397671504
221490 88 18411422774348942446
23559900 14 18339075970150808334
2748010 2 18340764853811518414
335352 9 18123749755538483831
34934 24 18342727495205441580
5104073 3 18411131429204830144
8809292 202 18263928743653161223
9709674 26 18410854352422478911

> <PUBCHEM_SHAPE_MULTIPOLES>
348.5
8.68
2.83
0.79
1.97
0.85
0.03
1.05
1.71
0.48
0.12
0.26
0.09
1.37

> <PUBCHEM_SHAPE_SELFOVERLAP>
744.862

> <PUBCHEM_SHAPE_VOLUME>
193.3

> <PUBCHEM_COORDINATE_TYPE>
2
5
10

$$$$
