REMARK  Name = 135596583
REMARK  2 active torsions:
REMARK  status: ('A' for Active; 'I' for Inactive)
REMARK    1  A    between atoms: N_2  and  C_8
REMARK    2  A    between atoms: N_2  and  C_25
REMARK                            x       y       z     vdW  Elec       q    Type
REMARK                         _______ _______ _______ _____ _____    ______ ____
ROOT
ATOM      1  O   UNL     1       6.175   1.768   0.002  0.00  0.00    -0.273 OA
ATOM      2  N   UNL     1       3.156   1.572   0.001  0.00  0.00    -0.254 NA
ATOM      3  N   UNL     1       2.083  -0.383  -0.002  0.00  0.00    -0.284 N 
ATOM      4  N   UNL     1       6.123  -0.551   0.002  0.00  0.00    -0.246 N 
ATOM      5  N   UNL     1       4.093  -1.831  -0.001  0.00  0.00    -0.361 NA
ATOM      6  N   UNL     1       6.180  -2.891   0.001  0.00  0.00    -0.321 N 
ATOM      7  C   UNL     1       1.947   0.927  -0.001  0.00  0.00    +0.210 C 
ATOM      8  C   UNL     1       4.120   0.607   0.000  0.00  0.00    +0.202 C 
ATOM      9  C   UNL     1       3.438  -0.587  -0.001  0.00  0.00    +0.185 C 
ATOM     10  C   UNL     1       5.544   0.717   0.001  0.00  0.00    +0.252 C 
ATOM     11  C   UNL     1       5.405  -1.760   0.000  0.00  0.00    +0.239 C 
ATOM     12  H   UNL     1       3.301   2.546   0.002  0.00  0.00    +0.127 HD
ATOM     13  H   UNL     1       1.371  -1.063  -0.004  0.00  0.00    +0.152 HD
ATOM     14  H   UNL     1       7.106  -0.604   0.003  0.00  0.00    +0.159 HD
ATOM     15  H   UNL     1       7.162  -2.815   0.002  0.00  0.00    +0.146 HD
ATOM     16  H   UNL     1       5.755  -3.779   0.000  0.00  0.00    +0.146 HD
ENDROOT
BRANCH   7  17
ATOM     17  N   UNL     1       0.777   1.708   0.000  0.00  0.00    -0.306 N 
ATOM     18  H   UNL     1       0.948   2.678   0.001  0.00  0.00    +0.150 HD
BRANCH  17  25
ATOM     19  C   UNL     1      -2.333  -0.257  -0.002  0.00  0.00    -0.003 C 
ATOM     20  C   UNL     1      -2.997  -1.618  -0.001  0.00  0.00    -0.018 C 
ATOM     21  C   UNL     1      -3.306   0.768  -0.001  0.00  0.00    -0.004 C 
ATOM     22  C   UNL     1      -4.465  -1.245   0.000  0.00  0.00    +0.066 C 
ATOM     23  C   UNL     1      -4.619   0.159   0.000  0.00  0.00    -0.014 C 
ATOM     24  C   UNL     1      -0.979   0.031  -0.002  0.00  0.00    +0.014 C 
ATOM     25  C   UNL     1      -0.596   1.373  -0.002  0.00  0.00    +0.047 C 
ATOM     26  C   UNL     1      -2.925   2.099   0.000  0.00  0.00    +0.001 C 
ATOM     27  C   UNL     1      -5.559  -2.093   0.001  0.00  0.00    -0.018 C 
ATOM     28  C   UNL     1      -5.881   0.729   0.001  0.00  0.00    -0.004 C 
ATOM     29  C   UNL     1      -1.559   2.397   0.000  0.00  0.00    +0.014 C 
ATOM     30  C   UNL     1      -6.831  -1.518   0.002  0.00  0.00    -0.004 C 
ATOM     31  C   UNL     1      -6.991  -0.122   0.002  0.00  0.00    -0.001 C 
ENDBRANCH  17  25
ENDBRANCH   7  17
TORSDOF 2
