REMARK  Name = 135539077
REMARK  9 active torsions:
REMARK  status: ('A' for Active; 'I' for Inactive)
REMARK    1  A    between atoms: C_3  and  C_7
REMARK    2  A    between atoms: C_4  and  C_21
REMARK    3  A    between atoms: C_5  and  C_35
REMARK    4  A    between atoms: C_6  and  C_12
REMARK    5  A    between atoms: C_12  and  N_14
REMARK    6  A    between atoms: C_20  and  C_26
REMARK    7  A    between atoms: C_23  and  O_29
REMARK    8  A    between atoms: C_24  and  O_31
REMARK    9  A    between atoms: N_34  and  C_37
REMARK                            x       y       z     vdW  Elec       q    Type
REMARK                         _______ _______ _______ _____ _____    ______ ____
ROOT
ATOM      1  O   UNL     1       3.516  -1.428   0.119  0.00  0.00    -0.353 OA
ATOM      2  N   UNL     1       4.263  -0.259   0.206  0.00  0.00    -0.072 NA
ATOM      3  C   UNL     1       2.071   0.250  -0.147  0.00  0.00    +0.063 A 
ATOM      4  C   UNL     1       2.212  -1.112  -0.091  0.00  0.00    +0.180 A 
ATOM      5  C   UNL     1       3.379   0.729   0.043  0.00  0.00    +0.176 A 
ENDROOT
BRANCH   3   7
ATOM      6  C   UNL     1      -1.587   2.271  -0.769  0.00  0.00    -0.043 C 
ATOM      7  C   UNL     1       0.828   0.936  -0.358  0.00  0.00    +0.005 C 
ATOM      8  C   UNL     1      -0.857   2.494   0.398  0.00  0.00    -0.006 C 
ATOM      9  C   UNL     1      -1.110   1.379  -1.730  0.00  0.00    -0.006 C 
ATOM     10  C   UNL     1       0.351   1.827   0.604  0.00  0.00    -0.000 C 
ATOM     11  C   UNL     1       0.097   0.712  -1.525  0.00  0.00    -0.000 C 
BRANCH   6  12
ATOM     12  C   UNL     1      -2.891   2.990  -0.991  0.00  0.00    -0.050 C 
BRANCH  12  14
ATOM     13  O   UNL     1      -6.674   1.593   0.172  0.00  0.00    -0.358 OA
ATOM     14  N   UNL     1      -3.973   2.413  -0.196  0.00  0.00    +0.393 N 
ATOM     15  C   UNL     1      -4.502   1.201  -0.837  0.00  0.00    -0.044 C 
ATOM     16  C   UNL     1      -5.053   3.390   0.002  0.00  0.00    -0.044 C 
ATOM     17  C   UNL     1      -6.175   2.762   0.824  0.00  0.00    +0.119 C 
ATOM     18  C   UNL     1      -5.638   0.624   0.004  0.00  0.00    +0.119 C 
ATOM     19  H   UNL     1      -3.591   2.160   0.715  0.00  0.00    -0.079 HD
ENDBRANCH  12  14
ENDBRANCH   6  12
ENDBRANCH   3   7
BRANCH   4  21
ATOM     20  C   UNL     1      -0.602  -3.443   0.621  0.00  0.00    +0.011 C 
ATOM     21  C   UNL     1       1.323  -2.234  -0.199  0.00  0.00    +0.071 C 
ATOM     22  C   UNL     1       0.273  -2.359   0.710  0.00  0.00    +0.005 C 
ATOM     23  C   UNL     1      -0.426  -4.401  -0.377  0.00  0.00    +0.133 C 
ATOM     24  C   UNL     1       1.499  -3.193  -1.197  0.00  0.00    +0.140 C 
ATOM     25  C   UNL     1       0.625  -4.276  -1.286  0.00  0.00    +0.073 C 
BRANCH  20  26
ATOM     26  C   UNL     1      -1.721  -3.561   1.603  0.00  0.00    +0.025 C 
ATOM     27  C   UNL     1      -1.219  -3.712   3.050  0.00  0.00    +0.005 C 
ATOM     28  C   UNL     1      -2.709  -2.383   1.511  0.00  0.00    +0.005 C 
ENDBRANCH  20  26
BRANCH  23  29
ATOM     29  O   UNL     1      -1.270  -5.465  -0.477  0.00  0.00    -0.506 OA
ATOM     30  H   UNL     1      -1.979  -5.559   0.128  0.00  0.00    +0.292 HD
ENDBRANCH  23  29
BRANCH  24  31
ATOM     31  O   UNL     1       2.517  -3.096  -2.099  0.00  0.00    -0.505 OA
ATOM     32  H   UNL     1       3.114  -2.375  -2.056  0.00  0.00    +0.292 HD
ENDBRANCH  24  31
ENDBRANCH   4  21
BRANCH   5  35
ATOM     33  O   UNL     1       3.023   3.045  -0.052  0.00  0.00    -0.268 OA
ATOM     34  N   UNL     1       5.201   2.324   0.285  0.00  0.00    -0.300 N 
ATOM     35  C   UNL     1       3.827   2.092   0.077  0.00  0.00    +0.267 C 
ATOM     36  H   UNL     1       5.790   1.542   0.381  0.00  0.00    +0.150 HD
BRANCH  34  37
ATOM     37  C   UNL     1       5.801   3.636   0.367  0.00  0.00    +0.090 C 
ATOM     38  C   UNL     1       5.602   4.253   1.736  0.00  0.00    +0.023 C 
ENDBRANCH  34  37
ENDBRANCH   5  35
TORSDOF 9
