REMARK  Name = 135565010
REMARK  3 active torsions:
REMARK  status: ('A' for Active; 'I' for Inactive)
REMARK    1  A    between atoms: S_1  and  C_10
REMARK    2  A    between atoms: S_1  and  N_16
REMARK    3  A    between atoms: N_16  and  C_20
REMARK                            x       y       z     vdW  Elec       q    Type
REMARK                         _______ _______ _______ _____ _____    ______ ____
ROOT
ATOM      1  S   UNL     1       1.134   2.136  -0.545  0.00  0.00    +0.142 S 
ATOM      2  O   UNL     1       0.906   3.117  -1.617  0.00  0.00    -0.139 OA
ATOM      3  O   UNL     1       1.675   2.642   0.725  0.00  0.00    -0.139 OA
ENDROOT
BRANCH   1  10
ATOM      4  F   UNL     1      -3.204  -1.043  -2.349  0.00  0.00    -0.199 F 
ATOM      5  O   UNL     1      -2.654   0.425   2.845  0.00  0.00    -0.250 OA
ATOM      6  N   UNL     1      -1.943   0.421   0.692  0.00  0.00    -0.101 N 
ATOM      7  N   UNL     1      -0.857   1.176   0.951  0.00  0.00    -0.084 NA
ATOM      8  N   UNL     1      -0.972   0.625  -1.271  0.00  0.00    -0.313 NA
ATOM      9  N   UNL     1      -3.869  -0.715   1.181  0.00  0.00    -0.263 N 
ATOM     10  C   UNL     1      -0.309   1.268  -0.264  0.00  0.00    +0.235 C 
ATOM     11  C   UNL     1      -2.001   0.097  -0.647  0.00  0.00    +0.252 C 
ATOM     12  C   UNL     1      -2.839   0.059   1.695  0.00  0.00    +0.334 C 
ATOM     13  C   UNL     1      -3.091  -0.693  -1.055  0.00  0.00    +0.201 C 
ATOM     14  C   UNL     1      -3.990  -1.077  -0.143  0.00  0.00    +0.099 C 
ATOM     15  H   UNL     1      -4.562  -1.027   1.806  0.00  0.00    +0.157 HD
ENDBRANCH   1  10
BRANCH   1  16
ATOM     16  N   UNL     1       2.225   0.945  -1.171  0.00  0.00    -0.201 N 
ATOM     17  H   UNL     1       2.727   1.098  -2.004  0.00  0.00    +0.175 HD
BRANCH  16  20
ATOM     18  F   UNL     1       1.287  -1.499  -2.151  0.00  0.00    -0.203 F 
ATOM     19  F   UNL     1       3.459   0.884   1.337  0.00  0.00    -0.203 F 
ATOM     20  C   UNL     1       2.369  -0.277  -0.425  0.00  0.00    +0.120 C 
ATOM     21  C   UNL     1       1.886  -1.475  -0.951  0.00  0.00    +0.157 C 
ATOM     22  C   UNL     1       2.990  -0.263   0.823  0.00  0.00    +0.157 C 
ATOM     23  C   UNL     1       2.025  -2.660  -0.228  0.00  0.00    +0.031 C 
ATOM     24  C   UNL     1       3.129  -1.447   1.546  0.00  0.00    +0.031 C 
ATOM     25  C   UNL     1       2.646  -2.646   1.021  0.00  0.00    +0.005 C 
ENDBRANCH  16  20
ENDBRANCH   1  16
TORSDOF 3
