REMARK  Name = 135554448
REMARK  6 active torsions:
REMARK  status: ('A' for Active; 'I' for Inactive)
REMARK    1  A    between atoms: N_1  and  C_14
REMARK    2  A    between atoms: C_14  and  C_15
REMARK    3  A    between atoms: C_15  and  CA_16
REMARK    4  A    between atoms: CA_16  and  N_17
REMARK    5  A    between atoms: CA_16  and  C_22
REMARK    6  A    between atoms: C_22  and  O_23
REMARK                            x       y       z     vdW  Elec       q    Type
REMARK                         _______ _______ _______ _____ _____    ______ ____
ROOT
ATOM      1  N   UNL     1       0.235   0.147  -0.394  0.00  0.00    -0.275 N 
ATOM      2  N   UNL     1       3.641  -1.183   0.243  0.00  0.00    -0.270 NA
ATOM      3  N   UNL     1       1.942   1.892  -0.266  0.00  0.00    -0.236 NA
ATOM      4  N   UNL     1       4.208   0.975   0.173  0.00  0.00    -0.307 N 
ATOM      5  N   UNL     1       0.864  -2.190  -0.144  0.00  0.00    -0.287 NA
ATOM      6  C   UNL     1       1.121  -0.923  -0.186  0.00  0.00    +0.123 C 
ATOM      7  C   UNL     1       2.487  -0.496   0.004  0.00  0.00    +0.164 C 
ATOM      8  C   UNL     1       0.720   1.462  -0.426  0.00  0.00    +0.222 C 
ATOM      9  C   UNL     1       2.860   0.837  -0.035  0.00  0.00    +0.125 C 
ATOM     10  C   UNL     1       4.647  -0.256   0.337  0.00  0.00    +0.163 C 
ATOM     11  H   UNL     1       3.734  -2.159   0.330  0.00  0.00    +0.126 HD
ATOM     12  H   UNL     1       4.731   1.809   0.194  0.00  0.00    +0.149 HD
ATOM     13  H   UNL     1      -0.058  -2.510  -0.271  0.00  0.00    +0.188 HD
ENDROOT
BRANCH   1  14
ATOM     14  C   UNL     1      -1.189  -0.107  -0.595  0.00  0.00    +0.092 C 
BRANCH  14  15
ATOM     15  C   UNL     1      -1.848  -0.425   0.746  0.00  0.00    +0.011 C 
BRANCH  15  16
ATOM     16  CA  UNL     1      -3.353  -0.703   0.635  0.00  0.00    +0.037 C 
BRANCH  16  17
ATOM     17  N   UNL     1      -3.635  -1.782  -0.310  0.00  0.00    +0.389 N 
ATOM     18  H1  UNL     1      -3.166  -2.634  -0.003  0.00  0.00    -0.088 HD
ATOM     19  H2  UNL     1      -3.296  -1.522  -1.236  0.00  0.00    -0.088 HD
ATOM     20  H3  UNL     1      -4.642  -1.945  -0.351  0.00  0.00    -0.088 HD
ENDBRANCH  16  17
BRANCH  16  22
ATOM     21  OXT UNL     1      -4.712   0.621  -0.903  0.00  0.00    -0.253 OA
ATOM     22  C   UNL     1      -4.071   0.539   0.137  0.00  0.00    +0.293 C 
BRANCH  22  23
ATOM     23  O   UNL     1      -3.916   1.590   0.986  0.00  0.00    -0.482 OA
ATOM     24  H   UNL     1      -3.417   1.486   1.773  0.00  0.00    +0.295 HD
ENDBRANCH  22  23
ENDBRANCH  16  22
ENDBRANCH  15  16
ENDBRANCH  14  15
ENDBRANCH   1  14
TORSDOF 6
