REMARK  Name = 135528754
REMARK  8 active torsions:
REMARK  status: ('A' for Active; 'I' for Inactive)
REMARK    1  A    between atoms: C_2  and  O_20
REMARK    2  A    between atoms: C_3  and  O_22
REMARK    3  A    between atoms: C_4  and  N_7
REMARK    4  A    between atoms: C_5  and  C_24
REMARK    5  A    between atoms: C_24  and  O_25
REMARK    6  A    between atoms: O_25  and  P_26
REMARK    7  A    between atoms: P_26  and  O_28
REMARK    8  A    between atoms: P_26  and  O_30
REMARK                            x       y       z     vdW  Elec       q    Type
REMARK                         _______ _______ _______ _____ _____    ______ ____
ROOT
ATOM      1  O   UNL     1       1.593  -0.795   1.045  0.00  0.00    -0.333 OA
ATOM      2  C   UNL     1       0.705  -1.774  -0.918  0.00  0.00    +0.187 C 
ATOM      3  C   UNL     1       1.907  -2.587  -0.484  0.00  0.00    +0.171 C 
ATOM      4  C   UNL     1       0.343  -1.033   0.365  0.00  0.00    +0.226 C 
ATOM      5  C   UNL     1       2.620  -1.628   0.461  0.00  0.00    +0.176 C 
ENDROOT
BRANCH   4   7
ATOM      6  O   UNL     1      -3.510   3.473  -0.531  0.00  0.00    -0.268 OA
ATOM      7  N   UNL     1      -0.403   0.256   0.112  0.00  0.00    -0.237 N 
ATOM      8  N   UNL     1      -0.738   2.427  -0.307  0.00  0.00    -0.240 NA
ATOM      9  N   UNL     1      -2.688  -0.530   0.243  0.00  0.00    -0.356 NA
ATOM     10  N   UNL     1      -4.212   1.284  -0.117  0.00  0.00    -0.242 N 
ATOM     11  N   UNL     1      -5.009  -0.893   0.294  0.00  0.00    -0.268 N 
ATOM     12  C   UNL     1      -1.754   0.431   0.067  0.00  0.00    +0.211 C 
ATOM     13  C   UNL     1       0.165   1.485  -0.119  0.00  0.00    +0.224 C 
ATOM     14  C   UNL     1      -1.927   1.769  -0.191  0.00  0.00    +0.176 C 
ATOM     15  C   UNL     1      -3.259   2.296  -0.303  0.00  0.00    +0.273 C 
ATOM     16  C   UNL     1      -3.919  -0.075   0.146  0.00  0.00    +0.246 C 
ATOM     17  C   UNL     1      -6.165  -0.451   1.042  0.00  0.00    +0.116 C 
ATOM     18  C   UNL     1      -4.936  -2.290  -0.072  0.00  0.00    +0.116 C 
ATOM     19  H   UNL     1      -5.161   1.540  -0.174  0.00  0.00    +0.159 HD
ENDBRANCH   4   7
BRANCH   2  20
ATOM     20  O   UNL     1      -0.352  -2.571  -1.413  0.00  0.00    -0.378 OA
ATOM     21  H   UNL     1      -0.068  -3.016  -2.226  0.00  0.00    +0.211 HD
ENDBRANCH   2  20
BRANCH   3  22
ATOM     22  O   UNL     1       1.492  -3.723   0.274  0.00  0.00    -0.379 OA
ATOM     23  H   UNL     1       1.034  -4.350  -0.309  0.00  0.00    +0.211 HD
ENDBRANCH   3  22
BRANCH   5  24
ATOM     24  C   UNL     1       3.620  -0.725  -0.247  0.00  0.00    +0.186 C 
BRANCH  24  25
ATOM     25  O   UNL     1       4.216   0.131   0.711  0.00  0.00    -0.271 OA
BRANCH  25  26
ATOM     26  P   UNL     1       5.326   1.198   0.210  0.00  0.00    +0.473 P 
ATOM     27  O   UNL     1       5.906   2.064   1.290  0.00  0.00    -0.227 OA
BRANCH  26  28
ATOM     28  O   UNL     1       6.396   0.268  -0.568  0.00  0.00    -0.303 OA
ATOM     29  H   UNL     1       5.939  -0.255  -1.244  0.00  0.00    +0.222 HD
ENDBRANCH  26  28
BRANCH  26  30
ATOM     30  O   UNL     1       4.583   1.991  -0.988  0.00  0.00    -0.303 OA
ATOM     31  H   UNL     1       4.242   1.353  -1.635  0.00  0.00    +0.222 HD
ENDBRANCH  26  30
ENDBRANCH  25  26
ENDBRANCH  24  25
ENDBRANCH   5  24
TORSDOF 8
