REMARK  Name = 135562692
REMARK  5 active torsions:
REMARK  status: ('A' for Active; 'I' for Inactive)
REMARK    1  A    between atoms: N_2  and  C1*_31
REMARK    2  A    between atoms: N_3  and  C_18
REMARK    3  A    between atoms: C3*_33  and  O3*_35
REMARK    4  A    between atoms: C4*_34  and  C5*_37
REMARK    5  A    between atoms: C5*_37  and  O5*_38
REMARK                            x       y       z     vdW  Elec       q    Type
REMARK                         _______ _______ _______ _____ _____    ______ ____
ROOT
ATOM      1  O   UNL     1       1.482   4.306  -0.198  0.00  0.00    -0.267 OA
ATOM      2  N   UNL     1       2.116  -0.157   0.111  0.00  0.00    -0.200 N 
ATOM      3  N   UNL     1      -0.183  -0.846   0.132  0.00  0.00    -0.275 N 
ATOM      4  N   UNL     1       0.594   1.477  -0.017  0.00  0.00    -0.364 NA
ATOM      5  N   UNL     1       4.161   1.136   0.047  0.00  0.00    -0.355 NA
ATOM      6  N   UNL     1       3.662   3.473  -0.117  0.00  0.00    -0.242 N 
ATOM      7  N   UNL     1       5.892   2.722  -0.041  0.00  0.00    -0.321 N 
ATOM      8  C   UNL     1       0.783   0.175   0.073  0.00  0.00    +0.250 C 
ATOM      9  C   UNL     1       2.816   1.012   0.040  0.00  0.00    +0.229 C 
ATOM     10  C   UNL     1       1.856   1.992  -0.037  0.00  0.00    +0.232 C 
ATOM     11  C   UNL     1       2.264   3.367  -0.126  0.00  0.00    +0.286 C 
ATOM     12  C   UNL     1       4.563   2.385  -0.033  0.00  0.00    +0.240 C 
ATOM     13  H   UNL     1       0.201  -1.750   0.197  0.00  0.00    +0.156 HD
ATOM     14  H   UNL     1       4.048   4.377  -0.174  0.00  0.00    +0.159 HD
ATOM     15  H   UNL     1       6.578   2.018   0.014  0.00  0.00    +0.146 HD
ATOM     16  H   UNL     1       6.160   3.667  -0.102  0.00  0.00    +0.146 HD
ENDROOT
BRANCH   3  18
ATOM     17  C   UNL     1      -3.652   0.369   0.008  0.00  0.00    -0.003 C 
ATOM     18  C   UNL     1      -1.595  -0.827   0.115  0.00  0.00    +0.051 C 
ATOM     19  C   UNL     1      -4.372  -0.845   0.082  0.00  0.00    -0.004 C 
ATOM     20  C   UNL     1      -4.604   1.544  -0.085  0.00  0.00    -0.018 C 
ATOM     21  C   UNL     1      -5.787  -0.546   0.044  0.00  0.00    -0.014 C 
ATOM     22  C   UNL     1      -5.951   0.854  -0.054  0.00  0.00    +0.066 C 
ATOM     23  C   UNL     1      -2.269   0.392   0.024  0.00  0.00    +0.014 C 
ATOM     24  C   UNL     1      -2.305  -2.038   0.189  0.00  0.00    +0.015 C 
ATOM     25  C   UNL     1      -3.703  -2.054   0.173  0.00  0.00    +0.001 C 
ATOM     26  C   UNL     1      -6.890  -1.383   0.087  0.00  0.00    -0.004 C 
ATOM     27  C   UNL     1      -7.207   1.432  -0.110  0.00  0.00    -0.018 C 
ATOM     28  C   UNL     1      -8.319   0.590  -0.067  0.00  0.00    -0.004 C 
ATOM     29  C   UNL     1      -8.162  -0.804   0.031  0.00  0.00    -0.001 C 
ENDBRANCH   3  18
BRANCH   2  31
ATOM     30  O4* UNL     1       3.949  -1.547   0.937  0.00  0.00    -0.335 OA
ATOM     31  C1* UNL     1       2.705  -1.541   0.212  0.00  0.00    +0.203 C 
ATOM     32  C2* UNL     1       2.997  -2.168  -1.147  0.00  0.00    +0.083 C 
ATOM     33  C3* UNL     1       4.091  -3.153  -0.811  0.00  0.00    +0.144 C 
ATOM     34  C4* UNL     1       4.876  -2.435   0.279  0.00  0.00    +0.173 C 
BRANCH  33  35
ATOM     35  O3* UNL     1       3.491  -4.329  -0.272  0.00  0.00    -0.382 OA
ATOM     36  H3* UNL     1       2.992  -4.785  -0.968  0.00  0.00    +0.210 HD
ENDBRANCH  33  35
BRANCH  34  37
ATOM     37  C5* UNL     1       6.019  -1.595  -0.275  0.00  0.00    +0.169 C 
BRANCH  37  38
ATOM     38  O5* UNL     1       6.680  -0.960   0.805  0.00  0.00    -0.379 OA
ATOM     39  H5* UNL     1       7.411  -0.421   0.465  0.00  0.00    +0.211 HD
ENDBRANCH  37  38
ENDBRANCH  34  37
ENDBRANCH   2  31
TORSDOF 5
