REMARK  Name = 135554438
REMARK  4 active torsions:
REMARK  status: ('A' for Active; 'I' for Inactive)
REMARK    1  A    between atoms: N_2  and  C_15
REMARK    2  A    between atoms: C_15  and  C_16
REMARK    3  A    between atoms: C_16  and  C_18
REMARK    4  A    between atoms: C_18  and  O_19
REMARK                            x       y       z     vdW  Elec       q    Type
REMARK                         _______ _______ _______ _____ _____    ______ ____
ROOT
ATOM      1  O   UNL     1      -0.035  -1.998  -0.594  0.00  0.00    -0.272 OA
ATOM      2  N   UNL     1      -0.395   1.000  -0.327  0.00  0.00    -0.232 NA
ATOM      3  N   UNL     1       1.297   2.368   0.161  0.00  0.00    -0.194 NA
ATOM      4  N   UNL     1       2.188  -1.567  -0.110  0.00  0.00    -0.245 N 
ATOM      5  N   UNL     1       3.057   0.631   0.309  0.00  0.00    -0.323 NA
ATOM      6  N   UNL     1       4.456  -1.245   0.372  0.00  0.00    -0.320 N 
ATOM      7  C   UNL     1       0.710   0.210  -0.199  0.00  0.00    +0.235 C 
ATOM      8  C   UNL     1       1.738   1.073   0.101  0.00  0.00    +0.087 C 
ATOM      9  C   UNL     1       0.009   2.291  -0.102  0.00  0.00    +0.214 C 
ATOM     10  C   UNL     1       0.860  -1.203  -0.329  0.00  0.00    +0.259 C 
ATOM     11  C   UNL     1       3.225  -0.666   0.195  0.00  0.00    +0.248 C 
ATOM     12  H   UNL     1       2.417  -2.522  -0.173  0.00  0.00    +0.159 HD
ATOM     13  H   UNL     1       4.560  -2.219   0.282  0.00  0.00    +0.146 HD
ATOM     14  H   UNL     1       5.236  -0.685   0.589  0.00  0.00    +0.146 HD
ENDROOT
BRANCH   2  15
ATOM     15  C   UNL     1      -1.741   0.582  -0.639  0.00  0.00    +0.087 C 
BRANCH  15  16
ATOM     16  C   UNL     1      -2.478  -0.011   0.558  0.00  0.00    +0.127 C 
BRANCH  16  18
ATOM     17  O   UNL     1      -4.378  -0.289  -0.908  0.00  0.00    -0.250 OA
ATOM     18  C   UNL     1      -3.905  -0.367   0.219  0.00  0.00    +0.315 C 
BRANCH  18  19
ATOM     19  O   UNL     1      -4.607  -0.811   1.291  0.00  0.00    -0.480 OA
ATOM     20  H   UNL     1      -4.200  -0.852   2.134  0.00  0.00    +0.295 HD
ENDBRANCH  18  19
ENDBRANCH  16  18
ENDBRANCH  15  16
ENDBRANCH   2  15
TORSDOF 4
