135562676
  -OEChem-03292013293D

 36 38  0     1  0  0  0  0  0999 V2000
    1.9796    0.2470    1.1208 O   0  0  0  0  0  0  0  0  0  0  0  0
    3.0626   -2.4915    0.4090 O   0  0  0  0  0  0  0  0  0  0  0  0
    0.9057   -2.2172   -1.2779 O   0  0  0  0  0  0  0  0  0  0  0  0
    5.0002    0.7274   -0.8740 O   0  0  0  0  0  0  0  0  0  0  0  0
   -4.4134    2.0648   -0.4789 O   0  0  0  0  0  0  0  0  0  0  0  0
   -0.2729    0.3847    0.1909 N   0  0  0  0  0  0  0  0  0  0  0  0
   -1.4548    2.2272   -0.2674 N   0  0  0  0  0  0  0  0  0  0  0  0
   -2.0492   -1.2503    0.3655 N   0  0  0  0  0  0  0  0  0  0  0  0
   -4.1746   -0.2111   -0.0129 N   0  0  0  0  0  0  0  0  0  0  0  0
   -4.0277   -2.5147    0.4506 N   0  0  0  0  0  0  0  0  0  0  0  0
    3.2529   -0.1158    0.5415 C   0  0  1  0  0  0  0  0  0  0  0  0
    2.9840   -1.3023   -0.3755 C   0  0  2  0  0  0  0  0  0  0  0  0
    1.5545   -1.0509   -0.8121 C   0  0  2  0  0  0  0  0  0  0  0  0
    0.9292   -0.4890    0.4605 C   0  0  1  0  0  0  0  0  0  0  0  0
    3.8034    1.0966   -0.1969 C   0  0  1  0  0  0  0  0  0  0  0  0
   -1.5809    0.0004    0.1588 C   0  0  0  0  0  0  0  0  0  0  0  0
    4.0971    2.2493    0.7501 C   0  0  0  0  0  0  0  0  0  0  0  0
   -0.2482    1.7328   -0.0714 C   0  0  0  0  0  0  0  0  0  0  0  0
   -2.2784    1.1499   -0.1239 C   0  0  0  0  0  0  0  0  0  0  0  0
   -3.7101    1.0937   -0.2305 C   0  0  0  0  0  0  0  0  0  0  0  0
   -3.3590   -1.3312    0.2738 C   0  0  0  0  0  0  0  0  0  0  0  0
    3.9274   -0.3973    1.3591 H   0  0  0  0  0  0  0  0  0  0  0  0
    3.6733   -1.4174   -1.2162 H   0  0  0  0  0  0  0  0  0  0  0  0
    1.5317   -0.3022   -1.6134 H   0  0  0  0  0  0  0  0  0  0  0  0
    0.5749   -1.2724    1.1412 H   0  0  0  0  0  0  0  0  0  0  0  0
    3.0860    1.4449   -0.9489 H   0  0  0  0  0  0  0  0  0  0  0  0
    4.8454    1.9619    1.4969 H   0  0  0  0  0  0  0  0  0  0  0  0
    3.1960    2.5896    1.2689 H   0  0  0  0  0  0  0  0  0  0  0  0
    4.5169    3.0986    0.1998 H   0  0  0  0  0  0  0  0  0  0  0  0
    3.9889   -2.5967    0.6860 H   0  0  0  0  0  0  0  0  0  0  0  0
    1.4299   -2.5659   -2.0190 H   0  0  0  0  0  0  0  0  0  0  0  0
    0.6725    2.2987   -0.1101 H   0  0  0  0  0  0  0  0  0  0  0  0
    5.3214    1.5107   -1.3522 H   0  0  0  0  0  0  0  0  0  0  0  0
   -5.1777   -0.3639   -0.0654 H   0  0  0  0  0  0  0  0  0  0  0  0
   -3.5296   -3.3730    0.6597 H   0  0  0  0  0  0  0  0  0  0  0  0
   -5.0378   -2.5675    0.3778 H   0  0  0  0  0  0  0  0  0  0  0  0
  1 11  1  0  0  0  0
  1 14  1  0  0  0  0
  2 12  1  0  0  0  0
  2 30  1  0  0  0  0
  3 13  1  0  0  0  0
  3 31  1  0  0  0  0
  4 15  1  0  0  0  0
  4 33  1  0  0  0  0
  5 20  2  0  0  0  0
  6 14  1  0  0  0  0
  6 16  1  0  0  0  0
  6 18  1  0  0  0  0
  7 18  2  0  0  0  0
  7 19  1  0  0  0  0
  8 16  1  0  0  0  0
  8 21  2  0  0  0  0
  9 20  1  0  0  0  0
  9 21  1  0  0  0  0
  9 34  1  0  0  0  0
 10 21  1  0  0  0  0
 10 35  1  0  0  0  0
 10 36  1  0  0  0  0
 11 12  1  0  0  0  0
 11 15  1  0  0  0  0
 11 22  1  0  0  0  0
 12 13  1  0  0  0  0
 12 23  1  0  0  0  0
 13 14  1  0  0  0  0
 13 24  1  0  0  0  0
 14 25  1  0  0  0  0
 15 17  1  0  0  0  0
 15 26  1  0  0  0  0
 16 19  2  0  0  0  0
 17 27  1  0  0  0  0
 17 28  1  0  0  0  0
 17 29  1  0  0  0  0
 18 32  1  0  0  0  0
 19 20  1  0  0  0  0
M  END
> <PUBCHEM_COMPOUND_CID>
135562676

> <PUBCHEM_CONFORMER_RMSD>
0.6

> <PUBCHEM_CONFORMER_DIVERSEORDER>
1
12
25
18
5
26
21
9
33
3
34
19
29
16
32
31
15
23
17
4
30
11
2
7
14
22
13
27
28
6
8
10
20
24

> <PUBCHEM_MMFF94_PARTIAL_CHARGES>
27
1 -0.56
10 -0.85
11 0.28
12 0.28
13 0.28
14 0.54
15 0.28
16 -0.03
18 0.04
19 0.14
2 -0.68
20 0.72
21 0.56
3 -0.68
30 0.4
31 0.4
32 0.15
33 0.4
34 0.37
35 0.4
36 0.4
4 -0.68
5 -0.57
6 0.05
7 -0.57
8 -0.58
9 -0.49

> <PUBCHEM_EFFECTIVE_ROTOR_COUNT>
3

> <PUBCHEM_PHARMACOPHORE_FEATURES>
14
1 1 acceptor
1 10 donor
1 2 acceptor
1 2 donor
1 3 acceptor
1 3 donor
1 4 acceptor
1 4 donor
1 5 acceptor
1 9 donor
3 6 7 18 cation
5 1 11 12 13 14 rings
5 6 7 16 18 19 rings
6 8 9 16 19 20 21 rings

> <PUBCHEM_HEAVY_ATOM_COUNT>
21

> <PUBCHEM_ATOM_DEF_STEREO_COUNT>
5

> <PUBCHEM_ATOM_UDEF_STEREO_COUNT>
0

> <PUBCHEM_BOND_DEF_STEREO_COUNT>
0

> <PUBCHEM_BOND_UDEF_STEREO_COUNT>
0

> <PUBCHEM_ISOTOPIC_ATOM_COUNT>
0

> <PUBCHEM_COMPONENT_COUNT>
1

> <PUBCHEM_CACTVS_TAUTO_COUNT>
-1

> <PUBCHEM_CONFORMER_ID>
081485B400000001

> <PUBCHEM_MMFF94_ENERGY>
51.2984

> <PUBCHEM_FEATURE_SELFOVERLAP>
71.238

> <PUBCHEM_SHAPE_FINGERPRINT>
10366900 7 17774715386039310289
10498660 4 18410012130636639292
10608611 8 18339357466069689920
10616163 171 18411983576370140991
10759866 29 18335704923282095358
11405975 8 18337108951868913914
11615757 297 17418095442157832736
12403259 118 18263350534061245720
12633257 1 18124598587147421762
13140716 1 18339366262426424059
13214271 11 18411976988085468365
13224815 77 18413674599404598906
13296908 3 18409729547600414851
14289901 80 18333171656706704626
14787075 74 17970629816465995314
15196674 1 18409729551641947091
15219456 202 18341894073717517947
15375358 24 18411978031852133485
15375462 6 18410012126594613150
17492 89 18335138665734968610
17980427 23 17749676302097457628
18186145 218 17604145930639252367
19591789 44 18053382381671878920
200 152 17202751601954526207
20645477 56 18334296423233213501
20645477 70 18130504124182431974
21065198 57 18338233760811877938
21501502 16 18269277863575030328
21618674 54 18408039610976190474
221490 88 18411987927573269674
23227448 37 17912360124516883228
23402539 116 18259980487866372366
23557571 272 18337401512108586500
23559900 14 18267297638975926234
296302 2 18413390921394651477
34934 24 18335697226600142729
3545911 37 18408325471104149220
474 4 17386014996116668412
495365 180 17630865171359211921
5104073 3 18409730638326696195
58051976 378 18272087171803319004
67856867 119 18260261941784965208
7097593 13 17754438072277705298
7364860 26 18339641123522594834
9709674 26 18198062486817530335

> <PUBCHEM_SHAPE_MULTIPOLES>
377.92
9.23
2.63
0.86
0.05
0.35
0.04
-1.49
0.1
-0.34
0.08
0.46
0.12
0.91

> <PUBCHEM_SHAPE_SELFOVERLAP>
817.676

> <PUBCHEM_SHAPE_VOLUME>
206.8

> <PUBCHEM_COORDINATE_TYPE>
2
5
10

$$$$
