REMARK  Name = 135538664
REMARK  4 active torsions:
REMARK  status: ('A' for Active; 'I' for Inactive)
REMARK    1  A    between atoms: N_2  and  C_15
REMARK    2  A    between atoms: C_15  and  C_16
REMARK    3  A    between atoms: C_17  and  C_18
REMARK    4  A    between atoms: C_18  and  O_19
REMARK                            x       y       z     vdW  Elec       q    Type
REMARK                         _______ _______ _______ _____ _____    ______ ____
ROOT
ATOM      1  O   UNL     1      -4.020  -0.279   0.873  0.00  0.00    -0.268 OA
ATOM      2  N   UNL     1       0.158  -1.311  -0.505  0.00  0.00    -0.257 N 
ATOM      3  N   UNL     1      -1.778  -2.129   0.261  0.00  0.00    -0.240 NA
ATOM      4  N   UNL     1      -0.351   1.055  -0.558  0.00  0.00    -0.357 NA
ATOM      5  N   UNL     1      -2.591   1.440   0.197  0.00  0.00    -0.243 N 
ATOM      6  N   UNL     1      -1.220   3.236  -0.465  0.00  0.00    -0.321 N 
ATOM      7  C   UNL     1      -0.663  -0.238  -0.320  0.00  0.00    +0.210 C 
ATOM      8  C   UNL     1      -1.840  -0.771   0.149  0.00  0.00    +0.176 C 
ATOM      9  C   UNL     1      -0.558  -2.426  -0.142  0.00  0.00    +0.222 C 
ATOM     10  C   UNL     1      -2.937   0.106   0.451  0.00  0.00    +0.273 C 
ATOM     11  C   UNL     1      -1.338   1.882  -0.290  0.00  0.00    +0.239 C 
ATOM     12  H   UNL     1      -3.276   2.126   0.372  0.00  0.00    +0.159 HD
ATOM     13  H   UNL     1      -0.377   3.617  -0.801  0.00  0.00    +0.146 HD
ATOM     14  H   UNL     1      -1.978   3.828  -0.255  0.00  0.00    +0.146 HD
ENDROOT
BRANCH   2  15
ATOM     15  C   UNL     1       1.517  -1.296  -0.987  0.00  0.00    +0.121 C 
BRANCH  15  16
ATOM     16  C   UNL     1       2.490  -0.834   0.059  0.00  0.00    -0.007 C 
ATOM     17  C   UNL     1       3.299   0.226  -0.094  0.00  0.00    +0.002 C 
BRANCH  17  18
ATOM     18  C   UNL     1       4.258   0.694   0.951  0.00  0.00    +0.163 C 
BRANCH  18  19
ATOM     19  O   UNL     1       5.574   0.644   0.418  0.00  0.00    -0.377 OA
ATOM     20  H   UNL     1       6.206   0.947   1.089  0.00  0.00    +0.211 HD
ENDBRANCH  18  19
ENDBRANCH  17  18
ENDBRANCH  15  16
ENDBRANCH   2  15
TORSDOF 4
