REMARK  Name = 135564526
REMARK  4 active torsions:
REMARK  status: ('A' for Active; 'I' for Inactive)
REMARK    1  A    between atoms: C_1  and  N_18
REMARK    2  A    between atoms: C_2  and  C_34
REMARK    3  A    between atoms: C_6  and  C_11
REMARK    4  A    between atoms: C_24  and  C_26
REMARK                            x       y       z     vdW  Elec       q    Type
REMARK                         _______ _______ _______ _____ _____    ______ ____
ROOT
ATOM      1  C   UNL     1       0.724   0.046   0.201  0.00  0.00    +0.052 C 
ATOM      2  C   UNL     1       1.453   1.217  -0.004  0.00  0.00    +0.085 C 
ATOM      3  C   UNL     1       1.371  -1.190   0.185  0.00  0.00    +0.015 C 
ATOM      4  C   UNL     1       2.828   1.153  -0.226  0.00  0.00    +0.010 C 
ATOM      5  C   UNL     1       2.747  -1.254  -0.036  0.00  0.00    +0.006 C 
ATOM      6  C   UNL     1       3.475  -0.083  -0.242  0.00  0.00    +0.054 C 
ENDROOT
BRANCH   6  11
ATOM      7  O   UNL     1       5.476   0.724  -1.151  0.00  0.00    -0.270 OA
ATOM      8  N   UNL     1       5.588  -1.259   0.078  0.00  0.00    -0.253 N 
ATOM      9  N   UNL     1       7.340  -2.719   0.617  0.00  0.00    -0.372 N 
ATOM     10  N   UNL     1       7.752  -0.808  -0.684  0.00  0.00    -0.270 NA
ATOM     11  C   UNL     1       4.909  -0.150  -0.473  0.00  0.00    +0.252 C 
ATOM     12  C   UNL     1       6.942  -1.575  -0.021  0.00  0.00    +0.185 C 
ATOM     13  H   UNL     1       5.035  -1.887   0.598  0.00  0.00    +0.158 HD
ATOM     14  H   UNL     1       6.682  -3.263   1.107  0.00  0.00    +0.159 HD
ATOM     15  H   UNL     1       8.284  -2.997   0.587  0.00  0.00    +0.159 HD
ATOM     16  H   UNL     1       7.412   0.005  -1.125  0.00  0.00    +0.190 HD
ENDBRANCH   6  11
BRANCH   1  18
ATOM     17  O   UNL     1      -5.091  -1.116   2.103  0.00  0.00    -0.269 OA
ATOM     18  N   UNL     1      -0.657   0.091   0.425  0.00  0.00    -0.304 N 
ATOM     19  N   UNL     1      -3.434   0.003   0.895  0.00  0.00    -0.272 N 
ATOM     20  C   UNL     1      -1.579   0.028  -0.718  0.00  0.00    +0.112 C 
ATOM     21  C   UNL     1      -1.161  -0.455   1.697  0.00  0.00    +0.112 C 
ATOM     22  C   UNL     1      -2.528   0.139   2.030  0.00  0.00    +0.115 C 
ATOM     23  C   UNL     1      -2.936   0.618  -0.338  0.00  0.00    +0.115 C 
ATOM     24  C   UNL     1      -4.666  -0.633   1.055  0.00  0.00    +0.263 C 
BRANCH  24  26
ATOM     25  N   UNL     1      -5.184  -1.420  -1.265  0.00  0.00    -0.308 N 
ATOM     26  C   UNL     1      -5.538  -0.756  -0.120  0.00  0.00    +0.103 C 
ATOM     27  C   UNL     1      -6.812  -0.262  -0.295  0.00  0.00    +0.021 C 
ATOM     28  C   UNL     1      -6.213  -1.358  -2.169  0.00  0.00    +0.062 C 
ATOM     29  C   UNL     1      -7.239  -0.643  -1.591  0.00  0.00    +0.017 C 
ATOM     30  H   UNL     1      -4.323  -1.873  -1.416  0.00  0.00    +0.152 HD
ENDBRANCH  24  26
ENDBRANCH   1  18
BRANCH   2  34
ATOM     31  F   UNL     1      -0.183   2.689  -0.943  0.00  0.00    -0.166 F 
ATOM     32  F   UNL     1       0.168   2.843   1.191  0.00  0.00    -0.166 F 
ATOM     33  F   UNL     1       1.661   3.577  -0.209  0.00  0.00    -0.166 F 
ATOM     34  C   UNL     1       0.785   2.554   0.009  0.00  0.00    +0.420 C 
ENDBRANCH   2  34
TORSDOF 4
