REMARK  Name = 135504642
REMARK  14 active torsions:
REMARK  status: ('A' for Active; 'I' for Inactive)
REMARK    1  A    between atoms: C_2  and  C_34
REMARK    2  A    between atoms: C_3  and  C_6
REMARK    3  A    between atoms: C_5  and  C_8
REMARK    4  A    between atoms: C_6  and  C_21
REMARK    5  A    between atoms: C_8  and  C_12
REMARK    6  A    between atoms: C_13  and  C_17
REMARK    7  A    between atoms: C_20  and  C_28
REMARK    8  A    between atoms: C_23  and  O_26
REMARK    9  A    between atoms: C_28  and  C_29
REMARK   10  A    between atoms: C_29  and  C_31
REMARK   11  A    between atoms: C_31  and  O_32
REMARK   12  A    between atoms: C_34  and  C_35
REMARK   13  A    between atoms: C_35  and  C_37
REMARK   14  A    between atoms: C_37  and  O_38
REMARK                            x       y       z     vdW  Elec       q    Type
REMARK                         _______ _______ _______ _____ _____    ______ ____
ROOT
ATOM      1  N   UNL     1      -0.238  -1.065   0.320  0.00  0.00    -0.360 N 
ATOM      2  C   UNL     1       0.275   0.704   1.637  0.00  0.00    -0.013 A 
ATOM      3  C   UNL     1      -0.829  -0.087   1.079  0.00  0.00    +0.035 A 
ATOM      4  C   UNL     1       1.442   0.174   1.197  0.00  0.00    -0.013 A 
ATOM      5  C   UNL     1       1.131  -0.976   0.340  0.00  0.00    +0.036 A 
ATOM      6  C   UNL     1       2.837   0.614   1.481  0.00  0.00    +0.032 C 
ATOM      7  H   UNL     1      -0.737  -1.750  -0.180  0.00  0.00    +0.165 HD
ENDROOT
BRANCH   3   8
ATOM      8  C   UNL     1      -2.137   0.115   1.277  0.00  0.00    +0.086 C 
BRANCH   8  11
ATOM      9  N   UNL     1      -4.093  -1.308   1.573  0.00  0.00    -0.329 N 
ATOM     10  C   UNL     1      -3.624  -1.004  -0.576  0.00  0.00    -0.009 A 
ATOM     11  C   UNL     1      -3.228  -0.692   0.706  0.00  0.00    +0.038 A 
ATOM     12  C   UNL     1      -4.766  -1.836  -0.476  0.00  0.00    +0.026 A 
ATOM     13  C   UNL     1      -5.034  -2.008   0.864  0.00  0.00    +0.195 A 
ATOM     14  C   UNL     1      -5.532  -2.417  -1.598  0.00  0.00    +0.036 C 
ATOM     15  H   UNL     1      -4.046  -1.255   2.555  0.00  0.00    +0.168 HD
BRANCH  13  16
ATOM     16  O   UNL     1      -5.979  -2.689   1.496  0.00  0.00    -0.493 OA
ATOM     17  H   UNL     1      -6.007  -2.692   2.432  0.00  0.00    +0.294 HD
ENDBRANCH  13  16
BRANCH  10  18
ATOM     18  C   UNL     1      -2.977  -0.553  -1.826  0.00  0.00    +0.039 C 
BRANCH  18  19
ATOM     19  C   UNL     1      -3.703   0.607  -2.529  0.00  0.00    +0.114 C 
BRANCH  19  21
ATOM     20  O   UNL     1      -4.759   2.029  -0.886  0.00  0.00    -0.250 OA
ATOM     21  C   UNL     1      -3.811   1.816  -1.631  0.00  0.00    +0.314 C 
BRANCH  21  22
ATOM     22  O   UNL     1      -2.732   2.633  -1.714  0.00  0.00    -0.480 OA
ATOM     23  H   UNL     1      -2.032   2.426  -2.300  0.00  0.00    +0.295 HD
ENDBRANCH  21  22
ENDBRANCH  19  21
ENDBRANCH  18  19
ENDBRANCH  10  18
ENDBRANCH   8  11
ENDBRANCH   3   8
BRANCH   5  24
ATOM     24  C   UNL     1       2.009  -1.768  -0.286  0.00  0.00    +0.103 C 
BRANCH  24  27
ATOM     25  O   UNL     1       6.476  -2.048   1.046  0.00  0.00    -0.210 OA
ATOM     26  N   UNL     1       4.179  -2.157   0.694  0.00  0.00    -0.337 NA
ATOM     27  C   UNL     1       3.430  -1.596  -0.205  0.00  0.00    +0.128 C 
ATOM     28  C   UNL     1       4.163  -0.752  -1.158  0.00  0.00    +0.035 C 
ATOM     29  C   UNL     1       5.435  -0.853  -0.750  0.00  0.00    +0.075 C 
ATOM     30  C   UNL     1       5.464  -1.748   0.433  0.00  0.00    +0.200 C 
ATOM     31  C   UNL     1       6.681  -0.245  -1.281  0.00  0.00    +0.045 C 
BRANCH  28  32
ATOM     32  C   UNL     1       3.631  -0.008  -2.253  0.00  0.00    +0.003 C 
ATOM     33  C   UNL     1       4.042   1.222  -2.592  0.00  0.00    +0.000 C 
ENDBRANCH  28  32
ENDBRANCH  24  27
ENDBRANCH   5  24
BRANCH   2  34
ATOM     34  C   UNL     1       0.056   1.876   2.530  0.00  0.00    +0.039 C 
BRANCH  34  35
ATOM     35  C   UNL     1      -0.407   3.114   1.770  0.00  0.00    +0.114 C 
BRANCH  35  37
ATOM     36  O   UNL     1       1.511   4.368   1.006  0.00  0.00    -0.250 OA
ATOM     37  C   UNL     1       0.619   3.567   0.759  0.00  0.00    +0.314 C 
BRANCH  37  38
ATOM     38  O   UNL     1       0.468   2.971  -0.449  0.00  0.00    -0.480 OA
ATOM     39  H   UNL     1      -0.232   2.363  -0.588  0.00  0.00    +0.295 HD
ENDBRANCH  37  38
ENDBRANCH  35  37
ENDBRANCH  34  35
ENDBRANCH   2  34
TORSDOF 14
