REMARK  Name = 135596626
REMARK  4 active torsions:
REMARK  status: ('A' for Active; 'I' for Inactive)
REMARK    1  A    between atoms: N_3  and  C1*_18
REMARK    2  A    between atoms: C3*_19  and  O3*_22
REMARK    3  A    between atoms: C4*_21  and  C5*_24
REMARK    4  A    between atoms: C5*_24  and  O5*_25
REMARK                            x       y       z     vdW  Elec       q    Type
REMARK                         _______ _______ _______ _____ _____    ______ ____
ROOT
ATOM      1  O   UNL     1       2.817   3.567   0.247  0.00  0.00    -0.268 OA
ATOM      2  O   UNL     1       2.345  -2.867  -0.257  0.00  0.00    -0.275 OA
ATOM      3  N   UNL     1      -0.683   0.723  -0.080  0.00  0.00    -0.239 N 
ATOM      4  N   UNL     1      -0.066   2.865   0.103  0.00  0.00    -0.240 NA
ATOM      5  N   UNL     1       1.483  -0.363  -0.094  0.00  0.00    -0.356 NA
ATOM      6  N   UNL     1       3.236   1.277   0.086  0.00  0.00    -0.242 N 
ATOM      7  N   UNL     1       3.725  -0.996  -0.072  0.00  0.00    -0.247 N 
ATOM      8  C   UNL     1       0.680   0.724  -0.036  0.00  0.00    +0.211 C 
ATOM      9  C   UNL     1      -1.085   2.033   0.007  0.00  0.00    +0.224 C 
ATOM     10  C   UNL     1       1.027   2.051   0.075  0.00  0.00    +0.176 C 
ATOM     11  C   UNL     1       2.419   2.414   0.147  0.00  0.00    +0.273 C 
ATOM     12  C   UNL     1       2.745  -0.037  -0.029  0.00  0.00    +0.248 C 
ATOM     13  C   UNL     1       3.456  -2.348  -0.183  0.00  0.00    +0.229 C 
ATOM     14  C   UNL     1       4.719  -3.167  -0.179  0.00  0.00    +0.095 C 
ATOM     15  H   UNL     1       4.211   1.405   0.127  0.00  0.00    +0.159 HD
ATOM     16  H   UNL     1       4.665  -0.708  -0.020  0.00  0.00    +0.158 HD
ENDROOT
BRANCH   3  18
ATOM     17  O4* UNL     1      -2.795  -0.170  -0.927  0.00  0.00    -0.335 OA
ATOM     18  C1* UNL     1      -1.590  -0.476  -0.201  0.00  0.00    +0.198 C 
ATOM     19  C3* UNL     1      -3.331  -1.717   0.797  0.00  0.00    +0.144 C 
ATOM     20  C2* UNL     1      -2.032  -1.031   1.149  0.00  0.00    +0.083 C 
ATOM     21  C4* UNL     1      -3.913  -0.816  -0.284  0.00  0.00    +0.173 C 
BRANCH  19  22
ATOM     22  O3* UNL     1      -3.031  -2.996   0.244  0.00  0.00    -0.382 OA
ATOM     23  H3* UNL     1      -2.661  -3.569   0.934  0.00  0.00    +0.210 HD
ENDBRANCH  19  22
BRANCH  21  24
ATOM     24  C5* UNL     1      -4.821   0.269   0.280  0.00  0.00    +0.169 C 
BRANCH  24  25
ATOM     25  O5* UNL     1      -5.303   1.060  -0.792  0.00  0.00    -0.379 OA
ATOM     26  H5* UNL     1      -5.883   1.755  -0.446  0.00  0.00    +0.211 HD
ENDBRANCH  24  25
ENDBRANCH  21  24
ENDBRANCH   3  18
TORSDOF 4
