REMARK  Name = 135527046
REMARK  5 active torsions:
REMARK  status: ('A' for Active; 'I' for Inactive)
REMARK    1  A    between atoms: C_7  and  C_18
REMARK    2  A    between atoms: C_8  and  C_22
REMARK    3  A    between atoms: C_10  and  O_15
REMARK    4  A    between atoms: C_18  and  O_19
REMARK    5  A    between atoms: C_22  and  O_23
REMARK                            x       y       z     vdW  Elec       q    Type
REMARK                         _______ _______ _______ _____ _____    ______ ____
ROOT
ATOM      1  N   UNL     1       0.420  -1.045  -0.142  0.00  0.00    -0.400 NA
ATOM      2  N   UNL     1      -1.195   1.177   0.057  0.00  0.00    -0.401 NA
ATOM      3  C   UNL     1       0.961   0.182  -0.078  0.00  0.00    +0.152 C 
ATOM      4  C   UNL     1       0.141   1.311   0.023  0.00  0.00    +0.140 C 
ATOM      5  C   UNL     1      -1.735  -0.050  -0.007  0.00  0.00    +0.167 C 
ATOM      6  C   UNL     1      -0.915  -1.178  -0.109  0.00  0.00    +0.161 C 
ATOM      7  C   UNL     1       2.344   0.347  -0.111  0.00  0.00    +0.209 C 
ATOM      8  C   UNL     1      -3.119  -0.215   0.026  0.00  0.00    +0.107 C 
ATOM      9  C   UNL     1       0.726   2.573   0.088  0.00  0.00    +0.090 C 
ATOM     10  C   UNL     1       2.923   1.613  -0.045  0.00  0.00    +0.124 C 
ATOM     11  C   UNL     1      -1.501  -2.441  -0.174  0.00  0.00    +0.035 C 
ATOM     12  C   UNL     1       2.110   2.732   0.054  0.00  0.00    +0.014 C 
ATOM     13  C   UNL     1      -3.699  -1.481  -0.040  0.00  0.00    +0.009 C 
ATOM     14  C   UNL     1      -2.885  -2.600  -0.140  0.00  0.00    +0.003 C 
ENDROOT
BRANCH  10  15
ATOM     15  O   UNL     1       4.276   1.774  -0.077  0.00  0.00    -0.509 OA
ATOM     16  H   UNL     1       4.835   1.025  -0.145  0.00  0.00    +0.292 HD
ENDBRANCH  10  15
BRANCH   7  18
ATOM     17  O   UNL     1       4.007  -1.016  -1.141  0.00  0.00    -0.249 OA
ATOM     18  C   UNL     1       3.212  -0.823  -0.216  0.00  0.00    +0.331 C 
BRANCH  18  19
ATOM     19  O   UNL     1       3.031  -1.672   0.838  0.00  0.00    -0.444 OA
ATOM     20  C   UNL     1       3.829  -2.860   0.849  0.00  0.00    +0.256 C 
ENDBRANCH  18  19
ENDBRANCH   7  18
BRANCH   8  22
ATOM     21  O   UNL     1      -3.726   2.000   0.696  0.00  0.00    -0.245 OA
ATOM     22  C   UNL     1      -4.003   0.940   0.130  0.00  0.00    +0.341 C 
BRANCH  22  23
ATOM     23  O   UNL     1      -5.201   0.730  -0.478  0.00  0.00    -0.477 OA
ATOM     24  H   UNL     1      -5.376  -0.089  -0.898  0.00  0.00    +0.295 HD
ENDBRANCH  22  23
ENDBRANCH   8  22
TORSDOF 5
