135570463
  -OEChem-03292013293D

 41 43  0     1  0  0  0  0  0999 V2000
   -3.2540   -1.2739   -2.2747 O   0  0  0  0  0  0  0  0  0  0  0  0
    4.2214    3.3591   -1.4936 O   0  5  0  0  0  0  0  0  0  0  0  0
    4.0421    3.7419    0.6606 O   0  0  0  0  0  0  0  0  0  0  0  0
    1.3013   -1.9364    0.3216 N   0  0  3  0  0  0  0  0  0  0  0  0
   -4.1658    1.3139    0.7531 N   0  0  0  0  0  0  0  0  0  0  0  0
   -4.5744    0.3913   -1.3723 N   0  0  0  0  0  0  0  0  0  0  0  0
    3.8549    3.0141   -0.3442 N   0  3  0  0  0  0  0  0  0  0  0  0
   -5.9653    2.0754   -0.5421 N   0  0  0  0  0  0  0  0  0  0  0  0
    0.3290   -2.1464    1.3721 C   0  0  0  0  0  0  0  0  0  0  0  0
   -0.8488   -1.2479    1.1968 C   0  0  0  0  0  0  0  0  0  0  0  0
    1.9380   -0.7004    0.1555 C   0  0  0  0  0  0  0  0  0  0  0  0
   -1.6020   -1.3068    0.0256 C   0  0  0  0  0  0  0  0  0  0  0  0
   -2.7035   -0.4599   -0.1279 C   0  0  0  0  0  0  0  0  0  0  0  0
   -1.1951   -0.3502    2.2055 C   0  0  0  0  0  0  0  0  0  0  0  0
   -3.0643    0.4479    0.8767 C   0  0  0  0  0  0  0  0  0  0  0  0
    1.6169   -3.0523   -0.5692 C   0  0  0  0  0  0  0  0  0  0  0  0
   -2.2970    0.4928    2.0459 C   0  0  0  0  0  0  0  0  0  0  0  0
    2.3542   -0.2952   -1.1128 C   0  0  0  0  0  0  0  0  0  0  0  0
    2.1567    0.1253    1.2582 C   0  0  0  0  0  0  0  0  0  0  0  0
   -3.5162   -0.5027   -1.3593 C   0  0  0  0  0  0  0  0  0  0  0  0
    2.9893    0.9356   -1.2782 C   0  0  0  0  0  0  0  0  0  0  0  0
    2.7918    1.3561    1.0928 C   0  0  0  0  0  0  0  0  0  0  0  0
    3.2082    1.7612   -0.1754 C   0  0  0  0  0  0  0  0  0  0  0  0
   -4.8776    1.2685   -0.3378 C   0  0  0  0  0  0  0  0  0  0  0  0
    3.0452   -3.3725   -0.5110 C   0  0  0  0  0  0  0  0  0  0  0  0
    4.2151   -3.6385   -0.4659 C   0  0  0  0  0  0  0  0  0  0  0  0
    0.7913   -2.0328    2.3602 H   0  0  0  0  0  0  0  0  0  0  0  0
   -0.0449   -3.1791    1.3703 H   0  0  0  0  0  0  0  0  0  0  0  0
   -1.3358   -2.0118   -0.7576 H   0  0  0  0  0  0  0  0  0  0  0  0
   -0.6191   -0.2955    3.1255 H   0  0  0  0  0  0  0  0  0  0  0  0
    1.0535   -3.9485   -0.2818 H   0  0  0  0  0  0  0  0  0  0  0  0
    1.2987   -2.8345   -1.5949 H   0  0  0  0  0  0  0  0  0  0  0  0
   -2.5535    1.1870    2.8426 H   0  0  0  0  0  0  0  0  0  0  0  0
    2.1855   -0.8957   -2.0011 H   0  0  0  0  0  0  0  0  0  0  0  0
    1.8752   -0.1615    2.2662 H   0  0  0  0  0  0  0  0  0  0  0  0
    3.2960    1.2209   -2.2813 H   0  0  0  0  0  0  0  0  0  0  0  0
    2.9511    1.9710    1.9750 H   0  0  0  0  0  0  0  0  0  0  0  0
   -5.1687    0.4057   -2.1959 H   0  0  0  0  0  0  0  0  0  0  0  0
   -6.2601    2.7468    0.1585 H   0  0  0  0  0  0  0  0  0  0  0  0
   -6.5072    2.0264   -1.3979 H   0  0  0  0  0  0  0  0  0  0  0  0
    5.2530   -3.8735   -0.4258 H   0  0  0  0  0  0  0  0  0  0  0  0
  1 20  2  0  0  0  0
  2  7  1  0  0  0  0
  3  7  2  0  0  0  0
  4  9  1  0  0  0  0
  4 11  1  0  0  0  0
  4 16  1  0  0  0  0
  5 15  1  0  0  0  0
  5 24  2  0  0  0  0
  6 20  1  0  0  0  0
  6 24  1  0  0  0  0
  6 38  1  0  0  0  0
  7 23  1  0  0  0  0
  8 24  1  0  0  0  0
  8 39  1  0  0  0  0
  8 40  1  0  0  0  0
  9 10  1  0  0  0  0
  9 27  1  0  0  0  0
  9 28  1  0  0  0  0
 10 12  2  0  0  0  0
 10 14  1  0  0  0  0
 11 18  2  0  0  0  0
 11 19  1  0  0  0  0
 12 13  1  0  0  0  0
 12 29  1  0  0  0  0
 13 15  2  0  0  0  0
 13 20  1  0  0  0  0
 14 17  2  0  0  0  0
 14 30  1  0  0  0  0
 15 17  1  0  0  0  0
 16 25  1  0  0  0  0
 16 31  1  0  0  0  0
 16 32  1  0  0  0  0
 17 33  1  0  0  0  0
 18 21  1  0  0  0  0
 18 34  1  0  0  0  0
 19 22  2  0  0  0  0
 19 35  1  0  0  0  0
 21 23  2  0  0  0  0
 21 36  1  0  0  0  0
 22 23  1  0  0  0  0
 22 37  1  0  0  0  0
 25 26  3  0  0  0  0
 26 41  1  0  0  0  0
M  CHG  2   2  -1   7   1
M  END
> <PUBCHEM_COMPOUND_CID>
135570463

> <PUBCHEM_CONFORMER_RMSD>
0.8

> <PUBCHEM_CONFORMER_DIVERSEORDER>
1
24
71
69
77
53
75
3
43
73
56
66
58
30
4
35
67
37
76
45
79
29
50
41
80
38
32
44
8
33
52
46
25
20
23
68
70
51
49
60
83
48
47
19
57
10
34
63
27
78
21
64
5
62
74
15
84
72
28
82
55
39
18
13
40
6
31
65
42
14
54
12
26
9
7
36
59
61
81
16
17
22
11
2

> <PUBCHEM_MMFF94_PARTIAL_CHARGES>
37
1 -0.57
10 -0.14
11 0.1
12 -0.15
13 0.09
14 -0.15
15 0.18
16 0.57
17 -0.15
18 -0.15
19 -0.15
2 -0.52
20 0.54
21 -0.15
22 -0.15
23 0.13
24 0.56
25 -0.2
26 -0.18
29 0.15
3 -0.52
30 0.15
33 0.15
34 0.15
35 0.15
36 0.15
37 0.15
38 0.37
39 0.4
4 -0.84
40 0.4
41 0.18
5 -0.63
6 -0.49
7 0.91
8 -0.85
9 0.51

> <PUBCHEM_EFFECTIVE_ROTOR_COUNT>
5

> <PUBCHEM_PHARMACOPHORE_FEATURES>
11
1 1 acceptor
1 2 acceptor
1 2 anion
1 26 hydrophobe
1 3 acceptor
1 4 cation
1 6 donor
1 8 donor
6 10 12 13 14 15 17 rings
6 11 18 19 21 22 23 rings
6 5 6 13 15 20 24 rings

> <PUBCHEM_HEAVY_ATOM_COUNT>
26

> <PUBCHEM_ATOM_DEF_STEREO_COUNT>
0

> <PUBCHEM_ATOM_UDEF_STEREO_COUNT>
0

> <PUBCHEM_BOND_DEF_STEREO_COUNT>
0

> <PUBCHEM_BOND_UDEF_STEREO_COUNT>
0

> <PUBCHEM_ISOTOPIC_ATOM_COUNT>
0

> <PUBCHEM_COMPONENT_COUNT>
1

> <PUBCHEM_CACTVS_TAUTO_COUNT>
-1

> <PUBCHEM_CONFORMER_ID>
0814A41F00000001

> <PUBCHEM_MMFF94_ENERGY>
87.9067

> <PUBCHEM_FEATURE_SELFOVERLAP>
55.974

> <PUBCHEM_SHAPE_FINGERPRINT>
10165383 225 17541434297460251578
10498660 4 18340494472720048089
105312 117 18118695554664199916
11595378 159 12829501315930495911
12166972 35 18057599863368121883
12549972 3 17531832180726018938
12633257 1 15430314801514718965
12788726 201 17612043577540950418
13103583 49 10810161328098634917
13134695 92 18192156997338805822
13590594 115 18050291358238802976
14468879 13 18187370977593506513
15163728 17 18262524830750748948
15842332 3 17631468794584380819
16988056 13 18191581948293466684
17980427 23 18123719076956854018
1813 80 17840317622936427182
18186145 218 17895193243182156435
18335252 114 17977658720099999101
21304303 282 17626360666179543942
23559900 14 18059279968822937123
238 59 18341906181352105994
2838139 119 18194958771935994552
340366 18 17986664883835124727
376196 1 18262795306395284056
44317340 157 18410857625730818697
46194498 28 18266739086968646807
469060 322 17831873712784471531
474 4 18334006199043688921
484985 159 10085440271827271733
57724786 102 17821727264895991788
5969126 39 17763185740193042710
633830 44 18187921742988420251
6823239 73 16444213957057945982
7399639 24 17974875048057220850
7471813 234 17985829233549181746
9971528 1 18198617731900543274
9981440 41 18196085771322200018

> <PUBCHEM_SHAPE_MULTIPOLES>
492.55
10.38
4.09
1.82
9.06
0.87
-0.2
5.82
3.92
-8.2
0.87
1.02
-0.01
-0.21

> <PUBCHEM_SHAPE_SELFOVERLAP>
1072.306

> <PUBCHEM_SHAPE_VOLUME>
266.1

> <PUBCHEM_COORDINATE_TYPE>
2
5
10

$$$$
