135565635
  -OEChem-03292013293D

 39 42  0     0  0  0  0  0  0999 V2000
    6.4677   -0.7259    0.7869 O   0  0  0  0  0  0  0  0  0  0  0  0
   -2.7874   -1.0504   -0.0649 N   0  0  0  0  0  0  0  0  0  0  0  0
   -1.4949   -1.4229   -0.1163 N   0  0  0  0  0  0  0  0  0  0  0  0
    1.4017    0.4311   -0.9610 N   0  0  0  0  0  0  0  0  0  0  0  0
   -4.1292    0.9552    0.1336 N   0  0  0  0  0  0  0  0  0  0  0  0
   -2.7427    2.9558    0.2937 N   0  0  0  0  0  0  0  0  0  0  0  0
   -0.3579    2.8790    0.2548 N   0  0  0  0  0  0  0  0  0  0  0  0
   -3.8217   -2.0546   -0.1445 C   0  0  0  0  0  0  0  0  0  0  0  0
   -0.8331   -0.2644   -0.0216 C   0  0  0  0  0  0  0  0  0  0  0  0
   -1.6922    0.8446    0.0898 C   0  0  0  0  0  0  0  0  0  0  0  0
   -2.9622    0.2960    0.0582 C   0  0  0  0  0  0  0  0  0  0  0  0
    0.6371   -0.2308   -0.0381 C   0  0  0  0  0  0  0  0  0  0  0  0
    2.8200   -0.5467    0.4565 C   0  0  0  0  0  0  0  0  0  0  0  0
    2.7386    0.2556   -0.6837 C   0  0  0  0  0  0  0  0  0  0  0  0
    1.4864   -0.8457    0.8527 C   0  0  0  0  0  0  0  0  0  0  0  0
   -3.7770   -2.8046   -1.4780 C   0  0  0  0  0  0  0  0  0  0  0  0
   -3.7507   -3.0307    1.0325 C   0  0  0  0  0  0  0  0  0  0  0  0
   -1.6035    2.2273    0.2126 C   0  0  0  0  0  0  0  0  0  0  0  0
    4.0924   -0.8825    0.9600 C   0  0  0  0  0  0  0  0  0  0  0  0
    3.8708    0.7407   -1.3480 C   0  0  0  0  0  0  0  0  0  0  0  0
    5.2337   -0.4047    0.3056 C   0  0  0  0  0  0  0  0  0  0  0  0
    5.1222    0.3943   -0.8304 C   0  0  0  0  0  0  0  0  0  0  0  0
   -3.9180    2.2841    0.2498 C   0  0  0  0  0  0  0  0  0  0  0  0
   -4.7861   -1.5356   -0.0877 H   0  0  0  0  0  0  0  0  0  0  0  0
    1.1881   -1.4473    1.7014 H   0  0  0  0  0  0  0  0  0  0  0  0
    1.0406    0.9712   -1.7354 H   0  0  0  0  0  0  0  0  0  0  0  0
   -3.8360   -2.1062   -2.3202 H   0  0  0  0  0  0  0  0  0  0  0  0
   -4.6183   -3.5012   -1.5579 H   0  0  0  0  0  0  0  0  0  0  0  0
   -3.7916   -2.4940    1.9868 H   0  0  0  0  0  0  0  0  0  0  0  0
   -4.5909   -3.7326    1.0038 H   0  0  0  0  0  0  0  0  0  0  0  0
   -2.8238   -3.6149    1.0191 H   0  0  0  0  0  0  0  0  0  0  0  0
   -2.8517   -3.3810   -1.5881 H   0  0  0  0  0  0  0  0  0  0  0  0
    4.1795   -1.5054    1.8460 H   0  0  0  0  0  0  0  0  0  0  0  0
    3.7849    1.3630   -2.2324 H   0  0  0  0  0  0  0  0  0  0  0  0
    6.0183    0.7581   -1.3278 H   0  0  0  0  0  0  0  0  0  0  0  0
   -4.8101    2.8976    0.3172 H   0  0  0  0  0  0  0  0  0  0  0  0
    0.5094    2.3676    0.2916 H   0  0  0  0  0  0  0  0  0  0  0  0
   -0.3455    3.8856    0.3530 H   0  0  0  0  0  0  0  0  0  0  0  0
    6.3629   -1.2840    1.5765 H   0  0  0  0  0  0  0  0  0  0  0  0
  1 21  1  0  0  0  0
  1 39  1  0  0  0  0
  2  3  1  0  0  0  0
  2  8  1  0  0  0  0
  2 11  1  0  0  0  0
  3  9  2  0  0  0  0
  4 12  1  0  0  0  0
  4 14  1  0  0  0  0
  4 26  1  0  0  0  0
  5 11  2  0  0  0  0
  5 23  1  0  0  0  0
  6 18  1  0  0  0  0
  6 23  2  0  0  0  0
  7 18  1  0  0  0  0
  7 37  1  0  0  0  0
  7 38  1  0  0  0  0
  8 16  1  0  0  0  0
  8 17  1  0  0  0  0
  8 24  1  0  0  0  0
  9 10  1  0  0  0  0
  9 12  1  0  0  0  0
 10 11  1  0  0  0  0
 10 18  2  0  0  0  0
 12 15  2  0  0  0  0
 13 14  2  0  0  0  0
 13 15  1  0  0  0  0
 13 19  1  0  0  0  0
 14 20  1  0  0  0  0
 15 25  1  0  0  0  0
 16 27  1  0  0  0  0
 16 28  1  0  0  0  0
 16 32  1  0  0  0  0
 17 29  1  0  0  0  0
 17 30  1  0  0  0  0
 17 31  1  0  0  0  0
 19 21  2  0  0  0  0
 19 33  1  0  0  0  0
 20 22  2  0  0  0  0
 20 34  1  0  0  0  0
 21 22  1  0  0  0  0
 22 35  1  0  0  0  0
 23 36  1  0  0  0  0
M  END
> <PUBCHEM_COMPOUND_CID>
135565635

> <PUBCHEM_CONFORMER_RMSD>
0.6

> <PUBCHEM_CONFORMER_DIVERSEORDER>
1
8
3
4
7
5
2
6

> <PUBCHEM_MMFF94_PARTIAL_CHARGES>
28
1 -0.53
11 0.11
12 -0.15
14 -0.15
15 -0.15
18 0.41
19 -0.15
2 0.31
20 -0.15
21 0.08
22 -0.15
23 0.47
25 0.15
26 0.27
3 -0.71
33 0.15
34 0.15
35 0.15
36 0.15
37 0.4
38 0.4
39 0.45
4 0.03
5 -0.57
6 -0.62
7 -0.9
8 0.26
9 0.29

> <PUBCHEM_EFFECTIVE_ROTOR_COUNT>
2

> <PUBCHEM_PHARMACOPHORE_FEATURES>
13
1 1 donor
1 3 acceptor
1 4 cation
1 4 donor
1 7 cation
1 7 donor
3 2 5 11 cation
3 5 6 23 cation
3 8 16 17 hydrophobe
5 2 3 9 10 11 rings
5 4 12 13 14 15 rings
6 13 14 19 20 21 22 rings
6 5 6 10 11 18 23 rings

> <PUBCHEM_HEAVY_ATOM_COUNT>
23

> <PUBCHEM_ATOM_DEF_STEREO_COUNT>
0

> <PUBCHEM_ATOM_UDEF_STEREO_COUNT>
0

> <PUBCHEM_BOND_DEF_STEREO_COUNT>
0

> <PUBCHEM_BOND_UDEF_STEREO_COUNT>
0

> <PUBCHEM_ISOTOPIC_ATOM_COUNT>
0

> <PUBCHEM_COMPONENT_COUNT>
1

> <PUBCHEM_CACTVS_TAUTO_COUNT>
-1

> <PUBCHEM_CONFORMER_ID>
0814914300000001

> <PUBCHEM_MMFF94_ENERGY>
45.7652

> <PUBCHEM_FEATURE_SELFOVERLAP>
66.343

> <PUBCHEM_SHAPE_FINGERPRINT>
10319926 262 18199449031848014498
10369192 42 16625999724157874512
10411042 1 18195806491416973479
10595046 47 18335422400586208246
10616163 171 18410577270844241247
10912923 1 18040154028956373850
1100329 8 18410579496291467537
11045515 52 17822289141022907781
11056379 131 18341339949874781198
11315181 36 18113898286621396426
11545043 162 18131067134924739370
12107183 9 17686050601003455394
12236239 1 18040156197345295468
12390115 104 17843696456570467345
12553582 1 18267865180355245647
12616971 3 17530688688891418572
12714826 92 18060705017522877739
12788726 201 18264500635660395234
13140716 1 18341056328195014497
13167823 11 18334576850063798074
13583140 156 17703779302615158998
13760787 5 16805328790852847174
14508225 48 18268413794002751909
14674994 50 16055732426537934447
14739800 52 18266738168663959040
14790565 3 18124605171913503105
14844126 61 18411416233008522299
15042514 8 18410018723922725843
15131766 46 16155994692308500205
15250474 111 18260817181977672386
16087824 20 18340484484139867477
16992727 255 18191003661708092845
17349148 13 17749108907163860874
17492 89 18408611357387260902
17844677 252 18201439216170400216
18222031 100 17986389104043070607
18927931 339 18342179985459178031
200 152 18114460157963273358
20101258 96 18264220256385414689
20511986 3 18040986320076874172
21033648 29 17274241891105784194
21033650 10 18195274177385685764
21065198 48 18260830406418372110
21065201 7 18343304730510174702
21267235 1 18335428992628089931
21728266 224 18410565189412194690
23402539 116 18409163320618549830
23557571 272 18201723941893995670
23559900 14 18341040882928394824
312423 11 18187938321340409524
3178227 256 18337125480143201025
335352 9 18411697712970601599
4214541 1 18409166584862142924
474 4 17530977877714055124
5104073 3 18411420643944885584
573450 72 18335416851124465018
67856867 119 18261675973831527668
7471813 234 18266733773830195140
7495541 125 17917427679225049784
7970288 3 18196087978709640583
9709674 26 18199754652160399318

> <PUBCHEM_SHAPE_MULTIPOLES>
437.57
11.61
3.01
1.04
13.04
0.53
-0.19
-3.54
0.25
-5.86
0.22
0.39
-0.42
-1.26

> <PUBCHEM_SHAPE_SELFOVERLAP>
979.587

> <PUBCHEM_SHAPE_VOLUME>
231.7

> <PUBCHEM_COORDINATE_TYPE>
2
5
10

$$$$
