REMARK  Name = 135562703
REMARK  5 active torsions:
REMARK  status: ('A' for Active; 'I' for Inactive)
REMARK    1  A    between atoms: N_2  and  C1*_34
REMARK    2  A    between atoms: N_3  and  C_17
REMARK    3  A    between atoms: C3*_36  and  O3*_38
REMARK    4  A    between atoms: C4*_37  and  C5*_40
REMARK    5  A    between atoms: C5*_40  and  O5*_41
REMARK                            x       y       z     vdW  Elec       q    Type
REMARK                         _______ _______ _______ _____ _____    ______ ____
ROOT
ATOM      1  O   UNL     1       3.237   4.345  -0.767  0.00  0.00    -0.267 OA
ATOM      2  N   UNL     1       2.326   0.025   0.197  0.00  0.00    -0.200 N 
ATOM      3  N   UNL     1      -0.053   0.205   0.430  0.00  0.00    -0.275 N 
ATOM      4  N   UNL     1       1.454   2.062  -0.110  0.00  0.00    -0.364 NA
ATOM      5  N   UNL     1       4.675   0.490  -0.160  0.00  0.00    -0.355 NA
ATOM      6  N   UNL     1       4.995   2.811  -0.659  0.00  0.00    -0.242 N 
ATOM      7  N   UNL     1       6.828   1.335  -0.572  0.00  0.00    -0.321 N 
ATOM      8  C   UNL     1       1.192   0.800   0.171  0.00  0.00    +0.250 C 
ATOM      9  C   UNL     1       3.374   0.851  -0.086  0.00  0.00    +0.229 C 
ATOM     10  C   UNL     1       2.808   2.089  -0.269  0.00  0.00    +0.232 C 
ATOM     11  C   UNL     1       3.652   3.207  -0.587  0.00  0.00    +0.286 C 
ATOM     12  C   UNL     1       5.472   1.495  -0.451  0.00  0.00    +0.240 C 
ATOM     13  H   UNL     1       0.000  -0.761   0.617  0.00  0.00    +0.156 HD
ATOM     14  H   UNL     1       5.661   3.505  -0.873  0.00  0.00    +0.159 HD
ATOM     15  H   UNL     1       7.232   0.447  -0.440  0.00  0.00    +0.146 HD
ATOM     16  H   UNL     1       7.397   2.108  -0.790  0.00  0.00    +0.146 HD
ENDROOT
BRANCH   3  17
ATOM     17  C   UNL     1      -1.370   0.724   0.476  0.00  0.00    +0.051 C 
ATOM     18  C   UNL     1      -3.776   0.505   0.209  0.00  0.00    +0.001 C 
ATOM     19  C   UNL     1      -2.483  -0.064   0.146  0.00  0.00    +0.014 C 
ATOM     20  C   UNL     1      -4.911  -0.277  -0.120  0.00  0.00    +0.000 C 
ATOM     21  C   UNL     1      -3.938   1.854   0.602  0.00  0.00    +0.000 C 
ATOM     22  C   UNL     1      -4.749  -1.627  -0.512  0.00  0.00    +0.000 C 
ATOM     23  C   UNL     1      -1.531   2.053   0.862  0.00  0.00    +0.015 C 
ATOM     24  C   UNL     1      -6.204   0.292  -0.057  0.00  0.00    +0.000 C 
ATOM     25  C   UNL     1      -2.342  -1.402  -0.244  0.00  0.00    +0.001 C 
ATOM     26  C   UNL     1      -2.805   2.616   0.925  0.00  0.00    +0.001 C 
ATOM     27  C   UNL     1      -3.460  -2.173  -0.569  0.00  0.00    +0.000 C 
ATOM     28  C   UNL     1      -5.227   2.401   0.658  0.00  0.00    +0.000 C 
ATOM     29  C   UNL     1      -6.345   1.630   0.334  0.00  0.00    +0.000 C 
ATOM     30  C   UNL     1      -5.882  -2.388  -0.836  0.00  0.00    +0.000 C 
ATOM     31  C   UNL     1      -7.317  -0.496  -0.386  0.00  0.00    +0.000 C 
ATOM     32  C   UNL     1      -7.156  -1.825  -0.773  0.00  0.00    +0.000 C 
ENDBRANCH   3  17
BRANCH   2  34
ATOM     33  O4* UNL     1       3.642  -1.806   1.142  0.00  0.00    -0.335 OA
ATOM     34  C1* UNL     1       2.411  -1.453   0.483  0.00  0.00    +0.203 C 
ATOM     35  C2* UNL     1       2.336  -2.311  -0.775  0.00  0.00    +0.083 C 
ATOM     36  C3* UNL     1       3.052  -3.568  -0.342  0.00  0.00    +0.144 C 
ATOM     37  C4* UNL     1       4.138  -3.041   0.587  0.00  0.00    +0.173 C 
BRANCH  36  38
ATOM     38  O3* UNL     1       2.140  -4.376   0.399  0.00  0.00    -0.382 OA
ATOM     39  H3* UNL     1       1.449  -4.711  -0.195  0.00  0.00    +0.210 HD
ENDBRANCH  36  38
BRANCH  37  40
ATOM     40  C5* UNL     1       5.440  -2.738  -0.142  0.00  0.00    +0.169 C 
BRANCH  40  41
ATOM     41  O5* UNL     1       6.381  -2.246   0.795  0.00  0.00    -0.379 OA
ATOM     42  H5* UNL     1       7.216  -2.049   0.342  0.00  0.00    +0.211 HD
ENDBRANCH  40  41
ENDBRANCH  37  40
ENDBRANCH   2  34
TORSDOF 5
