135596630
  -OEChem-03292013293D

 31 33  0     1  0  0  0  0  0999 V2000
    1.9208    0.4671    0.9784 O   0  0  0  0  0  0  0  0  0  0  0  0
    0.8564   -2.1334   -1.2763 O   0  0  0  0  0  0  0  0  0  0  0  0
    3.0624   -2.2709    0.3630 O   0  0  0  0  0  0  0  0  0  0  0  0
    3.8838    2.3968    0.4550 O   0  0  0  0  0  0  0  0  0  0  0  0
   -1.5799   -2.2144    0.6823 O   0  0  0  0  0  0  0  0  0  0  0  0
   -0.3577    0.5006    0.1039 N   0  0  0  0  0  0  0  0  0  0  0  0
   -1.5921    2.2878   -0.4049 N   0  0  0  0  0  0  0  0  0  0  0  0
   -3.6054   -1.1594    0.3012 N   0  0  0  0  0  0  0  0  0  0  0  0
   -3.8051    1.1737   -0.2746 N   0  0  0  0  0  0  0  0  0  0  0  0
    1.4835   -0.9296   -0.8815 C   0  0  1  0  0  0  0  0  0  0  0  0
    0.8751   -0.3268    0.3806 C   0  0  1  0  0  0  0  0  0  0  0  0
    2.9302   -1.1217   -0.4723 C   0  0  1  0  0  0  0  0  0  0  0  0
    3.1886    0.1127    0.3823 C   0  0  1  0  0  0  0  0  0  0  0  0
    3.6855    1.3042   -0.4248 C   0  0  0  0  0  0  0  0  0  0  0  0
   -1.6569    0.0838    0.1232 C   0  0  0  0  0  0  0  0  0  0  0  0
   -0.3702    1.8327   -0.2189 C   0  0  0  0  0  0  0  0  0  0  0  0
   -2.3987    1.2012   -0.1930 C   0  0  0  0  0  0  0  0  0  0  0  0
   -2.2159   -1.2046    0.3990 C   0  0  0  0  0  0  0  0  0  0  0  0
   -4.3046    0.0002   -0.0224 C   0  0  0  0  0  0  0  0  0  0  0  0
    1.4193   -0.2194   -1.7149 H   0  0  0  0  0  0  0  0  0  0  0  0
    0.5724   -1.0815    1.1133 H   0  0  0  0  0  0  0  0  0  0  0  0
    3.6093   -1.2431   -1.3210 H   0  0  0  0  0  0  0  0  0  0  0  0
    3.8785   -0.0878    1.2099 H   0  0  0  0  0  0  0  0  0  0  0  0
    2.9539    1.6139   -1.1776 H   0  0  0  0  0  0  0  0  0  0  0  0
    4.6349    1.0731   -0.9177 H   0  0  0  0  0  0  0  0  0  0  0  0
    1.3712   -2.5015   -2.0145 H   0  0  0  0  0  0  0  0  0  0  0  0
    3.9962   -2.3319    0.6277 H   0  0  0  0  0  0  0  0  0  0  0  0
    0.5346    2.4183   -0.3073 H   0  0  0  0  0  0  0  0  0  0  0  0
    4.2030    3.1426   -0.0812 H   0  0  0  0  0  0  0  0  0  0  0  0
   -4.1285   -2.0128    0.4744 H   0  0  0  0  0  0  0  0  0  0  0  0
   -5.3935   -0.1629   -0.0512 H   0  0  0  0  0  0  0  0  0  0  0  0
  1 11  1  0  0  0  0
  1 13  1  0  0  0  0
  2 10  1  0  0  0  0
  2 26  1  0  0  0  0
  3 12  1  0  0  0  0
  3 27  1  0  0  0  0
  4 14  1  0  0  0  0
  4 29  1  0  0  0  0
  5 18  2  0  0  0  0
  6 11  1  0  0  0  0
  6 15  1  0  0  0  0
  6 16  1  0  0  0  0
  7 16  2  0  0  0  0
  7 17  1  0  0  0  0
  8 18  1  0  0  0  0
  8 19  1  0  0  0  0
  8 30  1  0  0  0  0
  9 17  1  0  0  0  0
  9 19  2  0  0  0  0
 10 11  1  0  0  0  0
 10 12  1  0  0  0  0
 10 20  1  0  0  0  0
 11 21  1  0  0  0  0
 12 13  1  0  0  0  0
 12 22  1  0  0  0  0
 13 14  1  0  0  0  0
 13 23  1  0  0  0  0
 14 24  1  0  0  0  0
 14 25  1  0  0  0  0
 15 17  2  0  0  0  0
 15 18  1  0  0  0  0
 16 28  1  0  0  0  0
 19 31  1  0  0  0  0
M  END
> <PUBCHEM_COMPOUND_CID>
135596630

> <PUBCHEM_CONFORMER_RMSD>
0.6

> <PUBCHEM_CONFORMER_DIVERSEORDER>
1
7
4
2
9
8
6
3
5

> <PUBCHEM_MMFF94_PARTIAL_CHARGES>
25
1 -0.56
10 0.28
11 0.54
12 0.28
13 0.28
14 0.28
15 -0.24
16 0.04
17 0.35
18 0.71
19 0.45
2 -0.68
26 0.4
27 0.4
28 0.15
29 0.4
3 -0.68
30 0.37
31 0.06
4 -0.68
5 -0.57
6 0.05
7 -0.57
8 -0.49
9 -0.57

> <PUBCHEM_EFFECTIVE_ROTOR_COUNT>
3

> <PUBCHEM_PHARMACOPHORE_FEATURES>
13
1 1 acceptor
1 2 acceptor
1 2 donor
1 3 acceptor
1 3 donor
1 4 acceptor
1 4 donor
1 5 acceptor
1 8 donor
3 6 7 16 cation
5 1 10 11 12 13 rings
5 6 7 15 16 17 rings
6 8 9 15 17 18 19 rings

> <PUBCHEM_HEAVY_ATOM_COUNT>
19

> <PUBCHEM_ATOM_DEF_STEREO_COUNT>
4

> <PUBCHEM_ATOM_UDEF_STEREO_COUNT>
0

> <PUBCHEM_BOND_DEF_STEREO_COUNT>
0

> <PUBCHEM_BOND_UDEF_STEREO_COUNT>
0

> <PUBCHEM_ISOTOPIC_ATOM_COUNT>
0

> <PUBCHEM_COMPONENT_COUNT>
1

> <PUBCHEM_CACTVS_TAUTO_COUNT>
-1

> <PUBCHEM_CONFORMER_ID>
08150A5600000001

> <PUBCHEM_MMFF94_ENERGY>
45.2786

> <PUBCHEM_FEATURE_SELFOVERLAP>
66.117

> <PUBCHEM_SHAPE_FINGERPRINT>
10608611 8 18410572842806526284
10616163 171 18339364166134249750
107287 299 17917715707878774702
10759866 29 18261118474006670294
10967382 1 18409730685518678944
11132069 177 18336263543423172648
12173636 292 18261951856391287677
12403259 226 18119526535903323750
12633257 1 18196094347997102984
13140716 1 18337400322824638947
13296908 3 18408324371734699427
15196674 1 18409449176720209147
15219456 202 18413389825840257394
15375358 24 18410572903141478429
15375462 6 18409450297611669500
16945 1 18262244429157010000
18175812 5 18412263921775597774
18186145 218 18265335001866472453
200 152 17417802895077134135
20201158 50 18200877253690555391
20510252 161 18411700946448505377
20528008 55 18411135827230156933
20645477 70 18272088262276820919
21501502 16 18341336578446493616
221490 88 18410301276720326610
23227448 37 17767966802964989532
23402539 116 18336536127954490447
23557571 272 18264222446449262366
23559900 14 18338793395446244002
2748010 2 18411429431062915615
296302 2 18342460361171797053
34934 24 18337104678529324283
495365 180 17703207551825290729
5104073 3 18408606937712296865
58051976 378 18413669119380043036
69090 78 18341607084456720279
7364860 26 18411418372123177210
81228 2 18189351082129211249
8809292 202 18337677399354294802
9709674 26 18340491049683867127

> <PUBCHEM_SHAPE_MULTIPOLES>
341.74
7.36
2.44
0.84
0.72
0.04
0.08
1.09
-0.27
-0.87
0.1
-0.29
-0.19
0.66

> <PUBCHEM_SHAPE_SELFOVERLAP>
742.309

> <PUBCHEM_SHAPE_VOLUME>
185

> <PUBCHEM_COORDINATE_TYPE>
2
5
10

$$$$
