REMARK  Name = 135511704
REMARK  11 active torsions:
REMARK  status: ('A' for Active; 'I' for Inactive)
REMARK    1  A    between atoms: C_1  and  C_12
REMARK    2  A    between atoms: C_2  and  O_17
REMARK    3  A    between atoms: C_4  and  O_19
REMARK    4  A    between atoms: C_9  and  C_14
REMARK    5  A    between atoms: C_14  and  O_15
REMARK    6  A    between atoms: O_19  and  C_20
REMARK    7  A    between atoms: C_20  and  C_21
REMARK    8  A    between atoms: C_21  and  O_22
REMARK    9  A    between atoms: O_22  and  C_23
REMARK   10  A    between atoms: C_23  and  C_24
REMARK   11  A    between atoms: C_24  and  O_25
REMARK                            x       y       z     vdW  Elec       q    Type
REMARK                         _______ _______ _______ _____ _____    ______ ____
ROOT
ATOM      1  C   UNL     1      -1.702  -0.239  -0.312  0.00  0.00    +0.057 C 
ATOM      2  C   UNL     1      -1.345  -1.552  -0.004  0.00  0.00    +0.139 C 
ATOM      3  C   UNL     1      -0.714   0.733  -0.467  0.00  0.00    +0.008 C 
ATOM      4  C   UNL     1       0.986  -0.920  -0.006  0.00  0.00    +0.142 C 
ATOM      5  C   UNL     1      -0.001  -1.893   0.149  0.00  0.00    +0.074 C 
ATOM      6  C   UNL     1       0.630   0.393  -0.314  0.00  0.00    +0.037 C 
ENDROOT
BRANCH   1  12
ATOM      7  S   UNL     1      -3.588   1.432  -1.569  0.00  0.00    -0.093 S 
ATOM      8  N   UNL     1      -4.085  -0.449   0.154  0.00  0.00    -0.256 NA
ATOM      9  C   UNL     1      -5.394   0.160  -0.154  0.00  0.00    +0.184 C 
ATOM     10  C   UNL     1      -5.317   0.926  -1.472  0.00  0.00    +0.097 C 
ATOM     11  C   UNL     1      -6.442  -0.948  -0.217  0.00  0.00    +0.037 C 
ATOM     12  C   UNL     1      -3.125   0.144  -0.479  0.00  0.00    +0.105 C 
BRANCH   9  14
ATOM     13  O   UNL     1      -5.004   1.229   1.986  0.00  0.00    -0.248 OA
ATOM     14  C   UNL     1      -5.716   1.064   1.006  0.00  0.00    +0.335 C 
BRANCH  14  15
ATOM     15  O   UNL     1      -6.912   1.674   0.821  0.00  0.00    -0.479 OA
ATOM     16  H   UNL     1      -7.409   1.503   0.045  0.00  0.00    +0.295 HD
ENDBRANCH  14  15
ENDBRANCH   9  14
ENDBRANCH   1  12
BRANCH   2  17
ATOM     17  O   UNL     1      -2.296  -2.517   0.152  0.00  0.00    -0.505 OA
ATOM     18  H   UNL     1      -3.202  -2.302   0.052  0.00  0.00    +0.292 HD
ENDBRANCH   2  17
BRANCH   4  19
ATOM     19  O   UNL     1       2.298  -1.252   0.143  0.00  0.00    -0.473 OA
BRANCH  19  20
ATOM     20  C   UNL     1       3.255  -0.207  -0.030  0.00  0.00    +0.237 C 
BRANCH  20  21
ATOM     21  C   UNL     1       4.646  -0.768   0.198  0.00  0.00    +0.189 C 
BRANCH  21  22
ATOM     22  O   UNL     1       5.601   0.268   0.006  0.00  0.00    -0.347 OA
BRANCH  22  23
ATOM     23  C   UNL     1       6.927  -0.203   0.208  0.00  0.00    +0.174 C 
BRANCH  23  24
ATOM     24  C   UNL     1       7.897   0.943  -0.010  0.00  0.00    +0.174 C 
BRANCH  24  25
ATOM     25  O   UNL     1       9.222   0.476   0.212  0.00  0.00    -0.348 OA
ATOM     26  C   UNL     1      10.178   1.506  -0.001  0.00  0.00    +0.174 C 
ENDBRANCH  24  25
ENDBRANCH  23  24
ENDBRANCH  22  23
ENDBRANCH  21  22
ENDBRANCH  20  21
ENDBRANCH  19  20
ENDBRANCH   4  19
TORSDOF 11
