REMARK  Name = 135511071
REMARK  7 active torsions:
REMARK  status: ('A' for Active; 'I' for Inactive)
REMARK    1  A    between atoms: C_3  and  C_17
REMARK    2  A    between atoms: C_4  and  C_26
REMARK    3  A    between atoms: C_5  and  N_9
REMARK    4  A    between atoms: C_17  and  C_18
REMARK    5  A    between atoms: C_23  and  O_24
REMARK    6  A    between atoms: C_26  and  C_27
REMARK    7  A    between atoms: C_32  and  O_33
REMARK                            x       y       z     vdW  Elec       q    Type
REMARK                         _______ _______ _______ _____ _____    ______ ____
ROOT
ATOM      1  N   UNL     1       0.571  -0.221   1.320  0.00  0.00    -0.262 N 
ATOM      2  N   UNL     1      -0.466  -1.419  -0.236  0.00  0.00    -0.376 NA
ATOM      3  C   UNL     1      -0.281   0.641   0.690  0.00  0.00    +0.129 C 
ATOM      4  C   UNL     1      -0.910  -0.121  -0.266  0.00  0.00    +0.113 C 
ATOM      5  C   UNL     1       0.425  -1.446   0.730  0.00  0.00    +0.274 C 
ATOM      6  C   UNL     1       1.462   0.110   2.410  0.00  0.00    +0.116 C 
ENDROOT
BRANCH   5   9
ATOM      7  O   UNL     1       2.257  -0.886  -0.921  0.00  0.00    -0.266 OA
ATOM      8  O   UNL     1       5.338  -4.204  -0.016  0.00  0.00    -0.252 OA
ATOM      9  N   UNL     1       1.191  -2.537   1.184  0.00  0.00    -0.183 NA
ATOM     10  N   UNL     1       4.079  -2.381  -0.789  0.00  0.00    -0.206 N 
ATOM     11  N   UNL     1       3.251  -3.668   0.849  0.00  0.00    -0.249 N 
ATOM     12  C   UNL     1       2.325  -2.708   0.609  0.00  0.00    +0.194 C 
ATOM     13  C   UNL     1       2.863  -1.840  -0.483  0.00  0.00    +0.288 C 
ATOM     14  C   UNL     1       4.339  -3.495   0.007  0.00  0.00    +0.315 C 
ATOM     15  C   UNL     1       4.976  -1.868  -1.804  0.00  0.00    +0.125 C 
ATOM     16  H   UNL     1       3.163  -4.382   1.521  0.00  0.00    +0.158 HD
ENDBRANCH   5   9
BRANCH   3  17
ATOM     17  C   UNL     1      -0.407   2.065   1.052  0.00  0.00    +0.053 C 
BRANCH  17  18
ATOM     18  C   UNL     1       0.711   2.953   0.524  0.00  0.00    -0.020 C 
ATOM     19  C   UNL     1       0.997   2.976  -0.841  0.00  0.00    -0.001 C 
ATOM     20  C   UNL     1       1.450   3.743   1.405  0.00  0.00    -0.001 C 
ATOM     21  C   UNL     1       2.022   3.789  -1.325  0.00  0.00    +0.036 C 
ATOM     22  C   UNL     1       2.474   4.556   0.921  0.00  0.00    +0.036 C 
ATOM     23  C   UNL     1       2.761   4.579  -0.444  0.00  0.00    +0.134 C 
BRANCH  23  24
ATOM     24  O   UNL     1       3.761   5.372  -0.916  0.00  0.00    -0.506 OA
ATOM     25  H   UNL     1       3.953   5.388  -1.833  0.00  0.00    +0.292 HD
ENDBRANCH  23  24
ENDBRANCH  17  18
ENDBRANCH   3  17
BRANCH   4  26
ATOM     26  C   UNL     1      -1.933   0.293  -1.239  0.00  0.00    +0.082 C 
BRANCH  26  27
ATOM     27  C   UNL     1      -3.357  -0.110  -0.875  0.00  0.00    -0.015 C 
ATOM     28  C   UNL     1      -3.796  -1.412  -1.113  0.00  0.00    -0.001 C 
ATOM     29  C   UNL     1      -4.220   0.824  -0.301  0.00  0.00    -0.001 C 
ATOM     30  C   UNL     1      -5.099  -1.781  -0.779  0.00  0.00    +0.037 C 
ATOM     31  C   UNL     1      -5.523   0.455   0.033  0.00  0.00    +0.037 C 
ATOM     32  C   UNL     1      -5.963  -0.847  -0.206  0.00  0.00    +0.139 C 
BRANCH  32  33
ATOM     33  O   UNL     1      -7.234  -1.207   0.121  0.00  0.00    -0.471 OA
ATOM     34  C   UNL     1      -8.063  -0.203   0.703  0.00  0.00    +0.252 C 
ENDBRANCH  32  33
ENDBRANCH  26  27
ENDBRANCH   4  26
TORSDOF 7
