135512468
  -OEChem-03292013293D

 27 29  0     0  0  0  0  0  0999 V2000
   -4.2063    1.3497   -0.3888 S   0  0  0  0  0  0  0  0  0  0  0  0
    4.0680   -0.3826   -0.9350 O   0  0  0  0  0  0  0  0  0  0  0  0
    1.7472   -2.1492   -0.1783 N   0  0  0  0  0  0  0  0  0  0  0  0
    0.4879    1.0853    0.5974 N   0  0  0  0  0  0  0  0  0  0  0  0
    2.7149    1.3739   -0.2516 N   0  0  0  0  0  0  0  0  0  0  0  0
    1.4342    3.2195    0.4120 N   0  0  0  0  0  0  0  0  0  0  0  0
   -0.1692   -1.3378    0.6440 C   0  0  0  0  0  0  0  0  0  0  0  0
    0.7196   -0.2800    0.3878 C   0  0  0  0  0  0  0  0  0  0  0  0
   -1.5373   -1.2496    1.1876 C   0  0  0  0  0  0  0  0  0  0  0  0
    1.8899   -0.7899   -0.1160 C   0  0  0  0  0  0  0  0  0  0  0  0
    0.4962   -2.4931    0.2824 C   0  0  0  0  0  0  0  0  0  0  0  0
   -2.4999   -0.4255    0.3441 C   0  0  0  0  0  0  0  0  0  0  0  0
    3.0050    0.0281   -0.4824 C   0  0  0  0  0  0  0  0  0  0  0  0
    1.4990    1.8569    0.2676 C   0  0  0  0  0  0  0  0  0  0  0  0
   -2.7592   -0.6721   -1.0350 C   0  0  0  0  0  0  0  0  0  0  0  0
   -3.2212    0.6464    0.8224 C   0  0  0  0  0  0  0  0  0  0  0  0
   -3.6689    0.2201   -1.5582 C   0  0  0  0  0  0  0  0  0  0  0  0
   -1.4896   -0.8284    2.2006 H   0  0  0  0  0  0  0  0  0  0  0  0
   -1.9689   -2.2534    1.2976 H   0  0  0  0  0  0  0  0  0  0  0  0
    0.1955   -3.5314    0.3093 H   0  0  0  0  0  0  0  0  0  0  0  0
    2.4457   -2.8006   -0.5094 H   0  0  0  0  0  0  0  0  0  0  0  0
    3.4355    2.0542   -0.4751 H   0  0  0  0  0  0  0  0  0  0  0  0
   -2.3075   -1.4632   -1.6201 H   0  0  0  0  0  0  0  0  0  0  0  0
   -3.2200    1.0545    1.8236 H   0  0  0  0  0  0  0  0  0  0  0  0
   -4.0440    0.2624   -2.5710 H   0  0  0  0  0  0  0  0  0  0  0  0
    0.6020    3.6692    0.7777 H   0  0  0  0  0  0  0  0  0  0  0  0
    2.2137    3.8162    0.1580 H   0  0  0  0  0  0  0  0  0  0  0  0
  1 16  1  0  0  0  0
  1 17  1  0  0  0  0
  2 13  2  0  0  0  0
  3 10  1  0  0  0  0
  3 11  1  0  0  0  0
  3 21  1  0  0  0  0
  4  8  1  0  0  0  0
  4 14  2  0  0  0  0
  5 13  1  0  0  0  0
  5 14  1  0  0  0  0
  5 22  1  0  0  0  0
  6 14  1  0  0  0  0
  6 26  1  0  0  0  0
  6 27  1  0  0  0  0
  7  8  1  0  0  0  0
  7  9  1  0  0  0  0
  7 11  2  0  0  0  0
  8 10  2  0  0  0  0
  9 12  1  0  0  0  0
  9 18  1  0  0  0  0
  9 19  1  0  0  0  0
 10 13  1  0  0  0  0
 11 20  1  0  0  0  0
 12 15  1  0  0  0  0
 12 16  2  0  0  0  0
 15 17  2  0  0  0  0
 15 23  1  0  0  0  0
 16 24  1  0  0  0  0
 17 25  1  0  0  0  0
M  END
> <PUBCHEM_COMPOUND_CID>
135512468

> <PUBCHEM_CONFORMER_RMSD>
0.6

> <PUBCHEM_CONFORMER_DIVERSEORDER>
1
15
14
5
2
10
6
13
8
9
4
12
7
16
3
11

> <PUBCHEM_MMFF94_PARTIAL_CHARGES>
25
1 -0.08
10 -0.24
11 -0.3
12 -0.18
13 0.71
14 0.56
15 -0.15
16 -0.11
17 -0.11
2 -0.57
20 0.15
21 0.27
22 0.37
23 0.15
24 0.15
25 0.15
26 0.4
27 0.4
3 0.03
4 -0.57
5 -0.49
6 -0.85
7 -0.18
8 0.12
9 0.36

> <PUBCHEM_EFFECTIVE_ROTOR_COUNT>
2

> <PUBCHEM_PHARMACOPHORE_FEATURES>
8
1 2 acceptor
1 3 cation
1 3 donor
1 5 donor
1 6 donor
5 1 12 15 16 17 rings
5 3 7 8 10 11 rings
6 4 5 8 10 13 14 rings

> <PUBCHEM_HEAVY_ATOM_COUNT>
17

> <PUBCHEM_ATOM_DEF_STEREO_COUNT>
0

> <PUBCHEM_ATOM_UDEF_STEREO_COUNT>
0

> <PUBCHEM_BOND_DEF_STEREO_COUNT>
0

> <PUBCHEM_BOND_UDEF_STEREO_COUNT>
0

> <PUBCHEM_ISOTOPIC_ATOM_COUNT>
0

> <PUBCHEM_COMPONENT_COUNT>
1

> <PUBCHEM_CACTVS_TAUTO_COUNT>
-1

> <PUBCHEM_CONFORMER_ID>
0813C19400000001

> <PUBCHEM_MMFF94_ENERGY>
27.2009

> <PUBCHEM_FEATURE_SELFOVERLAP>
40.756

> <PUBCHEM_SHAPE_FINGERPRINT>
10498660 4 17531232942978931445
10608611 8 18263365948413495217
11471102 20 18336828585067663631
116883 192 17623010092786811422
12251169 10 8070023385324362691
12654215 9 18407759227147863848
12730499 353 18333170566413018603
13134695 92 18266166258474315262
13294875 104 18188749739378384738
13464514 151 18335423404917510987
14250199 8 18341890814307072573
14251745 187 18409725162191106568
14713325 29 15944331145104138516
14957384 54 15430022271497800319
15210252 30 17896044256228533548
15279308 100 18264211477282058376
15775835 57 18409166580730712743
16945 1 18411419509619818794
18186145 218 18412267263123003819
18219364 16 18188504531195127097
20233049 118 18259704493273375164
21524375 3 18187641457306473291
21639500 275 18410283727251567263
221357 26 18338511929339277085
22289505 5 18119800327479246557
22959321 8 18334009501873675871
231179 274 17749385944880120439
23402539 116 18201722813014143686
23402655 69 18341611452411982629
23493267 7 17313109665369783000
23557571 272 17459198533343674763
23559900 14 18340783628279412860
23598291 2 17772473387478189703
238 59 17901346135936261685
25 1 18334014956355625667
2748010 2 18121508117786232184
3060560 45 18342449339932560951
3082319 5 17918266554878138983
350125 39 18119825852047789267
3524813 1 18041274383617657445
474 4 18410567431448478729
5262128 65 17846230972152282581
6438718 38 17629210307839269097
7832392 63 18271524187506107057
81228 2 16531423646140001459
9981440 41 17195142160893679016

> <PUBCHEM_SHAPE_MULTIPOLES>
327.91
6.72
2.52
1.09
3.04
0.84
0.15
2.01
2.4
-1.46
-0.48
0.71
-0.09
0.31

> <PUBCHEM_SHAPE_SELFOVERLAP>
712.854

> <PUBCHEM_SHAPE_VOLUME>
181.5

> <PUBCHEM_COORDINATE_TYPE>
2
5
10

$$$$
