REMARK  Name = 135565050
REMARK  9 active torsions:
REMARK  status: ('A' for Active; 'I' for Inactive)
REMARK    1  A    between atoms: C_1  and  O_22
REMARK    2  A    between atoms: C_4  and  C_7
REMARK    3  A    between atoms: C_10  and  C_16
REMARK    4  A    between atoms: C_17  and  O_20
REMARK    5  A    between atoms: O_22  and  C_23
REMARK    6  A    between atoms: C_23  and  C_27
REMARK    7  A    between atoms: C_26  and  C_31
REMARK    8  A    between atoms: C_31  and  C_33
REMARK    9  A    between atoms: C_33  and  O_34
REMARK                            x       y       z     vdW  Elec       q    Type
REMARK                         _______ _______ _______ _____ _____    ______ ____
ROOT
ATOM      1  C   UNL     1       1.490   2.163  -0.092  0.00  0.00    +0.139 C 
ATOM      2  C   UNL     1       0.610   2.281   0.984  0.00  0.00    +0.037 C 
ATOM      3  C   UNL     1       1.068   1.557  -1.275  0.00  0.00    +0.037 C 
ATOM      4  C   UNL     1      -1.115   1.187  -0.307  0.00  0.00    +0.000 C 
ATOM      5  C   UNL     1      -0.692   1.793   0.876  0.00  0.00    +0.003 C 
ATOM      6  C   UNL     1      -0.234   1.069  -1.383  0.00  0.00    +0.003 C 
ENDROOT
BRANCH   4   7
ATOM      7  C   UNL     1      -2.465   0.682  -0.419  0.00  0.00    +0.000 C 
ATOM      8  C   UNL     1      -3.498   1.289   0.295  0.00  0.00    +0.000 C 
ATOM      9  C   UNL     1      -2.735  -0.411  -1.242  0.00  0.00    +0.000 C 
ATOM     10  C   UNL     1      -5.071  -0.291  -0.637  0.00  0.00    +0.031 C 
ATOM     11  C   UNL     1      -4.801   0.803   0.186  0.00  0.00    +0.003 C 
ATOM     12  C   UNL     1      -4.038  -0.898  -1.351  0.00  0.00    +0.003 C 
BRANCH  10  16
ATOM     13  O   UNL     1      -9.264  -1.667  -0.327  0.00  0.00    -0.226 OA
ATOM     14  N   UNL     1      -7.274  -0.666   0.371  0.00  0.00    -0.235 N 
ATOM     15  N   UNL     1      -6.856  -1.372  -1.847  0.00  0.00    -0.285 NA
ATOM     16  C   UNL     1      -6.429  -0.798  -0.750  0.00  0.00    +0.128 C 
ATOM     17  C   UNL     1      -8.592  -1.089   0.520  0.00  0.00    +0.407 C 
ATOM     18  H   UNL     1      -6.879  -0.216   1.152  0.00  0.00    +0.160 HD
ATOM     19  H   UNL     1      -7.780  -1.707  -1.899  0.00  0.00    +0.188 HD
BRANCH  17  20
ATOM     20  O   UNL     1      -9.038  -0.757   1.769  0.00  0.00    -0.430 OA
ATOM     21  C   UNL     1     -10.389  -1.127   2.068  0.00  0.00    +0.257 C 
ENDBRANCH  17  20
ENDBRANCH  10  16
ENDBRANCH   4   7
BRANCH   1  22
ATOM     22  O   UNL     1       2.771   2.645   0.013  0.00  0.00    -0.474 OA
BRANCH  22  23
ATOM     23  C   UNL     1       3.771   1.982  -0.741  0.00  0.00    +0.225 C 
BRANCH  23  27
ATOM     24  O   UNL     1       5.798  -0.632   2.145  0.00  0.00    -0.275 OA
ATOM     25  N   UNL     1       5.055   1.404   1.262  0.00  0.00    -0.302 N 
ATOM     26  C   UNL     1       6.202  -0.030  -0.189  0.00  0.00    +0.089 C 
ATOM     27  C   UNL     1       5.097   2.099  -0.001  0.00  0.00    +0.116 C 
ATOM     28  C   UNL     1       6.245   1.405  -0.726  0.00  0.00    +0.033 C 
ATOM     29  C   UNL     1       5.694   0.167   1.227  0.00  0.00    +0.223 C 
ATOM     30  H   UNL     1       4.620   1.767   2.067  0.00  0.00    +0.149 HD
BRANCH  26  31
ATOM     31  C   UNL     1       7.547  -0.729  -0.241  0.00  0.00    +0.119 C 
BRANCH  31  33
ATOM     32  O   UNL     1       6.366  -2.829   0.084  0.00  0.00    -0.250 OA
ATOM     33  C   UNL     1       7.418  -2.227  -0.084  0.00  0.00    +0.318 C 
BRANCH  33  34
ATOM     34  O   UNL     1       8.660  -2.790  -0.161  0.00  0.00    -0.444 OA
ATOM     35  C   UNL     1       8.700  -4.214  -0.028  0.00  0.00    +0.256 C 
ENDBRANCH  33  34
ENDBRANCH  31  33
ENDBRANCH  26  31
ENDBRANCH  23  27
ENDBRANCH  22  23
ENDBRANCH   1  22
TORSDOF 9
