135554420
  -OEChem-03292013293D

 61 62  0     0  0  0  0  0  0999 V2000
    6.1231    0.7379   -1.2191 S   0  0  0  0  0  0  0  0  0  0  0  0
    3.2437   -2.0554    1.6922 S   0  0  0  0  0  0  0  0  0  0  0  0
   -2.7208   -3.5462   -0.5639 S   0  0  0  0  0  0  0  0  0  0  0  0
    5.2543    0.9186   -2.3609 O   0  0  0  0  0  0  0  0  0  0  0  0
    7.4708    1.2559   -1.1382 O   0  0  0  0  0  0  0  0  0  0  0  0
   -7.3269    0.8429    0.3302 N   0  0  0  0  0  0  0  0  0  0  0  0
   -3.6967    0.1287    0.1363 N   0  0  0  0  0  0  0  0  0  0  0  0
   -1.5165   -0.8601   -0.0811 N   0  0  0  0  0  0  0  0  0  0  0  0
   -3.5258   -2.1584   -0.1967 N   0  0  0  0  0  0  0  0  0  0  0  0
    0.6931   -1.8564    0.0363 N   0  0  0  0  0  0  0  0  0  0  0  0
   -1.1355   -3.2142   -0.2768 N   0  0  0  0  0  0  0  0  0  0  0  0
    4.9195    0.5159    1.0236 N   0  0  0  0  0  0  0  0  0  0  0  0
    5.0098    2.7338    0.2492 N   0  0  0  0  0  0  0  0  0  0  0  0
    3.3299    4.4612    0.4311 N   0  0  0  0  0  0  0  0  0  0  0  0
    2.7295    2.2685    0.3022 N   0  0  0  0  0  0  0  0  0  0  0  0
   -5.8949    1.1125    0.3398 C   0  0  0  0  0  0  0  0  0  0  0  0
   -8.0579    1.9095    1.0173 C   0  0  0  0  0  0  0  0  0  0  0  0
   -7.8155    0.6965   -1.0424 C   0  0  0  0  0  0  0  0  0  0  0  0
   -5.1110   -0.1784    0.1508 C   0  0  0  0  0  0  0  0  0  0  0  0
   -9.2942    0.3487   -1.0646 C   0  0  0  0  0  0  0  0  0  0  0  0
   -7.8828    3.2409    0.3066 C   0  0  0  0  0  0  0  0  0  0  0  0
   -2.9315   -0.9211   -0.0448 C   0  0  0  0  0  0  0  0  0  0  0  0
   -0.6071   -1.9491   -0.1046 C   0  0  0  0  0  0  0  0  0  0  0  0
    5.3409   -0.7369    0.6053 C   0  0  0  0  0  0  0  0  0  0  0  0
    5.0320   -1.8928    1.4855 C   0  0  0  0  0  0  0  0  0  0  0  0
    1.3763   -3.1317   -0.0136 C   0  0  0  0  0  0  0  0  0  0  0  0
    2.8710   -2.8901    0.1248 C   0  0  0  0  0  0  0  0  0  0  0  0
   -0.9195    0.4942   -0.0366 C   0  0  0  0  0  0  0  0  0  0  0  0
    5.9996   -0.8424   -0.5597 C   0  0  0  0  0  0  0  0  0  0  0  0
    5.2677    1.4053    0.1473 C   0  0  0  0  0  0  0  0  0  0  0  0
    3.7755    3.1623    0.3244 C   0  0  0  0  0  0  0  0  0  0  0  0
   -5.5861    1.5370    1.3053 H   0  0  0  0  0  0  0  0  0  0  0  0
   -5.5972    1.8401   -0.4268 H   0  0  0  0  0  0  0  0  0  0  0  0
   -9.1200    1.6707    1.1365 H   0  0  0  0  0  0  0  0  0  0  0  0
   -7.6136    1.5616   -1.6839 H   0  0  0  0  0  0  0  0  0  0  0  0
   -7.3075   -0.1476   -1.5218 H   0  0  0  0  0  0  0  0  0  0  0  0
   -7.6842    1.9998    2.0457 H   0  0  0  0  0  0  0  0  0  0  0  0
   -5.3695   -0.8437    0.9861 H   0  0  0  0  0  0  0  0  0  0  0  0
   -5.4086   -0.6298   -0.8022 H   0  0  0  0  0  0  0  0  0  0  0  0
   -6.8389    3.5498    0.2041 H   0  0  0  0  0  0  0  0  0  0  0  0
   -8.3633    3.2747   -0.6751 H   0  0  0  0  0  0  0  0  0  0  0  0
   -9.5286   -0.4693   -0.3746 H   0  0  0  0  0  0  0  0  0  0  0  0
   -9.9320    1.2055   -0.8278 H   0  0  0  0  0  0  0  0  0  0  0  0
   -9.5772    0.0161   -2.0698 H   0  0  0  0  0  0  0  0  0  0  0  0
   -8.3705    4.0205    0.9047 H   0  0  0  0  0  0  0  0  0  0  0  0
    5.4741   -1.7232    2.4735 H   0  0  0  0  0  0  0  0  0  0  0  0
    5.4520   -2.8318    1.1092 H   0  0  0  0  0  0  0  0  0  0  0  0
    1.2419   -3.6297   -0.9833 H   0  0  0  0  0  0  0  0  0  0  0  0
    1.0736   -3.8013    0.8034 H   0  0  0  0  0  0  0  0  0  0  0  0
    3.4039   -3.8457    0.0887 H   0  0  0  0  0  0  0  0  0  0  0  0
    3.2185   -2.2671   -0.7059 H   0  0  0  0  0  0  0  0  0  0  0  0
   -4.5295   -2.2727   -0.1294 H   0  0  0  0  0  0  0  0  0  0  0  0
    6.3880   -1.7391   -1.0181 H   0  0  0  0  0  0  0  0  0  0  0  0
   -0.8245    0.8218    1.0034 H   0  0  0  0  0  0  0  0  0  0  0  0
   -1.5313    1.2193   -0.5841 H   0  0  0  0  0  0  0  0  0  0  0  0
    0.0708    0.5167   -0.5036 H   0  0  0  0  0  0  0  0  0  0  0  0
   -0.5519   -4.0405   -0.2746 H   0  0  0  0  0  0  0  0  0  0  0  0
    2.3411    4.6801    0.4829 H   0  0  0  0  0  0  0  0  0  0  0  0
    2.8644    1.2668    0.2247 H   0  0  0  0  0  0  0  0  0  0  0  0
    1.7693    2.5908    0.3605 H   0  0  0  0  0  0  0  0  0  0  0  0
    3.9821    5.2373    0.4605 H   0  0  0  0  0  0  0  0  0  0  0  0
  1  4  2  0  0  0  0
  1  5  2  0  0  0  0
  1 29  1  0  0  0  0
  1 30  1  0  0  0  0
  2 25  1  0  0  0  0
  2 27  1  0  0  0  0
  3  9  1  0  0  0  0
  3 11  1  0  0  0  0
  6 16  1  0  0  0  0
  6 17  1  0  0  0  0
  6 18  1  0  0  0  0
  7 19  1  0  0  0  0
  7 22  2  0  0  0  0
  8 22  1  0  0  0  0
  8 23  1  0  0  0  0
  8 28  1  0  0  0  0
  9 22  1  0  0  0  0
  9 52  1  0  0  0  0
 10 23  2  0  0  0  0
 10 26  1  0  0  0  0
 11 23  1  0  0  0  0
 11 57  1  0  0  0  0
 12 24  1  0  0  0  0
 12 30  2  0  0  0  0
 13 30  1  0  0  0  0
 13 31  2  0  0  0  0
 14 31  1  0  0  0  0
 14 58  1  0  0  0  0
 14 61  1  0  0  0  0
 15 31  1  0  0  0  0
 15 59  1  0  0  0  0
 15 60  1  0  0  0  0
 16 19  1  0  0  0  0
 16 32  1  0  0  0  0
 16 33  1  0  0  0  0
 17 21  1  0  0  0  0
 17 34  1  0  0  0  0
 17 37  1  0  0  0  0
 18 20  1  0  0  0  0
 18 35  1  0  0  0  0
 18 36  1  0  0  0  0
 19 38  1  0  0  0  0
 19 39  1  0  0  0  0
 20 42  1  0  0  0  0
 20 43  1  0  0  0  0
 20 44  1  0  0  0  0
 21 40  1  0  0  0  0
 21 41  1  0  0  0  0
 21 45  1  0  0  0  0
 24 25  1  0  0  0  0
 24 29  2  0  0  0  0
 25 46  1  0  0  0  0
 25 47  1  0  0  0  0
 26 27  1  0  0  0  0
 26 48  1  0  0  0  0
 26 49  1  0  0  0  0
 27 50  1  0  0  0  0
 27 51  1  0  0  0  0
 28 54  1  0  0  0  0
 28 55  1  0  0  0  0
 28 56  1  0  0  0  0
 29 53  1  0  0  0  0
M  END
> <PUBCHEM_COMPOUND_CID>
135554420

> <PUBCHEM_CONFORMER_RMSD>
1.4

> <PUBCHEM_CONFORMER_DIVERSEORDER>
1
22
63
28
89
103
61
114
75
48
47
56
82
78
76
10
19
42
71
68
86
46
110
9
16
87
5
69
118
97
50
55
7
12
79
101
106
72
108
24
53
33
4
13
23
36
81
77
67
123
37
62
84
83
41
26
91
73
6
119
15
121
100
45
111
122
57
64
18
105
88
85
94
34
29
32
65
117
96
98
40
52
2
51
115
14
60
104
116
59
107
95
90
113
70
58
44
99
74
17
80
120
66
39
38
109
20
92
25
11
49
93
30
43
21
27
54
112
102
35
31
8
3

> <PUBCHEM_MMFF94_PARTIAL_CHARGES>
36
1 1.29
10 -0.7
11 -0.48
12 -0.62
13 -0.66
14 -0.85
15 -0.85
16 0.27
17 0.27
18 0.27
19 0.25
2 -0.46
22 0.55
23 0.55
24 0.03
25 0.37
26 0.25
27 0.23
28 0.37
29 -0.17
3 0.06
30 0.68
31 0.55
4 -0.65
5 -0.65
52 0.4
53 0.15
57 0.4
58 0.4
59 0.4
6 -0.81
60 0.4
61 0.4
7 -0.7
8 -0.47
9 -0.48

> <PUBCHEM_EFFECTIVE_ROTOR_COUNT>
11.8

> <PUBCHEM_PHARMACOPHORE_FEATURES>
12
1 11 donor
1 14 donor
1 15 donor
1 4 acceptor
1 5 acceptor
1 6 cation
1 9 donor
4 13 14 15 31 cation
4 7 8 9 22 cation
4 8 10 11 23 cation
5 1 12 24 29 30 rings
6 3 8 9 11 22 23 rings

> <PUBCHEM_HEAVY_ATOM_COUNT>
31

> <PUBCHEM_ATOM_DEF_STEREO_COUNT>
0

> <PUBCHEM_ATOM_UDEF_STEREO_COUNT>
0

> <PUBCHEM_BOND_DEF_STEREO_COUNT>
0

> <PUBCHEM_BOND_UDEF_STEREO_COUNT>
0

> <PUBCHEM_ISOTOPIC_ATOM_COUNT>
0

> <PUBCHEM_COMPONENT_COUNT>
1

> <PUBCHEM_CACTVS_TAUTO_COUNT>
-1

> <PUBCHEM_CONFORMER_ID>
0814657400000001

> <PUBCHEM_MMFF94_ENERGY>
88.5547

> <PUBCHEM_FEATURE_SELFOVERLAP>
60.999

> <PUBCHEM_SHAPE_FINGERPRINT>
10816530 90 18410857633672062838
10906281 52 18413108334417842703
11273773 38 18412260640626480962
11578821 258 18124875665439721961
11828532 37 15697707207569220555
11966995 178 18343028774402922105
12539765 74 17988085466270777031
12925494 130 18337388352524211051
13782708 43 11312053241004593883
13944108 23 18408328792047597916
14117953 113 18342741776525835718
14429380 56 18337377284873342239
14537116 161 18342463617052537068
14849402 71 18412263918362092249
15001296 14 18337949103644540848
15183329 4 18272375265050735729
15274700 259 17823115871458056925
16067689 134 18412831265786985477
16087824 20 18410857647427493672
16120349 18 18409159996936114421
18335252 114 18412263909371075078
20691028 202 18411976958221300259
397830 11 17386021576191293091
4169191 19 18337108974309159437
4258327 124 18412265043495882619
5109719 28 18338807723752705451
5951187 136 18271814540443625318

> <PUBCHEM_SHAPE_MULTIPOLES>
587.97
26.06
4.71
1.23
44.01
0.98
0.18
19.94
3.41
-2.46
-0.5
-1.41
0.02
-2.34

> <PUBCHEM_SHAPE_SELFOVERLAP>
1155.996

> <PUBCHEM_SHAPE_VOLUME>
354.7

> <PUBCHEM_COORDINATE_TYPE>
2
5
10

$$$$
