REMARK  Name = 135515565
REMARK  9 active torsions:
REMARK  status: ('A' for Active; 'I' for Inactive)
REMARK    1  A    between atoms: N_2  and  C_27
REMARK    2  A    between atoms: C_6  and  C_33
REMARK    3  A    between atoms: C_10  and  C_13
REMARK    4  A    between atoms: C_14  and  O_21
REMARK    5  A    between atoms: C_16  and  C_19
REMARK    6  A    between atoms: O_21  and  C_22
REMARK    7  A    between atoms: C_22  and  C_23
REMARK    8  A    between atoms: C_23  and  C_24
REMARK    9  A    between atoms: N_26  and  C_31
REMARK                            x       y       z     vdW  Elec       q    Type
REMARK                         _______ _______ _______ _____ _____    ______ ____
ROOT
ATOM      1  O   UNL     1      -0.624   3.784  -1.078  0.00  0.00    -0.268 OA
ATOM      2  N   UNL     1      -3.103   0.877   0.610  0.00  0.00    -0.233 N 
ATOM      3  N   UNL     1      -2.641   2.003   0.022  0.00  0.00    -0.175 NA
ATOM      4  N   UNL     1       0.334   0.044   0.518  0.00  0.00    -0.388 NA
ATOM      5  N   UNL     1       0.924   2.131  -0.535  0.00  0.00    -0.254 N 
ATOM      6  C   UNL     1      -2.131  -0.043   0.903  0.00  0.00    +0.145 C 
ATOM      7  C   UNL     1      -0.972   0.536   0.472  0.00  0.00    +0.153 C 
ATOM      8  C   UNL     1      -1.327   1.781  -0.058  0.00  0.00    +0.179 C 
ATOM      9  C   UNL     1      -0.355   2.684  -0.611  0.00  0.00    +0.273 C 
ATOM     10  C   UNL     1       1.215   0.863   0.006  0.00  0.00    +0.190 C 
ATOM     11  H   UNL     1       1.675   2.663  -0.884  0.00  0.00    +0.158 HD
ENDROOT
BRANCH  10  13
ATOM     12  N   UNL     1       4.339  -1.255  -0.126  0.00  0.00    -0.210 NA
ATOM     13  C   UNL     1       2.650   0.470  -0.015  0.00  0.00    +0.097 C 
ATOM     14  C   UNL     1       3.048  -0.854  -0.103  0.00  0.00    +0.229 C 
ATOM     15  C   UNL     1       3.639   1.445   0.055  0.00  0.00    +0.013 C 
ATOM     16  C   UNL     1       4.978   1.071   0.035  0.00  0.00    +0.054 C 
ATOM     17  C   UNL     1       5.273  -0.280  -0.056  0.00  0.00    +0.105 C 
BRANCH  16  19
ATOM     18  O   UNL     1       7.140   1.806   0.627  0.00  0.00    -0.291 OA
ATOM     19  C   UNL     1       6.035   2.065   0.107  0.00  0.00    +0.175 C 
ATOM     20  C   UNL     1       5.816   3.465  -0.459  0.00  0.00    +0.077 C 
ENDBRANCH  16  19
BRANCH  14  21
ATOM     21  O   UNL     1       2.105  -1.845  -0.174  0.00  0.00    -0.460 OA
BRANCH  21  22
ATOM     22  C   UNL     1       2.583  -3.180  -0.263  0.00  0.00    +0.207 C 
BRANCH  22  23
ATOM     23  C   UNL     1       1.393  -4.124  -0.353  0.00  0.00    +0.047 C 
BRANCH  23  24
ATOM     24  C   UNL     1       1.835  -5.582  -0.435  0.00  0.00    +0.004 C 
ATOM     25  C   UNL     1       0.642  -6.524  -0.481  0.00  0.00    +0.000 C 
ENDBRANCH  23  24
ENDBRANCH  22  23
ENDBRANCH  21  22
ENDBRANCH  14  21
ENDBRANCH  10  13
BRANCH   2  27
ATOM     26  N   UNL     1      -6.615   0.531   0.204  0.00  0.00    +0.389 N 
ATOM     27  C   UNL     1      -4.640   0.671   0.921  0.00  0.00    +0.051 C 
ATOM     28  C   UNL     1      -5.447  -0.377   0.102  0.00  0.00    -0.058 C 
ATOM     29  C   UNL     1      -5.676   1.671   0.332  0.00  0.00    -0.058 C 
ATOM     30  H   UNL     1      -7.357   0.371   0.886  0.00  0.00    -0.080 HD
BRANCH  26  31
ATOM     31  C   UNL     1      -7.332   0.594  -1.064  0.00  0.00    -0.077 C 
ATOM     32  C   UNL     1      -8.299  -0.570  -1.206  0.00  0.00    -0.025 C 
ENDBRANCH  26  31
ENDBRANCH   2  27
BRANCH   6  33
ATOM     33  C   UNL     1      -2.406  -1.341   1.545  0.00  0.00    +0.029 C 
ATOM     34  C   UNL     1      -2.380  -2.514   0.558  0.00  0.00    +0.002 C 
ENDBRANCH   6  33
TORSDOF 9
