REMARK  Name = 135544137
REMARK  8 active torsions:
REMARK  status: ('A' for Active; 'I' for Inactive)
REMARK    1  A    between atoms: N_2  and  C_23
REMARK    2  A    between atoms: C_3  and  N_7
REMARK    3  A    between atoms: N_7  and  S_9
REMARK    4  A    between atoms: S_9  and  C_13
REMARK    5  A    between atoms: C_15  and  C_18
REMARK    6  A    between atoms: C_23  and  C_24
REMARK    7  A    between atoms: C_26  and  O_36
REMARK    8  A    between atoms: C_27  and  C_32
REMARK                            x       y       z     vdW  Elec       q    Type
REMARK                         _______ _______ _______ _____ _____    ______ ____
ROOT
ATOM      1  O   UNL     1       2.255  -0.832   1.746  0.00  0.00    -0.273 OA
ATOM      2  N   UNL     1       2.650   1.388   1.073  0.00  0.00    -0.274 N 
ATOM      3  C   UNL     1       3.807  -0.308  -0.041  0.00  0.00    +0.153 C 
ATOM      4  C   UNL     1       4.456   1.037  -0.350  0.00  0.00    +0.048 C 
ATOM      5  C   UNL     1       3.403   2.059   0.039  0.00  0.00    +0.096 C 
ATOM      6  C   UNL     1       2.819   0.004   1.055  0.00  0.00    +0.242 C 
ENDROOT
BRANCH   3   7
ATOM      7  N   UNL     1       3.028  -0.804  -1.189  0.00  0.00    -0.171 NA
ATOM      8  H   UNL     1       2.116  -0.349  -1.144  0.00  0.00    +0.149 HD
BRANCH   7   9
ATOM      9  S   UNL     1       2.736  -2.472  -1.366  0.00  0.00    +0.066 S 
ATOM     10  O   UNL     1       3.762  -3.216  -0.661  0.00  0.00    -0.152 OA
ATOM     11  O   UNL     1       2.455  -2.758  -2.760  0.00  0.00    -0.152 OA
BRANCH   9  13
ATOM     12  S   UNL     1      -0.149  -1.966  -1.240  0.00  0.00    -0.067 S 
ATOM     13  C   UNL     1       1.217  -2.668  -0.483  0.00  0.00    +0.151 C 
ATOM     14  C   UNL     1       0.891  -3.277   0.709  0.00  0.00    +0.027 C 
ATOM     15  C   UNL     1      -1.181  -2.476   0.027  0.00  0.00    +0.032 C 
ATOM     16  C   UNL     1      -0.498  -3.166   1.004  0.00  0.00    +0.008 C 
BRANCH  15  18
ATOM     17  N   UNL     1      -4.655  -1.664   1.105  0.00  0.00    -0.242 NA
ATOM     18  C   UNL     1      -2.587  -2.155  -0.046  0.00  0.00    +0.025 C 
ATOM     19  C   UNL     1      -3.230  -2.027  -1.272  0.00  0.00    +0.004 C 
ATOM     20  C   UNL     1      -3.337  -1.966   1.103  0.00  0.00    +0.099 C 
ATOM     21  C   UNL     1      -4.585  -1.718  -1.311  0.00  0.00    +0.021 C 
ATOM     22  C   UNL     1      -5.246  -1.548  -0.105  0.00  0.00    +0.099 C 
ENDBRANCH  15  18
ENDBRANCH   9  13
ENDBRANCH   7   9
ENDBRANCH   3   7
BRANCH   2  23
ATOM     23  C   UNL     1       1.710   2.104   1.908  0.00  0.00    +0.123 C 
BRANCH  23  24
ATOM     24  C   UNL     1       0.365   2.236   1.254  0.00  0.00    +0.031 C 
ATOM     25  C   UNL     1       0.195   3.159   0.223  0.00  0.00    +0.003 C 
ATOM     26  C   UNL     1      -0.708   1.447   1.669  0.00  0.00    +0.131 C 
ATOM     27  C   UNL     1      -1.049   3.293  -0.395  0.00  0.00    +0.031 C 
ATOM     28  C   UNL     1      -1.952   1.582   1.051  0.00  0.00    +0.036 C 
ATOM     29  C   UNL     1      -2.122   2.505   0.019  0.00  0.00    +0.006 C 
BRANCH  27  32
ATOM     30  N   UNL     1      -2.457   4.413  -2.107  0.00  0.00    -0.343 N 
ATOM     31  N   UNL     1      -0.207   4.998  -1.864  0.00  0.00    -0.285 NA
ATOM     32  C   UNL     1      -1.227   4.255  -1.471  0.00  0.00    +0.117 C 
ATOM     33  H   UNL     1      -2.555   5.070  -2.833  0.00  0.00    +0.144 HD
ATOM     34  H   UNL     1      -3.227   3.866  -1.830  0.00  0.00    +0.144 HD
ATOM     35  H   UNL     1      -0.326   5.650  -2.593  0.00  0.00    +0.188 HD
ENDBRANCH  27  32
BRANCH  26  36
ATOM     36  O   UNL     1      -0.560   0.541   2.675  0.00  0.00    -0.506 OA
ATOM     37  H   UNL     1       0.271   0.441   3.097  0.00  0.00    +0.292 HD
ENDBRANCH  26  36
ENDBRANCH  23  24
ENDBRANCH   2  23
TORSDOF 8
