REMARK  Name = 135570479
REMARK  7 active torsions:
REMARK  status: ('A' for Active; 'I' for Inactive)
REMARK    1  A    between atoms: N_2  and  C_12
REMARK    2  A    between atoms: C_12  and  C_14
REMARK    3  A    between atoms: C_12  and  O_15
REMARK    4  A    between atoms: O_15  and  C_16
REMARK    5  A    between atoms: C_16  and  C_18
REMARK    6  A    between atoms: C_16  and  C_19
REMARK    7  A    between atoms: C_19  and  O_20
REMARK                            x       y       z     vdW  Elec       q    Type
REMARK                         _______ _______ _______ _____ _____    ______ ____
ROOT
ATOM      1  O   UNL     1       4.449   1.181  -0.528  0.00  0.00    -0.268 OA
ATOM      2  N   UNL     1       0.220  -0.375  -0.915  0.00  0.00    -0.243 N 
ATOM      3  N   UNL     1       1.905   0.650  -1.970  0.00  0.00    -0.241 NA
ATOM      4  N   UNL     1       1.209  -0.717   1.271  0.00  0.00    -0.232 NA
ATOM      5  N   UNL     1       3.449   0.159   1.318  0.00  0.00    -0.279 N 
ATOM      6  C   UNL     1       1.233  -0.277  -0.008  0.00  0.00    +0.154 C 
ATOM      7  C   UNL     1       2.252   0.356  -0.684  0.00  0.00    +0.162 C 
ATOM      8  C   UNL     1       0.672   0.196  -2.079  0.00  0.00    +0.223 C 
ATOM      9  C   UNL     1       3.494   0.622  -0.004  0.00  0.00    +0.267 C 
ATOM     10  C   UNL     1       2.334  -0.474   1.880  0.00  0.00    +0.220 C 
ATOM     11  H   UNL     1       4.246   0.286   1.883  0.00  0.00    +0.152 HD
ENDROOT
BRANCH   2  12
ATOM     12  C   UNL     1      -1.082  -0.962  -0.708  0.00  0.00    +0.262 C 
BRANCH  12  14
ATOM     13  O   UNL     1      -1.338  -2.959   0.652  0.00  0.00    -0.284 OA
ATOM     14  C   UNL     1      -0.954  -2.439  -0.390  0.00  0.00    +0.258 C 
ENDBRANCH  12  14
BRANCH  12  15
ATOM     15  O   UNL     1      -1.760  -0.342   0.381  0.00  0.00    -0.323 OA
BRANCH  15  16
ATOM     16  C   UNL     1      -2.614   0.718  -0.029  0.00  0.00    +0.211 C 
BRANCH  16  18
ATOM     17  O   UNL     1      -2.060   1.682   2.128  0.00  0.00    -0.286 OA
ATOM     18  C   UNL     1      -2.659   1.769   1.060  0.00  0.00    +0.239 C 
ENDBRANCH  16  18
BRANCH  16  19
ATOM     19  C   UNL     1      -4.006   0.158  -0.280  0.00  0.00    +0.175 C 
BRANCH  19  20
ATOM     20  O   UNL     1      -4.745   1.055  -1.096  0.00  0.00    -0.379 OA
ATOM     21  H   UNL     1      -5.631   0.694  -1.253  0.00  0.00    +0.211 HD
ENDBRANCH  19  20
ENDBRANCH  16  19
ENDBRANCH  15  16
ENDBRANCH  12  15
ENDBRANCH   2  12
TORSDOF 7
