135565297
  -OEChem-03292013293D

 32 34  0     1  0  0  0  0  0999 V2000
    1.7396    1.8451    0.1089 S   0  0  0  0  0  0  0  0  0  0  0  0
    2.2511   -2.3736    0.6544 S   0  0  0  0  0  0  0  0  0  0  0  0
    4.4463    1.1738    1.6105 O   0  0  0  0  0  0  0  0  0  0  0  0
    4.4413    0.2570   -1.9296 O   0  0  0  0  0  0  0  0  0  0  0  0
   -3.0455   -2.5165    0.2733 O   0  0  0  0  0  0  0  0  0  0  0  0
   -0.7248   -1.1373    0.2828 N   0  0  0  0  0  0  0  0  0  0  0  0
   -0.9263    1.6986   -0.0711 N   0  0  0  0  0  0  0  0  0  0  0  0
   -4.2741   -0.5809   -0.0488 N   0  0  0  0  0  0  0  0  0  0  0  0
   -3.2438    1.5287   -0.2235 N   0  0  0  0  0  0  0  0  0  0  0  0
   -5.5765    1.3328   -0.3745 N   0  0  0  0  0  0  0  0  0  0  0  0
    2.5835    0.3726    0.3483 C   0  0  0  0  0  0  0  0  0  0  0  0
    4.0610    0.4150    0.4535 C   0  0  1  0  0  0  0  0  0  0  0  0
    1.7328   -0.7105    0.4151 C   0  0  0  0  0  0  0  0  0  0  0  0
    0.3687   -0.3284    0.2676 C   0  0  0  0  0  0  0  0  0  0  0  0
    0.2402    1.0423    0.0941 C   0  0  0  0  0  0  0  0  0  0  0  0
    4.7495    1.0309   -0.7791 C   0  0  0  0  0  0  0  0  0  0  0  0
   -1.8878   -0.4791    0.1174 C   0  0  0  0  0  0  0  0  0  0  0  0
   -2.0032    0.8901   -0.0546 C   0  0  0  0  0  0  0  0  0  0  0  0
   -3.1047   -1.3021    0.1244 C   0  0  0  0  0  0  0  0  0  0  0  0
   -4.3246    0.7989   -0.2173 C   0  0  0  0  0  0  0  0  0  0  0  0
    2.4974   -2.9573   -1.0519 C   0  0  0  0  0  0  0  0  0  0  0  0
    4.4617   -0.5944    0.5939 H   0  0  0  0  0  0  0  0  0  0  0  0
    4.4519    2.0710   -0.9492 H   0  0  0  0  0  0  0  0  0  0  0  0
    5.8363    1.0295   -0.6381 H   0  0  0  0  0  0  0  0  0  0  0  0
    5.4169    1.1488    1.6661 H   0  0  0  0  0  0  0  0  0  0  0  0
   -5.1508   -1.0940   -0.0531 H   0  0  0  0  0  0  0  0  0  0  0  0
    2.8068   -4.0053   -1.0326 H   0  0  0  0  0  0  0  0  0  0  0  0
    3.2755   -2.3689   -1.5443 H   0  0  0  0  0  0  0  0  0  0  0  0
    1.5658   -2.8740   -1.6178 H   0  0  0  0  0  0  0  0  0  0  0  0
    4.9049    0.6650   -2.6806 H   0  0  0  0  0  0  0  0  0  0  0  0
   -5.7097    2.3299   -0.5034 H   0  0  0  0  0  0  0  0  0  0  0  0
   -6.4055    0.7488   -0.3667 H   0  0  0  0  0  0  0  0  0  0  0  0
  1 11  1  0  0  0  0
  1 15  1  0  0  0  0
  2 13  1  0  0  0  0
  2 21  1  0  0  0  0
  3 12  1  0  0  0  0
  3 25  1  0  0  0  0
  4 16  1  0  0  0  0
  4 30  1  0  0  0  0
  5 19  2  0  0  0  0
  6 14  1  0  0  0  0
  6 17  2  0  0  0  0
  7 15  1  0  0  0  0
  7 18  2  0  0  0  0
  8 19  1  0  0  0  0
  8 20  1  0  0  0  0
  8 26  1  0  0  0  0
  9 18  1  0  0  0  0
  9 20  2  0  0  0  0
 10 20  1  0  0  0  0
 10 31  1  0  0  0  0
 10 32  1  0  0  0  0
 11 12  1  0  0  0  0
 11 13  2  0  0  0  0
 12 16  1  0  0  0  0
 12 22  1  0  0  0  0
 13 14  1  0  0  0  0
 14 15  2  0  0  0  0
 16 23  1  0  0  0  0
 16 24  1  0  0  0  0
 17 18  1  0  0  0  0
 17 19  1  0  0  0  0
 21 27  1  0  0  0  0
 21 28  1  0  0  0  0
 21 29  1  0  0  0  0
M  END
> <PUBCHEM_COMPOUND_CID>
135565297

> <PUBCHEM_CONFORMER_RMSD>
0.6

> <PUBCHEM_CONFORMER_DIVERSEORDER>
1
6
12
4
10
13
14
9
5
11
2
7
3
8

> <PUBCHEM_MMFF94_PARTIAL_CHARGES>
26
1 -0.08
10 -0.85
11 -0.14
12 0.46
13 0.05
14 0.26
15 0.3
16 0.28
17 0.4
18 0.49
19 0.54
2 -0.28
20 0.56
21 0.23
25 0.4
26 0.37
3 -0.68
30 0.4
31 0.4
32 0.4
4 -0.68
5 -0.57
6 -0.57
7 -0.57
8 -0.49
9 -0.63

> <PUBCHEM_EFFECTIVE_ROTOR_COUNT>
3

> <PUBCHEM_PHARMACOPHORE_FEATURES>
13
1 10 donor
1 21 hydrophobe
1 3 acceptor
1 3 donor
1 4 acceptor
1 4 donor
1 5 acceptor
1 6 acceptor
1 8 donor
3 7 9 18 cation
5 1 11 13 14 15 rings
6 6 7 14 15 17 18 rings
6 8 9 17 18 19 20 rings

> <PUBCHEM_HEAVY_ATOM_COUNT>
21

> <PUBCHEM_ATOM_DEF_STEREO_COUNT>
1

> <PUBCHEM_ATOM_UDEF_STEREO_COUNT>
0

> <PUBCHEM_BOND_DEF_STEREO_COUNT>
0

> <PUBCHEM_BOND_UDEF_STEREO_COUNT>
0

> <PUBCHEM_ISOTOPIC_ATOM_COUNT>
0

> <PUBCHEM_COMPONENT_COUNT>
1

> <PUBCHEM_CACTVS_TAUTO_COUNT>
-1

> <PUBCHEM_CONFORMER_ID>
08148FF100000001

> <PUBCHEM_MMFF94_ENERGY>
45.6028

> <PUBCHEM_FEATURE_SELFOVERLAP>
66.158

> <PUBCHEM_SHAPE_FINGERPRINT>
10498660 4 18408889546634427236
10616163 171 18338516455797067163
10906281 52 18186813495065049696
10967382 1 18337386054753461795
11132069 177 18408880754451133641
11578080 2 16952515902404856966
12236239 1 17603864538053111752
12390115 104 18199478658364246745
12403814 3 17240477001392421413
12788726 201 17845939498792621561
13140716 1 18121777502266533016
13533116 47 17987795203510818603
13760787 19 18187364341510136179
14790565 3 18121788227312379073
15196674 1 18409163278017003915
15375358 24 18410569600142998291
15536298 74 18339921519734650466
1601671 61 18335139799853578780
16945 1 18409730681482278592
17980427 23 17822849913528058796
18681886 176 18264209274523582956
200 152 17917705838239224137
20645477 56 18334293163379123681
20645477 70 18269833133937425103
21267235 1 18336271253427376779
21421861 104 17605541168161564378
21637258 2 15410345339020145126
23366157 5 17895757271267451186
23402539 116 18262227915282024520
23557571 272 18339937003302820639
23559900 14 18411700950774809078
2748010 2 18337106748598254314
296302 2 16732984244942503113
3004659 81 18260829238045135122
3060560 45 18131351912810305038
335352 9 18336823108883939814
34934 24 18410565189290674067
3545911 37 18410573976835946665
4072396 5 18336249190206485016
4280585 95 17907869401413047734
474 4 17167870793827735268
4990 188 18202290208163666868
5104073 3 18337389345073055171
542803 24 17240481420428458917
58051976 378 18409726261755020772
59755656 215 18339643339842056566
633830 44 18341608282636636068
7364860 26 18271239414089471610
9709674 26 18410012135058421491

> <PUBCHEM_SHAPE_MULTIPOLES>
397.36
10
2.56
0.99
4.11
1.76
-0.17
-2.7
-1.42
-0.63
-0.16
-1.42
0.03
0.57

> <PUBCHEM_SHAPE_SELFOVERLAP>
841.529

> <PUBCHEM_SHAPE_VOLUME>
226

> <PUBCHEM_COORDINATE_TYPE>
2
5
10

$$$$
