135543997
  -OEChem-03292013293D

 36 38  0     0  0  0  0  0  0999 V2000
   -3.3126    3.5813    0.0522 O   0  0  0  0  0  0  0  0  0  0  0  0
   -5.2245    1.8806   -1.0248 O   0  0  0  0  0  0  0  0  0  0  0  0
    0.4998    1.2430    2.3274 O   0  0  0  0  0  0  0  0  0  0  0  0
    3.6223    0.4601   -2.6155 O   0  0  0  0  0  0  0  0  0  0  0  0
    5.8491    0.8692   -1.0023 O   0  0  0  0  0  0  0  0  0  0  0  0
    0.5557   -3.9988    0.5150 O   0  0  0  0  0  0  0  0  0  0  0  0
   -1.4196   -4.6223   -0.4209 O   0  0  0  0  0  0  0  0  0  0  0  0
   -0.0752   -1.5217    0.6329 N   0  0  0  0  0  0  0  0  0  0  0  0
   -1.5775    0.3596    0.2872 C   0  0  0  0  0  0  0  0  0  0  0  0
   -2.5460   -0.5079   -0.2586 C   0  0  0  0  0  0  0  0  0  0  0  0
   -0.3727   -0.2048    0.7110 C   0  0  0  0  0  0  0  0  0  0  0  0
   -1.8475    1.7346    0.3858 C   0  0  0  0  0  0  0  0  0  0  0  0
   -2.2576   -1.8747   -0.3484 C   0  0  0  0  0  0  0  0  0  0  0  0
   -3.7703    0.0235   -0.6961 C   0  0  0  0  0  0  0  0  0  0  0  0
    0.7004    0.5943    1.2927 C   0  0  0  0  0  0  0  0  0  0  0  0
    2.0599    0.6665    0.6828 C   0  0  0  0  0  0  0  0  0  0  0  0
   -1.0259   -2.3217    0.1051 C   0  0  0  0  0  0  0  0  0  0  0  0
   -3.0687    2.2451   -0.0535 C   0  0  0  0  0  0  0  0  0  0  0  0
   -4.0280    1.3915   -0.5933 C   0  0  0  0  0  0  0  0  0  0  0  0
    2.2137    0.5285   -0.6967 C   0  0  0  0  0  0  0  0  0  0  0  0
    3.1772    0.8716    1.4921 C   0  0  0  0  0  0  0  0  0  0  0  0
    3.4851    0.5958   -1.2669 C   0  0  0  0  0  0  0  0  0  0  0  0
    4.4485    0.9386    0.9220 C   0  0  0  0  0  0  0  0  0  0  0  0
    4.6024    0.8008   -0.4575 C   0  0  0  0  0  0  0  0  0  0  0  0
   -0.6881   -3.7326    0.0285 C   0  0  0  0  0  0  0  0  0  0  0  0
   -1.1134    2.4262    0.7905 H   0  0  0  0  0  0  0  0  0  0  0  0
   -2.9862   -2.5647   -0.7651 H   0  0  0  0  0  0  0  0  0  0  0  0
   -4.5255   -0.6367   -1.1191 H   0  0  0  0  0  0  0  0  0  0  0  0
    1.3496    0.3787   -1.3391 H   0  0  0  0  0  0  0  0  0  0  0  0
    3.0779    0.9761    2.5693 H   0  0  0  0  0  0  0  0  0  0  0  0
    5.3106    1.0977    1.5643 H   0  0  0  0  0  0  0  0  0  0  0  0
   -2.5388    4.0162    0.4496 H   0  0  0  0  0  0  0  0  0  0  0  0
   -5.7629    1.1465   -1.3671 H   0  0  0  0  0  0  0  0  0  0  0  0
    2.7447    0.3247   -3.0122 H   0  0  0  0  0  0  0  0  0  0  0  0
    6.4975    1.0155   -0.2922 H   0  0  0  0  0  0  0  0  0  0  0  0
    0.7729   -4.9538    0.4581 H   0  0  0  0  0  0  0  0  0  0  0  0
  1 18  1  0  0  0  0
  1 32  1  0  0  0  0
  2 19  1  0  0  0  0
  2 33  1  0  0  0  0
  3 15  2  0  0  0  0
  4 22  1  0  0  0  0
  4 34  1  0  0  0  0
  5 24  1  0  0  0  0
  5 35  1  0  0  0  0
  6 25  1  0  0  0  0
  6 36  1  0  0  0  0
  7 25  2  0  0  0  0
  8 11  2  0  0  0  0
  8 17  1  0  0  0  0
  9 10  1  0  0  0  0
  9 11  1  0  0  0  0
  9 12  2  0  0  0  0
 10 13  1  0  0  0  0
 10 14  2  0  0  0  0
 11 15  1  0  0  0  0
 12 18  1  0  0  0  0
 12 26  1  0  0  0  0
 13 17  2  0  0  0  0
 13 27  1  0  0  0  0
 14 19  1  0  0  0  0
 14 28  1  0  0  0  0
 15 16  1  0  0  0  0
 16 20  2  0  0  0  0
 16 21  1  0  0  0  0
 17 25  1  0  0  0  0
 18 19  2  0  0  0  0
 20 22  1  0  0  0  0
 20 29  1  0  0  0  0
 21 23  2  0  0  0  0
 21 30  1  0  0  0  0
 22 24  2  0  0  0  0
 23 24  1  0  0  0  0
 23 31  1  0  0  0  0
M  END
> <PUBCHEM_COMPOUND_CID>
135543997

> <PUBCHEM_CONFORMER_RMSD>
0.6

> <PUBCHEM_CONFORMER_DIVERSEORDER>
1
36
10
43
8
37
39
11
44
9
40
38
5
24
35
12
33
6
41
13
22
14
7
21
42
16
15
34
23
2
32
31
28
27
17
30
18
29
20
19
26
25
4
3

> <PUBCHEM_MMFF94_PARTIAL_CHARGES>
34
1 -0.53
11 0.4
12 -0.15
13 -0.15
14 -0.15
15 0.4
16 0.09
17 0.4
18 0.08
19 0.08
2 -0.53
20 -0.15
21 -0.15
22 0.08
23 -0.15
24 0.08
25 0.63
26 0.15
27 0.15
28 0.15
29 0.15
3 -0.57
30 0.15
31 0.15
32 0.45
33 0.45
34 0.45
35 0.45
36 0.5
4 -0.53
5 -0.53
6 -0.65
7 -0.57
8 -0.62

> <PUBCHEM_EFFECTIVE_ROTOR_COUNT>
3

> <PUBCHEM_PHARMACOPHORE_FEATURES>
12
1 1 donor
1 2 donor
1 3 acceptor
1 4 donor
1 5 donor
1 6 acceptor
1 7 acceptor
1 8 acceptor
3 6 7 25 anion
6 16 20 21 22 23 24 rings
6 8 9 10 11 13 17 rings
6 9 10 12 14 18 19 rings

> <PUBCHEM_HEAVY_ATOM_COUNT>
25

> <PUBCHEM_ATOM_DEF_STEREO_COUNT>
0

> <PUBCHEM_ATOM_UDEF_STEREO_COUNT>
0

> <PUBCHEM_BOND_DEF_STEREO_COUNT>
0

> <PUBCHEM_BOND_UDEF_STEREO_COUNT>
0

> <PUBCHEM_ISOTOPIC_ATOM_COUNT>
0

> <PUBCHEM_COMPONENT_COUNT>
1

> <PUBCHEM_CACTVS_TAUTO_COUNT>
-1

> <PUBCHEM_CONFORMER_ID>
08143CBD00000001

> <PUBCHEM_MMFF94_ENERGY>
80.1407

> <PUBCHEM_FEATURE_SELFOVERLAP>
61.004

> <PUBCHEM_SHAPE_FINGERPRINT>
10165383 225 18340496582118559745
10190108 129 18339651148462171203
10411042 1 17545309139392746515
107951 10 18413390934153297655
11370993 70 18411419497040742238
11578080 2 14437090523196430284
11582403 64 16337449222111755192
11640471 11 17749110027976271116
11796584 16 18412267247125198894
12173636 292 18410284800998685749
12236239 1 17603580829034232152
12539773 59 17315380234296040869
12714826 92 18196106657495024034
12788726 201 17826806028947067938
12895837 130 17751376190493521596
133893 2 17830739755476004185
13540713 5 17769079156977399585
13617811 41 18408038529372783461
13941206 138 18335423439335850002
14022347 108 17542205201161862219
14251757 17 17632297830704868900
14251757 5 18266184001010530164
14713325 29 18188504556854498995
15163728 17 18117010904801968629
15463212 79 18115019818282631744
15664445 248 16607735882088790175
16752209 62 18337099189450740275
167882 2 18120091684637719163
16988056 13 16533114686249392485
1813 80 17545612608933740891
200 152 15051737486558415560
20642791 178 18122617254494189267
20645476 183 18260544558511105779
20645477 70 16558752334609076980
21781051 124 18261684735322160203
22122407 14 15936688190465779477
22849339 104 18340498875356802422
23366157 5 17829603960212704059
23557571 272 18053936531284985312
23559900 14 18201719592063030360
23598288 3 17897176924961051219
25265897 201 17758444890106774644
298252 57 18187085044103158384
312425 83 18045814344981430004
3298306 158 18272646823011211310
4015057 19 17060618936507545528
458136 41 18196374724058401721
474 4 16805324392337188296
5283173 99 18343581863333452392
57527295 17 17203048473956677724
81228 2 17765702904170195043
9709674 26 17985821768822194088
9981440 41 18335979775371419059

> <PUBCHEM_SHAPE_MULTIPOLES>
468.42
9.15
4.05
1.47
6.67
5.54
0.16
-7.06
3.84
-4.66
-0.1
1.7
-0.52
0.2

> <PUBCHEM_SHAPE_SELFOVERLAP>
1049.715

> <PUBCHEM_SHAPE_VOLUME>
245.9

> <PUBCHEM_COORDINATE_TYPE>
2
5
10

$$$$
