REMARK  Name = 135515492
REMARK  5 active torsions:
REMARK  status: ('A' for Active; 'I' for Inactive)
REMARK    1  A    between atoms: C_4  and  C_12
REMARK    2  A    between atoms: C_6  and  C_23
REMARK    3  A    between atoms: C_15  and  C_20
REMARK    4  A    between atoms: C_20  and  O_21
REMARK    5  A    between atoms: C_25  and  O_30
REMARK                            x       y       z     vdW  Elec       q    Type
REMARK                         _______ _______ _______ _____ _____    ______ ____
ROOT
ATOM      1  O   UNL     1      -2.880   1.670   0.125  0.00  0.00    -0.425 OA
ATOM      2  N   UNL     1      -1.101   0.269   0.028  0.00  0.00    -0.368 NA
ATOM      3  C   UNL     1      -0.658   1.569   0.083  0.00  0.00    +0.160 C 
ATOM      4  C   UNL     1       0.635   2.110   0.087  0.00  0.00    +0.167 C 
ATOM      5  C   UNL     1      -1.745   2.429   0.142  0.00  0.00    +0.174 C 
ATOM      6  C   UNL     1      -2.409   0.393   0.056  0.00  0.00    +0.284 C 
ATOM      7  C   UNL     1       0.766   3.505   0.151  0.00  0.00    -0.009 C 
ATOM      8  C   UNL     1      -1.656   3.814   0.206  0.00  0.00    +0.040 C 
ATOM      9  C   UNL     1      -0.358   4.338   0.210  0.00  0.00    -0.000 C 
ENDROOT
BRANCH   4  12
ATOM     10  O   UNL     1       2.981   1.838   0.035  0.00  0.00    -0.428 OA
ATOM     11  N   UNL     1       1.788  -0.089  -0.036  0.00  0.00    -0.371 NA
ATOM     12  C   UNL     1       1.764   1.224   0.027  0.00  0.00    +0.267 C 
ATOM     13  C   UNL     1       3.131  -0.379  -0.072  0.00  0.00    +0.161 C 
ATOM     14  C   UNL     1       3.864   0.798  -0.029  0.00  0.00    +0.174 C 
ATOM     15  C   UNL     1       3.815  -1.601  -0.141  0.00  0.00    +0.176 C 
ATOM     16  C   UNL     1       5.251   0.868  -0.049  0.00  0.00    +0.040 C 
ATOM     17  C   UNL     1       5.217  -1.571  -0.163  0.00  0.00    -0.008 C 
ATOM     18  C   UNL     1       5.918  -0.359  -0.118  0.00  0.00    -0.000 C 
BRANCH  15  20
ATOM     19  O   UNL     1       1.867  -2.989  -0.173  0.00  0.00    -0.249 OA
ATOM     20  C   UNL     1       3.097  -2.861  -0.188  0.00  0.00    +0.324 C 
BRANCH  20  21
ATOM     21  O   UNL     1       3.931  -3.937  -0.254  0.00  0.00    -0.480 OA
ATOM     22  H   UNL     1       4.859  -3.810  -0.264  0.00  0.00    +0.295 HD
ENDBRANCH  20  21
ENDBRANCH  15  20
ENDBRANCH   4  12
BRANCH   6  23
ATOM     23  C   UNL     1      -3.419  -0.628   0.024  0.00  0.00    +0.096 C 
ATOM     24  C   UNL     1      -3.466  -1.600   1.023  0.00  0.00    -0.013 C 
ATOM     25  C   UNL     1      -4.354  -0.647  -1.012  0.00  0.00    +0.139 C 
ATOM     26  C   UNL     1      -4.447  -2.591   0.988  0.00  0.00    -0.004 C 
ATOM     27  C   UNL     1      -2.482  -1.615   2.149  0.00  0.00    +0.031 C 
ATOM     28  C   UNL     1      -5.335  -1.638  -1.047  0.00  0.00    +0.037 C 
ATOM     29  C   UNL     1      -5.382  -2.609  -0.047  0.00  0.00    +0.003 C 
BRANCH  25  30
ATOM     30  O   UNL     1      -4.333   0.289  -2.003  0.00  0.00    -0.505 OA
ATOM     31  H   UNL     1      -3.682   0.963  -1.998  0.00  0.00    +0.292 HD
ENDBRANCH  25  30
ENDBRANCH   6  23
TORSDOF 5
