REMARK  Name = 135566354
REMARK  6 active torsions:
REMARK  status: ('A' for Active; 'I' for Inactive)
REMARK    1  A    between atoms: N_4  and  C_10
REMARK    2  A    between atoms: N_4  and  C_16
REMARK    3  A    between atoms: C_6  and  O_12
REMARK    4  A    between atoms: C_7  and  O_14
REMARK    5  A    between atoms: C_9  and  C_18
REMARK    6  A    between atoms: C_18  and  O_19
REMARK                            x       y       z     vdW  Elec       q    Type
REMARK                         _______ _______ _______ _____ _____    ______ ____
ROOT
ATOM      1  S   UNL     1       1.209   1.232   0.209  0.00  0.00    -0.078 S 
ATOM      2  O   UNL     1      -1.430   1.059   0.975  0.00  0.00    -0.341 OA
ATOM      3  N   UNL     1       1.364  -1.292   0.766  0.00  0.00    -0.272 NA
ATOM      4  C   UNL     1      -0.049  -1.020   0.988  0.00  0.00    +0.123 C 
ATOM      5  C   UNL     1      -0.857  -1.529  -0.209  0.00  0.00    +0.157 C 
ATOM      6  C   UNL     1      -2.228  -0.860  -0.283  0.00  0.00    +0.168 C 
ATOM      7  C   UNL     1      -0.145   0.498   1.202  0.00  0.00    +0.182 C 
ATOM      8  C   UNL     1      -2.072   0.661  -0.236  0.00  0.00    +0.175 C 
ATOM      9  C   UNL     1       2.136  -0.269   0.281  0.00  0.00    +0.181 C 
ATOM     10  H   UNL     1       1.751  -2.177   0.956  0.00  0.00    +0.125 HD
ENDROOT
BRANCH   5  11
ATOM     11  O   UNL     1      -1.051  -2.938  -0.076  0.00  0.00    -0.380 OA
ATOM     12  H   UNL     1      -0.189  -3.380  -0.027  0.00  0.00    +0.211 HD
ENDBRANCH   5  11
BRANCH   6  13
ATOM     13  O   UNL     1      -2.846  -1.259  -1.504  0.00  0.00    -0.379 OA
ATOM     14  H   UNL     1      -2.938  -2.224  -1.520  0.00  0.00    +0.211 HD
ENDBRANCH   6  13
BRANCH   9  15
ATOM     15  N   UNL     1       3.368  -0.285  -0.097  0.00  0.00    -0.194 NA
BRANCH  15  16
ATOM     16  C   UNL     1       3.874   1.000  -0.562  0.00  0.00    +0.091 C 
ATOM     17  C   UNL     1       5.329   0.845  -0.956  0.00  0.00    +0.020 C 
ENDBRANCH  15  16
ENDBRANCH   9  15
BRANCH   8  18
ATOM     18  C   UNL     1      -3.418   1.381  -0.279  0.00  0.00    +0.169 C 
BRANCH  18  19
ATOM     19  O   UNL     1      -3.184   2.776  -0.220  0.00  0.00    -0.379 OA
ATOM     20  H   UNL     1      -4.032   3.247  -0.247  0.00  0.00    +0.211 HD
ENDBRANCH  18  19
ENDBRANCH   8  18
TORSDOF 6
