REMARK  Name = 135554420
REMARK  14 active torsions:
REMARK  status: ('A' for Active; 'I' for Inactive)
REMARK    1  A    between atoms: N_2  and  C_7
REMARK    2  A    between atoms: N_2  and  C_12
REMARK    3  A    between atoms: N_5  and  C_8
REMARK    4  A    between atoms: N_5  and  C_20
REMARK    5  A    between atoms: C_12  and  C_13
REMARK    6  A    between atoms: C_13  and  N_14
REMARK    7  A    between atoms: N_14  and  C_16
REMARK    8  A    between atoms: N_14  and  C_18
REMARK    9  A    between atoms: C_20  and  C_21
REMARK   10  A    between atoms: C_21  and  S_22
REMARK   11  A    between atoms: S_22  and  C_23
REMARK   12  A    between atoms: C_23  and  C_28
REMARK   13  A    between atoms: C_30  and  N_31
REMARK   14  A    between atoms: N_31  and  C_34
REMARK                            x       y       z     vdW  Elec       q    Type
REMARK                         _______ _______ _______ _____ _____    ______ ____
ROOT
ATOM      1  N   UNL     1       0.693  -1.856   0.036  0.00  0.00    -0.187 NA
ENDROOT
BRANCH   1   7
ATOM      2  S   UNL     1      -2.721  -3.546  -0.564  0.00  0.00    +0.010 S 
ATOM      3  N   UNL     1      -1.516  -0.860  -0.081  0.00  0.00    -0.218 NA
ATOM      4  N   UNL     1      -3.526  -2.158  -0.197  0.00  0.00    -0.213 NA
ATOM      5  N   UNL     1      -1.135  -3.214  -0.277  0.00  0.00    -0.213 NA
ATOM      6  C   UNL     1      -2.932  -0.921  -0.045  0.00  0.00    +0.206 C 
ATOM      7  C   UNL     1      -0.607  -1.949  -0.105  0.00  0.00    +0.206 C 
ATOM      8  C   UNL     1      -0.919   0.494  -0.037  0.00  0.00    +0.095 C 
ATOM      9  H   UNL     1      -4.501  -2.214  -0.077  0.00  0.00    +0.140 HD
ATOM     10  H   UNL     1      -0.515  -3.976  -0.223  0.00  0.00    +0.140 HD
BRANCH   6  11
ATOM     11  N   UNL     1      -3.697   0.129   0.136  0.00  0.00    -0.191 NA
BRANCH  11  12
ATOM     12  C   UNL     1      -5.111  -0.178   0.151  0.00  0.00    +0.069 C 
BRANCH  12  13
ATOM     13  C   UNL     1      -5.895   1.113   0.340  0.00  0.00    -0.058 C 
BRANCH  13  14
ATOM     14  N   UNL     1      -7.327   0.843   0.330  0.00  0.00    +0.388 N 
ATOM     15  H   UNL     1      -7.488  -0.033   0.827  0.00  0.00    -0.080 HD
BRANCH  14  16
ATOM     16  C   UNL     1      -8.058   1.909   1.017  0.00  0.00    -0.077 C 
ATOM     17  C   UNL     1      -7.883   3.241   0.307  0.00  0.00    -0.025 C 
ENDBRANCH  14  16
BRANCH  14  18
ATOM     18  C   UNL     1      -7.816   0.697  -1.042  0.00  0.00    -0.077 C 
ATOM     19  C   UNL     1      -9.294   0.349  -1.065  0.00  0.00    -0.025 C 
ENDBRANCH  14  18
ENDBRANCH  13  14
ENDBRANCH  12  13
ENDBRANCH  11  12
ENDBRANCH   6  11
ENDBRANCH   1   7
BRANCH   1  20
ATOM     20  C   UNL     1       1.376  -3.132  -0.014  0.00  0.00    +0.103 C 
BRANCH  20  21
ATOM     21  C   UNL     1       2.871  -2.890   0.125  0.00  0.00    +0.077 C 
BRANCH  21  22
ATOM     22  S   UNL     1       3.244  -2.055   1.692  0.00  0.00    -0.131 S 
BRANCH  22  23
ATOM     23  C   UNL     1       5.032  -1.893   1.486  0.00  0.00    +0.114 C 
BRANCH  23  28
ATOM     24  S   UNL     1       6.123   0.738  -1.219  0.00  0.00    +0.060 S 
ATOM     25  O   UNL     1       5.254   0.919  -2.361  0.00  0.00    -0.164 OA
ATOM     26  O   UNL     1       7.471   1.256  -1.138  0.00  0.00    -0.164 OA
ATOM     27  N   UNL     1       4.920   0.516   1.024  0.00  0.00    -0.373 NA
ATOM     28  C   UNL     1       5.341  -0.737   0.605  0.00  0.00    +0.125 C 
ATOM     29  C   UNL     1       6.000  -0.842  -0.560  0.00  0.00    +0.216 C 
ATOM     30  C   UNL     1       5.268   1.405   0.147  0.00  0.00    +0.326 C 
BRANCH  30  31
ATOM     31  N   UNL     1       5.010   2.734   0.249  0.00  0.00    -0.168 NA
BRANCH  31  34
ATOM     32  N   UNL     1       3.330   4.461   0.431  0.00  0.00    -0.370 N 
ATOM     33  N   UNL     1       2.729   2.268   0.302  0.00  0.00    -0.370 N 
ATOM     34  C   UNL     1       3.776   3.162   0.324  0.00  0.00    +0.196 C 
ATOM     35  H   UNL     1       3.977   5.203   0.458  0.00  0.00    +0.159 HD
ATOM     36  H   UNL     1       2.365   4.648   0.481  0.00  0.00    +0.159 HD
ATOM     37  H   UNL     1       2.908   1.303   0.229  0.00  0.00    +0.159 HD
ATOM     38  H   UNL     1       1.802   2.594   0.360  0.00  0.00    +0.159 HD
ENDBRANCH  31  34
ENDBRANCH  30  31
ENDBRANCH  23  28
ENDBRANCH  22  23
ENDBRANCH  21  22
ENDBRANCH  20  21
ENDBRANCH   1  20
TORSDOF 14
