REMARK  Name = 135554415
REMARK  6 active torsions:
REMARK  status: ('A' for Active; 'I' for Inactive)
REMARK    1  A    between atoms: N_2  and  C_5
REMARK    2  A    between atoms: N_3  and  C_5
REMARK    3  A    between atoms: N_3  and  N_20
REMARK    4  A    between atoms: C_4  and  C_11
REMARK    5  A    between atoms: N_20  and  C_22
REMARK    6  A    between atoms: C_22  and  C_25
REMARK                            x       y       z     vdW  Elec       q    Type
REMARK                         _______ _______ _______ _____ _____    ______ ____
ROOT
ATOM      1  O   UNL     1       2.195   1.962   1.093  0.00  0.00    -0.267 OA
ATOM      2  N   UNL     1       1.395   0.097  -0.045  0.00  0.00    -0.283 N 
ATOM      3  C   UNL     1       2.392   0.928   0.460  0.00  0.00    +0.281 C 
ATOM      4  H   UNL     1       1.674  -0.708  -0.538  0.00  0.00    +0.151 HD
ENDROOT
BRANCH   3   9
ATOM      5 CL   UNL     1       5.373  -2.991  -0.152  0.00  0.00    -0.044 Cl
ATOM      6  N   UNL     1       3.956  -0.856   0.148  0.00  0.00    -0.378 NA
ATOM      7  N   UNL     1       6.101   0.928  -0.133  0.00  0.00    -0.367 NA
ATOM      8  N   UNL     1       7.570  -0.909  -0.433  0.00  0.00    -0.330 N 
ATOM      9  C   UNL     1       3.788   0.479   0.222  0.00  0.00    +0.229 C 
ATOM     10  C   UNL     1       4.842   1.356   0.084  0.00  0.00    +0.213 C 
ATOM     11  C   UNL     1       6.269  -0.407  -0.206  0.00  0.00    +0.220 C 
ATOM     12  C   UNL     1       5.215  -1.283  -0.068  0.00  0.00    +0.232 C 
ATOM     13  H   UNL     1       8.327  -0.288  -0.533  0.00  0.00    +0.145 HD
ATOM     14  H   UNL     1       7.719  -1.880  -0.492  0.00  0.00    +0.145 HD
ATOM     15  N   UNL     1       4.601   2.745   0.171  0.00  0.00    -0.331 N 
ATOM     16  H   UNL     1       5.347   3.381   0.074  0.00  0.00    +0.145 HD
ATOM     17  H   UNL     1       3.688   3.078   0.330  0.00  0.00    +0.145 HD
ENDBRANCH   3   9
BRANCH   2  18
ATOM     18  C   UNL     1       0.045   0.329   0.102  0.00  0.00    +0.200 C 
BRANCH  18  19
ATOM     19  N   UNL     1      -0.824  -0.485  -0.392  0.00  0.00    -0.128 NA
BRANCH  19  20
ATOM     20  N   UNL     1      -2.095  -0.098  -0.157  0.00  0.00    -0.222 NA
ATOM     21  H   UNL     1      -2.332   0.501   0.588  0.00  0.00    +0.143 HD
BRANCH  20  22
ATOM     22  C   UNL     1      -3.092  -0.623  -1.075  0.00  0.00    +0.113 C 
BRANCH  22  25
ATOM     23 CL   UNL     1      -4.300  -2.246   1.259  0.00  0.00    -0.083 Cl
ATOM     24 CL   UNL     1      -8.690   0.799   0.608  0.00  0.00    -0.082 Cl
ATOM     25  C   UNL     1      -4.492  -0.291  -0.631  0.00  0.00    +0.006 C 
ATOM     26  C   UNL     1      -5.110  -0.976   0.415  0.00  0.00    +0.056 C 
ATOM     27  C   UNL     1      -5.172   0.731  -1.294  0.00  0.00    -0.001 C 
ATOM     28  C   UNL     1      -6.409  -0.639   0.799  0.00  0.00    +0.023 C 
ATOM     29  C   UNL     1      -6.470   1.068  -0.910  0.00  0.00    +0.011 C 
ATOM     30  C   UNL     1      -7.089   0.383   0.136  0.00  0.00    +0.058 C 
ENDBRANCH  22  25
ENDBRANCH  20  22
ENDBRANCH  19  20
ENDBRANCH  18  19
ENDBRANCH   2  18
TORSDOF 6
