REMARK  Name = 135524479
REMARK  4 active torsions:
REMARK  status: ('A' for Active; 'I' for Inactive)
REMARK    1  A    between atoms: N_2  and  C_15
REMARK    2  A    between atoms: C_15  and  C_16
REMARK    3  A    between atoms: C_17  and  C_22
REMARK    4  A    between atoms: C_22  and  O_23
REMARK                            x       y       z     vdW  Elec       q    Type
REMARK                         _______ _______ _______ _____ _____    ______ ____
ROOT
ATOM      1  O   UNL     1      -4.796   0.961   0.382  0.00  0.00    -0.268 OA
ATOM      2  N   UNL     1      -0.501   0.676  -0.990  0.00  0.00    -0.261 N 
ATOM      3  N   UNL     1      -2.296   2.001  -0.840  0.00  0.00    -0.240 NA
ATOM      4  N   UNL     1      -1.360  -1.351   0.017  0.00  0.00    -0.357 NA
ATOM      5  N   UNL     1      -3.638  -1.043   0.690  0.00  0.00    -0.243 N 
ATOM      6  N   UNL     1      -2.549  -3.101   1.039  0.00  0.00    -0.321 N 
ATOM      7  C   UNL     1      -1.476  -0.069  -0.394  0.00  0.00    +0.210 C 
ATOM      8  C   UNL     1      -1.042   1.913  -1.239  0.00  0.00    +0.222 C 
ATOM      9  C   UNL     1      -2.561   0.770  -0.316  0.00  0.00    +0.176 C 
ATOM     10  C   UNL     1      -3.780   0.287   0.271  0.00  0.00    +0.273 C 
ATOM     11  C   UNL     1      -2.462  -1.820   0.560  0.00  0.00    +0.239 C 
ATOM     12  H   UNL     1      -4.420  -1.472   1.108  0.00  0.00    +0.159 HD
ATOM     13  H   UNL     1      -1.770  -3.701   0.983  0.00  0.00    +0.146 HD
ATOM     14  H   UNL     1      -3.389  -3.421   1.440  0.00  0.00    +0.146 HD
ENDROOT
BRANCH   2  15
ATOM     15  C   UNL     1       0.900   0.243  -1.318  0.00  0.00    +0.095 C 
BRANCH  15  16
ATOM     16  C   UNL     1       1.786   0.216  -0.070  0.00  0.00    +0.022 C 
ATOM     17  C   UNL     1       3.227  -0.264  -0.375  0.00  0.00    +0.031 C 
ATOM     18  C   UNL     1       1.802   1.613   0.573  0.00  0.00    +0.002 C 
ATOM     19  C   UNL     1       4.102  -0.199   0.889  0.00  0.00    +0.003 C 
ATOM     20  C   UNL     1       2.681   1.661   1.819  0.00  0.00    +0.000 C 
ATOM     21  C   UNL     1       4.098   1.191   1.517  0.00  0.00    +0.000 C 
BRANCH  17  22
ATOM     22  C   UNL     1       3.264  -1.686  -0.943  0.00  0.00    +0.137 C 
BRANCH  22  23
ATOM     23  O   UNL     1       4.603  -1.998  -1.273  0.00  0.00    -0.382 OA
ATOM     24  H   UNL     1       4.645  -2.897  -1.636  0.00  0.00    +0.210 HD
ENDBRANCH  22  23
ENDBRANCH  17  22
ENDBRANCH  15  16
ENDBRANCH   2  15
TORSDOF 4
