135542250
  -OEChem-03292013293D

 28 30  0     1  0  0  0  0  0999 V2000
   -5.3998   -1.1700    0.5194 O   0  0  0  0  0  0  0  0  0  0  0  0
    3.4252   -2.3503   -0.0506 O   0  0  0  0  0  0  0  0  0  0  0  0
   -0.3169    0.1794   -0.1631 N   0  0  0  0  0  0  0  0  0  0  0  0
    0.4959   -1.9021   -0.2559 N   0  0  0  0  0  0  0  0  0  0  0  0
    1.7301    1.4439    0.1010 N   0  0  0  0  0  0  0  0  0  0  0  0
    3.6178   -0.0310    0.1426 N   0  0  0  0  0  0  0  0  0  0  0  0
    3.9064    2.2965    0.3438 N   0  0  0  0  0  0  0  0  0  0  0  0
   -3.6442    0.1471   -0.3946 C   0  0  1  0  0  0  0  0  0  0  0  0
   -3.8240    1.7016   -0.3047 C   0  0  0  0  0  0  0  0  0  0  0  0
   -2.5721    1.0529   -0.2609 C   0  0  0  0  0  0  0  0  0  0  0  0
   -4.0675   -0.7230    0.7345 C   0  0  0  0  0  0  0  0  0  0  0  0
   -1.2455    1.2016   -0.1610 C   0  0  0  0  0  0  0  0  0  0  0  0
    1.0369    0.2930   -0.0437 C   0  0  0  0  0  0  0  0  0  0  0  0
   -0.5938   -1.1602   -0.2884 C   0  0  0  0  0  0  0  0  0  0  0  0
    1.5048   -0.9974   -0.1042 C   0  0  0  0  0  0  0  0  0  0  0  0
    2.9181   -1.2366   -0.0070 C   0  0  0  0  0  0  0  0  0  0  0  0
    3.0286    1.2546    0.1927 C   0  0  0  0  0  0  0  0  0  0  0  0
   -3.7615   -0.3238   -1.3623 H   0  0  0  0  0  0  0  0  0  0  0  0
   -4.1873    2.1289    0.6190 H   0  0  0  0  0  0  0  0  0  0  0  0
   -4.0706    2.2345   -1.2120 H   0  0  0  0  0  0  0  0  0  0  0  0
   -4.0349   -0.1958    1.6945 H   0  0  0  0  0  0  0  0  0  0  0  0
   -3.4302   -1.6082    0.8082 H   0  0  0  0  0  0  0  0  0  0  0  0
   -0.8464    2.2074   -0.0636 H   0  0  0  0  0  0  0  0  0  0  0  0
   -1.5840   -1.5644   -0.4289 H   0  0  0  0  0  0  0  0  0  0  0  0
   -5.6355   -1.7384    1.2724 H   0  0  0  0  0  0  0  0  0  0  0  0
    4.6293   -0.0854    0.2211 H   0  0  0  0  0  0  0  0  0  0  0  0
    3.5799    3.2555    0.3903 H   0  0  0  0  0  0  0  0  0  0  0  0
    4.9060    2.1401    0.4135 H   0  0  0  0  0  0  0  0  0  0  0  0
  1 11  1  0  0  0  0
  1 25  1  0  0  0  0
  2 16  2  0  0  0  0
  3 12  1  0  0  0  0
  3 13  1  0  0  0  0
  3 14  1  0  0  0  0
  4 14  2  0  0  0  0
  4 15  1  0  0  0  0
  5 13  1  0  0  0  0
  5 17  2  0  0  0  0
  6 16  1  0  0  0  0
  6 17  1  0  0  0  0
  6 26  1  0  0  0  0
  7 17  1  0  0  0  0
  7 27  1  0  0  0  0
  7 28  1  0  0  0  0
  8  9  1  0  0  0  0
  8 10  1  0  0  0  0
  8 11  1  0  0  0  0
  8 18  1  0  0  0  0
  9 10  1  0  0  0  0
  9 19  1  0  0  0  0
  9 20  1  0  0  0  0
 10 12  2  3  0  0  0
 11 21  1  0  0  0  0
 11 22  1  0  0  0  0
 12 23  1  0  0  0  0
 13 15  2  0  0  0  0
 14 24  1  0  0  0  0
 15 16  1  0  0  0  0
M  END
> <PUBCHEM_COMPOUND_CID>
135542250

> <PUBCHEM_CONFORMER_RMSD>
0.6

> <PUBCHEM_CONFORMER_DIVERSEORDER>
1
5
11
7
4
3
6
8
2
9
10

> <PUBCHEM_MMFF94_PARTIAL_CHARGES>
26
1 -0.68
10 -0.08
11 0.38
12 -0.18
13 -0.03
14 0.04
15 0.14
16 0.72
17 0.56
18 0.1
19 0.1
2 -0.57
20 0.1
23 0.15
24 0.15
25 0.4
26 0.37
27 0.4
28 0.4
3 0.33
4 -0.57
5 -0.58
6 -0.49
7 -0.85
8 -0.16
9 -0.16

> <PUBCHEM_EFFECTIVE_ROTOR_COUNT>
2.4

> <PUBCHEM_PHARMACOPHORE_FEATURES>
8
1 1 acceptor
1 1 donor
1 2 acceptor
1 6 donor
1 7 donor
3 3 4 14 cation
5 3 4 13 14 15 rings
6 5 6 13 15 16 17 rings

> <PUBCHEM_HEAVY_ATOM_COUNT>
17

> <PUBCHEM_ATOM_DEF_STEREO_COUNT>
0

> <PUBCHEM_ATOM_UDEF_STEREO_COUNT>
1

> <PUBCHEM_BOND_DEF_STEREO_COUNT>
0

> <PUBCHEM_BOND_UDEF_STEREO_COUNT>
1

> <PUBCHEM_ISOTOPIC_ATOM_COUNT>
0

> <PUBCHEM_COMPONENT_COUNT>
1

> <PUBCHEM_CACTVS_TAUTO_COUNT>
-1

> <PUBCHEM_CONFORMER_ID>
081435EA00000001

> <PUBCHEM_MMFF94_ENERGY>
43.7863

> <PUBCHEM_FEATURE_SELFOVERLAP>
40.775

> <PUBCHEM_SHAPE_FINGERPRINT>
10608611 8 18336824200006495709
11405975 8 18337108939395624441
11471102 20 18340197475841890180
11615757 297 17988927764579582561
12032990 46 18338239258396423055
12403259 226 18263359201004256812
12507560 40 18408322181464954277
12916754 54 18411703145397407449
13296908 3 18335421240612741909
14325111 11 18411134719060295701
14787075 74 18268145542871382753
14897335 6 18341604958363369788
15196674 1 18410292493474958221
15219456 202 18408886226545261257
15442244 35 18269272353163592416
15536298 74 18342454824842934052
18175812 5 18262236621259978565
18186145 218 18201725015699370116
19050596 39 18339925905344652481
200 152 18130496475784369173
20261772 1 18272653497759647927
20645477 70 18271797965774563351
21065198 57 18337390422972714917
21267235 1 18411989043853167150
21501502 16 18270104825231674230
21637258 2 15430863329853800978
221490 88 18337957796283573642
22854114 111 18411696573844451356
22959321 4 18410293584185628831
23557571 272 17530960268337690005
23559900 14 18265607676312931267
2871803 45 18259698996095180747
3286 77 18334857165098307942
474229 33 18338516468797623815
49207404 50 18408605893708065784
5104073 3 18409729526273239705
6333272 397 18337107968416536600
633830 44 18131072589042705469
7364860 26 18343016675769887796
77779 3 18410575055052209357
8809292 202 18188496761683820811
9709674 26 18334581252320835171

> <PUBCHEM_SHAPE_MULTIPOLES>
313.21
8.93
2.2
0.67
5.99
0
-0.02
0.01
-1.25
-1.46
-0.03
0.28
-0.02
0.78

> <PUBCHEM_SHAPE_SELFOVERLAP>
683.21

> <PUBCHEM_SHAPE_VOLUME>
170.5

> <PUBCHEM_COORDINATE_TYPE>
2
5
10

$$$$
