REMARK  Name = 135565888
REMARK  5 active torsions:
REMARK  status: ('A' for Active; 'I' for Inactive)
REMARK    1  A    between atoms: C_7  and  O_15
REMARK    2  A    between atoms: C_12  and  C_20
REMARK    3  A    between atoms: O_15  and  S_16
REMARK    4  A    between atoms: C_20  and  C_25
REMARK    5  A    between atoms: C_20  and  O_31
REMARK                            x       y       z     vdW  Elec       q    Type
REMARK                         _______ _______ _______ _____ _____    ______ ____
ROOT
ATOM      1  N   UNL     1       1.169   0.967  -0.001  0.00  0.00    -0.283 N 
ATOM      2  N   UNL     1       0.112   2.816   0.536  0.00  0.00    -0.305 N 
ATOM      3  N   UNL     1      -1.224   0.941  -0.135  0.00  0.00    -0.243 NA
ATOM      4  C   UNL     1       2.225   1.796   0.565  0.00  0.00    +0.097 C 
ATOM      5  C   UNL     1       1.413  -0.377  -0.470  0.00  0.00    +0.080 C 
ATOM      6  C   UNL     1       3.459   1.786  -0.347  0.00  0.00    +0.050 C 
ATOM      7  C   UNL     1       3.855   0.332  -0.687  0.00  0.00    +0.151 C 
ATOM      8  C   UNL     1       2.678  -0.406  -1.341  0.00  0.00    +0.052 C 
ATOM      9  C   UNL     1       0.174  -0.808  -1.272  0.00  0.00    +0.047 C 
ATOM     10  C   UNL     1       1.516   3.165   0.691  0.00  0.00    +0.109 C 
ATOM     11  C   UNL     1      -0.094   1.518   0.110  0.00  0.00    +0.181 C 
ATOM     12  C   UNL     1      -1.114  -0.493  -0.490  0.00  0.00    +0.140 C 
ATOM     13  C   UNL     1       4.619   2.546   0.299  0.00  0.00    +0.004 C 
ATOM     14  H   UNL     1      -0.623   3.445   0.718  0.00  0.00    +0.149 HD
ENDROOT
BRANCH   7  15
ATOM     15  O   UNL     1       4.253  -0.358   0.495  0.00  0.00    -0.203 OA
BRANCH  15  16
ATOM     16  S   UNL     1       5.199  -1.683   0.378  0.00  0.00    +0.239 S 
ATOM     17  O   UNL     1       5.712  -1.925   1.908  0.00  0.00    -0.022 OA
ATOM     18  O   UNL     1       4.341  -2.799   0.024  0.00  0.00    -0.116 OA
ATOM     19  O   UNL     1       6.357  -1.367  -0.436  0.00  0.00    -0.116 OA
ENDBRANCH  15  16
ENDBRANCH   7  15
BRANCH  12  20
ATOM     20  C   UNL     1      -2.346  -0.864  -1.309  0.00  0.00    +0.168 C 
BRANCH  20  25
ATOM     21  O   UNL     1      -4.983  -1.599   2.551  0.00  0.00    -0.252 OA
ATOM     22  O   UNL     1      -6.651   1.260  -0.670  0.00  0.00    -0.270 OA
ATOM     23  N   UNL     1      -3.757  -1.193   0.646  0.00  0.00    -0.269 N 
ATOM     24  N   UNL     1      -5.838  -0.168   0.957  0.00  0.00    -0.236 N 
ATOM     25  C   UNL     1      -3.607  -0.568  -0.569  0.00  0.00    +0.062 C 
ATOM     26  C   UNL     1      -4.549   0.258  -1.044  0.00  0.00    +0.071 C 
ATOM     27  C   UNL     1      -4.865  -1.030   1.465  0.00  0.00    +0.310 C 
ATOM     28  C   UNL     1      -5.777   0.507  -0.252  0.00  0.00    +0.254 C 
ATOM     29  H   UNL     1      -3.038  -1.791   0.953  0.00  0.00    +0.156 HD
ATOM     30  H   UNL     1      -6.641  -0.025   1.509  0.00  0.00    +0.159 HD
ENDBRANCH  20  25
BRANCH  20  31
ATOM     31  O   UNL     1      -2.276  -2.255  -1.601  0.00  0.00    -0.377 OA
ATOM     32  H   UNL     1      -1.455  -2.443  -2.082  0.00  0.00    +0.211 HD
ENDBRANCH  20  31
ENDBRANCH  12  20
TORSDOF 5
