REMARK  Name = 135625262
REMARK  4 active torsions:
REMARK  status: ('A' for Active; 'I' for Inactive)
REMARK    1  A    between atoms: N_2  and  C_19
REMARK    2  A    between atoms: C_20  and  O_25
REMARK    3  A    between atoms: C_21  and  O_27
REMARK    4  A    between atoms: C_22  and  C_24
REMARK                            x       y       z     vdW  Elec       q    Type
REMARK                         _______ _______ _______ _____ _____    ______ ____
ROOT
ATOM      1  O   UNL     1       4.590  -0.161  -0.285  0.00  0.00    -0.267 OA
ATOM      2  N   UNL     1       0.323   1.163   0.391  0.00  0.00    -0.198 N 
ATOM      3  N   UNL     1       2.459   1.821   0.311  0.00  0.00    -0.364 NA
ATOM      4  N   UNL     1       0.567  -1.196  -0.094  0.00  0.00    -0.355 NA
ATOM      5  N   UNL     1       0.748   3.443   0.796  0.00  0.00    -0.320 N 
ATOM      6  N   UNL     1       2.877  -1.741  -0.427  0.00  0.00    -0.242 N 
ATOM      7  N   UNL     1       1.214  -3.400  -0.589  0.00  0.00    -0.321 N 
ATOM      8  C   UNL     1       1.055   0.049   0.102  0.00  0.00    +0.229 C 
ATOM      9  C   UNL     1       1.212   2.203   0.508  0.00  0.00    +0.243 C 
ATOM     10  C   UNL     1       2.357   0.485   0.060  0.00  0.00    +0.232 C 
ATOM     11  C   UNL     1       3.403  -0.457  -0.227  0.00  0.00    +0.286 C 
ATOM     12  C   UNL     1       1.504  -2.080  -0.359  0.00  0.00    +0.240 C 
ATOM     13  H   UNL     1      -0.217   3.590   0.920  0.00  0.00    +0.146 HD
ATOM     14  H   UNL     1       1.376   4.196   0.883  0.00  0.00    +0.146 HD
ATOM     15  H   UNL     1       3.512  -2.464  -0.631  0.00  0.00    +0.159 HD
ATOM     16  H   UNL     1       0.280  -3.711  -0.559  0.00  0.00    +0.146 HD
ATOM     17  H   UNL     1       1.938  -4.037  -0.785  0.00  0.00    +0.146 HD
ENDROOT
BRANCH   2  19
ATOM     18  O   UNL     1      -1.694  -0.011   1.098  0.00  0.00    -0.334 OA
ATOM     19  C   UNL     1      -1.180   1.225   0.551  0.00  0.00    +0.231 C 
ATOM     20  C   UNL     1      -1.910   1.465  -0.773  0.00  0.00    +0.187 C 
ATOM     21  C   UNL     1      -2.402   0.079  -1.140  0.00  0.00    +0.169 C 
ATOM     22  C   UNL     1      -2.713  -0.518   0.220  0.00  0.00    +0.157 C 
BRANCH  22  24
ATOM     23  I   UNL     1      -3.183  -2.782   2.168  0.00  0.00    -0.072 I 
ATOM     24  C   UNL     1      -2.694  -2.037   0.233  0.00  0.00    +0.095 C 
ENDBRANCH  22  24
BRANCH  20  25
ATOM     25  O   UNL     1      -3.001   2.359  -0.557  0.00  0.00    -0.378 OA
ATOM     26  H   UNL     1      -2.659   3.237  -0.324  0.00  0.00    +0.211 HD
ENDBRANCH  20  25
BRANCH  21  27
ATOM     27  O   UNL     1      -3.531   0.089  -1.987  0.00  0.00    -0.379 OA
ATOM     28  H   UNL     1      -3.290   0.477  -2.843  0.00  0.00    +0.211 HD
ENDBRANCH  21  27
ENDBRANCH   2  19
TORSDOF 4
