REMARK  Name = 135625264
REMARK  4 active torsions:
REMARK  status: ('A' for Active; 'I' for Inactive)
REMARK    1  A    between atoms: C_1  and  N_22
REMARK    2  A    between atoms: C_2  and  O_35
REMARK    3  A    between atoms: C_4  and  O_37
REMARK    4  A    between atoms: C_5  and  O_39
REMARK                            x       y       z     vdW  Elec       q    Type
REMARK                         _______ _______ _______ _____ _____    ______ ____
ROOT
ATOM      1  C   UNL     1      -1.159   0.981   0.730  0.00  0.00    +0.112 C 
ATOM      2  C   UNL     1      -1.844   2.336   1.043  0.00  0.00    +0.159 C 
ATOM      3  C   UNL     1       0.342   1.091   0.406  0.00  0.00    -0.007 C 
ATOM      4  C   UNL     1      -1.405   3.456   0.109  0.00  0.00    +0.170 C 
ATOM      5  C   UNL     1       0.112   3.638   0.149  0.00  0.00    +0.162 C 
ATOM      6  C   UNL     1       0.902   2.346   0.072  0.00  0.00    +0.004 C 
ATOM      7  C   UNL     1       1.177  -0.079   0.425  0.00  0.00    -0.003 C 
ATOM      8  C   UNL     1       2.549   0.039   0.080  0.00  0.00    -0.000 C 
ATOM      9  C   UNL     1       2.268   2.427  -0.243  0.00  0.00    -0.002 C 
ATOM     10  C   UNL     1       3.089   1.297  -0.259  0.00  0.00    -0.000 C 
ATOM     11  C   UNL     1       3.407  -1.098   0.074  0.00  0.00    -0.000 C 
ATOM     12  C   UNL     1       0.723  -1.372   0.777  0.00  0.00    -0.000 C 
ATOM     13  C   UNL     1       2.903  -2.370   0.419  0.00  0.00    -0.000 C 
ATOM     14  C   UNL     1       4.774  -0.967  -0.275  0.00  0.00    -0.000 C 
ATOM     15  C   UNL     1       4.444   1.411  -0.597  0.00  0.00    -0.000 C 
ATOM     16  C   UNL     1       1.560  -2.491   0.771  0.00  0.00    -0.000 C 
ATOM     17  C   UNL     1       5.276   0.293  -0.608  0.00  0.00    -0.000 C 
ATOM     18  C   UNL     1       3.753  -3.486   0.408  0.00  0.00    -0.000 C 
ATOM     19  C   UNL     1       5.603  -2.099  -0.278  0.00  0.00    -0.000 C 
ATOM     20  C   UNL     1       5.095  -3.350   0.061  0.00  0.00    +0.000 C 
ENDROOT
BRANCH   1  22
ATOM     21  O   UNL     1      -3.422  -0.516   2.266  0.00  0.00    -0.272 OA
ATOM     22  N   UNL     1      -1.974   0.196  -0.301  0.00  0.00    -0.227 NA
ATOM     23  N   UNL     1      -2.603  -0.597  -2.288  0.00  0.00    -0.194 NA
ATOM     24  N   UNL     1      -4.797  -1.780   0.896  0.00  0.00    -0.245 N 
ATOM     25  N   UNL     1      -4.523  -1.941  -1.483  0.00  0.00    -0.323 NA
ATOM     26  N   UNL     1      -6.246  -3.091  -0.393  0.00  0.00    -0.320 N 
ATOM     27  C   UNL     1      -3.058  -0.599  -0.069  0.00  0.00    +0.235 C 
ATOM     28  C   UNL     1      -1.739   0.165  -1.651  0.00  0.00    +0.214 C 
ATOM     29  C   UNL     1      -3.429  -1.076  -1.304  0.00  0.00    +0.087 C 
ATOM     30  C   UNL     1      -3.728  -0.923   1.150  0.00  0.00    +0.259 C 
ATOM     31  C   UNL     1      -5.159  -2.255  -0.377  0.00  0.00    +0.248 C 
ATOM     32  H   UNL     1      -5.338  -2.075   1.664  0.00  0.00    +0.159 HD
ATOM     33  H   UNL     1      -6.708  -3.314   0.447  0.00  0.00    +0.146 HD
ATOM     34  H   UNL     1      -6.565  -3.468  -1.245  0.00  0.00    +0.146 HD
ENDBRANCH   1  22
BRANCH   2  35
ATOM     35  O   UNL     1      -1.536   2.692   2.394  0.00  0.00    -0.380 OA
ATOM     36  H   UNL     1      -1.816   1.977   2.988  0.00  0.00    +0.211 HD
ENDBRANCH   2  35
BRANCH   4  37
ATOM     37  O   UNL     1      -1.849   3.183  -1.216  0.00  0.00    -0.379 OA
ATOM     38  H   UNL     1      -2.812   3.072  -1.218  0.00  0.00    +0.211 HD
ENDBRANCH   4  37
BRANCH   5  39
ATOM     39  O   UNL     1       0.494   4.540  -0.889  0.00  0.00    -0.377 OA
ATOM     40  H   UNL     1      -0.026   5.356  -0.816  0.00  0.00    +0.211 HD
ENDBRANCH   5  39
TORSDOF 4
