REMARK  Name = 135625317
REMARK  11 active torsions:
REMARK  status: ('A' for Active; 'I' for Inactive)
REMARK    1  A    between atoms: C_1  and  C_22
REMARK    2  A    between atoms: C_2  and  C_9
REMARK    3  A    between atoms: N_8  and  CA_11
REMARK    4  A    between atoms: CA_11  and  C_13
REMARK    5  A    between atoms: CA_11  and  CB_16
REMARK    6  A    between atoms: C_13  and  O_14
REMARK    7  A    between atoms: CB_16  and  CG_17
REMARK    8  A    between atoms: CG_17  and  CD_19
REMARK    9  A    between atoms: CD_19  and  OE1_20
REMARK   10  A    between atoms: C_22  and  C_23
REMARK   11  A    between atoms: C_23  and  C_29
REMARK                            x       y       z     vdW  Elec       q    Type
REMARK                         _______ _______ _______ _____ _____    ______ ____
ROOT
ATOM      1  C   UNL     1      -1.708  -3.185  -0.147  0.00  0.00    -0.022 C 
ATOM      2  C   UNL     1       1.011  -2.574  -0.011  0.00  0.00    +0.053 C 
ATOM      3  C   UNL     1      -0.831  -3.684  -1.111  0.00  0.00    -0.004 C 
ATOM      4  C   UNL     1      -1.224  -2.381   0.885  0.00  0.00    -0.004 C 
ATOM      5  C   UNL     1       0.528  -3.378  -1.043  0.00  0.00    +0.004 C 
ATOM      6  C   UNL     1       0.135  -2.075   0.953  0.00  0.00    +0.004 C 
ENDROOT
BRANCH   2   9
ATOM      7  O   UNL     1       3.273  -3.016  -0.442  0.00  0.00    -0.270 OA
ATOM      8  N   UNL     1       2.782  -1.053   0.692  0.00  0.00    -0.293 N 
ATOM      9  C   ACE A   0       2.458  -2.247   0.062  0.00  0.00    +0.246 C 
ATOM     10  H   UNL     1       2.055  -0.504   1.066  0.00  0.00    +0.150 HD
BRANCH   8  11
ATOM     11  CA  UNL     1       4.139  -0.587   0.820  0.00  0.00    +0.172 C 
BRANCH  11  13
ATOM     12  OXT UNL     1       3.322   0.376   2.902  0.00  0.00    -0.248 OA
ATOM     13  C   UNL     1       4.256   0.124   2.153  0.00  0.00    +0.332 C 
BRANCH  13  14
ATOM     14  O   UNL     1       5.546   0.427   2.454  0.00  0.00    -0.479 OA
ATOM     15  H   UNL     1       6.231   0.216   1.850  0.00  0.00    +0.295 HD
ENDBRANCH  13  14
ENDBRANCH  11  13
BRANCH  11  16
ATOM     16  CB  UNL     1       4.589   0.261  -0.376  0.00  0.00    +0.043 C 
BRANCH  16  17
ATOM     17  CG  UNL     1       3.813   1.565  -0.601  0.00  0.00    +0.112 C 
BRANCH  17  19
ATOM     18  OE2 UNL     1       5.192   2.030  -2.554  0.00  0.00    -0.250 OA
ATOM     19  CD  UNL     1       4.287   2.358  -1.799  0.00  0.00    +0.314 C 
BRANCH  19  20
ATOM     20  OE1 UNL     1       3.606   3.527  -1.927  0.00  0.00    -0.480 OA
ATOM     21  HE1 UNL     1       2.919   3.737  -1.325  0.00  0.00    +0.295 HD
ENDBRANCH  19  20
ENDBRANCH  17  19
ENDBRANCH  16  17
ENDBRANCH  11  16
ENDBRANCH   8  11
ENDBRANCH   2   9
BRANCH   1  22
ATOM     22  C   UNL     1      -3.161  -3.512  -0.221  0.00  0.00    +0.031 C 
BRANCH  22  23
ATOM     23  C   UNL     1      -3.991  -2.505  -1.042  0.00  0.00    +0.033 C 
BRANCH  23  29
ATOM     24  O   UNL     1      -1.038   1.780  -1.673  0.00  0.00    -0.269 OA
ATOM     25  N   UNL     1      -4.817   0.604   0.962  0.00  0.00    -0.182 NA
ATOM     26  N   UNL     1      -2.015   3.292  -0.222  0.00  0.00    -0.243 N 
ATOM     27  N   UNL     1      -3.886   2.737   1.094  0.00  0.00    -0.320 NA
ATOM     28  N   UNL     1      -2.943   4.880   1.220  0.00  0.00    -0.320 N 
ATOM     29  C   UNL     1      -3.916  -1.097  -0.506  0.00  0.00    -0.001 C 
ATOM     30  C   UNL     1      -2.937  -0.214  -0.944  0.00  0.00    +0.013 C 
ATOM     31  C   UNL     1      -2.907   1.076  -0.421  0.00  0.00    +0.127 C 
ATOM     32  C   UNL     1      -4.823  -0.644   0.439  0.00  0.00    +0.106 C 
ATOM     33  C   UNL     1      -3.856   1.452   0.525  0.00  0.00    +0.095 C 
ATOM     34  C   UNL     1      -1.895   2.059  -0.843  0.00  0.00    +0.263 C 
ATOM     35  C   UNL     1      -2.989   3.606   0.719  0.00  0.00    +0.248 C 
ATOM     36  H   UNL     1      -1.366   3.992  -0.463  0.00  0.00    +0.159 HD
ATOM     37  H   UNL     1      -2.250   5.506   0.910  0.00  0.00    +0.146 HD
ATOM     38  H   UNL     1      -3.604   5.169   1.891  0.00  0.00    +0.146 HD
ENDBRANCH  23  29
ENDBRANCH  22  23
ENDBRANCH   1  22
TORSDOF 11
