REMARK  Name = 135625323
REMARK  12 active torsions:
REMARK  status: ('A' for Active; 'I' for Inactive)
REMARK    1  A    between atoms: C_1  and  C_22
REMARK    2  A    between atoms: C_2  and  C_9
REMARK    3  A    between atoms: N_8  and  CA_11
REMARK    4  A    between atoms: CA_11  and  C_13
REMARK    5  A    between atoms: CA_11  and  CB_16
REMARK    6  A    between atoms: C_13  and  O_14
REMARK    7  A    between atoms: CB_16  and  CG_17
REMARK    8  A    between atoms: CG_17  and  CD_19
REMARK    9  A    between atoms: CD_19  and  OE1_20
REMARK   10  A    between atoms: C_22  and  C_23
REMARK   11  A    between atoms: C_23  and  C_24
REMARK   12  A    between atoms: C_24  and  C_31
REMARK                            x       y       z     vdW  Elec       q    Type
REMARK                         _______ _______ _______ _____ _____    ______ ____
ROOT
ATOM      1  C   UNL     1      -0.184   0.887  -1.197  0.00  0.00    -0.022 C 
ATOM      2  C   UNL     1       2.472   0.079  -1.463  0.00  0.00    +0.053 C 
ATOM      3  C   UNL     1       0.315  -0.140  -0.397  0.00  0.00    -0.004 C 
ATOM      4  C   UNL     1       0.644   1.511  -2.130  0.00  0.00    -0.004 C 
ATOM      5  C   UNL     1       1.643  -0.545  -0.530  0.00  0.00    +0.004 C 
ATOM      6  C   UNL     1       1.973   1.107  -2.263  0.00  0.00    +0.004 C 
ENDROOT
BRANCH   2   9
ATOM      7  O   UNL     1       4.463  -0.181  -2.675  0.00  0.00    -0.270 OA
ATOM      8  N   UNL     1       4.469  -0.908  -0.473  0.00  0.00    -0.293 N 
ATOM      9  C   ACE A   0       3.887  -0.352  -1.604  0.00  0.00    +0.246 C 
ATOM     10  H   UNL     1       3.924  -1.004   0.341  0.00  0.00    +0.150 HD
BRANCH   8  11
ATOM     11  CA  UNL     1       5.840  -1.351  -0.444  0.00  0.00    +0.172 C 
BRANCH  11  13
ATOM     12  OXT UNL     1       4.985  -3.006   1.125  0.00  0.00    -0.248 OA
ATOM     13  C   UNL     1       5.908  -2.575   0.445  0.00  0.00    +0.332 C 
BRANCH  13  14
ATOM     14  O   UNL     1       7.121  -3.184   0.379  0.00  0.00    -0.479 OA
ATOM     15  H   UNL     1       7.800  -2.819  -0.155  0.00  0.00    +0.295 HD
ENDBRANCH  13  14
ENDBRANCH  11  13
BRANCH  11  16
ATOM     16  CB  UNL     1       6.814  -0.237  -0.039  0.00  0.00    +0.043 C 
BRANCH  16  17
ATOM     17  CG  UNL     1       6.623   0.338   1.370  0.00  0.00    +0.112 C 
BRANCH  17  19
ATOM     18  OE2 UNL     1       8.470   1.876   0.975  0.00  0.00    -0.250 OA
ATOM     19  CD  UNL     1       7.600   1.441   1.716  0.00  0.00    +0.314 C 
BRANCH  19  20
ATOM     20  OE1 UNL     1       7.427   1.881   2.989  0.00  0.00    -0.480 OA
ATOM     21  HE1 UNL     1       6.747   1.519   3.522  0.00  0.00    +0.295 HD
ENDBRANCH  19  20
ENDBRANCH  17  19
ENDBRANCH  16  17
ENDBRANCH  11  16
ENDBRANCH   8  11
ENDBRANCH   2   9
BRANCH   1  22
ATOM     22  C   UNL     1      -1.605   1.320  -1.056  0.00  0.00    +0.027 C 
BRANCH  22  23
ATOM     23  C   UNL     1      -1.869   2.446  -0.033  0.00  0.00    +0.012 C 
BRANCH  23  24
ATOM     24  C   UNL     1      -3.337   2.891   0.064  0.00  0.00    +0.057 C 
BRANCH  24  31
ATOM     25  O   UNL     1      -6.147  -0.551  -2.245  0.00  0.00    -0.266 OA
ATOM     26  N   UNL     1      -4.879   1.075  -0.472  0.00  0.00    -0.393 NA
ATOM     27  N   UNL     1      -5.458   0.682   2.251  0.00  0.00    -0.201 NA
ATOM     28  N   UNL     1      -7.255  -1.647  -0.530  0.00  0.00    -0.241 N 
ATOM     29  N   UNL     1      -6.937  -1.059   1.731  0.00  0.00    -0.318 NA
ATOM     30  N   UNL     1      -8.406  -2.794   1.153  0.00  0.00    -0.320 N 
ATOM     31  C   UNL     1      -4.309   1.821   0.493  0.00  0.00    +0.113 C 
ATOM     32  C   UNL     1      -4.593   1.629   1.828  0.00  0.00    +0.191 C 
ATOM     33  C   UNL     1      -5.740   0.133  -0.038  0.00  0.00    +0.257 C 
ATOM     34  C   UNL     1      -6.037  -0.074   1.296  0.00  0.00    +0.121 C 
ATOM     35  C   UNL     1      -6.385  -0.705  -1.054  0.00  0.00    +0.293 C 
ATOM     36  C   UNL     1      -7.514  -1.807   0.830  0.00  0.00    +0.248 C 
ATOM     37  H   UNL     1      -7.722  -2.243  -1.160  0.00  0.00    +0.159 HD
ATOM     38  H   UNL     1      -8.819  -3.337   0.443  0.00  0.00    +0.146 HD
ATOM     39  H   UNL     1      -8.635  -2.961   2.096  0.00  0.00    +0.146 HD
ENDBRANCH  24  31
ENDBRANCH  23  24
ENDBRANCH  22  23
ENDBRANCH   1  22
TORSDOF 12
