REMARK  Name = 135618605
REMARK  7 active torsions:
REMARK  status: ('A' for Active; 'I' for Inactive)
REMARK    1  A    between atoms: C_3  and  O_18
REMARK    2  A    between atoms: C_4  and  N_8
REMARK    3  A    between atoms: C_5  and  C_20
REMARK    4  A    between atoms: C_20  and  O_21
REMARK    5  A    between atoms: O_21  and  P_22
REMARK    6  A    between atoms: P_22  and  O_24
REMARK    7  A    between atoms: P_22  and  O_26
REMARK                            x       y       z     vdW  Elec       q    Type
REMARK                         _______ _______ _______ _____ _____    ______ ____
ROOT
ATOM      1  F   UNL     1       0.155   3.308  -0.458  0.00  0.00    -0.230 F 
ATOM      2  O   UNL     1       0.984   0.397  -0.801  0.00  0.00    -0.333 OA
ATOM      3  C   UNL     1       1.189   1.837   1.039  0.00  0.00    +0.177 C 
ATOM      4  C   UNL     1      -0.305   1.025  -0.618  0.00  0.00    +0.231 C 
ATOM      5  C   UNL     1       1.966   1.150  -0.068  0.00  0.00    +0.177 C 
ATOM      6  C   UNL     1      -0.083   2.210   0.316  0.00  0.00    +0.236 C 
ENDROOT
BRANCH   4   8
ATOM      7  O   UNL     1      -5.067  -2.298   0.900  0.00  0.00    -0.268 OA
ATOM      8  N   UNL     1      -1.326   0.041  -0.093  0.00  0.00    -0.247 N 
ATOM      9  N   UNL     1      -2.158  -1.705   1.031  0.00  0.00    -0.241 NA
ATOM     10  N   UNL     1      -3.342   0.903  -1.126  0.00  0.00    -0.232 NA
ATOM     11  N   UNL     1      -5.237  -0.442  -0.506  0.00  0.00    -0.279 N 
ATOM     12  C   UNL     1      -2.665   0.028  -0.347  0.00  0.00    +0.154 C 
ATOM     13  C   UNL     1      -1.069  -1.021   0.740  0.00  0.00    +0.223 C 
ATOM     14  C   UNL     1      -3.147  -1.053   0.355  0.00  0.00    +0.162 C 
ATOM     15  C   UNL     1      -4.554  -1.359   0.305  0.00  0.00    +0.267 C 
ATOM     16  C   UNL     1      -4.612   0.622  -1.167  0.00  0.00    +0.220 C 
ATOM     17  H   UNL     1      -6.209  -0.551  -0.615  0.00  0.00    +0.152 HD
ENDBRANCH   4   8
BRANCH   3  18
ATOM     18  O   UNL     1       1.873   2.960   1.552  0.00  0.00    -0.379 OA
ATOM     19  H   UNL     1       2.680   2.668   2.005  0.00  0.00    +0.211 HD
ENDBRANCH   3  18
BRANCH   5  20
ATOM     20  C   UNL     1       3.054   0.222   0.441  0.00  0.00    +0.186 C 
BRANCH  20  21
ATOM     21  O   UNL     1       3.705  -0.373  -0.670  0.00  0.00    -0.271 OA
BRANCH  21  22
ATOM     22  P   UNL     1       4.914  -1.412  -0.390  0.00  0.00    +0.473 P 
ATOM     23  O   UNL     1       5.547  -1.994  -1.619  0.00  0.00    -0.227 OA
BRANCH  22  24
ATOM     24  O   UNL     1       4.267  -2.487   0.631  0.00  0.00    -0.303 OA
ATOM     25  H   UNL     1       3.884  -2.022   1.391  0.00  0.00    +0.222 HD
ENDBRANCH  22  24
BRANCH  22  26
ATOM     26  O   UNL     1       5.912  -0.557   0.553  0.00  0.00    -0.303 OA
ATOM     27  H   UNL     1       5.422  -0.220   1.320  0.00  0.00    +0.222 HD
ENDBRANCH  22  26
ENDBRANCH  21  22
ENDBRANCH  20  21
ENDBRANCH   5  20
TORSDOF 7
