REMARK  Name = 135618574
REMARK  7 active torsions:
REMARK  status: ('A' for Active; 'I' for Inactive)
REMARK    1  A    between atoms: C_2  and  N_7
REMARK    2  A    between atoms: C_3  and  C_22
REMARK    3  A    between atoms: C_5  and  O_20
REMARK    4  A    between atoms: C_22  and  O_23
REMARK    5  A    between atoms: O_23  and  P_25
REMARK    6  A    between atoms: P_25  and  O_26
REMARK    7  A    between atoms: P_25  and  O_28
REMARK                            x       y       z     vdW  Elec       q    Type
REMARK                         _______ _______ _______ _____ _____    ______ ____
ROOT
ATOM      1  O   UNL     1      -0.331  -1.846  -1.185  0.00  0.00    -0.326 OA
ATOM      2  C   UNL     1       0.613  -2.299  -0.182  0.00  0.00    +0.222 C 
ATOM      3  C   UNL     1      -1.630  -1.694  -0.563  0.00  0.00    +0.203 C 
ATOM      4  C   UNL     1      -0.108  -2.210   1.119  0.00  0.00    +0.059 C 
ATOM      5  C   UNL     1      -1.373  -1.869   0.888  0.00  0.00    +0.140 C 
ENDROOT
BRANCH   2   7
ATOM      6  O   UNL     1       5.000   1.786  -0.135  0.00  0.00    -0.268 OA
ATOM      7  N   UNL     1       1.880  -1.481  -0.234  0.00  0.00    -0.235 N 
ATOM      8  N   UNL     1       4.051  -1.006  -0.490  0.00  0.00    -0.240 NA
ATOM      9  N   UNL     1       1.006   0.712   0.301  0.00  0.00    -0.357 NA
ATOM     10  N   UNL     1       2.774   2.330   0.315  0.00  0.00    -0.243 N 
ATOM     11  N   UNL     1       0.556   2.968   0.780  0.00  0.00    -0.321 N 
ATOM     12  C   UNL     1       2.006  -0.141  -0.011  0.00  0.00    +0.211 C 
ATOM     13  C   UNL     1       3.137  -1.956  -0.518  0.00  0.00    +0.224 C 
ATOM     14  C   UNL     1       3.346   0.118  -0.176  0.00  0.00    +0.176 C 
ATOM     15  C   UNL     1       3.826   1.462  -0.008  0.00  0.00    +0.273 C 
ATOM     16  C   UNL     1       1.418   1.951   0.461  0.00  0.00    +0.239 C 
ATOM     17  H   UNL     1       2.996   3.279   0.452  0.00  0.00    +0.159 HD
ATOM     18  H   UNL     1      -0.404   2.781   0.898  0.00  0.00    +0.146 HD
ATOM     19  H   UNL     1       0.896   3.885   0.893  0.00  0.00    +0.146 HD
ENDBRANCH   2   7
BRANCH   5  20
ATOM     20  O   UNL     1      -2.354  -1.738   1.825  0.00  0.00    -0.507 OA
ATOM     21  H   UNL     1      -3.220  -1.492   1.564  0.00  0.00    +0.292 HD
ENDBRANCH   5  20
BRANCH   3  22
ATOM     22  C   UNL     1      -2.189  -0.333  -0.944  0.00  0.00    +0.188 C 
BRANCH  22  23
ATOM     23  O   UNL     1      -3.582  -0.322  -0.682  0.00  0.00    -0.294 OA
BRANCH  23  25
ATOM     24  S   UNL     1      -4.446   2.429  -1.660  0.00  0.00    +0.022 S 
ATOM     25  P   UNL     1      -4.315   1.069  -0.281  0.00  0.00    +0.304 P 
BRANCH  25  26
ATOM     26  O   UNL     1      -5.740   0.561   0.305  0.00  0.00    -0.327 OA
ATOM     27  H   UNL     1      -6.303   0.264  -0.426  0.00  0.00    +0.219 HD
ENDBRANCH  25  26
BRANCH  25  28
ATOM     28  O   UNL     1      -3.543   1.510   1.076  0.00  0.00    -0.327 OA
ATOM     29  H   UNL     1      -2.659   1.839   0.852  0.00  0.00    +0.219 HD
ENDBRANCH  25  28
ENDBRANCH  23  25
ENDBRANCH  22  23
ENDBRANCH   3  22
TORSDOF 7
