REMARK  Name = 135666519
REMARK  9 active torsions:
REMARK  status: ('A' for Active; 'I' for Inactive)
REMARK    1  A    between atoms: N_1  and  C_4
REMARK    2  A    between atoms: N_1  and  N_15
REMARK    3  A    between atoms: C_4  and  N_5
REMARK    4  A    between atoms: N_5  and  N_7
REMARK    5  A    between atoms: N_7  and  C_8
REMARK    6  A    between atoms: C_8  and  C_10
REMARK    7  A    between atoms: N_15  and  C_16
REMARK    8  A    between atoms: C_16  and  C_17
REMARK    9  A    between atoms: C_18  and  O_23
REMARK                            x       y       z     vdW  Elec       q    Type
REMARK                         _______ _______ _______ _____ _____    ______ ____
ROOT
ATOM      1  N   UNL     1       1.107  -2.144   0.001  0.00  0.00    -0.243 N 
ATOM      2  H   UNL     1       1.632  -2.977   0.000  0.00  0.00    +0.170 HD
ENDROOT
BRANCH   1   4
ATOM      3  S   UNL     1      -1.028  -3.711   0.000  0.00  0.00    -0.016 S 
ATOM      4  C   UNL     1      -0.273  -2.210   0.001  0.00  0.00    +0.160 C 
BRANCH   4   5
ATOM      5  N   UNL     1      -0.919  -0.986   0.001  0.00  0.00    -0.243 N 
ATOM      6  H   UNL     1      -0.382  -0.161   0.001  0.00  0.00    +0.170 HD
BRANCH   5   7
ATOM      7  N   UNL     1      -2.270  -0.896   0.001  0.00  0.00    -0.126 NA
BRANCH   7   8
ATOM      8  C   UNL     1      -2.715   0.319   0.002  0.00  0.00    +0.157 C 
BRANCH   8  10
ATOM      9  N   UNL     1      -4.980  -0.453  -0.001  0.00  0.00    -0.247 NA
ATOM     10  C   UNL     1      -4.157   0.620   0.001  0.00  0.00    +0.078 C 
ATOM     11  C   UNL     1      -4.596   1.934   0.001  0.00  0.00    +0.016 C 
ATOM     12  C   UNL     1      -5.967   2.163   0.000  0.00  0.00    +0.003 C 
ATOM     13  C   UNL     1      -6.846   1.085  -0.002  0.00  0.00    +0.021 C 
ATOM     14  C   UNL     1      -6.307  -0.192  -0.002  0.00  0.00    +0.099 C 
ENDBRANCH   8  10
ENDBRANCH   7   8
ENDBRANCH   5   7
ENDBRANCH   4   5
ENDBRANCH   1   4
BRANCH   1  15
ATOM     15  N   UNL     1       1.749  -0.951   0.001  0.00  0.00    -0.127 NA
BRANCH  15  16
ATOM     16  C   UNL     1       3.038  -1.048   0.000  0.00  0.00    +0.141 C 
BRANCH  16  17
ATOM     17  C   UNL     1       3.908   0.142  -0.001  0.00  0.00    +0.031 C 
ATOM     18  C   UNL     1       5.297   0.014  -0.002  0.00  0.00    +0.131 C 
ATOM     19  C   UNL     1       3.324   1.409   0.000  0.00  0.00    +0.000 C 
ATOM     20  C   UNL     1       6.102   1.153  -0.001  0.00  0.00    +0.036 C 
ATOM     21  C   UNL     1       4.130   2.548   0.001  0.00  0.00    -0.000 C 
ATOM     22  C   UNL     1       5.519   2.420   0.000  0.00  0.00    +0.003 C 
BRANCH  18  23
ATOM     23  O   UNL     1       5.886  -1.215  -0.001  0.00  0.00    -0.506 OA
ATOM     24  H   UNL     1       5.356  -1.989  -0.001  0.00  0.00    +0.292 HD
ENDBRANCH  18  23
ENDBRANCH  16  17
ENDBRANCH  15  16
ENDBRANCH   1  15
TORSDOF 9
