135666517
  -OEChem-03292013293D

 40 41  0     0  0  0  0  0  0999 V2000
   -2.3615    0.3393    0.3585 O   0  0  0  0  0  0  0  0  0  0  0  0
   -5.6082   -1.0757   -0.4247 O   0  0  0  0  0  0  0  0  0  0  0  0
   -1.7072   -2.4025    0.3894 O   0  0  0  0  0  0  0  0  0  0  0  0
    3.3727    3.1816    0.5566 O   0  0  0  0  0  0  0  0  0  0  0  0
   -0.9326    2.0687   -0.2583 N   0  0  0  0  0  0  0  0  0  0  0  0
    0.4622    3.7233    0.3080 N   0  0  0  0  0  0  0  0  0  0  0  0
    0.6300    0.2315   -0.4872 N   0  0  0  0  0  0  0  0  0  0  0  0
    2.8659    0.9779   -0.0255 N   0  0  0  0  0  0  0  0  0  0  0  0
    2.3988   -1.2492   -0.6052 N   0  0  0  0  0  0  0  0  0  0  0  0
    2.2608   -3.5342    0.1394 N   0  0  0  0  0  0  0  0  0  0  0  0
   -3.2673   -0.6379   -0.1361 C   0  0  0  0  0  0  0  0  0  0  0  0
   -2.1713    1.3997   -0.5740 C   0  0  0  0  0  0  0  0  0  0  0  0
    0.3156    1.5208   -0.2263 C   0  0  0  0  0  0  0  0  0  0  0  0
    1.1473    2.5588    0.1235 C   0  0  0  0  0  0  0  0  0  0  0  0
   -3.0362   -1.9442    0.6150 C   0  0  0  0  0  0  0  0  0  0  0  0
   -4.6827   -0.1166    0.0758 C   0  0  0  0  0  0  0  0  0  0  0  0
   -0.7926    3.3951    0.0700 C   0  0  0  0  0  0  0  0  0  0  0  0
    2.5605    2.3183    0.2489 C   0  0  0  0  0  0  0  0  0  0  0  0
    1.9115    0.0059   -0.3751 C   0  0  0  0  0  0  0  0  0  0  0  0
    1.9404   -2.1881    0.1570 C   0  0  0  0  0  0  0  0  0  0  0  0
    3.2225   -4.0683   -0.8146 C   0  0  0  0  0  0  0  0  0  0  0  0
    1.4713   -4.5044    0.8849 C   0  0  0  0  0  0  0  0  0  0  0  0
   -3.0771   -0.8354   -1.1993 H   0  0  0  0  0  0  0  0  0  0  0  0
   -2.9892    2.1225   -0.4996 H   0  0  0  0  0  0  0  0  0  0  0  0
   -2.0798    1.0377   -1.6044 H   0  0  0  0  0  0  0  0  0  0  0  0
   -3.7261   -2.7265    0.2843 H   0  0  0  0  0  0  0  0  0  0  0  0
   -3.1517   -1.7963    1.6941 H   0  0  0  0  0  0  0  0  0  0  0  0
   -4.8859    0.0583    1.1382 H   0  0  0  0  0  0  0  0  0  0  0  0
   -4.8506    0.8257   -0.4538 H   0  0  0  0  0  0  0  0  0  0  0  0
   -1.6364    4.0701    0.1196 H   0  0  0  0  0  0  0  0  0  0  0  0
    3.8382    0.6895    0.0325 H   0  0  0  0  0  0  0  0  0  0  0  0
   -1.6002   -3.2277    0.8925 H   0  0  0  0  0  0  0  0  0  0  0  0
   -6.4994   -0.7187   -0.2700 H   0  0  0  0  0  0  0  0  0  0  0  0
    1.1918   -1.9638    0.9394 H   0  0  0  0  0  0  0  0  0  0  0  0
    0.6176   -4.8334    0.2841 H   0  0  0  0  0  0  0  0  0  0  0  0
    4.0773   -3.3932   -0.9280 H   0  0  0  0  0  0  0  0  0  0  0  0
    2.7482   -4.1993   -1.7924 H   0  0  0  0  0  0  0  0  0  0  0  0
    3.6153   -5.0371   -0.4887 H   0  0  0  0  0  0  0  0  0  0  0  0
    1.0932   -4.0733    1.8180 H   0  0  0  0  0  0  0  0  0  0  0  0
    2.0688   -5.3823    1.1518 H   0  0  0  0  0  0  0  0  0  0  0  0
  1 11  1  0  0  0  0
  1 12  1  0  0  0  0
  2 16  1  0  0  0  0
  2 33  1  0  0  0  0
  3 15  1  0  0  0  0
  3 32  1  0  0  0  0
  4 18  2  0  0  0  0
  5 12  1  0  0  0  0
  5 13  1  0  0  0  0
  5 17  1  0  0  0  0
  6 14  1  0  0  0  0
  6 17  2  0  0  0  0
  7 13  1  0  0  0  0
  7 19  2  0  0  0  0
  8 18  1  0  0  0  0
  8 19  1  0  0  0  0
  8 31  1  0  0  0  0
  9 19  1  0  0  0  0
  9 20  2  0  0  0  0
 10 20  1  0  0  0  0
 10 21  1  0  0  0  0
 10 22  1  0  0  0  0
 11 15  1  0  0  0  0
 11 16  1  0  0  0  0
 11 23  1  0  0  0  0
 12 24  1  0  0  0  0
 12 25  1  0  0  0  0
 13 14  2  0  0  0  0
 14 18  1  0  0  0  0
 15 26  1  0  0  0  0
 15 27  1  0  0  0  0
 16 28  1  0  0  0  0
 16 29  1  0  0  0  0
 17 30  1  0  0  0  0
 20 34  1  0  0  0  0
 21 36  1  0  0  0  0
 21 37  1  0  0  0  0
 21 38  1  0  0  0  0
 22 35  1  0  0  0  0
 22 39  1  0  0  0  0
 22 40  1  0  0  0  0
M  END
> <PUBCHEM_COMPOUND_CID>
135666517

> <PUBCHEM_CONFORMER_RMSD>
0.8

> <PUBCHEM_CONFORMER_DIVERSEORDER>
2
37
33
46
44
24
52
15
42
26
30
23
29
50
22
5
38
11
53
20
40
18
35
28
13
17
39
32
43
9
4
47
31
49
10
21
19
45
7
1
36
25
12
41
27
6
3
16
34
14
8
48
51

> <PUBCHEM_MMFF94_PARTIAL_CHARGES>
27
1 -0.56
10 -0.79
11 0.28
12 0.54
13 -0.03
14 0.14
15 0.28
16 0.28
17 0.04
18 0.72
19 0.72
2 -0.68
20 0.44
21 0.37
22 0.37
3 -0.68
30 0.15
31 0.37
32 0.4
33 0.4
34 0.06
4 -0.57
5 0.05
6 -0.57
7 -0.58
8 -0.49
9 -0.66

> <PUBCHEM_EFFECTIVE_ROTOR_COUNT>
7

> <PUBCHEM_PHARMACOPHORE_FEATURES>
11
1 1 acceptor
1 2 acceptor
1 2 donor
1 3 acceptor
1 3 donor
1 4 acceptor
1 8 donor
3 5 6 17 cation
3 9 10 20 cation
5 5 6 13 14 17 rings
6 7 8 13 14 18 19 rings

> <PUBCHEM_HEAVY_ATOM_COUNT>
22

> <PUBCHEM_ATOM_DEF_STEREO_COUNT>
0

> <PUBCHEM_ATOM_UDEF_STEREO_COUNT>
0

> <PUBCHEM_BOND_DEF_STEREO_COUNT>
1

> <PUBCHEM_BOND_UDEF_STEREO_COUNT>
0

> <PUBCHEM_ISOTOPIC_ATOM_COUNT>
0

> <PUBCHEM_COMPONENT_COUNT>
1

> <PUBCHEM_CACTVS_TAUTO_COUNT>
-1

> <PUBCHEM_CONFORMER_ID>
08161B5500000002

> <PUBCHEM_MMFF94_ENERGY>
46.4228

> <PUBCHEM_FEATURE_SELFOVERLAP>
55.965

> <PUBCHEM_SHAPE_FINGERPRINT>
10411042 1 18195246616117051111
10967382 1 18410575132055646149
11370993 70 17979069715265942611
114674 6 18335706073958953395
12107183 9 18055365630862240745
12553582 1 18194693570115153415
12788726 201 17618527392517788982
12839892 36 18339060675804137216
13140716 1 18340200903531870832
13533116 47 18342177787305950947
13631057 29 18122067499113181518
138480 1 18410575046172332315
14251757 5 17259920520099849062
14790565 3 17905334279011429540
14844126 61 17398672298665384442
14863182 85 18263651825653011428
14866123 147 17547293303167229801
14916288 52 18194685860590705015
15042514 8 17402053292577978035
19591789 44 18267025132191382652
19930381 70 18409164407572700011
20028762 73 17624417871334396526
20621476 13 18409164445989931363
21285901 2 17749658671725933125
23184049 29 18122063109154678380
23559900 14 18194671588498802380
23728640 28 17040917560300168827
238078 22 17691979163585063790
33824 294 18339078314802064269
3421961 26 18411982442730753427

> <PUBCHEM_SHAPE_MULTIPOLES>
399.39
7.18
6.25
0.76
5.61
0.11
0
-7.7
0.72
-4.51
-1.17
-0.18
-0.26
0.46

> <PUBCHEM_SHAPE_SELFOVERLAP>
831.094

> <PUBCHEM_SHAPE_VOLUME>
226.3

> <PUBCHEM_COORDINATE_TYPE>
2
5
10

$$$$
