135625316
  -OEChem-03292013293D

 43 45  0     1  0  0  0  0  0999 V2000
    2.7860   -3.8723   -2.3192 Cl  0  0  0  0  0  0  0  0  0  0  0  0
   -2.9286   -0.0933    1.0028 O   0  0  0  0  0  0  0  0  0  0  0  0
   -4.7606    1.3723   -0.9743 O   0  0  0  0  0  0  0  0  0  0  0  0
   -3.9765   -2.6449    1.4614 O   0  0  0  0  0  0  0  0  0  0  0  0
    4.0047   -2.9268    0.3033 O   0  0  0  0  0  0  0  0  0  0  0  0
    3.9204    0.8402    0.5977 O   0  0  0  0  0  0  0  0  0  0  0  0
   -0.6459    0.4452    0.3132 N   0  3  0  0  0  0  0  0  0  0  0  0
    1.2015   -0.5940    0.7333 N   0  0  0  0  0  0  0  0  0  0  0  0
    0.2364    2.6856   -0.1836 N   0  0  0  0  0  0  0  0  0  0  0  0
    2.6255    2.6650    0.0230 N   0  0  0  0  0  0  0  0  0  0  0  0
    1.4871    4.6295   -0.5731 N   0  0  0  0  0  0  0  0  0  0  0  0
   -2.1184    0.7090    0.1236 C   0  0  1  0  0  0  0  0  0  0  0  0
   -2.6013    0.4148   -1.2925 C   0  0  0  0  0  0  0  0  0  0  0  0
   -4.0685    0.1297   -1.0721 C   0  0  1  0  0  0  0  0  0  0  0  0
   -4.0816   -0.5711    0.2803 C   0  0  1  0  0  0  0  0  0  0  0  0
    0.3618    1.3770    0.1601 C   0  0  0  0  0  0  0  0  0  0  0  0
   -0.1254   -0.7372    0.6585 C   0  0  0  0  0  0  0  0  0  0  0  0
   -3.9668   -2.0847    0.1601 C   0  0  0  0  0  0  0  0  0  0  0  0
    1.5349    0.7038    0.4304 C   0  0  0  0  0  0  0  0  0  0  0  0
    2.1223   -1.6567    1.0807 C   0  0  0  0  0  0  0  0  0  0  0  0
    2.8475   -2.2224   -0.1478 C   0  0  2  0  0  0  0  0  0  0  0  0
    2.8109    1.3207    0.3812 C   0  0  0  0  0  0  0  0  0  0  0  0
    1.3942    3.3016   -0.2427 C   0  0  0  0  0  0  0  0  0  0  0  0
    1.9403   -3.1909   -0.9043 C   0  0  0  0  0  0  0  0  0  0  0  0
   -2.3053    1.7562    0.3906 H   0  0  0  0  0  0  0  0  0  0  0  0
   -2.0949   -0.4736   -1.6870 H   0  0  0  0  0  0  0  0  0  0  0  0
   -2.4036    1.2545   -1.9652 H   0  0  0  0  0  0  0  0  0  0  0  0
   -4.5230   -0.4477   -1.8821 H   0  0  0  0  0  0  0  0  0  0  0  0
   -4.9615   -0.3087    0.8782 H   0  0  0  0  0  0  0  0  0  0  0  0
   -0.6759   -1.6466    0.8401 H   0  0  0  0  0  0  0  0  0  0  0  0
   -3.0279   -2.3780   -0.3204 H   0  0  0  0  0  0  0  0  0  0  0  0
   -4.8075   -2.4970   -0.4062 H   0  0  0  0  0  0  0  0  0  0  0  0
    2.8448   -1.2647    1.8070 H   0  0  0  0  0  0  0  0  0  0  0  0
    1.5769   -2.4472    1.6113 H   0  0  0  0  0  0  0  0  0  0  0  0
   -5.6925    1.1708   -0.7831 H   0  0  0  0  0  0  0  0  0  0  0  0
    3.1870   -1.4200   -0.8103 H   0  0  0  0  0  0  0  0  0  0  0  0
    3.4627    3.2361   -0.0519 H   0  0  0  0  0  0  0  0  0  0  0  0
   -3.9038   -3.6091    1.3591 H   0  0  0  0  0  0  0  0  0  0  0  0
    1.0366   -2.6944   -1.2684 H   0  0  0  0  0  0  0  0  0  0  0  0
    1.6524   -4.0408   -0.2778 H   0  0  0  0  0  0  0  0  0  0  0  0
    3.7091   -3.6380    0.8972 H   0  0  0  0  0  0  0  0  0  0  0  0
    0.6596    5.1772   -0.7824 H   0  0  0  0  0  0  0  0  0  0  0  0
    2.3831    5.1023   -0.6180 H   0  0  0  0  0  0  0  0  0  0  0  0
  1 24  1  0  0  0  0
  2 12  1  0  0  0  0
  2 15  1  0  0  0  0
  3 14  1  0  0  0  0
  3 35  1  0  0  0  0
  4 18  1  0  0  0  0
  4 38  1  0  0  0  0
  5 21  1  0  0  0  0
  5 41  1  0  0  0  0
  6 22  2  0  0  0  0
  7 12  1  0  0  0  0
  7 16  1  0  0  0  0
  7 17  2  0  0  0  0
  8 17  1  0  0  0  0
  8 19  1  0  0  0  0
  8 20  1  0  0  0  0
  9 16  1  0  0  0  0
  9 23  2  0  0  0  0
 10 22  1  0  0  0  0
 10 23  1  0  0  0  0
 10 37  1  0  0  0  0
 11 23  1  0  0  0  0
 11 42  1  0  0  0  0
 11 43  1  0  0  0  0
 12 13  1  0  0  0  0
 12 25  1  0  0  0  0
 13 14  1  0  0  0  0
 13 26  1  0  0  0  0
 13 27  1  0  0  0  0
 14 15  1  0  0  0  0
 14 28  1  0  0  0  0
 15 18  1  0  0  0  0
 15 29  1  0  0  0  0
 16 19  2  0  0  0  0
 17 30  1  0  0  0  0
 18 31  1  0  0  0  0
 18 32  1  0  0  0  0
 19 22  1  0  0  0  0
 20 21  1  0  0  0  0
 20 33  1  0  0  0  0
 20 34  1  0  0  0  0
 21 24  1  0  0  0  0
 21 36  1  0  0  0  0
 24 39  1  0  0  0  0
 24 40  1  0  0  0  0
M  CHG  1   7   1
M  END
> <PUBCHEM_COMPOUND_CID>
135625316

> <PUBCHEM_CONFORMER_RMSD>
0.8

> <PUBCHEM_CONFORMER_DIVERSEORDER>
1
101
94
35
112
87
69
97
99
124
70
43
128
56
78
141
126
82
91
68
40
46
47
62
76
95
104
29
123
86
25
23
49
52
45
130
107
100
115
120
61
16
80
24
118
36
116
9
48
96
73
41
2
18
122
84
140
89
31
131
20
139
63
142
90
44
50
59
6
117
67
10
19
64
55
11
14
137
42
98
129
28
37
111
12
110
138
135
26
109
102
71
127
66
30
88
54
114
38
113
7
5
92
65
39
15
21
85
134
57
121
77
51
32
132
136
133
3
105
33
125
22
34
103
53
74
79
143
83
75
4
13
81
8
27
119
106
108
17
60
93
58
72

> <PUBCHEM_MMFF94_PARTIAL_CHARGES>
30
1 -0.29
10 -0.49
11 -0.85
12 0.79
14 0.28
15 0.28
16 0.49
17 0.65
18 0.28
19 0.28
2 -0.56
20 0.51
21 0.28
22 0.7
23 0.56
24 0.29
3 -0.68
30 0.15
35 0.4
37 0.37
38 0.4
4 -0.68
41 0.4
42 0.4
43 0.4
5 -0.68
6 -0.57
7 -0.76
8 -0.76
9 -0.59

> <PUBCHEM_EFFECTIVE_ROTOR_COUNT>
6

> <PUBCHEM_PHARMACOPHORE_FEATURES>
14
1 10 donor
1 11 donor
1 2 acceptor
1 3 acceptor
1 3 donor
1 4 acceptor
1 4 donor
1 5 acceptor
1 5 donor
1 6 acceptor
3 7 8 17 cation
5 2 12 13 14 15 rings
5 7 8 16 17 19 rings
6 9 10 16 19 22 23 rings

> <PUBCHEM_HEAVY_ATOM_COUNT>
24

> <PUBCHEM_ATOM_DEF_STEREO_COUNT>
3

> <PUBCHEM_ATOM_UDEF_STEREO_COUNT>
1

> <PUBCHEM_BOND_DEF_STEREO_COUNT>
0

> <PUBCHEM_BOND_UDEF_STEREO_COUNT>
0

> <PUBCHEM_ISOTOPIC_ATOM_COUNT>
0

> <PUBCHEM_COMPONENT_COUNT>
1

> <PUBCHEM_CACTVS_TAUTO_COUNT>
-1

> <PUBCHEM_CONFORMER_ID>
08157A6400000001

> <PUBCHEM_MMFF94_ENERGY>
46.2139

> <PUBCHEM_FEATURE_SELFOVERLAP>
71.229

> <PUBCHEM_SHAPE_FINGERPRINT>
11488393 25 18267324143409325794
116883 192 18051967022359849852
12553582 1 18048885087030495915
12623949 98 18121241993635515515
12788726 201 17686052799504588107
13140716 1 18048591813831318784
13533116 47 17988638576464282323
14022347 108 18120368753310280699
14251757 5 17760664571996608111
14790565 3 16970833585872855656
15475509 8 17766843823698886957
1813 80 18127417743551110278
18681886 176 18123742317162140000
19591789 44 17834114521375302251
20028762 73 17912085254820267190
20600515 1 17974254712997635657
20645477 70 18339911650269147407
20693207 138 18113904849221038247
21197605 99 17542234896671508363
21524375 3 17829890193522802144
221490 88 18334296504320523811
2255824 54 18267303308164055684
23557571 272 17622717627674683218
23559900 14 18409720751322555689
255183 313 17042620175514779545
2748010 2 18192976137548299528
3060560 45 18339920532498918340
314173 41 18336828585242042387
350125 39 17756991468752603024
4280585 95 18194397793356627278
5104073 3 18043523022652314105
6443956 14 18335417937588134812
6669772 16 18053957414033059732
7364860 26 18410572920094650320
81228 2 17836638626415874265
9709674 26 18334570278911463451

> <PUBCHEM_SHAPE_MULTIPOLES>
441.53
8.13
5.03
1.3
7.28
1.36
0.43
-4.85
0.53
-5.56
1.93
0
-1.14
1.96

> <PUBCHEM_SHAPE_SELFOVERLAP>
929.183

> <PUBCHEM_SHAPE_VOLUME>
249.5

> <PUBCHEM_COORDINATE_TYPE>
2
5
10

$$$$
