REMARK  Name = 135618590
REMARK  5 active torsions:
REMARK  status: ('A' for Active; 'I' for Inactive)
REMARK    1  A    between atoms: C_8  and  C_18
REMARK    2  A    between atoms: C_18  and  C_19
REMARK    3  A    between atoms: C_19  and  O_20
REMARK    4  A    between atoms: C_19  and  C_22
REMARK    5  A    between atoms: C_22  and  O_23
REMARK                            x       y       z     vdW  Elec       q    Type
REMARK                         _______ _______ _______ _____ _____    ______ ____
ROOT
ATOM      1  O   UNL     1      -1.609   2.549  -0.502  0.00  0.00    -0.267 OA
ATOM      2  N   UNL     1      -0.699  -2.034   0.086  0.00  0.00    -0.300 N 
ATOM      3  N   UNL     1       0.238   0.515  -0.472  0.00  0.00    -0.393 NA
ATOM      4  N   UNL     1      -2.939  -1.192   0.311  0.00  0.00    -0.356 NA
ATOM      5  N   UNL     1      -3.323   1.102   0.009  0.00  0.00    -0.242 N 
ATOM      6  N   UNL     1      -5.101  -0.316   0.521  0.00  0.00    -0.321 N 
ATOM      7  C   UNL     1       0.715  -1.916  -0.154  0.00  0.00    +0.152 C 
ATOM      8  C   UNL     1       1.062  -0.483  -0.443  0.00  0.00    +0.166 C 
ATOM      9  C   UNL     1      -1.595  -0.977   0.061  0.00  0.00    +0.218 C 
ATOM     10  C   UNL     1      -1.087   0.247  -0.216  0.00  0.00    +0.228 C 
ATOM     11  C   UNL     1      -2.009   1.415  -0.254  0.00  0.00    +0.286 C 
ATOM     12  C   UNL     1      -3.759  -0.182   0.283  0.00  0.00    +0.239 C 
ATOM     13  H   UNL     1      -1.055  -2.931   0.283  0.00  0.00    +0.150 HD
ATOM     14  H   UNL     1      -3.987   1.828   0.002  0.00  0.00    +0.159 HD
ATOM     15  H   UNL     1      -5.479  -1.203   0.723  0.00  0.00    +0.146 HD
ATOM     16  H   UNL     1      -5.689   0.473   0.490  0.00  0.00    +0.146 HD
ENDROOT
BRANCH   8  18
ATOM     17  O   UNL     1       2.765   0.264  -1.825  0.00  0.00    -0.286 OA
ATOM     18  C   UNL     1       2.493  -0.185  -0.721  0.00  0.00    +0.229 C 
BRANCH  18  19
ATOM     19  C   UNL     1       3.485  -0.517   0.376  0.00  0.00    +0.204 C 
BRANCH  19  20
ATOM     20  O   UNL     1       4.782  -0.216  -0.111  0.00  0.00    -0.375 OA
ATOM     21  H   UNL     1       4.945  -0.716  -0.927  0.00  0.00    +0.211 HD
ENDBRANCH  19  20
BRANCH  19  22
ATOM     22  C   UNL     1       3.233   0.268   1.656  0.00  0.00    +0.174 C 
BRANCH  22  23
ATOM     23  O   UNL     1       3.349   1.659   1.395  0.00  0.00    -0.379 OA
ATOM     24  H   UNL     1       3.188   2.156   2.212  0.00  0.00    +0.211 HD
ENDBRANCH  22  23
ENDBRANCH  19  22
ENDBRANCH  18  19
ENDBRANCH   8  18
TORSDOF 5
