REMARK  Name = 135625340
REMARK  11 active torsions:
REMARK  status: ('A' for Active; 'I' for Inactive)
REMARK    1  A    between atoms: C_1  and  N_22
REMARK    2  A    between atoms: C_2  and  C_9
REMARK    3  A    between atoms: N_8  and  CA_11
REMARK    4  A    between atoms: CA_11  and  C_13
REMARK    5  A    between atoms: CA_11  and  CB_16
REMARK    6  A    between atoms: C_13  and  O_14
REMARK    7  A    between atoms: CB_16  and  CG_17
REMARK    8  A    between atoms: CG_17  and  CD_19
REMARK    9  A    between atoms: CD_19  and  OE1_20
REMARK   10  A    between atoms: N_22  and  C_24
REMARK   11  A    between atoms: C_24  and  C_28
REMARK                            x       y       z     vdW  Elec       q    Type
REMARK                         _______ _______ _______ _____ _____    ______ ____
ROOT
ATOM      1  C   UNL     1      -0.255   0.250   0.470  0.00  0.00    +0.045 C 
ATOM      2  C   UNL     1       2.463   0.733   0.875  0.00  0.00    +0.053 C 
ATOM      3  C   UNL     1       0.322  -0.008   1.714  0.00  0.00    +0.014 C 
ATOM      4  C   UNL     1       0.528   0.750  -0.571  0.00  0.00    +0.014 C 
ATOM      5  C   UNL     1       1.680   0.233   1.916  0.00  0.00    +0.006 C 
ATOM      6  C   UNL     1       1.886   0.992  -0.368  0.00  0.00    +0.006 C 
ENDROOT
BRANCH   2   9
ATOM      7  O   UNL     1       4.314   1.227   2.226  0.00  0.00    -0.270 OA
ATOM      8  N   UNL     1       4.712   0.913  -0.037  0.00  0.00    -0.293 N 
ATOM      9  C   ACE A   0       3.879   0.984   1.087  0.00  0.00    +0.246 C 
ATOM     10  H   UNL     1       4.300   0.716  -0.909  0.00  0.00    +0.150 HD
BRANCH   8  11
ATOM     11  CA  UNL     1       6.142   1.114   0.015  0.00  0.00    +0.172 C 
BRANCH  11  13
ATOM     12  OXT UNL     1       5.820   2.017  -2.224  0.00  0.00    -0.248 OA
ATOM     13  C   UNL     1       6.554   1.807  -1.267  0.00  0.00    +0.332 C 
BRANCH  13  14
ATOM     14  O   UNL     1       7.849   2.217  -1.229  0.00  0.00    -0.479 OA
ATOM     15  H   UNL     1       8.376   2.035  -0.475  0.00  0.00    +0.295 HD
ENDBRANCH  13  14
ENDBRANCH  11  13
BRANCH  11  16
ATOM     16  CB  UNL     1       6.912  -0.183   0.292  0.00  0.00    +0.043 C 
BRANCH  16  17
ATOM     17  CG  UNL     1       6.772  -1.284  -0.766  0.00  0.00    +0.112 C 
BRANCH  17  19
ATOM     18  OE2 UNL     1       8.216  -2.726   0.564  0.00  0.00    -0.250 OA
ATOM     19  CD  UNL     1       7.540  -2.546  -0.440  0.00  0.00    +0.314 C 
BRANCH  19  20
ATOM     20  OE1 UNL     1       7.429  -3.470  -1.429  0.00  0.00    -0.480 OA
ATOM     21  HE1 UNL     1       6.899  -3.290  -2.181  0.00  0.00    +0.295 HD
ENDBRANCH  19  20
ENDBRANCH  17  19
ENDBRANCH  16  17
ENDBRANCH  11  16
ENDBRANCH   8  11
ENDBRANCH   2   9
BRANCH   1  22
ATOM     22  N   UNL     1      -1.603   0.011   0.268  0.00  0.00    -0.329 N 
ATOM     23  H   UNL     1      -1.981   0.203  -0.621  0.00  0.00    +0.147 HD
BRANCH  22  24
ATOM     24  C   UNL     1      -2.487  -0.505   1.290  0.00  0.00    +0.114 C 
BRANCH  24  28
ATOM     25  O   UNL     1      -6.542   2.497   0.100  0.00  0.00    -0.274 OA
ATOM     26  N   UNL     1      -8.139   1.014  -0.659  0.00  0.00    -0.262 N 
ATOM     27  N   UNL     1      -7.749  -1.315  -0.764  0.00  0.00    -0.395 NA
ATOM     28  C   UNL     1      -3.865  -0.703   0.755  0.00  0.00    -0.006 C 
ATOM     29  C   UNL     1      -5.990   0.201   0.057  0.00  0.00    +0.151 C 
ATOM     30  C   UNL     1      -4.700   0.396   0.561  0.00  0.00    -0.013 C 
ATOM     31  C   UNL     1      -6.456  -1.085  -0.256  0.00  0.00    +0.123 C 
ATOM     32  C   UNL     1      -4.315  -1.986   0.448  0.00  0.00    -0.001 C 
ATOM     33  C   UNL     1      -5.604  -2.176  -0.055  0.00  0.00    +0.028 C 
ATOM     34  C   UNL     1      -6.893   1.352  -0.157  0.00  0.00    +0.238 C 
ATOM     35  C   UNL     1      -8.514  -0.284  -0.939  0.00  0.00    +0.163 C 
ATOM     36  C   UNL     1      -9.906  -0.438  -1.475  0.00  0.00    +0.084 C 
ATOM     37  H   UNL     1      -8.789   1.735  -0.825  0.00  0.00    +0.157 HD
ENDBRANCH  24  28
ENDBRANCH  22  24
ENDBRANCH   1  22
TORSDOF 11
