REMARK  Name = 135600345
REMARK  8 active torsions:
REMARK  status: ('A' for Active; 'I' for Inactive)
REMARK    1  A    between atoms: C_2  and  O_17
REMARK    2  A    between atoms: C_3  and  O_19
REMARK    3  A    between atoms: C_4  and  N_7
REMARK    4  A    between atoms: C_5  and  C_21
REMARK    5  A    between atoms: C_21  and  O_22
REMARK    6  A    between atoms: O_22  and  P_24
REMARK    7  A    between atoms: P_24  and  O_25
REMARK    8  A    between atoms: P_24  and  O_27
REMARK                            x       y       z     vdW  Elec       q    Type
REMARK                         _______ _______ _______ _____ _____    ______ ____
ROOT
ATOM      1  O   UNL     1       1.044  -0.823   1.043  0.00  0.00    -0.333 OA
ATOM      2  C   UNL     1       0.184  -1.960  -0.846  0.00  0.00    +0.187 C 
ATOM      3  C   UNL     1       1.499  -2.607  -0.460  0.00  0.00    +0.171 C 
ATOM      4  C   UNL     1      -0.200  -1.232   0.438  0.00  0.00    +0.225 C 
ATOM      5  C   UNL     1       2.135  -1.540   0.423  0.00  0.00    +0.176 C 
ENDROOT
BRANCH   4   7
ATOM      6  O   UNL     1      -4.621   2.747  -0.352  0.00  0.00    -0.268 OA
ATOM      7  N   UNL     1      -1.111  -0.052   0.197  0.00  0.00    -0.247 N 
ATOM      8  N   UNL     1      -1.735   2.049  -0.253  0.00  0.00    -0.241 NA
ATOM      9  N   UNL     1      -3.277  -1.106   0.472  0.00  0.00    -0.232 NA
ATOM     10  N   UNL     1      -5.034   0.505   0.153  0.00  0.00    -0.279 N 
ATOM     11  C   UNL     1      -2.475  -0.045   0.223  0.00  0.00    +0.154 C 
ATOM     12  C   UNL     1      -0.713   1.230  -0.093  0.00  0.00    +0.223 C 
ATOM     13  C   UNL     1      -2.826   1.256  -0.057  0.00  0.00    +0.162 C 
ATOM     14  C   UNL     1      -4.220   1.616  -0.108  0.00  0.00    +0.267 C 
ATOM     15  C   UNL     1      -4.535  -0.774   0.424  0.00  0.00    +0.220 C 
ATOM     16  H   UNL     1      -6.010   0.631   0.145  0.00  0.00    +0.152 HD
ENDBRANCH   4   7
BRANCH   2  17
ATOM     17  O   UNL     1      -0.790  -2.895  -1.264  0.00  0.00    -0.378 OA
ATOM     18  H   UNL     1      -0.495  -3.326  -2.081  0.00  0.00    +0.211 HD
ENDBRANCH   2  17
BRANCH   3  19
ATOM     19  O   UNL     1       1.267  -3.763   0.345  0.00  0.00    -0.379 OA
ATOM     20  H   UNL     1       0.861  -4.458  -0.197  0.00  0.00    +0.211 HD
ENDBRANCH   3  19
BRANCH   5  21
ATOM     21  C   UNL     1       2.978  -0.543  -0.360  0.00  0.00    +0.183 C 
BRANCH  21  22
ATOM     22  O   UNL     1       3.512   0.407   0.545  0.00  0.00    -0.295 OA
BRANCH  22  24
ATOM     23  S   UNL     1       3.617   2.957  -1.116  0.00  0.00    +0.022 S 
ATOM     24  P   UNL     1       4.460   1.603  -0.009  0.00  0.00    +0.304 P 
BRANCH  24  25
ATOM     25  O   UNL     1       5.145   2.169   1.347  0.00  0.00    -0.327 OA
ATOM     26  H   UNL     1       4.491   2.677   1.853  0.00  0.00    +0.219 HD
ENDBRANCH  24  25
BRANCH  24  27
ATOM     27  O   UNL     1       5.696   0.803  -0.690  0.00  0.00    -0.327 OA
ATOM     28  H   UNL     1       5.405   0.410  -1.527  0.00  0.00    +0.219 HD
ENDBRANCH  24  27
ENDBRANCH  22  24
ENDBRANCH  21  22
ENDBRANCH   5  21
TORSDOF 8
