135659020
  -OEChem-03292013293D

 59 64  0     1  0  0  0  0  0999 V2000
   -4.2121    1.8888    0.8977 O   0  0  0  0  0  0  0  0  0  0  0  0
   -3.0727    4.4334   -0.3830 O   0  0  0  0  0  0  0  0  0  0  0  0
   -7.0037    2.0195    0.8026 O   0  0  0  0  0  0  0  0  0  0  0  0
   -3.3443   -4.4247   -0.1127 O   0  0  0  0  0  0  0  0  0  0  0  0
   -2.8081    0.0569    0.0919 N   0  0  0  0  0  0  0  0  0  0  0  0
   -1.7582   -1.9153   -0.0080 N   0  0  0  0  0  0  0  0  0  0  0  0
   -0.4544    0.1057    0.0766 N   0  0  0  0  0  0  0  0  0  0  0  0
   -5.1175   -0.6680    0.0757 N   0  0  0  0  0  0  0  0  0  0  0  0
    1.8904    0.7507    0.0895 N   0  0  0  0  0  0  0  0  0  0  0  0
   -5.2366   -3.0585   -0.0347 N   0  0  0  0  0  0  0  0  0  0  0  0
    1.4942   -1.4388   -0.0097 N   0  0  0  0  0  0  0  0  0  0  0  0
   -7.1983   -1.7583    0.0406 N   0  0  0  0  0  0  0  0  0  0  0  0
    3.8126   -2.1567   -0.0600 N   0  0  0  0  0  0  0  0  0  0  0  0
   -3.0212    1.5481    0.1637 C   0  0  1  0  0  0  0  0  0  0  0  0
   -3.1616    2.1989   -1.2079 C   0  0  0  0  0  0  0  0  0  0  0  0
   -3.9618    3.4396   -0.8875 C   0  0  1  0  0  0  0  0  0  0  0  0
   -4.8894    2.9704    0.2260 C   0  0  1  0  0  0  0  0  0  0  0  0
   -6.2171    2.4400   -0.2982 C   0  0  0  0  0  0  0  0  0  0  0  0
   -3.7851   -0.8937    0.0550 C   0  0  0  0  0  0  0  0  0  0  0  0
   -1.6061   -0.6068    0.0519 C   0  0  0  0  0  0  0  0  0  0  0  0
   -3.1107   -2.0891   -0.0058 C   0  0  0  0  0  0  0  0  0  0  0  0
   -3.8585   -3.3148   -0.0571 C   0  0  0  0  0  0  0  0  0  0  0  0
    0.9495   -0.2431    0.0501 C   0  0  0  0  0  0  0  0  0  0  0  0
   -5.8276   -1.7743    0.0296 C   0  0  0  0  0  0  0  0  0  0  0  0
    3.1218    0.1553    0.0528 C   0  0  0  0  0  0  0  0  0  0  0  0
    2.8465   -1.2061   -0.0087 C   0  0  0  0  0  0  0  0  0  0  0  0
    1.6448    2.1744    0.1572 C   0  0  0  0  0  0  0  0  0  0  0  0
    4.4238    0.6433    0.0662 C   0  0  0  0  0  0  0  0  0  0  0  0
    5.4268   -0.3209    0.0139 C   0  0  0  0  0  0  0  0  0  0  0  0
    5.0741   -1.6650   -0.0462 C   0  0  0  0  0  0  0  0  0  0  0  0
    6.8177    0.0723    0.0221 C   0  0  0  0  0  0  0  0  0  0  0  0
    7.7687   -0.7155   -0.6264 C   0  0  0  0  0  0  0  0  0  0  0  0
    7.2089    1.2393    0.6781 C   0  0  0  0  0  0  0  0  0  0  0  0
    9.1112   -0.3363   -0.6188 C   0  0  0  0  0  0  0  0  0  0  0  0
    8.5512    1.6186    0.6858 C   0  0  0  0  0  0  0  0  0  0  0  0
    9.5024    0.8307    0.0374 C   0  0  0  0  0  0  0  0  0  0  0  0
   -2.1906    1.9662    0.7400 H   0  0  0  0  0  0  0  0  0  0  0  0
   -3.7270    1.5521   -1.8891 H   0  0  0  0  0  0  0  0  0  0  0  0
   -2.1843    2.4033   -1.6561 H   0  0  0  0  0  0  0  0  0  0  0  0
   -4.4780    3.8577   -1.7564 H   0  0  0  0  0  0  0  0  0  0  0  0
   -5.0671    3.7480    0.9773 H   0  0  0  0  0  0  0  0  0  0  0  0
   -6.0814    1.5865   -0.9680 H   0  0  0  0  0  0  0  0  0  0  0  0
   -6.7609    3.2253   -0.8329 H   0  0  0  0  0  0  0  0  0  0  0  0
   -3.6104    5.2050   -0.1358 H   0  0  0  0  0  0  0  0  0  0  0  0
   -0.5791    1.1144    0.0875 H   0  0  0  0  0  0  0  0  0  0  0  0
   -7.8450    1.6889    0.4442 H   0  0  0  0  0  0  0  0  0  0  0  0
   -5.8606   -3.8595   -0.0672 H   0  0  0  0  0  0  0  0  0  0  0  0
    1.0894    2.4713   -0.7364 H   0  0  0  0  0  0  0  0  0  0  0  0
    2.5863    2.7247    0.1975 H   0  0  0  0  0  0  0  0  0  0  0  0
    1.0668    2.3830    1.0613 H   0  0  0  0  0  0  0  0  0  0  0  0
    4.6171    1.7084    0.0865 H   0  0  0  0  0  0  0  0  0  0  0  0
   -7.7123   -0.8851    0.0846 H   0  0  0  0  0  0  0  0  0  0  0  0
   -7.7378   -2.6163    0.0048 H   0  0  0  0  0  0  0  0  0  0  0  0
    5.8187   -2.4570   -0.0561 H   0  0  0  0  0  0  0  0  0  0  0  0
    7.5068   -1.6158   -1.1753 H   0  0  0  0  0  0  0  0  0  0  0  0
    6.5080    1.8683    1.2201 H   0  0  0  0  0  0  0  0  0  0  0  0
    9.8512   -0.9458   -1.1292 H   0  0  0  0  0  0  0  0  0  0  0  0
    8.8575    2.5239    1.2018 H   0  0  0  0  0  0  0  0  0  0  0  0
   10.5475    1.1260    0.0434 H   0  0  0  0  0  0  0  0  0  0  0  0
  1 14  1  0  0  0  0
  1 17  1  0  0  0  0
  2 16  1  0  0  0  0
  2 44  1  0  0  0  0
  3 18  1  0  0  0  0
  3 46  1  0  0  0  0
  4 22  2  0  0  0  0
  5 14  1  0  0  0  0
  5 19  1  0  0  0  0
  5 20  1  0  0  0  0
  6 20  2  0  0  0  0
  6 21  1  0  0  0  0
  7 20  1  0  0  0  0
  7 23  1  0  0  0  0
  7 45  1  0  0  0  0
  8 19  1  0  0  0  0
  8 24  2  0  0  0  0
  9 23  1  0  0  0  0
  9 25  1  0  0  0  0
  9 27  1  0  0  0  0
 10 22  1  0  0  0  0
 10 24  1  0  0  0  0
 10 47  1  0  0  0  0
 11 23  2  0  0  0  0
 11 26  1  0  0  0  0
 12 24  1  0  0  0  0
 12 52  1  0  0  0  0
 12 53  1  0  0  0  0
 13 26  1  0  0  0  0
 13 30  2  0  0  0  0
 14 15  1  0  0  0  0
 14 37  1  0  0  0  0
 15 16  1  0  0  0  0
 15 38  1  0  0  0  0
 15 39  1  0  0  0  0
 16 17  1  0  0  0  0
 16 40  1  0  0  0  0
 17 18  1  0  0  0  0
 17 41  1  0  0  0  0
 18 42  1  0  0  0  0
 18 43  1  0  0  0  0
 19 21  2  0  0  0  0
 21 22  1  0  0  0  0
 25 26  2  0  0  0  0
 25 28  1  0  0  0  0
 27 48  1  0  0  0  0
 27 49  1  0  0  0  0
 27 50  1  0  0  0  0
 28 29  2  0  0  0  0
 28 51  1  0  0  0  0
 29 30  1  0  0  0  0
 29 31  1  0  0  0  0
 30 54  1  0  0  0  0
 31 32  2  0  0  0  0
 31 33  1  0  0  0  0
 32 34  1  0  0  0  0
 32 55  1  0  0  0  0
 33 35  2  0  0  0  0
 33 56  1  0  0  0  0
 34 36  2  0  0  0  0
 34 57  1  0  0  0  0
 35 36  1  0  0  0  0
 35 58  1  0  0  0  0
 36 59  1  0  0  0  0
M  END
> <PUBCHEM_COMPOUND_CID>
135659020

> <PUBCHEM_CONFORMER_RMSD>
1

> <PUBCHEM_CONFORMER_DIVERSEORDER>
1
15
35
25
36
14
33
20
16
26
42
18
34
41
31
30
2
9
32
29
23
17
28
5
19
7
8
24
12
37
43
45
40
39
44
6
4
3
21
10
13
46
22
27
11
38

> <PUBCHEM_MMFF94_PARTIAL_CHARGES>
46
1 -0.56
10 -0.49
11 -0.57
12 -0.85
13 -0.57
14 0.54
16 0.28
17 0.28
18 0.28
19 -0.03
2 -0.68
20 0.27
21 0.14
22 0.72
23 0.27
24 0.56
25 -0.15
26 0.48
27 0.26
28 -0.15
3 -0.68
30 0.16
32 -0.15
33 -0.15
34 -0.15
35 -0.15
36 -0.15
4 -0.57
44 0.4
45 0.4
46 0.4
47 0.37
5 0.05
51 0.15
52 0.4
53 0.4
54 0.15
55 0.15
56 0.15
57 0.15
58 0.15
59 0.15
6 -0.57
7 -0.57
8 -0.58
9 0.05

> <PUBCHEM_EFFECTIVE_ROTOR_COUNT>
6

> <PUBCHEM_PHARMACOPHORE_FEATURES>
18
1 1 acceptor
1 10 donor
1 12 donor
1 13 acceptor
1 2 acceptor
1 2 donor
1 3 acceptor
1 3 donor
1 4 acceptor
1 7 donor
4 5 6 7 20 cation
4 7 9 11 23 cation
5 1 14 15 16 17 rings
5 5 6 19 20 21 rings
5 9 11 23 25 26 rings
6 13 25 26 28 29 30 rings
6 31 32 33 34 35 36 rings
6 8 10 19 21 22 24 rings

> <PUBCHEM_HEAVY_ATOM_COUNT>
36

> <PUBCHEM_ATOM_DEF_STEREO_COUNT>
3

> <PUBCHEM_ATOM_UDEF_STEREO_COUNT>
0

> <PUBCHEM_BOND_DEF_STEREO_COUNT>
0

> <PUBCHEM_BOND_UDEF_STEREO_COUNT>
0

> <PUBCHEM_ISOTOPIC_ATOM_COUNT>
0

> <PUBCHEM_COMPONENT_COUNT>
1

> <PUBCHEM_CACTVS_TAUTO_COUNT>
-1

> <PUBCHEM_CONFORMER_ID>
0815FE0C00000001

> <PUBCHEM_MMFF94_ENERGY>
100.2371

> <PUBCHEM_FEATURE_SELFOVERLAP>
91.672

> <PUBCHEM_SHAPE_FINGERPRINT>
10 15 18187086109577028352
10050765 1 18337670794470345826
100830 39 18410292510174753484
10165383 225 18270685256446113897
10190206 1 18337098009257633839
10411042 1 18050005795208490283
10580692 12 18411138056893190034
10835480 77 18342737382610300188
11007060 377 18335990817374063242
11315181 36 18187364354669487471
11756154 67 18408324410901666789
12082328 90 18411979153086686862
12107183 9 17902221218058713218
13811026 1 18341892996482579900
13885169 127 18411138052308254230
14118638 360 18187641388803339386
14856354 85 18337115669293171638
150020 25 18130514059612568406
15064986 266 18412827967347021919
15347591 1 18338232640248069334
15361156 5 18191311674169658703
15461852 350 17346309414812883077
15510794 2 18131073719652903702
15604295 49 18271801380881011064
1577012 14 18261387820006195778
15890870 6 18266175042521829173
16087824 20 18408884011455427741
16126227 98 18340209583766505137
16989713 51 17845084241533171078
17686467 74 18042123331364629400
18603816 31 13623829245174686609
18608769 82 18411699893759414081
21033648 29 17774421850704586682
21130935 74 18335697222959966330
21236236 1 18412544293747579391
21779490 94 17701809102749761128
21792961 116 17703512121526908410
23522609 53 17749971977011632340
23559900 14 18268704090325310667
24771293 8 18114183073651304908
249057 25 17749395909947935964
32027 91 17841162047982759878
335507 130 18335989748448984318
350125 39 18411419501678496633
4073 2 18334017190145237066
4098825 35 18410855469135107512
44280117 145 18129379461405590143
58083652 198 15864074308253166116
6698420 124 17914349978480300545
70634741 139 18343303669041128427
9831232 110 18199755735848516590

> <PUBCHEM_SHAPE_MULTIPOLES>
672.56
26.23
4.26
0.75
47.05
0.32
-0.05
4.39
0.49
-10.66
-0.41
0.04
0.29
0.94

> <PUBCHEM_SHAPE_SELFOVERLAP>
1504.201

> <PUBCHEM_SHAPE_VOLUME>
350.6

> <PUBCHEM_COORDINATE_TYPE>
2
5
10

$$$$
