135625324
  -OEChem-03292013293D

 58 60  0     1  0  0  0  0  0999 V2000
    1.4487   -2.7670   -2.2251 O   0  0  0  0  0  0  0  0  0  0  0  0
    5.4119   -2.8480    0.3356 O   0  0  0  0  0  0  0  0  0  0  0  0
    3.5077   -3.1783    1.5252 O   0  0  0  0  0  0  0  0  0  0  0  0
    4.3532    2.5152    1.9730 O   0  0  0  0  0  0  0  0  0  0  0  0
   -2.3349    2.1865   -2.5286 O   0  0  0  0  0  0  0  0  0  0  0  0
    4.9771    2.3768   -0.2038 O   0  0  0  0  0  0  0  0  0  0  0  0
    2.0265   -1.7645   -0.2150 N   0  0  0  0  0  0  0  0  0  0  0  0
   -2.8940    1.3059   -0.0170 N   0  0  0  0  0  0  0  0  0  0  0  0
   -0.9175    1.7075    1.9404 N   0  0  0  0  0  0  0  0  0  0  0  0
    0.4898    2.7332    0.3719 N   0  0  0  0  0  0  0  0  0  0  0  0
   -0.2548    2.9548   -1.8537 N   0  0  0  0  0  0  0  0  0  0  0  0
    1.8573    3.7513   -1.2390 N   0  0  0  0  0  0  0  0  0  0  0  0
   -5.0353   -0.5670    0.4710 C   0  0  2  0  0  0  0  0  0  0  0  0
   -4.4448   -1.9957    0.2973 C   0  0  0  0  0  0  0  0  0  0  0  0
   -4.3660    0.2347    1.6136 C   0  0  0  0  0  0  0  0  0  0  0  0
   -3.0022   -2.0704   -0.0745 C   0  0  0  0  0  0  0  0  0  0  0  0
   -6.5400   -0.6729    0.7607 C   0  0  0  0  0  0  0  0  0  0  0  0
   -3.0638    0.9104    1.2588 C   0  0  0  0  0  0  0  0  0  0  0  0
   -2.0268   -2.1234    0.9212 C   0  0  0  0  0  0  0  0  0  0  0  0
   -2.6288   -2.0874   -1.4184 C   0  0  0  0  0  0  0  0  0  0  0  0
    3.4497   -1.7408   -0.4400 C   0  0  1  0  0  0  0  0  0  0  0  0
   -0.3045   -2.2102   -0.7709 C   0  0  0  0  0  0  0  0  0  0  0  0
    4.0232   -0.3187   -0.4554 C   0  0  0  0  0  0  0  0  0  0  0  0
   -0.6779   -2.1934    0.5730 C   0  0  0  0  0  0  0  0  0  0  0  0
   -1.2800   -2.1573   -1.7666 C   0  0  0  0  0  0  0  0  0  0  0  0
   -2.0944    1.1074    2.2190 C   0  0  0  0  0  0  0  0  0  0  0  0
    1.1323   -2.2838   -1.1412 C   0  0  0  0  0  0  0  0  0  0  0  0
    3.8826    0.4730    0.8508 C   0  0  0  0  0  0  0  0  0  0  0  0
   -1.7163    1.9034   -0.2832 C   0  0  0  0  0  0  0  0  0  0  0  0
   -0.7328    2.1093    0.6659 C   0  0  0  0  0  0  0  0  0  0  0  0
    4.0918   -2.6483    0.5891 C   0  0  0  0  0  0  0  0  0  0  0  0
   -1.4871    2.3513   -1.6605 C   0  0  0  0  0  0  0  0  0  0  0  0
    4.4527    1.8731    0.7797 C   0  0  0  0  0  0  0  0  0  0  0  0
    0.6975    3.1330   -0.8530 C   0  0  0  0  0  0  0  0  0  0  0  0
   -4.9340   -0.0304   -0.4807 H   0  0  0  0  0  0  0  0  0  0  0  0
   -4.6062   -2.5679    1.2217 H   0  0  0  0  0  0  0  0  0  0  0  0
   -5.0303   -2.5300   -0.4640 H   0  0  0  0  0  0  0  0  0  0  0  0
   -4.2257   -0.4209    2.4825 H   0  0  0  0  0  0  0  0  0  0  0  0
   -5.0388    1.0394    1.9387 H   0  0  0  0  0  0  0  0  0  0  0  0
   -6.7261   -1.1923    1.7069 H   0  0  0  0  0  0  0  0  0  0  0  0
   -7.0509   -1.2243   -0.0358 H   0  0  0  0  0  0  0  0  0  0  0  0
   -6.9971    0.3205    0.8206 H   0  0  0  0  0  0  0  0  0  0  0  0
   -2.3036   -2.1296    1.9721 H   0  0  0  0  0  0  0  0  0  0  0  0
   -3.3791   -2.0419   -2.2034 H   0  0  0  0  0  0  0  0  0  0  0  0
    3.6503   -2.1986   -1.4165 H   0  0  0  0  0  0  0  0  0  0  0  0
    5.0877   -0.3643   -0.7199 H   0  0  0  0  0  0  0  0  0  0  0  0
    3.5355    0.2481   -1.2600 H   0  0  0  0  0  0  0  0  0  0  0  0
    0.0449   -2.2678    1.3798 H   0  0  0  0  0  0  0  0  0  0  0  0
   -1.0088   -2.1630   -2.8189 H   0  0  0  0  0  0  0  0  0  0  0  0
   -2.2234    0.7928    3.2480 H   0  0  0  0  0  0  0  0  0  0  0  0
    1.6934   -1.3603    0.6532 H   0  0  0  0  0  0  0  0  0  0  0  0
    4.4025   -0.0555    1.6574 H   0  0  0  0  0  0  0  0  0  0  0  0
    2.8240    0.5670    1.1161 H   0  0  0  0  0  0  0  0  0  0  0  0
   -0.0324    3.2882   -2.7871 H   0  0  0  0  0  0  0  0  0  0  0  0
    5.8234   -3.4483    0.9933 H   0  0  0  0  0  0  0  0  0  0  0  0
    4.7374    3.4171    1.9356 H   0  0  0  0  0  0  0  0  0  0  0  0
    2.6063    3.9229   -0.5772 H   0  0  0  0  0  0  0  0  0  0  0  0
    2.0022    4.0545   -2.1958 H   0  0  0  0  0  0  0  0  0  0  0  0
  1 27  2  0  0  0  0
  2 31  1  0  0  0  0
  2 55  1  0  0  0  0
  3 31  2  0  0  0  0
  4 33  1  0  0  0  0
  4 56  1  0  0  0  0
  5 32  2  0  0  0  0
  6 33  2  0  0  0  0
  7 21  1  0  0  0  0
  7 27  1  0  0  0  0
  7 51  1  0  0  0  0
  8 18  1  0  0  0  0
  8 29  2  0  0  0  0
  9 26  1  0  0  0  0
  9 30  2  0  0  0  0
 10 30  1  0  0  0  0
 10 34  2  0  0  0  0
 11 32  1  0  0  0  0
 11 34  1  0  0  0  0
 11 54  1  0  0  0  0
 12 34  1  0  0  0  0
 12 57  1  0  0  0  0
 12 58  1  0  0  0  0
 13 14  1  0  0  0  0
 13 15  1  0  0  0  0
 13 17  1  0  0  0  0
 13 35  1  0  0  0  0
 14 16  1  0  0  0  0
 14 36  1  0  0  0  0
 14 37  1  0  0  0  0
 15 18  1  0  0  0  0
 15 38  1  0  0  0  0
 15 39  1  0  0  0  0
 16 19  2  0  0  0  0
 16 20  1  0  0  0  0
 17 40  1  0  0  0  0
 17 41  1  0  0  0  0
 17 42  1  0  0  0  0
 18 26  2  0  0  0  0
 19 24  1  0  0  0  0
 19 43  1  0  0  0  0
 20 25  2  0  0  0  0
 20 44  1  0  0  0  0
 21 23  1  0  0  0  0
 21 31  1  0  0  0  0
 21 45  1  0  0  0  0
 22 24  2  0  0  0  0
 22 25  1  0  0  0  0
 22 27  1  0  0  0  0
 23 28  1  0  0  0  0
 23 46  1  0  0  0  0
 23 47  1  0  0  0  0
 24 48  1  0  0  0  0
 25 49  1  0  0  0  0
 26 50  1  0  0  0  0
 28 33  1  0  0  0  0
 28 52  1  0  0  0  0
 28 53  1  0  0  0  0
 29 30  1  0  0  0  0
 29 32  1  0  0  0  0
M  END
> <PUBCHEM_COMPOUND_CID>
135625324

> <PUBCHEM_CONFORMER_RMSD>
1.2

> <PUBCHEM_CONFORMER_DIVERSEORDER>
1
84
80
32
171
111
141
3
48
71
200
60
150
51
121
195
173
140
42
192
4
194
160
67
76
25
198
135
26
176
177
2
115
21
159
183
75
29
144
47
148
65
186
35
7
149
187
147
85
170
175
79
61
120
69
95
130
70
36
66
45
161
19
18
178
38
97
34
8
87
119
28
165
126
81
11
188
44
98
127
125
13
23
179
157
189
145
43
122
56
12
73
197
10
57
33
137
41
100
123
163
17
50
30
129
191
31
196
102
58
112
132
64
182
162
89
77
5
83
104
110
113
59
94
99
53
96
107
63
49
82
172
167
180
20
184
117
124
199
46
72
168
37
152
155
153
128
146
93
133
134
39
15
116
68
109
55
74
90
27
6
166
142
131
9
136
185
138
92
62
143
78
164
101
106
108
22
154
40
181
151
190
118
193
16
114
169
14
105
156
88
24
158
103
174
86
91
54
52
139

> <PUBCHEM_MMFF94_PARTIAL_CHARGES>
42
1 -0.57
10 -0.63
11 -0.49
12 -0.85
14 0.14
15 0.14
16 -0.14
18 0.17
19 -0.15
2 -0.65
20 -0.15
21 0.36
22 0.09
24 -0.15
25 -0.15
26 0.16
27 0.54
28 0.06
29 0.4
3 -0.57
30 0.49
31 0.66
32 0.54
33 0.66
34 0.56
4 -0.65
43 0.15
44 0.15
48 0.15
49 0.15
5 -0.57
50 0.15
51 0.37
54 0.37
55 0.5
56 0.5
57 0.4
58 0.4
6 -0.57
7 -0.73
8 -0.62
9 -0.62

> <PUBCHEM_EFFECTIVE_ROTOR_COUNT>
11

> <PUBCHEM_PHARMACOPHORE_FEATURES>
17
1 1 acceptor
1 11 donor
1 12 donor
1 17 hydrophobe
1 2 acceptor
1 3 acceptor
1 4 acceptor
1 5 acceptor
1 6 acceptor
1 7 donor
1 8 acceptor
3 2 3 31 anion
3 4 6 33 anion
3 9 10 30 cation
6 10 11 29 30 32 34 rings
6 16 19 20 22 24 25 rings
6 8 9 18 26 29 30 rings

> <PUBCHEM_HEAVY_ATOM_COUNT>
34

> <PUBCHEM_ATOM_DEF_STEREO_COUNT>
1

> <PUBCHEM_ATOM_UDEF_STEREO_COUNT>
1

> <PUBCHEM_BOND_DEF_STEREO_COUNT>
0

> <PUBCHEM_BOND_UDEF_STEREO_COUNT>
0

> <PUBCHEM_ISOTOPIC_ATOM_COUNT>
0

> <PUBCHEM_COMPONENT_COUNT>
1

> <PUBCHEM_CACTVS_TAUTO_COUNT>
-1

> <PUBCHEM_CONFORMER_ID>
08157A6C00000001

> <PUBCHEM_MMFF94_ENERGY>
78.73

> <PUBCHEM_FEATURE_SELFOVERLAP>
86.482

> <PUBCHEM_SHAPE_FINGERPRINT>
10653451 467 17397564013011032617
10675989 125 16113714313135664511
11513181 2 17631461210057381726
11595378 159 18117568318390109850
12156800 1 16081908379348085773
12422481 6 18409453591936222041
12633257 1 18127981801985733434
13140716 1 18341048519596284346
133893 2 17757035316890970225
13583140 156 17898568674938438554
14004853 49 17762625387861255928
14840074 17 18190465050379691180
15297060 5 17488479627049218754
20764821 26 17415809553642543130
21623110 236 18273221880703819483
238 59 17763159372760285572
25019877 29 16917065526033613231
392239 28 18058459716153006363
469060 322 18042677472208160820
5265222 85 17763466514367358552
6287921 2 17485112720549610167

> <PUBCHEM_SHAPE_MULTIPOLES>
634.6
10.6
4.99
2
1.71
1.02
-0.37
-2.98
4.43
3.96
-1.35
-0.5
0.71
-0.04

> <PUBCHEM_SHAPE_SELFOVERLAP>
1350.836

> <PUBCHEM_SHAPE_VOLUME>
348.9

> <PUBCHEM_COORDINATE_TYPE>
2
5
10

$$$$
