REMARK  Name = 135625266
REMARK  6 active torsions:
REMARK  status: ('A' for Active; 'I' for Inactive)
REMARK    1  A    between atoms: N_2  and  C1*_17
REMARK    2  A    between atoms: N_3  and  C_26
REMARK    3  A    between atoms: C3*_19  and  O3*_21
REMARK    4  A    between atoms: C4*_20  and  C5*_23
REMARK    5  A    between atoms: C5*_23  and  O5*_24
REMARK    6  A    between atoms: C_26  and  C_28
REMARK                            x       y       z     vdW  Elec       q    Type
REMARK                         _______ _______ _______ _____ _____    ______ ____
ROOT
ATOM      1  O   UNL     1      -4.317  -0.480   0.587  0.00  0.00    -0.273 OA
ATOM      2  N   UNL     1       0.203   0.046  -0.030  0.00  0.00    -0.247 N 
ATOM      3  N   UNL     1      -1.362  -1.334   0.532  0.00  0.00    -0.240 NA
ATOM      4  N   UNL     1      -1.147   2.052  -0.474  0.00  0.00    -0.361 NA
ATOM      5  N   UNL     1      -3.462   1.556  -0.092  0.00  0.00    -0.246 N 
ATOM      6  N   UNL     1      -2.789   3.696  -0.783  0.00  0.00    -0.321 N 
ATOM      7  C   UNL     1      -0.980   0.753  -0.113  0.00  0.00    +0.189 C 
ATOM      8  C   UNL     1      -0.042  -1.210   0.360  0.00  0.00    +0.173 C 
ATOM      9  C   UNL     1      -1.971  -0.137   0.247  0.00  0.00    +0.204 C 
ATOM     10  C   UNL     1      -3.346   0.210   0.287  0.00  0.00    +0.252 C 
ATOM     11  C   UNL     1      -2.406   2.421  -0.452  0.00  0.00    +0.239 C 
ATOM     12  H   UNL     1      -4.370   1.935  -0.108  0.00  0.00    +0.159 HD
ATOM     13  H   UNL     1      -2.111   4.361  -1.046  0.00  0.00    +0.146 HD
ATOM     14  H   UNL     1      -3.740   3.947  -0.758  0.00  0.00    +0.146 HD
ENDROOT
BRANCH   2  17
ATOM     15  O4* UNL     1       2.400  -0.428  -0.939  0.00  0.00    -0.333 OA
ATOM     16  O2* UNL     1       2.072   2.350   1.170  0.00  0.00    -0.216 OA
ATOM     17  C1* UNL     1       1.580   0.598  -0.333  0.00  0.00    +0.229 C 
ATOM     18  C2* UNL     1       2.353   1.087   0.910  0.00  0.00    +0.227 C 
ATOM     19  C3* UNL     1       3.803   0.924   0.426  0.00  0.00    +0.175 C 
ATOM     20  C4* UNL     1       3.740  -0.352  -0.411  0.00  0.00    +0.176 C 
BRANCH  19  21
ATOM     21  O3* UNL     1       4.238   1.988  -0.428  0.00  0.00    -0.379 OA
ATOM     22  H3* UNL     1       4.287   2.812   0.082  0.00  0.00    +0.211 HD
ENDBRANCH  19  21
BRANCH  20  23
ATOM     23  C5* UNL     1       4.009  -1.613   0.398  0.00  0.00    +0.169 C 
BRANCH  23  24
ATOM     24  O5* UNL     1       3.916  -2.734  -0.465  0.00  0.00    -0.379 OA
ATOM     25  H5* UNL     1       4.086  -3.545   0.039  0.00  0.00    +0.211 HD
ENDBRANCH  23  24
ENDBRANCH  20  23
ENDBRANCH   2  17
BRANCH   3  26
ATOM     26  C   UNL     1      -2.022  -2.552   0.955  0.00  0.00    +0.113 C 
BRANCH  26  28
ATOM     27  F   UNL     1      -1.769  -3.581  -1.144  0.00  0.00    -0.233 F 
ATOM     28  C   UNL     1      -2.701  -3.261  -0.206  0.00  0.00    +0.211 C 
ENDBRANCH  26  28
ENDBRANCH   3  26
TORSDOF 6
