135600316
  -OEChem-03292013293D

 39 41  0     1  0  0  0  0  0999 V2000
    4.7865    1.1505    0.7815 P   0  0  0  0  0  0  0  0  0  0  0  0
    1.7921   -2.3032   -2.4872 O   0  0  0  0  0  0  0  0  0  0  0  0
    3.6324    0.0158    0.7412 O   0  0  0  0  0  0  0  0  0  0  0  0
    5.7792    0.6983   -0.4123 O   0  0  0  0  0  0  0  0  0  0  0  0
    4.0561    2.4624    0.1810 O   0  0  0  0  0  0  0  0  0  0  0  0
    5.4451    1.3375    2.1170 O   0  0  0  0  0  0  0  0  0  0  0  0
   -5.2939    1.3870    0.7444 O   0  0  0  0  0  0  0  0  0  0  0  0
   -1.6333   -1.2616    0.7522 N   0  0  0  0  0  0  0  0  0  0  0  0
   -3.6482   -0.9114    1.6573 N   0  0  0  0  0  0  0  0  0  0  0  0
   -1.5272    0.5759   -0.8198 N   0  0  0  0  0  0  0  0  0  0  0  0
   -3.5322    1.8828   -0.7061 N   0  0  0  0  0  0  0  0  0  0  0  0
   -1.8051    2.4572   -2.1997 N   0  0  0  0  0  0  0  0  0  0  0  0
    1.9320   -1.3215   -0.2715 C   0  0  1  0  0  0  0  0  0  0  0  0
   -0.2940   -1.9162    0.4975 C   0  0  2  0  0  0  0  0  0  0  0  0
    0.8893   -0.9715    0.7885 C   0  0  0  0  0  0  0  0  0  0  0  0
    1.0706   -1.5869   -1.5029 C   0  0  2  0  0  0  0  0  0  0  0  0
   -0.0886   -2.4113   -0.9488 C   0  0  0  0  0  0  0  0  0  0  0  0
    2.9613   -0.2223   -0.4842 C   0  0  0  0  0  0  0  0  0  0  0  0
   -2.1386   -0.1525    0.1404 C   0  0  0  0  0  0  0  0  0  0  0  0
   -2.5780   -1.6818    1.6566 C   0  0  0  0  0  0  0  0  0  0  0  0
   -3.3719    0.0356    0.7159 C   0  0  0  0  0  0  0  0  0  0  0  0
   -4.1842    1.1412    0.2891 C   0  0  0  0  0  0  0  0  0  0  0  0
   -2.2493    1.5960   -1.2300 C   0  0  0  0  0  0  0  0  0  0  0  0
    2.4584   -2.2377    0.0309 H   0  0  0  0  0  0  0  0  0  0  0  0
   -0.2685   -2.7744    1.1812 H   0  0  0  0  0  0  0  0  0  0  0  0
    1.2768   -1.1343    1.8005 H   0  0  0  0  0  0  0  0  0  0  0  0
    0.6050    0.0845    0.7241 H   0  0  0  0  0  0  0  0  0  0  0  0
    0.7096   -0.6512   -1.9447 H   0  0  0  0  0  0  0  0  0  0  0  0
    0.1757   -3.4765   -0.9409 H   0  0  0  0  0  0  0  0  0  0  0  0
   -0.9813   -2.3175   -1.5761 H   0  0  0  0  0  0  0  0  0  0  0  0
    2.4770    0.7012   -0.8191 H   0  0  0  0  0  0  0  0  0  0  0  0
    3.6850   -0.5293   -1.2460 H   0  0  0  0  0  0  0  0  0  0  0  0
    1.1704   -2.5225   -3.2020 H   0  0  0  0  0  0  0  0  0  0  0  0
   -2.4305   -2.5508    2.2831 H   0  0  0  0  0  0  0  0  0  0  0  0
   -4.0206    2.6911   -1.0807 H   0  0  0  0  0  0  0  0  0  0  0  0
    4.5442    3.3131    0.1679 H   0  0  0  0  0  0  0  0  0  0  0  0
    6.6230    1.1827   -0.5369 H   0  0  0  0  0  0  0  0  0  0  0  0
   -0.8976    2.3337   -2.6353 H   0  0  0  0  0  0  0  0  0  0  0  0
   -2.3688    3.2411   -2.5097 H   0  0  0  0  0  0  0  0  0  0  0  0
  1  3  1  0  0  0  0
  1  4  1  0  0  0  0
  1  5  1  0  0  0  0
  1  6  2  0  0  0  0
  2 16  1  0  0  0  0
  2 33  1  0  0  0  0
  3 18  1  0  0  0  0
  4 37  1  0  0  0  0
  5 36  1  0  0  0  0
  7 22  2  0  0  0  0
  8 14  1  0  0  0  0
  8 19  1  0  0  0  0
  8 20  1  0  0  0  0
  9 20  2  0  0  0  0
  9 21  1  0  0  0  0
 10 19  1  0  0  0  0
 10 23  2  0  0  0  0
 11 22  1  0  0  0  0
 11 23  1  0  0  0  0
 11 35  1  0  0  0  0
 12 23  1  0  0  0  0
 12 38  1  0  0  0  0
 12 39  1  0  0  0  0
 13 15  1  0  0  0  0
 13 16  1  0  0  0  0
 13 18  1  0  0  0  0
 13 24  1  0  0  0  0
 14 15  1  0  0  0  0
 14 17  1  0  0  0  0
 14 25  1  0  0  0  0
 15 26  1  0  0  0  0
 15 27  1  0  0  0  0
 16 17  1  0  0  0  0
 16 28  1  0  0  0  0
 17 29  1  0  0  0  0
 17 30  1  0  0  0  0
 18 31  1  0  0  0  0
 18 32  1  0  0  0  0
 19 21  2  0  0  0  0
 20 34  1  0  0  0  0
 21 22  1  0  0  0  0
M  END
> <PUBCHEM_COMPOUND_CID>
135600316

> <PUBCHEM_CONFORMER_RMSD>
0.8

> <PUBCHEM_CONFORMER_DIVERSEORDER>
1
40
22
18
8
37
12
11
7
2
10
31
19
13
21
6
35
17
14
24
25
15
9
23
27
36
33
20
32
39
4
38
30
34
16
5
3
28
29
26

> <PUBCHEM_MMFF94_PARTIAL_CHARGES>
27
1 1.51
10 -0.58
11 -0.49
12 -0.85
14 0.26
16 0.28
18 0.28
19 -0.03
2 -0.68
20 0.04
21 0.14
22 0.72
23 0.56
3 -0.55
33 0.4
34 0.15
35 0.37
36 0.5
37 0.5
38 0.4
39 0.4
4 -0.77
5 -0.77
6 -0.7
7 -0.57
8 0.05
9 -0.57

> <PUBCHEM_EFFECTIVE_ROTOR_COUNT>
5

> <PUBCHEM_PHARMACOPHORE_FEATURES>
13
1 11 donor
1 12 donor
1 2 acceptor
1 2 donor
1 4 acceptor
1 5 acceptor
1 6 acceptor
1 7 acceptor
3 8 9 20 cation
4 1 4 5 6 anion
5 13 14 15 16 17 rings
5 8 9 19 20 21 rings
6 10 11 19 21 22 23 rings

> <PUBCHEM_HEAVY_ATOM_COUNT>
23

> <PUBCHEM_ATOM_DEF_STEREO_COUNT>
3

> <PUBCHEM_ATOM_UDEF_STEREO_COUNT>
0

> <PUBCHEM_BOND_DEF_STEREO_COUNT>
0

> <PUBCHEM_BOND_UDEF_STEREO_COUNT>
0

> <PUBCHEM_ISOTOPIC_ATOM_COUNT>
0

> <PUBCHEM_COMPONENT_COUNT>
1

> <PUBCHEM_CACTVS_TAUTO_COUNT>
-1

> <PUBCHEM_CONFORMER_ID>
081518BC00000001

> <PUBCHEM_MMFF94_ENERGY>
17.5137

> <PUBCHEM_FEATURE_SELFOVERLAP>
66.185

> <PUBCHEM_SHAPE_FINGERPRINT>
10319926 262 18113898239387566122
105312 117 17917145109000075310
11552529 35 16589717992282808202
11595378 159 16732982012129267212
11725454 13 18412819188238768122
11796584 16 9583250400614357626
12035758 1 17895773833098993361
12403259 118 18337667650226666288
12596602 18 15574718014761852304
12633257 1 17894354397013556940
12892183 10 17603581941815734722
12969540 114 17704066326699854026
13103583 49 13334737873575517181
13402501 40 18408885118159433913
13544653 18 11674870096548982810
13583140 156 17459445858744874412
13965767 371 15941465375151432381
14081887 123 18040438759069999549
14251764 30 13469259986087335157
14341114 328 17385726911090291576
14932701 244 15981696874994520828
14950920 106 17023732559279363312
15342168 16 18060421291956702861
1813 80 13984945065830786042
18915476 22 17988093183667501198
193927 3 7925635535634443090
20871999 31 12391516394675120650
21033648 29 18341890827413468976
21591340 35 16892836447022268252
21756936 100 18189610722082552146
23403322 49 9151180847938266376
23557571 272 18189922901105813123
23559900 14 17970649405680555022
24771293 8 18261399910803890149
27216 239 18408882970828227779
2838139 119 18271232859816364648
34797466 226 17844811387589336245
574716 61 16056876940379589668
57527585 21 18128803167073728413
633830 44 16558485148888131866
9862522 239 18340756152635018372
9925002 15 17550676946859414135

> <PUBCHEM_SHAPE_MULTIPOLES>
417.06
10.51
2.72
1.84
9.04
0.16
-0.47
7.93
4.56
-0.08
-0.96
0.29
-0.23
2.48

> <PUBCHEM_SHAPE_SELFOVERLAP>
878.598

> <PUBCHEM_SHAPE_VOLUME>
237.2

> <PUBCHEM_COORDINATE_TYPE>
2
5
10

$$$$
