REMARK  Name = 135625319
REMARK  5 active torsions:
REMARK  status: ('A' for Active; 'I' for Inactive)
REMARK    1  A    between atoms: C_2  and  C_21
REMARK    2  A    between atoms: C_3  and  O_17
REMARK    3  A    between atoms: C_4  and  O_19
REMARK    4  A    between atoms: C_5  and  N_7
REMARK    5  A    between atoms: C_21  and  O_23
REMARK                            x       y       z     vdW  Elec       q    Type
REMARK                         _______ _______ _______ _____ _____    ______ ____
ROOT
ATOM      1  O   UNL     1      -1.532  -0.460  -0.998  0.00  0.00    -0.336 OA
ATOM      2  C   UNL     1      -2.792   0.199  -0.748  0.00  0.00    +0.173 C 
ATOM      3  C   UNL     1      -2.481   1.427   0.108  0.00  0.00    +0.171 C 
ATOM      4  C   UNL     1      -1.109   1.128   0.687  0.00  0.00    +0.183 C 
ATOM      5  C   UNL     1      -0.471   0.360  -0.467  0.00  0.00    +0.208 C 
ENDROOT
BRANCH   5   7
ATOM      6  O   UNL     1       1.986   2.214  -0.920  0.00  0.00    -0.272 OA
ATOM      7  N   UNL     1       0.757  -0.433  -0.095  0.00  0.00    -0.208 NA
ATOM      8  N   UNL     1       1.986  -2.160   0.602  0.00  0.00    -0.204 NA
ATOM      9  N   UNL     1       4.006   1.205  -0.410  0.00  0.00    -0.281 N 
ATOM     10  N   UNL     1       4.200  -1.060   0.393  0.00  0.00    -0.200 NA
ATOM     11  C   UNL     1       2.056  -0.018  -0.137  0.00  0.00    +0.224 C 
ATOM     12  C   UNL     1       0.766  -1.728   0.356  0.00  0.00    +0.215 C 
ATOM     13  C   UNL     1       2.795  -1.098   0.296  0.00  0.00    +0.029 C 
ATOM     14  C   UNL     1       2.618   1.238  -0.531  0.00  0.00    +0.253 C 
ATOM     15  C   UNL     1       4.702   0.084   0.035  0.00  0.00    +0.229 C 
ATOM     16  H   UNL     1       4.518   2.011  -0.651  0.00  0.00    +0.151 HD
ENDBRANCH   5   7
BRANCH   3  17
ATOM     17  O   UNL     1      -3.455   1.704   1.091  0.00  0.00    -0.379 OA
ATOM     18  H   UNL     1      -4.305   1.885   0.661  0.00  0.00    +0.211 HD
ENDBRANCH   3  17
BRANCH   4  19
ATOM     19  O   UNL     1      -1.225   0.322   1.856  0.00  0.00    -0.378 OA
ATOM     20  H   UNL     1      -1.634   0.840   2.567  0.00  0.00    +0.211 HD
ENDBRANCH   4  19
BRANCH   2  21
ATOM     21  C   UNL     1      -3.768  -0.805  -0.155  0.00  0.00    +0.140 C 
ATOM     22  C   UNL     1      -4.039  -1.966  -1.102  0.00  0.00    +0.034 C 
BRANCH  21  23
ATOM     23  O   UNL     1      -5.000  -0.150   0.139  0.00  0.00    -0.382 OA
ATOM     24  H   UNL     1      -4.835   0.591   0.743  0.00  0.00    +0.210 HD
ENDBRANCH  21  23
ENDBRANCH   2  21
TORSDOF 5
