REMARK  Name = 135618601
REMARK  13 active torsions:
REMARK  status: ('A' for Active; 'I' for Inactive)
REMARK    1  A    between atoms: C_1  and  N_22
REMARK    2  A    between atoms: C_4  and  C_9
REMARK    3  A    between atoms: N_8  and  CA_11
REMARK    4  A    between atoms: CA_11  and  C_13
REMARK    5  A    between atoms: CA_11  and  CB_16
REMARK    6  A    between atoms: C_13  and  O_14
REMARK    7  A    between atoms: CB_16  and  CG_17
REMARK    8  A    between atoms: CG_17  and  CD_19
REMARK    9  A    between atoms: CD_19  and  OE1_20
REMARK   10  A    between atoms: N_22  and  C_23
REMARK   11  A    between atoms: N_22  and  C_39
REMARK   12  A    between atoms: C_23  and  C_28
REMARK   13  A    between atoms: C_39  and  C_41
REMARK                            x       y       z     vdW  Elec       q    Type
REMARK                         _______ _______ _______ _____ _____    ______ ____
ROOT
ATOM      1  C   UNL     1      -1.828  -2.301  -0.067  0.00  0.00    +0.048 C 
ATOM      2  C   UNL     1      -1.320  -2.362  -1.365  0.00  0.00    +0.015 C 
ATOM      3  C   UNL     1      -0.959  -2.203   1.019  0.00  0.00    +0.015 C 
ATOM      4  C   UNL     1       0.928  -2.227  -0.490  0.00  0.00    +0.053 C 
ATOM      5  C   UNL     1       0.059  -2.325  -1.576  0.00  0.00    +0.006 C 
ATOM      6  C   UNL     1       0.420  -2.166   0.808  0.00  0.00    +0.006 C 
ENDROOT
BRANCH   4   9
ATOM      7  O   UNL     1       2.862  -2.700  -1.729  0.00  0.00    -0.270 OA
ATOM      8  N   UNL     1       3.138  -1.531   0.255  0.00  0.00    -0.293 N 
ATOM      9  C   ACE A   0       2.365  -2.187  -0.711  0.00  0.00    +0.246 C 
ATOM     10  H   UNL     1       2.679  -1.148   1.037  0.00  0.00    +0.150 HD
BRANCH   8  11
ATOM     11  CA  UNL     1       4.574  -1.387   0.166  0.00  0.00    +0.172 C 
BRANCH  11  13
ATOM     12  OXT UNL     1       4.460  -1.503   2.596  0.00  0.00    -0.248 OA
ATOM     13  C   UNL     1       5.130  -1.470   1.573  0.00  0.00    +0.332 C 
BRANCH  13  14
ATOM     14  O   UNL     1       6.487  -1.544   1.577  0.00  0.00    -0.479 OA
ATOM     15  H   UNL     1       6.961  -1.515   0.769  0.00  0.00    +0.295 HD
ENDBRANCH  13  14
ENDBRANCH  11  13
BRANCH  11  16
ATOM     16  CB  UNL     1       4.996  -0.124  -0.594  0.00  0.00    +0.043 C 
BRANCH  16  17
ATOM     17  CG  UNL     1       4.569   1.208   0.034  0.00  0.00    +0.112 C 
BRANCH  17  19
ATOM     18  OE2 UNL     1       5.622   2.398  -1.813  0.00  0.00    -0.250 OA
ATOM     19  CD  UNL     1       5.000   2.422  -0.760  0.00  0.00    +0.314 C 
BRANCH  19  20
ATOM     20  OE1 UNL     1       4.646   3.578  -0.139  0.00  0.00    -0.480 OA
ATOM     21  HE1 UNL     1       4.170   3.550   0.667  0.00  0.00    +0.295 HD
ENDBRANCH  19  20
ENDBRANCH  17  19
ENDBRANCH  16  17
ENDBRANCH  11  16
ENDBRANCH   8  11
ENDBRANCH   4   9
BRANCH   1  22
ATOM     22  N   UNL     1      -3.212  -2.338   0.146  0.00  0.00    -0.301 N 
BRANCH  22  23
ATOM     23  C   UNL     1      -4.087  -1.332  -0.415  0.00  0.00    +0.117 C 
BRANCH  23  28
ATOM     24  O   UNL     1      -1.622   2.768  -2.420  0.00  0.00    -0.270 OA
ATOM     25  N   UNL     1      -2.605   3.875   1.389  0.00  0.00    -0.377 NA
ATOM     26  N   UNL     1      -1.628   4.315  -0.706  0.00  0.00    -0.244 N 
ATOM     27  N   UNL     1      -1.584   5.943   0.970  0.00  0.00    -0.321 N 
ATOM     28  C   UNL     1      -3.693   0.032   0.043  0.00  0.00    -0.006 C 
ATOM     29  C   UNL     1      -3.011   0.887  -0.820  0.00  0.00    +0.004 C 
ATOM     30  C   UNL     1      -2.647   2.163  -0.380  0.00  0.00    +0.079 C 
ATOM     31  C   UNL     1      -4.009   0.451   1.335  0.00  0.00    -0.021 C 
ATOM     32  C   UNL     1      -2.957   2.598   0.915  0.00  0.00    +0.121 C 
ATOM     33  C   UNL     1      -3.643   1.726   1.768  0.00  0.00    +0.085 C 
ATOM     34  C   UNL     1      -1.923   3.087  -1.275  0.00  0.00    +0.254 C 
ATOM     35  C   UNL     1      -1.966   4.684   0.591  0.00  0.00    +0.237 C 
ATOM     36  H   UNL     1      -1.146   4.972  -1.258  0.00  0.00    +0.159 HD
ATOM     37  H   UNL     1      -1.791   6.269   1.875  0.00  0.00    +0.146 HD
ATOM     38  H   UNL     1      -1.102   6.523   0.336  0.00  0.00    +0.146 HD
ENDBRANCH  23  28
ENDBRANCH  22  23
BRANCH  22  39
ATOM     39  C   UNL     1      -3.805  -3.413   0.942  0.00  0.00    +0.129 C 
BRANCH  39  41
ATOM     40  F   UNL     1      -4.784  -4.367  -0.962  0.00  0.00    -0.232 F 
ATOM     41  C   UNL     1      -3.975  -4.656   0.093  0.00  0.00    +0.215 C 
ENDBRANCH  39  41
ENDBRANCH  22  39
ENDBRANCH   1  22
TORSDOF 13
