REMARK  Name = 135630091
REMARK  5 active torsions:
REMARK  status: ('A' for Active; 'I' for Inactive)
REMARK    1  A    between atoms: N_2  and  N_13
REMARK    2  A    between atoms: C_5  and  C_9
REMARK    3  A    between atoms: N_13  and  C_14
REMARK    4  A    between atoms: C_14  and  C_15
REMARK    5  A    between atoms: C_16  and  O_21
REMARK                            x       y       z     vdW  Elec       q    Type
REMARK                         _______ _______ _______ _____ _____    ______ ____
ROOT
ATOM      1  S   UNL     1       0.287   3.624   0.664  0.00  0.00    -0.010 S 
ATOM      2  N   UNL     1       1.204   1.058   0.313  0.00  0.00    -0.198 N 
ATOM      3  N   UNL     1       2.724   2.615   0.013  0.00  0.00    -0.253 N 
ATOM      4  N   UNL     1       3.349   1.411  -0.187  0.00  0.00    -0.148 NA
ATOM      5  C   UNL     1       2.413   0.517  -0.008  0.00  0.00    +0.217 A 
ATOM      6  C   UNL     1       1.378   2.420   0.333  0.00  0.00    +0.195 A 
ATOM      7  H   UNL     1       3.163   3.493  -0.060  0.00  0.00    +0.191 HD
ENDROOT
BRANCH   5   9
ATOM      8  O   UNL     1       1.583  -1.757   0.085  0.00  0.00    -0.447 OA
ATOM      9  C   UNL     1       2.641  -0.929  -0.123  0.00  0.00    +0.183 C 
ATOM     10  C   UNL     1       3.772  -1.654  -0.416  0.00  0.00    +0.044 C 
ATOM     11  C   UNL     1       3.385  -3.015  -0.387  0.00  0.00    +0.044 C 
ATOM     12  C   UNL     1       2.045  -3.025  -0.077  0.00  0.00    +0.180 C 
ENDBRANCH   5   9
BRANCH   2  13
ATOM     13  N   UNL     1       0.083   0.402   0.633  0.00  0.00    -0.152 NA
BRANCH  13  14
ATOM     14  C   UNL     1      -0.920   0.638  -0.163  0.00  0.00    +0.163 C 
BRANCH  14  15
ATOM     15  C   UNL     1      -2.228   0.022   0.015  0.00  0.00    +0.035 C 
ATOM     16  C   UNL     1      -3.277   0.302  -0.860  0.00  0.00    +0.131 C 
ATOM     17  C   UNL     1      -2.424  -0.858   1.079  0.00  0.00    +0.001 C 
ATOM     18  C   UNL     1      -4.522  -0.297  -0.671  0.00  0.00    +0.036 C 
ATOM     19  C   UNL     1      -3.669  -1.457   1.269  0.00  0.00    -0.000 C 
ATOM     20  C   UNL     1      -4.718  -1.177   0.394  0.00  0.00    +0.003 C 
BRANCH  16  21
ATOM     21  O   UNL     1      -3.106   1.161  -1.905  0.00  0.00    -0.506 OA
ATOM     22  H   UNL     1      -2.275   1.571  -2.043  0.00  0.00    +0.292 HD
ENDBRANCH  16  21
ENDBRANCH  14  15
ENDBRANCH  13  14
ENDBRANCH   2  13
TORSDOF 5
