REMARK  Name = 135625343
REMARK  13 active torsions:
REMARK  status: ('A' for Active; 'I' for Inactive)
REMARK    1  A    between atoms: C_1  and  N_22
REMARK    2  A    between atoms: C_2  and  C_9
REMARK    3  A    between atoms: N_8  and  CA_11
REMARK    4  A    between atoms: CA_11  and  C_13
REMARK    5  A    between atoms: CA_11  and  CB_16
REMARK    6  A    between atoms: C_13  and  O_14
REMARK    7  A    between atoms: CB_16  and  CG_17
REMARK    8  A    between atoms: CG_17  and  CD_19
REMARK    9  A    between atoms: CD_19  and  OE1_20
REMARK   10  A    between atoms: N_22  and  C_23
REMARK   11  A    between atoms: N_22  and  C_39
REMARK   12  A    between atoms: C_23  and  C_29
REMARK   13  A    between atoms: C_39  and  C_40
REMARK                            x       y       z     vdW  Elec       q    Type
REMARK                         _______ _______ _______ _____ _____    ______ ____
ROOT
ATOM      1  C   UNL     1      -1.616  -2.450  -0.123  0.00  0.00    +0.049 C 
ATOM      2  C   UNL     1       1.159  -2.232  -0.298  0.00  0.00    +0.053 C 
ATOM      3  C   UNL     1      -0.960  -2.822  -1.296  0.00  0.00    +0.015 C 
ATOM      4  C   UNL     1      -0.885  -1.969   0.963  0.00  0.00    +0.015 C 
ATOM      5  C   UNL     1       0.428  -2.714  -1.384  0.00  0.00    +0.006 C 
ATOM      6  C   UNL     1       0.503  -1.860   0.875  0.00  0.00    +0.006 C 
ENDROOT
BRANCH   2   9
ATOM      7  O   UNL     1       3.249  -2.845  -1.167  0.00  0.00    -0.270 OA
ATOM      8  N   UNL     1       3.223  -1.146   0.411  0.00  0.00    -0.293 N 
ATOM      9  C   ACE A   0       2.637  -2.115  -0.392  0.00  0.00    +0.246 C 
ATOM     10  H   UNL     1       2.646  -0.609   1.002  0.00  0.00    +0.150 HD
BRANCH   8  11
ATOM     11  CA  UNL     1       4.642  -0.895   0.414  0.00  0.00    +0.172 C 
BRANCH  11  13
ATOM     12  OXT UNL     1       4.261  -0.336   2.754  0.00  0.00    -0.248 OA
ATOM     13  C   UNL     1       5.040  -0.527   1.829  0.00  0.00    +0.332 C 
BRANCH  13  14
ATOM     14  O   UNL     1       6.389  -0.464   1.976  0.00  0.00    -0.479 OA
ATOM     15  H   UNL     1       6.948  -0.617   1.240  0.00  0.00    +0.295 HD
ENDBRANCH  13  14
ENDBRANCH  11  13
BRANCH  11  16
ATOM     16  CB  UNL     1       5.063   0.139  -0.637  0.00  0.00    +0.043 C 
BRANCH  16  17
ATOM     17  CG  UNL     1       4.479   1.546  -0.461  0.00  0.00    +0.112 C 
BRANCH  17  19
ATOM     18  OE2 UNL     1       5.652   2.267  -2.471  0.00  0.00    -0.250 OA
ATOM     19  CD  UNL     1       4.914   2.525  -1.530  0.00  0.00    +0.314 C 
BRANCH  19  20
ATOM     20  OE1 UNL     1       4.416   3.769  -1.303  0.00  0.00    -0.480 OA
ATOM     21  HE1 UNL     1       3.853   3.921  -0.569  0.00  0.00    +0.295 HD
ENDBRANCH  19  20
ENDBRANCH  17  19
ENDBRANCH  16  17
ENDBRANCH  11  16
ENDBRANCH   8  11
ENDBRANCH   2   9
BRANCH   1  22
ATOM     22  N   UNL     1      -3.019  -2.560  -0.034  0.00  0.00    -0.292 N 
BRANCH  22  23
ATOM     23  C   UNL     1      -3.774  -1.657   0.812  0.00  0.00    +0.120 C 
BRANCH  23  29
ATOM     24  O   UNL     1      -2.051   2.899   2.739  0.00  0.00    -0.269 OA
ATOM     25  N   UNL     1      -3.825   1.405  -1.412  0.00  0.00    -0.182 NA
ATOM     26  N   UNL     1      -2.327   4.343   0.955  0.00  0.00    -0.243 N 
ATOM     27  N   UNL     1      -3.202   3.631  -1.111  0.00  0.00    -0.320 NA
ATOM     28  N   UNL     1      -2.573   5.868  -0.800  0.00  0.00    -0.320 N 
ATOM     29  C   UNL     1      -3.601  -0.236   0.353  0.00  0.00    +0.018 C 
ATOM     30  C   UNL     1      -3.083   0.734   1.203  0.00  0.00    +0.015 C 
ATOM     31  C   UNL     1      -2.941   2.037   0.733  0.00  0.00    +0.127 C 
ATOM     32  C   UNL     1      -3.953   0.147  -0.931  0.00  0.00    +0.108 C 
ATOM     33  C   UNL     1      -3.319   2.338  -0.572  0.00  0.00    +0.095 C 
ATOM     34  C   UNL     1      -2.399   3.110   1.583  0.00  0.00    +0.263 C 
ATOM     35  C   UNL     1      -2.722   4.580  -0.357  0.00  0.00    +0.248 C 
ATOM     36  H   UNL     1      -1.972   5.102   1.472  0.00  0.00    +0.159 HD
ATOM     37  H   UNL     1      -2.206   6.556  -0.198  0.00  0.00    +0.146 HD
ATOM     38  H   UNL     1      -2.833   6.106  -1.719  0.00  0.00    +0.146 HD
ENDBRANCH  23  29
ENDBRANCH  22  23
BRANCH  22  39
ATOM     39  C   UNL     1      -3.724  -3.583  -0.781  0.00  0.00    +0.170 C 
BRANCH  39  40
ATOM     40  C   UNL     1      -3.238  -4.916  -0.418  0.00  0.00    -0.056 C 
ATOM     41  C   UNL     1      -2.842  -6.011  -0.123  0.00  0.00    -0.012 C 
ENDBRANCH  39  40
ENDBRANCH  22  39
ENDBRANCH   1  22
TORSDOF 13
