REMARK  Name = 135625322
REMARK  5 active torsions:
REMARK  status: ('A' for Active; 'I' for Inactive)
REMARK    1  A    between atoms: C_7  and  C_16
REMARK    2  A    between atoms: C_15  and  O_19
REMARK    3  A    between atoms: C_17  and  O_21
REMARK    4  A    between atoms: C_18  and  C_23
REMARK    5  A    between atoms: C_23  and  O_24
REMARK                            x       y       z     vdW  Elec       q    Type
REMARK                         _______ _______ _______ _____ _____    ______ ____
ROOT
ATOM      1  O   UNL     1       1.000  -1.075  -0.032  0.00  0.00    -0.405 OA
ATOM      2  O   UNL     1       4.546   1.020  -0.143  0.00  0.00    -0.265 OA
ATOM      3  O   UNL     1       2.202  -2.964  -0.433  0.00  0.00    -0.223 OA
ATOM      4  N   UNL     1       0.502   2.424   0.514  0.00  0.00    -0.171 NA
ATOM      5  N   UNL     1       1.833   2.270   0.341  0.00  0.00    -0.269 N 
ATOM      6  N   UNL     1       3.379  -0.980  -0.289  0.00  0.00    -0.256 N 
ATOM      7  C   UNL     1       0.023   1.179   0.394  0.00  0.00    +0.144 A 
ATOM      8  C   UNL     1       1.045   0.258   0.149  0.00  0.00    +0.189 A 
ATOM      9  C   UNL     1       2.204   0.978   0.118  0.00  0.00    +0.166 A 
ATOM     10  C   UNL     1       3.488   0.402  -0.108  0.00  0.00    +0.282 A 
ATOM     11  C   UNL     1       2.195  -1.745  -0.262  0.00  0.00    +0.421 A 
ATOM     12  H   UNL     1       2.472   3.018   0.373  0.00  0.00    +0.189 HD
ATOM     13  H   UNL     1       4.217  -1.470  -0.453  0.00  0.00    +0.175 HD
ENDROOT
BRANCH   7  16
ATOM     14  O   UNL     1      -1.726  -0.374   1.100  0.00  0.00    -0.345 OA
ATOM     15  C   UNL     1      -2.190   0.946  -0.812  0.00  0.00    +0.173 C 
ATOM     16  C   UNL     1      -1.460   0.923   0.526  0.00  0.00    +0.189 C 
ATOM     17  C   UNL     1      -3.384   0.051  -0.546  0.00  0.00    +0.170 C 
ATOM     18  C   UNL     1      -2.795  -1.014   0.369  0.00  0.00    +0.174 C 
BRANCH  15  19
ATOM     19  O   UNL     1      -2.560   2.257  -1.190  0.00  0.00    -0.379 OA
ATOM     20  H   UNL     1      -1.762   2.786  -1.348  0.00  0.00    +0.211 HD
ENDBRANCH  15  19
BRANCH  17  21
ATOM     21  O   UNL     1      -4.406   0.762   0.152  0.00  0.00    -0.379 OA
ATOM     22  H   UNL     1      -4.782   1.441  -0.429  0.00  0.00    +0.211 HD
ENDBRANCH  17  21
BRANCH  18  23
ATOM     23  C   UNL     1      -2.213  -2.197  -0.391  0.00  0.00    +0.169 C 
BRANCH  23  24
ATOM     24  O   UNL     1      -1.684  -3.121   0.543  0.00  0.00    -0.379 OA
ATOM     25  H   UNL     1      -1.309  -3.881   0.071  0.00  0.00    +0.211 HD
ENDBRANCH  23  24
ENDBRANCH  18  23
ENDBRANCH   7  16
TORSDOF 5
