135625299
  -OEChem-03292013293D

 33 36  0     1  0  0  0  0  0999 V2000
   -1.7431   -1.0896   -0.5985 O   0  0  0  0  0  0  0  0  0  0  0  0
   -4.2198    1.2485    0.5189 O   0  0  0  0  0  0  0  0  0  0  0  0
   -3.2821   -3.0342    0.7681 O   0  0  0  0  0  0  0  0  0  0  0  0
    3.9918    1.4910    1.1807 O   0  0  0  0  0  0  0  0  0  0  0  0
    0.0100    0.4774   -0.6192 N   0  0  0  0  0  0  0  0  0  0  0  0
    1.2026    2.0873    0.3499 N   0  0  0  0  0  0  0  0  0  0  0  0
    1.5780   -1.3606   -0.6559 N   0  0  0  0  0  0  0  0  0  0  0  0
    3.6425   -0.6594    0.3391 N   0  0  0  0  0  0  0  0  0  0  0  0
    3.3866   -2.8503   -0.4830 N   0  0  0  0  0  0  0  0  0  0  0  0
   -2.1742    1.2741   -0.8042 C   0  0  1  0  0  0  0  0  0  0  0  0
   -1.2573    0.1022   -1.2124 C   0  0  2  0  0  0  0  0  0  0  0  0
   -2.9272    0.6907    0.3852 C   0  0  2  0  0  0  0  0  0  0  0  0
   -1.2409    2.4606   -0.4321 C   0  0  0  0  0  0  0  0  0  0  0  0
   -3.0015   -0.7830    0.0201 C   0  0  2  0  0  0  0  0  0  0  0  0
    0.0446    1.7730   -0.1815 C   0  0  0  0  0  0  0  0  0  0  0  0
    1.1997   -0.0951   -0.3747 C   0  0  0  0  0  0  0  0  0  0  0  0
   -3.2172   -1.6906    1.2175 C   0  0  0  0  0  0  0  0  0  0  0  0
    1.9210    0.9194    0.2281 C   0  0  0  0  0  0  0  0  0  0  0  0
    3.2733    0.6595    0.6404 C   0  0  0  0  0  0  0  0  0  0  0  0
    2.8132   -1.6208   -0.2864 C   0  0  0  0  0  0  0  0  0  0  0  0
   -2.8670    1.5588   -1.6045 H   0  0  0  0  0  0  0  0  0  0  0  0
   -1.1223   -0.0143   -2.2916 H   0  0  0  0  0  0  0  0  0  0  0  0
   -2.3800    0.8415    1.3230 H   0  0  0  0  0  0  0  0  0  0  0  0
   -1.5993    3.0190    0.4366 H   0  0  0  0  0  0  0  0  0  0  0  0
   -1.1350    3.1432   -1.2816 H   0  0  0  0  0  0  0  0  0  0  0  0
   -3.7852   -0.9746   -0.7246 H   0  0  0  0  0  0  0  0  0  0  0  0
   -4.1504   -1.4468    1.7344 H   0  0  0  0  0  0  0  0  0  0  0  0
   -2.3814   -1.6158    1.9210 H   0  0  0  0  0  0  0  0  0  0  0  0
   -4.7029    1.1051   -0.3125 H   0  0  0  0  0  0  0  0  0  0  0  0
   -3.4195   -3.5921    1.5526 H   0  0  0  0  0  0  0  0  0  0  0  0
    4.5837   -0.9479    0.5905 H   0  0  0  0  0  0  0  0  0  0  0  0
    2.8721   -3.6051   -0.9235 H   0  0  0  0  0  0  0  0  0  0  0  0
    4.3399   -3.0415   -0.1946 H   0  0  0  0  0  0  0  0  0  0  0  0
  1 11  1  0  0  0  0
  1 14  1  0  0  0  0
  2 12  1  0  0  0  0
  2 29  1  0  0  0  0
  3 17  1  0  0  0  0
  3 30  1  0  0  0  0
  4 19  2  0  0  0  0
  5 11  1  0  0  0  0
  5 15  1  0  0  0  0
  5 16  1  0  0  0  0
  6 15  2  0  0  0  0
  6 18  1  0  0  0  0
  7 16  1  0  0  0  0
  7 20  2  0  0  0  0
  8 19  1  0  0  0  0
  8 20  1  0  0  0  0
  8 31  1  0  0  0  0
  9 20  1  0  0  0  0
  9 32  1  0  0  0  0
  9 33  1  0  0  0  0
 10 11  1  0  0  0  0
 10 12  1  0  0  0  0
 10 13  1  0  0  0  0
 10 21  1  0  0  0  0
 11 22  1  0  0  0  0
 12 14  1  0  0  0  0
 12 23  1  0  0  0  0
 13 15  1  0  0  0  0
 13 24  1  0  0  0  0
 13 25  1  0  0  0  0
 14 17  1  0  0  0  0
 14 26  1  0  0  0  0
 16 18  2  0  0  0  0
 17 27  1  0  0  0  0
 17 28  1  0  0  0  0
 18 19  1  0  0  0  0
M  END
> <PUBCHEM_COMPOUND_CID>
135625299

> <PUBCHEM_CONFORMER_RMSD>
0.6

> <PUBCHEM_CONFORMER_DIVERSEORDER>
1
2
3
5
6
4
10
9
7
8
11
12

> <PUBCHEM_MMFF94_PARTIAL_CHARGES>
24
1 -0.56
11 0.54
12 0.28
13 0.18
14 0.28
15 0.01
16 -0.03
17 0.28
18 0.14
19 0.72
2 -0.68
20 0.56
29 0.4
3 -0.68
30 0.4
31 0.37
32 0.4
33 0.4
4 -0.57
5 0.05
6 -0.57
7 -0.58
8 -0.49
9 -0.85

> <PUBCHEM_EFFECTIVE_ROTOR_COUNT>
1.8

> <PUBCHEM_PHARMACOPHORE_FEATURES>
13
1 1 acceptor
1 2 acceptor
1 2 donor
1 3 acceptor
1 3 donor
1 4 acceptor
1 8 donor
1 9 donor
3 5 6 15 cation
5 1 10 11 12 14 rings
5 5 10 11 13 15 rings
5 5 6 15 16 18 rings
6 7 8 16 18 19 20 rings

> <PUBCHEM_HEAVY_ATOM_COUNT>
20

> <PUBCHEM_ATOM_DEF_STEREO_COUNT>
0

> <PUBCHEM_ATOM_UDEF_STEREO_COUNT>
4

> <PUBCHEM_BOND_DEF_STEREO_COUNT>
0

> <PUBCHEM_BOND_UDEF_STEREO_COUNT>
0

> <PUBCHEM_ISOTOPIC_ATOM_COUNT>
0

> <PUBCHEM_COMPONENT_COUNT>
1

> <PUBCHEM_CACTVS_TAUTO_COUNT>
-1

> <PUBCHEM_CONFORMER_ID>
08157A5300000001

> <PUBCHEM_MMFF94_ENERGY>
57.6943

> <PUBCHEM_FEATURE_SELFOVERLAP>
66.896

> <PUBCHEM_SHAPE_FINGERPRINT>
1100329 8 16105014289408474847
11471102 22 18340208612533696616
11552529 35 18060140998212588891
11680986 33 18412262809284291421
117890 22 18410864269185700931
12251169 10 18271809068291591597
12382932 28 18413106169157472873
12553582 1 18119823657562457911
12633257 1 18127706932552809427
12892183 10 18130795598222556065
13140716 1 18340486673064524682
13296908 3 18410009905843248622
14115302 16 18042416737401487469
14178342 30 18410007771070435857
14223421 5 18411976949367530408
14790565 3 18123476248202029672
15219456 202 18341041926658006764
15422964 175 18336547217507184079
16945 1 18341321275562810468
17804303 29 18195254321029125015
1813 80 17168151156418381525
19049666 15 18266734684421283652
19784866 170 18412262865409321768
200 152 17916850444199956653
20281475 54 18334018310566627045
20361792 2 16153427268211676501
20681677 274 18336822001283868690
21065199 12 18413390947079936059
221490 88 18340207397860058374
23559900 14 18335984156327737918
2748010 2 18269825446299127028
5104073 3 18413383233207883690
568465 68 18128256881323623721
598444 67 18192715536217726869
8809292 202 18265054630622536350
9709674 26 18410849932526403055

> <PUBCHEM_SHAPE_MULTIPOLES>
363.21
7.1
2.85
1
0.96
1.21
-0.04
2.4
-2.14
-0.35
-0.21
-0.15
0.07
1.43

> <PUBCHEM_SHAPE_SELFOVERLAP>
812.818

> <PUBCHEM_SHAPE_VOLUME>
190.9

> <PUBCHEM_COORDINATE_TYPE>
2
5
10

$$$$
