REMARK  Name = 135625344
REMARK  4 active torsions:
REMARK  status: ('A' for Active; 'I' for Inactive)
REMARK    1  A    between atoms: N_2  and  C1*_32
REMARK    2  A    between atoms: C3*_34  and  O3*_36
REMARK    3  A    between atoms: C4*_35  and  C5*_38
REMARK    4  A    between atoms: C5*_38  and  O5*_39
REMARK                            x       y       z     vdW  Elec       q    Type
REMARK                         _______ _______ _______ _____ _____    ______ ____
ROOT
ATOM      1  O   UNL     1       1.541  -4.442   0.160  0.00  0.00    -0.267 OA
ATOM      2  N   UNL     1       2.059   0.039  -0.100  0.00  0.00    -0.200 N 
ATOM      3  N   UNL     1      -0.284   0.698  -0.108  0.00  0.00    -0.238 N 
ATOM      4  N   UNL     1       0.580  -1.635   0.014  0.00  0.00    -0.364 NA
ATOM      5  N   UNL     1       4.138  -1.201  -0.056  0.00  0.00    -0.355 NA
ATOM      6  N   UNL     1      -2.324   1.866  -0.150  0.00  0.00    -0.247 N 
ATOM      7  N   UNL     1       3.699  -3.552   0.083  0.00  0.00    -0.242 N 
ATOM      8  N   UNL     1      -2.447  -0.348  -0.022  0.00  0.00    -0.371 NA
ATOM      9  N   UNL     1       5.909  -2.743   0.009  0.00  0.00    -0.321 N 
ATOM     10  N   UNL     1      -7.381  -0.231   0.028  0.00  0.00    -0.248 NA
ATOM     11  C   UNL     1       0.736  -0.327  -0.062  0.00  0.00    +0.252 C 
ATOM     12  C   UNL     1       2.789  -1.111  -0.044  0.00  0.00    +0.229 C 
ATOM     13  C   UNL     1       1.856  -2.117   0.025  0.00  0.00    +0.232 C 
ATOM     14  C   UNL     1      -1.638   0.685  -0.090  0.00  0.00    +0.249 C 
ATOM     15  C   UNL     1       2.299  -3.482   0.096  0.00  0.00    +0.286 C 
ATOM     16  C   UNL     1      -3.663   1.573  -0.117  0.00  0.00    +0.081 C 
ATOM     17  C   UNL     1      -3.718   0.186  -0.038  0.00  0.00    +0.149 C 
ATOM     18  C   UNL     1       4.572  -2.441   0.009  0.00  0.00    +0.240 C 
ATOM     19  C   UNL     1      -4.988  -0.442   0.013  0.00  0.00    +0.045 C 
ATOM     20  C   UNL     1      -1.755   3.193  -0.231  0.00  0.00    +0.121 C 
ATOM     21  C   UNL     1      -4.799   2.378  -0.150  0.00  0.00    -0.002 C 
ATOM     22  C   UNL     1      -6.164   0.341  -0.018  0.00  0.00    +0.066 C 
ATOM     23  C   UNL     1      -6.040   1.727  -0.098  0.00  0.00    +0.073 C 
ATOM     24  C   UNL     1      -5.098  -1.839   0.094  0.00  0.00    +0.005 C 
ATOM     25  C   UNL     1      -6.355  -2.421   0.142  0.00  0.00    +0.021 C 
ATOM     26  C   UNL     1      -7.452  -1.582   0.106  0.00  0.00    +0.098 C 
ATOM     27  H   UNL     1       0.089   1.607  -0.164  0.00  0.00    +0.159 HD
ATOM     28  H   UNL     1       4.108  -4.446   0.128  0.00  0.00    +0.159 HD
ATOM     29  H   UNL     1       6.576  -2.021  -0.040  0.00  0.00    +0.146 HD
ATOM     30  H   UNL     1       6.201  -3.681   0.059  0.00  0.00    +0.146 HD
ENDROOT
BRANCH   2  32
ATOM     31  O4* UNL     1       3.854   1.485  -0.914  0.00  0.00    -0.335 OA
ATOM     32  C1* UNL     1       2.612   1.439  -0.186  0.00  0.00    +0.203 C 
ATOM     33  C2* UNL     1       2.892   2.058   1.179  0.00  0.00    +0.083 C 
ATOM     34  C3* UNL     1       3.960   3.075   0.851  0.00  0.00    +0.144 C 
ATOM     35  C4* UNL     1       4.760   2.389  -0.249  0.00  0.00    +0.173 C 
BRANCH  34  36
ATOM     36  O3* UNL     1       3.328   4.241   0.328  0.00  0.00    -0.382 OA
ATOM     37  H3* UNL     1       2.819   4.676   1.030  0.00  0.00    +0.210 HD
ENDBRANCH  34  36
BRANCH  35  38
ATOM     38  C5* UNL     1       5.925   1.573   0.292  0.00  0.00    +0.169 C 
BRANCH  38  39
ATOM     39  O5* UNL     1       6.599   0.967  -0.797  0.00  0.00    -0.379 OA
ATOM     40  H5* UNL     1       7.345   0.443  -0.465  0.00  0.00    +0.211 HD
ENDBRANCH  38  39
ENDBRANCH  35  38
ENDBRANCH   2  32
TORSDOF 4
