REMARK  Name = 135625333
REMARK  6 active torsions:
REMARK  status: ('A' for Active; 'I' for Inactive)
REMARK    1  A    between atoms: N_2  and  C1*_32
REMARK    2  A    between atoms: N_6  and  C_14
REMARK    3  A    between atoms: C_18  and  N_28
REMARK    4  A    between atoms: C3*_33  and  O3*_36
REMARK    5  A    between atoms: C4*_35  and  C5*_38
REMARK    6  A    between atoms: C5*_38  and  O5*_39
REMARK                            x       y       z     vdW  Elec       q    Type
REMARK                         _______ _______ _______ _____ _____    ______ ____
ROOT
ATOM      1  O   UNL     1      -2.577   4.853  -0.338  0.00  0.00    -0.268 OA
ATOM      2  N   UNL     1      -3.305   0.394  -0.383  0.00  0.00    -0.239 N 
ATOM      3  N   UNL     1      -4.216   2.406  -0.729  0.00  0.00    -0.240 NA
ATOM      4  N   UNL     1      -1.058   1.028   0.257  0.00  0.00    -0.356 NA
ATOM      5  N   UNL     1      -0.830   3.413   0.234  0.00  0.00    -0.242 N 
ATOM      6  N   UNL     1       0.956   2.038   0.815  0.00  0.00    -0.275 N 
ATOM      7  C   UNL     1      -2.323   1.306  -0.127  0.00  0.00    +0.211 C 
ATOM      8  C   UNL     1      -4.424   1.105  -0.741  0.00  0.00    +0.224 C 
ATOM      9  C   UNL     1      -2.912   2.527  -0.348  0.00  0.00    +0.176 C 
ATOM     10  C   UNL     1      -2.137   3.723  -0.165  0.00  0.00    +0.273 C 
ATOM     11  C   UNL     1      -0.325   2.106   0.433  0.00  0.00    +0.246 C 
ATOM     12  H   UNL     1      -0.213   4.164   0.387  0.00  0.00    +0.159 HD
ATOM     13  H   UNL     1       1.427   2.896   0.921  0.00  0.00    +0.156 HD
ENDROOT
BRANCH   6  14
ATOM     14  C   UNL     1       1.713   0.865   1.083  0.00  0.00    +0.064 C 
ATOM     15  C   UNL     1       2.874   0.573   0.348  0.00  0.00    +0.015 C 
ATOM     16  C   UNL     1       3.626  -0.600   0.622  0.00  0.00    +0.001 C 
ATOM     17  C   UNL     1       4.811  -0.870  -0.150  0.00  0.00    +0.000 C 
ATOM     18  C   UNL     1       1.272   0.017   2.095  0.00  0.00    +0.055 C 
ATOM     19  C   UNL     1       5.199   0.042  -1.167  0.00  0.00    +0.000 C 
ATOM     20  C   UNL     1       3.288   1.447  -0.660  0.00  0.00    +0.001 C 
ATOM     21  C   UNL     1       3.144  -1.437   1.659  0.00  0.00    +0.001 C 
ATOM     22  C   UNL     1       4.433   1.185  -1.407  0.00  0.00    +0.000 C 
ATOM     23  C   UNL     1       1.988  -1.134   2.382  0.00  0.00    +0.015 C 
ATOM     24  C   UNL     1       5.638  -2.006   0.034  0.00  0.00    +0.000 C 
ATOM     25  C   UNL     1       6.350  -0.194  -1.938  0.00  0.00    +0.000 C 
ATOM     26  C   UNL     1       6.781  -2.228  -0.740  0.00  0.00    +0.000 C 
ATOM     27  C   UNL     1       7.136  -1.322  -1.727  0.00  0.00    +0.000 C 
BRANCH  18  28
ATOM     28  N   UNL     1       0.106   0.305   2.838  0.00  0.00    -0.356 N 
ATOM     29  H   UNL     1      -0.412   1.119   2.646  0.00  0.00    +0.142 HD
ATOM     30  H   UNL     1      -0.187  -0.309   3.550  0.00  0.00    +0.142 HD
ENDBRANCH  18  28
ENDBRANCH   6  14
BRANCH   2  32
ATOM     31  O4* UNL     1      -4.044  -1.767  -1.256  0.00  0.00    -0.335 OA
ATOM     32  C1* UNL     1      -3.200  -1.108  -0.293  0.00  0.00    +0.198 C 
ATOM     33  C3* UNL     1      -4.021  -3.066   0.736  0.00  0.00    +0.144 C 
ATOM     34  C2* UNL     1      -3.598  -1.655   1.073  0.00  0.00    +0.083 C 
ATOM     35  C4* UNL     1      -4.665  -2.911  -0.636  0.00  0.00    +0.173 C 
BRANCH  33  36
ATOM     36  O3* UNL     1      -2.852  -3.875   0.628  0.00  0.00    -0.382 OA
ATOM     37  H3* UNL     1      -2.444  -3.972   1.502  0.00  0.00    +0.210 HD
ENDBRANCH  33  36
BRANCH  35  38
ATOM     38  C5* UNL     1      -6.162  -2.648  -0.557  0.00  0.00    +0.169 C 
BRANCH  38  39
ATOM     39  O5* UNL     1      -6.668  -2.509  -1.873  0.00  0.00    -0.379 OA
ATOM     40  H5* UNL     1      -7.623  -2.341  -1.837  0.00  0.00    +0.211 HD
ENDBRANCH  38  39
ENDBRANCH  35  38
ENDBRANCH   2  32
TORSDOF 6
