REMARK  Name = 135625327
REMARK  8 active torsions:
REMARK  status: ('A' for Active; 'I' for Inactive)
REMARK    1  A    between atoms: N_2  and  C_15
REMARK    2  A    between atoms: C_15  and  C_16
REMARK    3  A    between atoms: C_16  and  S_17
REMARK    4  A    between atoms: S_17  and  C_18
REMARK    5  A    between atoms: C_18  and  C_19
REMARK    6  A    between atoms: C_19  and  N_20
REMARK    7  A    between atoms: C_19  and  C_25
REMARK    8  A    between atoms: C_25  and  O_26
REMARK                            x       y       z     vdW  Elec       q    Type
REMARK                         _______ _______ _______ _____ _____    ______ ____
ROOT
ATOM      1  O   UNK     1       2.452  -2.413   0.541  0.00  0.00    -0.272 OA
ATOM      2  N   UNK     1       0.917   0.166   0.968  0.00  0.00    -0.232 NA
ATOM      3  N   UNK     1       1.716   2.151   0.339  0.00  0.00    -0.194 NA
ATOM      4  N   UNK     1       4.068  -1.052  -0.409  0.00  0.00    -0.245 N 
ATOM      5  N   UNK     1       3.858   1.331  -0.598  0.00  0.00    -0.323 NA
ATOM      6  N   UNK     1       5.766   0.228  -1.388  0.00  0.00    -0.320 N 
ATOM      7  C   UNK     1       2.137  -0.074   0.407  0.00  0.00    +0.235 C 
ATOM      8  C   UNK     1       2.610   1.161   0.027  0.00  0.00    +0.087 C 
ATOM      9  C   UNK     1       0.708   1.520   0.904  0.00  0.00    +0.214 C 
ATOM     10  C   UNK     1       2.845  -1.298   0.214  0.00  0.00    +0.259 C 
ATOM     11  C   UNK     1       4.531   0.220  -0.789  0.00  0.00    +0.248 C 
ATOM     12  H   UNK     1       4.648  -1.825  -0.597  0.00  0.00    +0.159 HD
ATOM     13  H   UNK     1       6.254  -0.617  -1.521  0.00  0.00    +0.146 HD
ATOM     14  H   UNK     1       6.164   1.078  -1.684  0.00  0.00    +0.146 HD
ENDROOT
BRANCH   2  15
ATOM     15  C   UNK     1       0.004  -0.801   1.528  0.00  0.00    +0.087 C 
BRANCH  15  16
ATOM     16  C   UNK     1      -0.833  -1.555   0.491  0.00  0.00    +0.075 C 
BRANCH  16  17
ATOM     17  S   UNK     1      -1.852  -0.446  -0.530  0.00  0.00    -0.140 S 
BRANCH  17  18
ATOM     18  C   UNK     1      -3.201  -0.181   0.642  0.00  0.00    +0.047 C 
BRANCH  18  19
ATOM     19  C   UNK     1      -4.311   0.689   0.050  0.00  0.00    +0.047 C 
BRANCH  19  20
ATOM     20  N   UNK     1      -5.137   1.247   1.123  0.00  0.00    +0.389 N 
ATOM     21  H   UNK     1      -4.548   1.782   1.761  0.00  0.00    -0.088 HD
ATOM     22  H   UNK     1      -5.589   0.488   1.633  0.00  0.00    -0.088 HD
ATOM     23  H   UNK     1      -5.847   1.859   0.721  0.00  0.00    -0.088 HD
ENDBRANCH  19  20
BRANCH  19  25
ATOM     24  O   UNK     1      -6.211  -0.713  -0.477  0.00  0.00    -0.253 OA
ATOM     25  C   UNK     1      -5.227  -0.096  -0.871  0.00  0.00    +0.294 C 
BRANCH  25  26
ATOM     26  O   UNK     1      -4.839  -0.084  -2.171  0.00  0.00    -0.482 OA
ATOM     27  H   UNK     1      -4.080   0.402  -2.428  0.00  0.00    +0.295 HD
ENDBRANCH  25  26
ENDBRANCH  19  25
ENDBRANCH  18  19
ENDBRANCH  17  18
ENDBRANCH  16  17
ENDBRANCH  15  16
ENDBRANCH   2  15
TORSDOF 8
