REMARK  Name = 135625280
REMARK  5 active torsions:
REMARK  status: ('A' for Active; 'I' for Inactive)
REMARK    1  A    between atoms: C_6  and  N_13
REMARK    2  A    between atoms: N_16  and  C1*_22
REMARK    3  A    between atoms: C3*_19  and  O3*_23
REMARK    4  A    between atoms: C4*_20  and  C5*_25
REMARK    5  A    between atoms: C5*_25  and  O5*_26
REMARK                            x       y       z     vdW  Elec       q    Type
REMARK                         _______ _______ _______ _____ _____    ______ ____
ROOT
ATOM      1  O   UNL     1       4.216  -0.882  -0.468  0.00  0.00    -0.272 OA
ATOM      2  N   UNL     1       1.268   1.729   0.486  0.00  0.00    -0.361 NA
ATOM      3  N   UNL     1       3.529   1.241   0.094  0.00  0.00    -0.246 N 
ATOM      4  N   UNL     1       2.890   3.409   0.659  0.00  0.00    -0.321 N 
ATOM      5  C   UNL     1       0.944   0.404   0.231  0.00  0.00    +0.189 C 
ATOM      6  C   UNL     1       1.895  -0.506  -0.092  0.00  0.00    +0.220 C 
ATOM      7  C   UNL     1       3.322  -0.092  -0.179  0.00  0.00    +0.255 C 
ATOM      8  C   UNL     1       2.509   2.116   0.417  0.00  0.00    +0.239 C 
ATOM      9  H   UNL     1       4.449   1.588   0.057  0.00  0.00    +0.159 HD
ATOM     10  H   UNL     1       2.215   4.086   0.895  0.00  0.00    +0.146 HD
ATOM     11  H   UNL     1       3.840   3.663   0.597  0.00  0.00    +0.146 HD
ATOM     12  N   UNL     1      -0.357   0.028   0.309  0.00  0.00    -0.289 N 
ATOM     13  H   UNL     1      -0.580  -0.913   0.126  0.00  0.00    +0.151 HD
ENDROOT
BRANCH  12  18
ATOM     14  O4* UNL     1      -2.575   0.193   1.109  0.00  0.00    -0.335 OA
ATOM     15  C3* UNL     1      -2.983   0.831  -1.129  0.00  0.00    +0.144 C 
ATOM     16  C4* UNL     1      -3.636   0.335   0.150  0.00  0.00    +0.173 C 
ATOM     17  C2* UNL     1      -1.880   1.707  -0.580  0.00  0.00    +0.082 C 
ATOM     18  C1* UNL     1      -1.431   0.931   0.646  0.00  0.00    +0.193 C 
BRANCH  15  19
ATOM     19  O3* UNL     1      -3.876   1.572  -1.936  0.00  0.00    -0.382 OA
ATOM     20  H3* UNL     1      -4.571   0.984  -2.273  0.00  0.00    +0.210 HD
ENDBRANCH  15  19
BRANCH  16  21
ATOM     21  C5* UNL     1      -4.353  -0.993  -0.015  0.00  0.00    +0.169 C 
BRANCH  21  22
ATOM     22  O5* UNL     1      -4.914  -1.369   1.233  0.00  0.00    -0.379 OA
ATOM     23  H5* UNL     1      -5.375  -2.217   1.138  0.00  0.00    +0.211 HD
ENDBRANCH  21  22
ENDBRANCH  16  21
ENDBRANCH  12  18
BRANCH   6  25
ATOM     24  O   UNL     1       0.760  -3.834   0.488  0.00  0.00    -0.265 OA
ATOM     25  N   UNL     1       1.635  -1.823  -0.355  0.00  0.00    -0.257 N 
ATOM     26  C   UNL     1       1.994  -2.351  -1.666  0.00  0.00    +0.116 C 
ATOM     27  C   UNL     1       1.044  -2.646   0.598  0.00  0.00    +0.304 C 
ENDBRANCH   6  25
TORSDOF 5
