REMARK  Name = 135625281
REMARK  3 active torsions:
REMARK  status: ('A' for Active; 'I' for Inactive)
REMARK    1  A    between atoms: C_1  and  N_3
REMARK    2  A    between atoms: C_1  and  C_16
REMARK    3  A    between atoms: C_16  and  N_18
REMARK                            x       y       z     vdW  Elec       q    Type
REMARK                         _______ _______ _______ _____ _____    ______ ____
ROOT
ATOM      1  C   UNL     1      -0.308  -1.718  -0.708  0.00  0.00    +0.093 C 
ENDROOT
BRANCH   1   3
ATOM      2  O   UNL     1      -2.924  -2.213   0.903  0.00  0.00    -0.272 OA
ATOM      3  N   UNL     1      -1.198  -0.519  -0.925  0.00  0.00    -0.231 NA
ATOM      4  N   UNL     1      -1.864   1.465  -1.697  0.00  0.00    -0.194 NA
ATOM      5  N   UNL     1      -4.455  -0.485   0.720  0.00  0.00    -0.245 N 
ATOM      6  N   UNL     1      -4.077   1.496  -0.582  0.00  0.00    -0.323 NA
ATOM      7  N   UNL     1      -6.074   1.201   0.603  0.00  0.00    -0.320 N 
ATOM      8  C   UNL     1      -2.443  -0.306  -0.409  0.00  0.00    +0.235 C 
ATOM      9  C   UNL     1      -2.833   0.919  -0.896  0.00  0.00    +0.087 C 
ATOM     10  C   UNL     1      -0.893   0.575  -1.694  0.00  0.00    +0.214 C 
ATOM     11  C   UNL     1      -3.241  -1.117   0.453  0.00  0.00    +0.259 C 
ATOM     12  C   UNL     1      -4.832   0.770   0.210  0.00  0.00    +0.248 C 
ATOM     13  H   UNL     1      -5.093  -0.951   1.307  0.00  0.00    +0.159 HD
ATOM     14  H   UNL     1      -6.624   0.642   1.198  0.00  0.00    +0.146 HD
ATOM     15  H   UNL     1      -6.415   2.070   0.291  0.00  0.00    +0.146 HD
ENDBRANCH   1   3
BRANCH   1  16
ATOM     16  C   UNL     1       0.371  -1.733   0.667  0.00  0.00    +0.093 C 
BRANCH  16  18
ATOM     17  O   UNL     1       2.956  -2.192  -0.968  0.00  0.00    -0.272 OA
ATOM     18  N   UNL     1       1.204  -0.579   0.909  0.00  0.00    -0.231 NA
ATOM     19  N   UNL     1       1.838   1.392   1.737  0.00  0.00    -0.194 NA
ATOM     20  N   UNL     1       4.459  -0.445  -0.734  0.00  0.00    -0.245 N 
ATOM     21  N   UNL     1       4.049   1.491   0.625  0.00  0.00    -0.323 NA
ATOM     22  N   UNL     1       6.051   1.263  -0.568  0.00  0.00    -0.320 N 
ATOM     23  C   UNL     1       2.445  -0.332   0.399  0.00  0.00    +0.235 C 
ATOM     24  C   UNL     1       2.815   0.885   0.921  0.00  0.00    +0.087 C 
ATOM     25  C   UNL     1       0.882   0.486   1.708  0.00  0.00    +0.214 C 
ATOM     26  C   UNL     1       3.256  -1.104  -0.486  0.00  0.00    +0.259 C 
ATOM     27  C   UNL     1       4.816   0.801  -0.188  0.00  0.00    +0.248 C 
ATOM     28  H   UNL     1       5.104  -0.883  -1.335  0.00  0.00    +0.159 HD
ATOM     29  H   UNL     1       6.610   0.730  -1.179  0.00  0.00    +0.146 HD
ATOM     30  H   UNL     1       6.378   2.128  -0.230  0.00  0.00    +0.146 HD
ENDBRANCH  16  18
ENDBRANCH   1  16
TORSDOF 3
