REMARK  Name = 135618594
REMARK  5 active torsions:
REMARK  status: ('A' for Active; 'I' for Inactive)
REMARK    1  A    between atoms: C_2  and  N_18
REMARK    2  A    between atoms: C_3  and  N_8
REMARK    3  A    between atoms: C_4  and  O_22
REMARK    4  A    between atoms: C_5  and  C_24
REMARK    5  A    between atoms: C_24  and  O_25
REMARK                            x       y       z     vdW  Elec       q    Type
REMARK                         _______ _______ _______ _____ _____    ______ ____
ROOT
ATOM      1  O   UNL     1      -2.243  -0.389   0.997  0.00  0.00    -0.337 OA
ATOM      2  C   UNL     1      -1.843   0.949  -0.920  0.00  0.00    +0.012 C 
ATOM      3  C   UNL     1      -1.210   0.394   0.358  0.00  0.00    +0.178 C 
ATOM      4  C   UNL     1      -3.284   1.157  -0.480  0.00  0.00    +0.124 C 
ATOM      5  C   UNL     1      -3.524  -0.046   0.425  0.00  0.00    +0.171 C 
ENDROOT
BRANCH   3   8
ATOM      6 CL   UNL     1       3.767   2.860   0.640  0.00  0.00    -0.032 Cl
ATOM      7  O   UNL     1       4.236  -1.996  -0.428  0.00  0.00    -0.268 OA
ATOM      8  N   UNL     1       0.025  -0.440   0.117  0.00  0.00    -0.240 N 
ATOM      9  N   UNL     1       1.276  -2.240  -0.332  0.00  0.00    -0.240 NA
ATOM     10  N   UNL     1       1.750   1.240   0.393  0.00  0.00    -0.359 NA
ATOM     11  N   UNL     1       3.922   0.262   0.073  0.00  0.00    -0.245 N 
ATOM     12  C   UNL     1       1.322  -0.019   0.143  0.00  0.00    +0.211 C 
ATOM     13  C   UNL     1       0.049  -1.782  -0.172  0.00  0.00    +0.224 C 
ATOM     14  C   UNL     1       2.064  -1.143  -0.136  0.00  0.00    +0.176 C 
ATOM     15  C   UNL     1       3.499  -1.048  -0.187  0.00  0.00    +0.273 C 
ATOM     16  C   UNL     1       3.051   1.328   0.346  0.00  0.00    +0.249 C 
ATOM     17  H   UNL     1       4.889   0.446   0.065  0.00  0.00    +0.158 HD
ENDBRANCH   3   8
BRANCH   2  18
ATOM     18  N   UNL     1      -1.188   2.150  -1.416  0.00  0.00    +0.386 N 
ATOM     19  H   UNL     1      -0.231   1.928  -1.689  0.00  0.00    -0.089 HD
ATOM     20  H   UNL     1      -1.177   2.859  -0.682  0.00  0.00    -0.089 HD
ATOM     21  H   UNL     1      -1.699   2.506  -2.224  0.00  0.00    -0.089 HD
ENDBRANCH   2  18
BRANCH   4  22
ATOM     22  O   UNL     1      -3.389   2.345   0.306  0.00  0.00    -0.384 OA
ATOM     23  H   UNL     1      -3.238   3.120  -0.257  0.00  0.00    +0.210 HD
ENDBRANCH   4  22
BRANCH   5  24
ATOM     24  C   UNL     1      -4.051  -1.261  -0.325  0.00  0.00    +0.169 C 
BRANCH  24  25
ATOM     25  O   UNL     1      -4.230  -2.322   0.597  0.00  0.00    -0.379 OA
ATOM     26  H   UNL     1      -4.566  -3.103   0.130  0.00  0.00    +0.211 HD
ENDBRANCH  24  25
ENDBRANCH   5  24
TORSDOF 5
