REMARK  Name = 135625242
REMARK  4 active torsions:
REMARK  status: ('A' for Active; 'I' for Inactive)
REMARK    1  A    between atoms: C_5  and  C_14
REMARK    2  A    between atoms: C_15  and  O_20
REMARK    3  A    between atoms: C_16  and  O_22
REMARK    4  A    between atoms: C_17  and  C_19
REMARK                            x       y       z     vdW  Elec       q    Type
REMARK                         _______ _______ _______ _____ _____    ______ ____
ROOT
ATOM      1  O   UNL     1       4.650   1.406   0.451  0.00  0.00    -0.273 OA
ATOM      2  N   UNL     1       1.670   1.863   0.447  0.00  0.00    -0.322 N 
ATOM      3  N   UNL     1       1.887  -1.529  -0.611  0.00  0.00    -0.251 NA
ATOM      4  N   UNL     1       4.139  -0.745  -0.252  0.00  0.00    -0.282 N 
ATOM      5  C   UNL     1       0.202   0.273  -0.127  0.00  0.00    +0.037 C 
ATOM      6  C   UNL     1       1.508  -0.235  -0.222  0.00  0.00    +0.082 C 
ATOM      7  C   UNL     1       0.331   1.583   0.292  0.00  0.00    +0.058 C 
ATOM      8  C   UNL     1       2.400   0.749   0.132  0.00  0.00    +0.187 C 
ATOM      9  C   UNL     1       3.822   0.555   0.142  0.00  0.00    +0.248 C 
ATOM     10  C   UNL     1       3.177  -1.691  -0.598  0.00  0.00    +0.218 C 
ATOM     11  H   UNL     1       2.043   2.726   0.738  0.00  0.00    +0.148 HD
ATOM     12  H   UNL     1       5.088  -1.006  -0.287  0.00  0.00    +0.151 HD
ENDROOT
BRANCH   5  14
ATOM     13  O   UNL     1      -2.097   0.446  -0.937  0.00  0.00    -0.348 OA
ATOM     14  C   UNL     1      -1.092  -0.451  -0.420  0.00  0.00    +0.169 C 
ATOM     15  C   UNL     1      -1.704  -1.099   0.816  0.00  0.00    +0.171 C 
ATOM     16  C   UNL     1      -3.179  -1.135   0.467  0.00  0.00    +0.168 C 
ATOM     17  C   UNL     1      -3.364   0.168  -0.300  0.00  0.00    +0.155 C 
BRANCH  17  19
ATOM     18  I   UNL     1      -4.000   3.116  -0.548  0.00  0.00    -0.072 I 
ATOM     19  C   UNL     1      -3.715   1.345   0.600  0.00  0.00    +0.094 C 
ENDBRANCH  17  19
BRANCH  15  20
ATOM     20  O   UNL     1      -1.167  -2.383   1.062  0.00  0.00    -0.379 OA
ATOM     21  H   UNL     1      -0.225  -2.304   1.279  0.00  0.00    +0.211 HD
ENDBRANCH  15  20
BRANCH  16  22
ATOM     22  O   UNL     1      -3.470  -2.236  -0.394  0.00  0.00    -0.379 OA
ATOM     23  H   UNL     1      -3.353  -3.066   0.092  0.00  0.00    +0.211 HD
ENDBRANCH  16  22
ENDBRANCH   5  14
TORSDOF 4
