REMARK  Name = 135625260
REMARK  4 active torsions:
REMARK  status: ('A' for Active; 'I' for Inactive)
REMARK    1  A    between atoms: N_2  and  C_15
REMARK    2  A    between atoms: C_15  and  C_16
REMARK    3  A    between atoms: C_17  and  C_22
REMARK    4  A    between atoms: C_22  and  O_23
REMARK                            x       y       z     vdW  Elec       q    Type
REMARK                         _______ _______ _______ _____ _____    ______ ____
ROOT
ATOM      1  O   UNL     1      -4.858   0.932   0.508  0.00  0.00    -0.268 OA
ATOM      2  N   UNL     1      -0.541   0.832  -0.819  0.00  0.00    -0.261 N 
ATOM      3  N   UNL     1      -2.323   2.135  -0.467  0.00  0.00    -0.240 NA
ATOM      4  N   UNL     1      -1.442  -1.329  -0.203  0.00  0.00    -0.357 NA
ATOM      5  N   UNL     1      -3.730  -1.112   0.475  0.00  0.00    -0.243 N 
ATOM      6  N   UNL     1      -2.671  -3.215   0.472  0.00  0.00    -0.321 N 
ATOM      7  C   UNL     1      -1.535   0.007  -0.382  0.00  0.00    +0.210 C 
ATOM      8  C   UNL     1      -1.063   2.101  -0.854  0.00  0.00    +0.222 C 
ATOM      9  C   UNL     1      -2.612   0.835  -0.175  0.00  0.00    +0.176 C 
ATOM     10  C   UNL     1      -3.848   0.274   0.297  0.00  0.00    +0.273 C 
ATOM     11  C   UNL     1      -2.560  -1.870   0.229  0.00  0.00    +0.239 C 
ATOM     12  H   UNL     1      -4.524  -1.596   0.797  0.00  0.00    +0.159 HD
ATOM     13  H   UNL     1      -1.898  -3.806   0.323  0.00  0.00    +0.146 HD
ATOM     14  H   UNL     1      -3.522  -3.588   0.795  0.00  0.00    +0.146 HD
ENDROOT
BRANCH   2  15
ATOM     15  C   UNL     1       0.860   0.443  -1.195  0.00  0.00    +0.095 C 
BRANCH  15  16
ATOM     16  C   UNL     1       1.718   0.180   0.043  0.00  0.00    +0.022 C 
ATOM     17  C   UNL     1       2.911  -0.766  -0.239  0.00  0.00    +0.031 C 
ATOM     18  C   UNL     1       2.169   1.506   0.677  0.00  0.00    +0.002 C 
ATOM     19  C   UNL     1       3.740  -0.967   1.042  0.00  0.00    +0.003 C 
ATOM     20  C   UNL     1       3.004   1.277   1.934  0.00  0.00    +0.000 C 
ATOM     21  C   UNL     1       4.186   0.349   1.675  0.00  0.00    +0.000 C 
BRANCH  17  22
ATOM     22  C   UNL     1       3.804  -0.311  -1.399  0.00  0.00    +0.137 C 
BRANCH  22  23
ATOM     23  O   UNL     1       4.791  -1.301  -1.619  0.00  0.00    -0.382 OA
ATOM     24  H   UNL     1       5.365  -1.028  -2.351  0.00  0.00    +0.210 HD
ENDBRANCH  22  23
ENDBRANCH  17  22
ENDBRANCH  15  16
ENDBRANCH   2  15
TORSDOF 4
