135625329
  -OEChem-03292013293D

 31 33  0     1  0  0  0  0  0999 V2000
    2.8079   -0.4684    0.9467 O   0  0  0  0  0  0  0  0  0  0  0  0
   -3.0618    2.3317    0.3696 O   0  0  0  0  0  0  0  0  0  0  0  0
   -4.9626   -0.0593    0.1297 O   0  0  0  0  0  0  0  0  0  0  0  0
    1.3862    1.1032   -0.0730 N   0  0  0  0  0  0  0  0  0  0  0  0
   -0.8523    1.6712    0.1421 N   0  0  0  0  0  0  0  0  0  0  0  0
   -0.1766   -0.6010   -0.2342 N   0  0  0  0  0  0  0  0  0  0  0  0
   -3.7004   -0.6027   -0.0258 N   0  0  0  0  0  0  0  0  0  0  0  0
   -2.1160   -2.1386   -0.3475 N   0  0  0  0  0  0  0  0  0  0  0  0
    3.7242    1.0529   -0.7087 C   0  0  0  0  0  0  0  0  0  0  0  0
    2.5161    0.2252   -0.2688 C   0  0  1  0  0  0  0  0  0  0  0  0
    4.9626    0.1723   -0.8429 C   0  0  0  0  0  0  0  0  0  0  0  0
    5.1704   -0.6569    0.4194 C   0  0  0  0  0  0  0  0  0  0  0  0
    3.8901   -1.3878    0.8003 C   0  0  0  0  0  0  0  0  0  0  0  0
    0.1126    0.6688   -0.0631 C   0  0  0  0  0  0  0  0  0  0  0  0
   -2.5108    0.0642    0.0020 C   0  0  0  0  0  0  0  0  0  0  0  0
   -1.5505   -0.8999   -0.1976 C   0  0  0  0  0  0  0  0  0  0  0  0
   -2.2280    1.4507    0.1903 C   0  0  0  0  0  0  0  0  0  0  0  0
   -3.4110   -1.9255   -0.2385 C   0  0  0  0  0  0  0  0  0  0  0  0
    3.9332    1.8302    0.0384 H   0  0  0  0  0  0  0  0  0  0  0  0
    3.5203    1.5644   -1.6566 H   0  0  0  0  0  0  0  0  0  0  0  0
    2.2865   -0.5082   -1.0533 H   0  0  0  0  0  0  0  0  0  0  0  0
    5.8456    0.7907   -1.0374 H   0  0  0  0  0  0  0  0  0  0  0  0
    4.8418   -0.4973   -1.7032 H   0  0  0  0  0  0  0  0  0  0  0  0
    5.9890   -1.3699    0.2766 H   0  0  0  0  0  0  0  0  0  0  0  0
    5.4556    0.0168    1.2369 H   0  0  0  0  0  0  0  0  0  0  0  0
    3.6261   -2.1467    0.0544 H   0  0  0  0  0  0  0  0  0  0  0  0
    4.0246   -1.8994    1.7586 H   0  0  0  0  0  0  0  0  0  0  0  0
    1.5781    2.0839    0.1108 H   0  0  0  0  0  0  0  0  0  0  0  0
   -0.5252    2.6252    0.2640 H   0  0  0  0  0  0  0  0  0  0  0  0
   -4.1836   -2.6790   -0.3039 H   0  0  0  0  0  0  0  0  0  0  0  0
   -5.1714    0.1640   -0.7937 H   0  0  0  0  0  0  0  0  0  0  0  0
  1 10  1  0  0  0  0
  1 13  1  0  0  0  0
  2 17  2  0  0  0  0
  3  7  1  0  0  0  0
  3 31  1  0  0  0  0
  4 10  1  0  0  0  0
  4 14  1  0  0  0  0
  4 28  1  0  0  0  0
  5 14  1  0  0  0  0
  5 17  1  0  0  0  0
  5 29  1  0  0  0  0
  6 14  2  0  0  0  0
  6 16  1  0  0  0  0
  7 15  1  0  0  0  0
  7 18  1  0  0  0  0
  8 16  1  0  0  0  0
  8 18  2  0  0  0  0
  9 10  1  0  0  0  0
  9 11  1  0  0  0  0
  9 19  1  0  0  0  0
  9 20  1  0  0  0  0
 10 21  1  0  0  0  0
 11 12  1  0  0  0  0
 11 22  1  0  0  0  0
 11 23  1  0  0  0  0
 12 13  1  0  0  0  0
 12 24  1  0  0  0  0
 12 25  1  0  0  0  0
 13 26  1  0  0  0  0
 13 27  1  0  0  0  0
 15 16  2  0  0  0  0
 15 17  1  0  0  0  0
 18 30  1  0  0  0  0
M  END
> <PUBCHEM_COMPOUND_CID>
135625329

> <PUBCHEM_CONFORMER_RMSD>
0.6

> <PUBCHEM_CONFORMER_DIVERSEORDER>
1
42
43
25
5
21
44
54
36
48
31
2
35
14
20
27
39
24
29
6
30
7
45
18
12
15
23
46
19
9
13
28
53
16
37
51
10
47
49
26
22
8
50
11
40
41
34
33
17
4
3
52
38
32

> <PUBCHEM_MMFF94_PARTIAL_CHARGES>
19
1 -0.56
10 0.65
13 0.28
14 0.56
15 -0.24
16 0.35
17 0.71
18 0.04
2 -0.57
28 0.4
29 0.37
3 -0.54
30 0.15
31 0.4
4 -0.82
5 -0.49
6 -0.57
7 0.44
8 -0.57

> <PUBCHEM_EFFECTIVE_ROTOR_COUNT>
3.2

> <PUBCHEM_PHARMACOPHORE_FEATURES>
8
1 1 acceptor
1 2 acceptor
1 4 donor
1 5 donor
3 7 8 18 cation
5 7 8 15 16 18 rings
6 1 9 10 11 12 13 rings
6 5 6 14 15 16 17 rings

> <PUBCHEM_HEAVY_ATOM_COUNT>
18

> <PUBCHEM_ATOM_DEF_STEREO_COUNT>
0

> <PUBCHEM_ATOM_UDEF_STEREO_COUNT>
1

> <PUBCHEM_BOND_DEF_STEREO_COUNT>
0

> <PUBCHEM_BOND_UDEF_STEREO_COUNT>
0

> <PUBCHEM_ISOTOPIC_ATOM_COUNT>
0

> <PUBCHEM_COMPONENT_COUNT>
1

> <PUBCHEM_CACTVS_TAUTO_COUNT>
-1

> <PUBCHEM_CONFORMER_ID>
08157A7100000001

> <PUBCHEM_MMFF94_ENERGY>
28.6963

> <PUBCHEM_FEATURE_SELFOVERLAP>
40.771

> <PUBCHEM_SHAPE_FINGERPRINT>
10062212 137 18335978696912764010
10616163 171 18411420622370185406
11046707 91 18412825810761339918
12107183 9 17759518876991556786
12236239 1 18113339708401305068
13167823 11 18334577936663786418
13288520 33 18341897385379954852
13760787 19 18335143059897065780
13862211 1 18342173414939897687
15042514 8 18341053038224120431
15196674 1 18338797926272640518
15242433 33 18333732442091794414
16752209 62 18340754988382610219
17804303 29 18272651285429023025
17834072 33 18261112989338467636
1813 80 17385733439472191510
18186145 218 16081088182281009976
19422 9 18333732412237805482
200 152 18186518825937827306
20281475 54 18335133177251157730
20510252 161 18130793317484450841
20645477 70 15213286501208237320
21267235 1 18408893931706268138
22646028 1 18333448746854108676
22646028 28 18334010592927289818
2297311 6 18130519586407380868
23402539 116 18272644654511208261
23557571 272 17917163718624292948
23559900 14 18270395109212897016
335352 9 18412545423213397213
4214541 1 18410573959724792132
474 4 17459762617126290436
5104073 3 18341615974564016760
559249 180 18262794043653916634
573450 72 18409162191131607384
58051976 100 18335422382688966516
633830 44 16298672685706395532
67856867 119 18262516039417378820
77779 3 18410576184781400660
9709674 26 18410018728028419062

> <PUBCHEM_SHAPE_MULTIPOLES>
327.92
10.44
1.94
0.77
6.26
0.06
0.01
-1.99
-0.03
-1.67
0.08
0.61
-0.05
-1.06

> <PUBCHEM_SHAPE_SELFOVERLAP>
706.477

> <PUBCHEM_SHAPE_VOLUME>
178.4

> <PUBCHEM_COORDINATE_TYPE>
2
5
10

$$$$
