135625344
  -OEChem-03292013293D

 55 60  0     1  0  0  0  0  0999 V2000
    3.8540    1.4854   -0.9142 O   0  0  0  0  0  0  0  0  0  0  0  0
    3.3279    4.2412    0.3279 O   0  0  0  0  0  0  0  0  0  0  0  0
    6.5993    0.9672   -0.7970 O   0  0  0  0  0  0  0  0  0  0  0  0
    1.5411   -4.4417    0.1602 O   0  0  0  0  0  0  0  0  0  0  0  0
    2.0591    0.0393   -0.0996 N   0  0  0  0  0  0  0  0  0  0  0  0
   -0.2845    0.6977   -0.1079 N   0  0  0  0  0  0  0  0  0  0  0  0
    0.5803   -1.6346    0.0136 N   0  0  0  0  0  0  0  0  0  0  0  0
    4.1375   -1.2006   -0.0556 N   0  0  0  0  0  0  0  0  0  0  0  0
   -2.3243    1.8657   -0.1496 N   0  0  0  0  0  0  0  0  0  0  0  0
    3.6989   -3.5520    0.0828 N   0  0  0  0  0  0  0  0  0  0  0  0
   -2.4469   -0.3483   -0.0220 N   0  0  0  0  0  0  0  0  0  0  0  0
    5.9088   -2.7427    0.0094 N   0  0  0  0  0  0  0  0  0  0  0  0
   -7.3815   -0.2311    0.0284 N   0  0  0  0  0  0  0  0  0  0  0  0
    2.6124    1.4394   -0.1865 C   0  0  1  0  0  0  0  0  0  0  0  0
    2.8920    2.0577    1.1789 C   0  0  0  0  0  0  0  0  0  0  0  0
    3.9599    3.0752    0.8511 C   0  0  1  0  0  0  0  0  0  0  0  0
    4.7596    2.3894   -0.2491 C   0  0  1  0  0  0  0  0  0  0  0  0
    5.9253    1.5726    0.2923 C   0  0  0  0  0  0  0  0  0  0  0  0
    0.7359   -0.3274   -0.0624 C   0  0  0  0  0  0  0  0  0  0  0  0
    2.7892   -1.1113   -0.0437 C   0  0  0  0  0  0  0  0  0  0  0  0
    1.8556   -2.1171    0.0248 C   0  0  0  0  0  0  0  0  0  0  0  0
   -1.6384    0.6851   -0.0905 C   0  0  0  0  0  0  0  0  0  0  0  0
    2.2987   -3.4819    0.0964 C   0  0  0  0  0  0  0  0  0  0  0  0
   -3.6633    1.5731   -0.1173 C   0  0  0  0  0  0  0  0  0  0  0  0
   -3.7176    0.1862   -0.0376 C   0  0  0  0  0  0  0  0  0  0  0  0
    4.5717   -2.4407    0.0090 C   0  0  0  0  0  0  0  0  0  0  0  0
   -4.9881   -0.4416    0.0130 C   0  0  0  0  0  0  0  0  0  0  0  0
   -1.7554    3.1934   -0.2312 C   0  0  0  0  0  0  0  0  0  0  0  0
   -4.7986    2.3776   -0.1499 C   0  0  0  0  0  0  0  0  0  0  0  0
   -6.1643    0.3412   -0.0180 C   0  0  0  0  0  0  0  0  0  0  0  0
   -6.0396    1.7266   -0.0984 C   0  0  0  0  0  0  0  0  0  0  0  0
   -5.0975   -1.8393    0.0941 C   0  0  0  0  0  0  0  0  0  0  0  0
   -6.3547   -2.4215    0.1420 C   0  0  0  0  0  0  0  0  0  0  0  0
   -7.4524   -1.5819    0.1065 C   0  0  0  0  0  0  0  0  0  0  0  0
    1.9032    2.0295   -0.7741 H   0  0  0  0  0  0  0  0  0  0  0  0
    3.2883    1.3065    1.8721 H   0  0  0  0  0  0  0  0  0  0  0  0
    1.9861    2.4888    1.6163 H   0  0  0  0  0  0  0  0  0  0  0  0
    4.5540    3.3735    1.7195 H   0  0  0  0  0  0  0  0  0  0  0  0
    5.1169    3.0948   -1.0076 H   0  0  0  0  0  0  0  0  0  0  0  0
    6.6332    2.2174    0.8227 H   0  0  0  0  0  0  0  0  0  0  0  0
    5.5918    0.7825    0.9705 H   0  0  0  0  0  0  0  0  0  0  0  0
    4.0312    4.8640    0.0764 H   0  0  0  0  0  0  0  0  0  0  0  0
    0.1155    1.6318   -0.1301 H   0  0  0  0  0  0  0  0  0  0  0  0
    7.3390    0.4554   -0.4277 H   0  0  0  0  0  0  0  0  0  0  0  0
    4.1201   -4.4753    0.1297 H   0  0  0  0  0  0  0  0  0  0  0  0
   -1.1480    3.3644    0.6616 H   0  0  0  0  0  0  0  0  0  0  0  0
   -1.1433    3.2528   -1.1352 H   0  0  0  0  0  0  0  0  0  0  0  0
   -2.5422    3.9475   -0.2811 H   0  0  0  0  0  0  0  0  0  0  0  0
   -4.7470    3.4585   -0.2119 H   0  0  0  0  0  0  0  0  0  0  0  0
   -6.9391    2.3412   -0.1229 H   0  0  0  0  0  0  0  0  0  0  0  0
   -4.2149   -2.4728    0.1200 H   0  0  0  0  0  0  0  0  0  0  0  0
    6.6114   -2.0130   -0.0400 H   0  0  0  0  0  0  0  0  0  0  0  0
    6.2347   -3.7017    0.0596 H   0  0  0  0  0  0  0  0  0  0  0  0
   -6.4724   -3.4970    0.2048 H   0  0  0  0  0  0  0  0  0  0  0  0
   -8.4593   -1.9855    0.1411 H   0  0  0  0  0  0  0  0  0  0  0  0
  1 14  1  0  0  0  0
  1 17  1  0  0  0  0
  2 16  1  0  0  0  0
  2 42  1  0  0  0  0
  3 18  1  0  0  0  0
  3 44  1  0  0  0  0
  4 23  2  0  0  0  0
  5 14  1  0  0  0  0
  5 19  1  0  0  0  0
  5 20  1  0  0  0  0
  6 19  1  0  0  0  0
  6 22  1  0  0  0  0
  6 43  1  0  0  0  0
  7 19  2  0  0  0  0
  7 21  1  0  0  0  0
  8 20  1  0  0  0  0
  8 26  2  0  0  0  0
  9 22  1  0  0  0  0
  9 24  1  0  0  0  0
  9 28  1  0  0  0  0
 10 23  1  0  0  0  0
 10 26  1  0  0  0  0
 10 45  1  0  0  0  0
 11 22  2  0  0  0  0
 11 25  1  0  0  0  0
 12 26  1  0  0  0  0
 12 52  1  0  0  0  0
 12 53  1  0  0  0  0
 13 30  1  0  0  0  0
 13 34  2  0  0  0  0
 14 15  1  0  0  0  0
 14 35  1  0  0  0  0
 15 16  1  0  0  0  0
 15 36  1  0  0  0  0
 15 37  1  0  0  0  0
 16 17  1  0  0  0  0
 16 38  1  0  0  0  0
 17 18  1  0  0  0  0
 17 39  1  0  0  0  0
 18 40  1  0  0  0  0
 18 41  1  0  0  0  0
 20 21  2  0  0  0  0
 21 23  1  0  0  0  0
 24 25  2  0  0  0  0
 24 29  1  0  0  0  0
 25 27  1  0  0  0  0
 27 30  2  0  0  0  0
 27 32  1  0  0  0  0
 28 46  1  0  0  0  0
 28 47  1  0  0  0  0
 28 48  1  0  0  0  0
 29 31  2  0  0  0  0
 29 49  1  0  0  0  0
 30 31  1  0  0  0  0
 31 50  1  0  0  0  0
 32 33  2  0  0  0  0
 32 51  1  0  0  0  0
 33 34  1  0  0  0  0
 33 54  1  0  0  0  0
 34 55  1  0  0  0  0
M  END
> <PUBCHEM_COMPOUND_CID>
135625344

> <PUBCHEM_CONFORMER_RMSD>
0.8

> <PUBCHEM_CONFORMER_DIVERSEORDER>
1
45
78
47
25
73
42
29
79
30
32
70
48
38
13
35
3
80
74
24
59
51
26
65
49
22
68
40
64
57
16
53
75
11
81
58
14
56
23
10
5
39
12
36
44
34
21
31
63
4
41
50
20
82
28
67
7
6
62
71
69
54
33
9
27
77
76
37
52
66
72
19
60
55
2
15
18
8
46
61
43
17

> <PUBCHEM_MMFF94_PARTIAL_CHARGES>
43
1 -0.56
10 -0.49
11 -0.57
12 -0.85
13 -0.62
14 0.54
16 0.28
17 0.28
18 0.28
19 0.27
2 -0.68
20 -0.03
21 0.14
22 0.27
23 0.72
24 -0.15
25 0.23
26 0.56
28 0.26
29 -0.15
3 -0.68
30 0.31
31 -0.15
32 -0.15
33 -0.15
34 0.16
4 -0.57
42 0.4
43 0.4
44 0.4
45 0.37
49 0.15
5 0.05
50 0.15
51 0.15
52 0.4
53 0.4
54 0.15
55 0.15
6 -0.57
7 -0.57
8 -0.58
9 0.05

> <PUBCHEM_EFFECTIVE_ROTOR_COUNT>
5

> <PUBCHEM_PHARMACOPHORE_FEATURES>
18
1 1 acceptor
1 10 donor
1 12 donor
1 13 acceptor
1 2 acceptor
1 2 donor
1 3 acceptor
1 3 donor
1 4 acceptor
1 6 donor
4 5 6 7 19 cation
4 6 9 11 22 cation
5 1 14 15 16 17 rings
5 5 7 19 20 21 rings
5 9 11 22 24 25 rings
6 13 27 30 32 33 34 rings
6 24 25 27 29 30 31 rings
6 8 10 20 21 23 26 rings

> <PUBCHEM_HEAVY_ATOM_COUNT>
34

> <PUBCHEM_ATOM_DEF_STEREO_COUNT>
3

> <PUBCHEM_ATOM_UDEF_STEREO_COUNT>
0

> <PUBCHEM_BOND_DEF_STEREO_COUNT>
0

> <PUBCHEM_BOND_UDEF_STEREO_COUNT>
0

> <PUBCHEM_ISOTOPIC_ATOM_COUNT>
0

> <PUBCHEM_COMPONENT_COUNT>
1

> <PUBCHEM_CACTVS_TAUTO_COUNT>
-1

> <PUBCHEM_CONFORMER_ID>
08157A8000000001

> <PUBCHEM_MMFF94_ENERGY>
89.4034

> <PUBCHEM_FEATURE_SELFOVERLAP>
91.676

> <PUBCHEM_SHAPE_FINGERPRINT>
10050765 1 18338234847797761093
10165383 225 18262241131677649380
10411042 1 18123470472093054038
10595046 47 18411419497404582777
10835480 77 18408595947529666053
11062273 19 18338524028451865566
11135926 11 18338788022642766783
11719270 70 18410288138304299746
11963148 33 18264480857568534627
12107183 9 17982177712853449825
12730499 353 18411985801316298144
131258 43 17487073171974612526
13533116 47 18411138026037115139
1361 2 18265333000433272825
13692114 37 18266169720529653690
13782708 43 17749954336594477571
14790565 3 17906172102602551557
14849402 71 18409731777195012476
14955137 171 18129097815147243214
15064981 113 13768188507694126939
15064986 266 18408885106640517789
15082195 135 17968954100557843677
15320467 1 18266458891976416881
15361156 5 17968956188354995741
15890870 6 18194965377743797996
15927050 60 18197494228870139006
16991971 28 18127698137008985230
17492 89 18338514119313564251
17844677 252 18340492175502991929
18608769 82 18339922726652297449
18681886 176 18341607058829770290
22149856 69 18337125531486947793
23559900 14 18267012865495565129
239999 70 18202289082434135022
3004659 81 18113899330219581435
350125 39 18410573972678135956
4073 2 18260272949601879531
4144715 1 18336834070147362001
484989 97 18410303527378349730
5104073 3 18341335518169957177
5109719 28 18198627820641617464
5776283 40 18336839662463917110
59755656 215 18409732880621754100
67856867 119 18410572851501657071

> <PUBCHEM_SHAPE_MULTIPOLES>
631.4
18.76
4.9
0.7
18.18
1.62
0.05
1.5
-0.15
-5.89
0.43
-0.37
-0.23
0.64

> <PUBCHEM_SHAPE_SELFOVERLAP>
1419.333

> <PUBCHEM_SHAPE_VOLUME>
327.8

> <PUBCHEM_COORDINATE_TYPE>
2
5
10

$$$$
