REMARK  Name = 135601234
REMARK  5 active torsions:
REMARK  status: ('A' for Active; 'I' for Inactive)
REMARK    1  A    between atoms: C_2  and  O_17
REMARK    2  A    between atoms: C_3  and  O_19
REMARK    3  A    between atoms: C_4  and  N_7
REMARK    4  A    between atoms: C_5  and  C_21
REMARK    5  A    between atoms: C_21  and  S_22
REMARK                            x       y       z     vdW  Elec       q    Type
REMARK                         _______ _______ _______ _____ _____    ______ ____
ROOT
ATOM      1  O   UNL     1      -1.403   0.021  -0.940  0.00  0.00    -0.335 OA
ATOM      2  C   UNL     1      -1.341  -1.826   0.563  0.00  0.00    +0.187 C 
ATOM      3  C   UNL     1      -2.743  -1.257   0.523  0.00  0.00    +0.169 C 
ATOM      4  C   UNL     1      -0.723  -1.228  -0.698  0.00  0.00    +0.225 C 
ATOM      5  C   UNL     1      -2.484   0.145  -0.001  0.00  0.00    +0.157 C 
ENDROOT
BRANCH   4   7
ATOM      6  O   UNL     1       4.921   0.598   0.203  0.00  0.00    -0.268 OA
ATOM      7  N   UNL     1       0.766  -1.009  -0.577  0.00  0.00    -0.247 N 
ATOM      8  N   UNL     1       2.959  -1.427  -0.734  0.00  0.00    -0.241 NA
ATOM      9  N   UNL     1       0.808   1.200   0.419  0.00  0.00    -0.232 NA
ATOM     10  N   UNL     1       3.078   1.913   0.772  0.00  0.00    -0.279 N 
ATOM     11  C   UNL     1       1.400   0.088  -0.074  0.00  0.00    +0.154 C 
ATOM     12  C   UNL     1       1.746  -1.892  -0.961  0.00  0.00    +0.223 C 
ATOM     13  C   UNL     1       2.742  -0.198  -0.183  0.00  0.00    +0.162 C 
ATOM     14  C   UNL     1       3.710   0.769   0.266  0.00  0.00    +0.267 C 
ATOM     15  C   UNL     1       1.688   2.070   0.824  0.00  0.00    +0.220 C 
ATOM     16  H   UNL     1       3.642   2.646   1.110  0.00  0.00    +0.152 HD
ENDBRANCH   4   7
BRANCH   2  17
ATOM     17  O   UNL     1      -1.354  -3.241   0.497  0.00  0.00    -0.378 OA
ATOM     18  H   UNL     1      -1.750  -3.599   1.306  0.00  0.00    +0.211 HD
ENDBRANCH   2  17
BRANCH   3  19
ATOM     19  O   UNL     1      -3.321  -1.242   1.814  0.00  0.00    -0.379 OA
ATOM     20  H   UNL     1      -3.470  -2.153   2.112  0.00  0.00    +0.211 HD
ENDBRANCH   3  19
BRANCH   5  21
ATOM     21  C   UNL     1      -3.687   0.763  -0.690  0.00  0.00    +0.090 C 
BRANCH  21  22
ATOM     22  S   UNL     1      -3.290   2.427  -1.292  0.00  0.00    -0.137 S 
ATOM     23  C   UNL     1      -3.472   3.324   0.267  0.00  0.00    +0.069 C 
ENDBRANCH  21  22
ENDBRANCH   5  21
TORSDOF 5
