135625264
  -OEChem-03292013293D

 53 59  0     1  0  0  0  0  0999 V2000
   -1.5361    2.6915    2.3941 O   0  0  0  0  0  0  0  0  0  0  0  0
   -1.8488    3.1830   -1.2162 O   0  0  0  0  0  0  0  0  0  0  0  0
    0.4937    4.5397   -0.8891 O   0  0  0  0  0  0  0  0  0  0  0  0
   -3.4221   -0.5164    2.2656 O   0  0  0  0  0  0  0  0  0  0  0  0
   -1.9735    0.1955   -0.3007 N   0  0  0  0  0  0  0  0  0  0  0  0
   -2.6035   -0.5971   -2.2876 N   0  0  0  0  0  0  0  0  0  0  0  0
   -4.7973   -1.7804    0.8964 N   0  0  0  0  0  0  0  0  0  0  0  0
   -4.5229   -1.9410   -1.4827 N   0  0  0  0  0  0  0  0  0  0  0  0
   -6.2463   -3.0910   -0.3929 N   0  0  0  0  0  0  0  0  0  0  0  0
   -1.1586    0.9813    0.7303 C   0  0  2  0  0  0  0  0  0  0  0  0
   -1.8436    2.3358    1.0430 C   0  0  2  0  0  0  0  0  0  0  0  0
    0.3418    1.0911    0.4056 C   0  0  0  0  0  0  0  0  0  0  0  0
   -1.4049    3.4563    0.1087 C   0  0  1  0  0  0  0  0  0  0  0  0
    0.1119    3.6378    0.1495 C   0  0  1  0  0  0  0  0  0  0  0  0
    0.9018    2.3463    0.0716 C   0  0  0  0  0  0  0  0  0  0  0  0
    1.1774   -0.0794    0.4253 C   0  0  0  0  0  0  0  0  0  0  0  0
    2.5494    0.0387    0.0799 C   0  0  0  0  0  0  0  0  0  0  0  0
    2.2675    2.4266   -0.2430 C   0  0  0  0  0  0  0  0  0  0  0  0
    3.0890    1.2971   -0.2586 C   0  0  0  0  0  0  0  0  0  0  0  0
    3.4069   -1.0983    0.0737 C   0  0  0  0  0  0  0  0  0  0  0  0
   -3.0578   -0.5993   -0.0686 C   0  0  0  0  0  0  0  0  0  0  0  0
    0.7227   -1.3718    0.7767 C   0  0  0  0  0  0  0  0  0  0  0  0
    2.9027   -2.3703    0.4187 C   0  0  0  0  0  0  0  0  0  0  0  0
   -1.7388    0.1653   -1.6508 C   0  0  0  0  0  0  0  0  0  0  0  0
    4.7736   -0.9672   -0.2745 C   0  0  0  0  0  0  0  0  0  0  0  0
    4.4444    1.4110   -0.5969 C   0  0  0  0  0  0  0  0  0  0  0  0
    1.5596   -2.4906    0.7707 C   0  0  0  0  0  0  0  0  0  0  0  0
   -3.4286   -1.0756   -1.3044 C   0  0  0  0  0  0  0  0  0  0  0  0
    5.2760    0.2934   -0.6078 C   0  0  0  0  0  0  0  0  0  0  0  0
   -3.7278   -0.9227    1.1496 C   0  0  0  0  0  0  0  0  0  0  0  0
    3.7533   -3.4859    0.4081 C   0  0  0  0  0  0  0  0  0  0  0  0
    5.6029   -2.0985   -0.2776 C   0  0  0  0  0  0  0  0  0  0  0  0
    5.0946   -3.3498    0.0610 C   0  0  0  0  0  0  0  0  0  0  0  0
   -5.1587   -2.2553   -0.3771 C   0  0  0  0  0  0  0  0  0  0  0  0
   -1.2248    0.3688    1.6376 H   0  0  0  0  0  0  0  0  0  0  0  0
   -2.9335    2.2253    0.9870 H   0  0  0  0  0  0  0  0  0  0  0  0
   -1.8701    4.4041    0.4065 H   0  0  0  0  0  0  0  0  0  0  0  0
    0.3870    4.1086    1.1027 H   0  0  0  0  0  0  0  0  0  0  0  0
    2.7036    3.3989   -0.4717 H   0  0  0  0  0  0  0  0  0  0  0  0
   -0.3098   -1.5445    1.0685 H   0  0  0  0  0  0  0  0  0  0  0  0
   -1.9082    2.0029    2.9712 H   0  0  0  0  0  0  0  0  0  0  0  0
   -0.9309    0.7103   -2.1194 H   0  0  0  0  0  0  0  0  0  0  0  0
   -2.8178    3.1053   -1.1912 H   0  0  0  0  0  0  0  0  0  0  0  0
    0.0045    5.3689   -0.7523 H   0  0  0  0  0  0  0  0  0  0  0  0
    4.8705    2.3778   -0.8582 H   0  0  0  0  0  0  0  0  0  0  0  0
    1.1416   -3.4562    1.0478 H   0  0  0  0  0  0  0  0  0  0  0  0
    6.3222    0.4218   -0.8774 H   0  0  0  0  0  0  0  0  0  0  0  0
    3.3773   -4.4723    0.6719 H   0  0  0  0  0  0  0  0  0  0  0  0
    6.6546   -2.0145   -0.5434 H   0  0  0  0  0  0  0  0  0  0  0  0
    5.7452   -4.2195    0.0560 H   0  0  0  0  0  0  0  0  0  0  0  0
   -5.3547   -2.0839    1.6896 H   0  0  0  0  0  0  0  0  0  0  0  0
   -6.5896   -3.4892   -1.2602 H   0  0  0  0  0  0  0  0  0  0  0  0
   -6.7384   -3.3352    0.4595 H   0  0  0  0  0  0  0  0  0  0  0  0
  1 11  1  0  0  0  0
  1 41  1  0  0  0  0
  2 13  1  0  0  0  0
  2 43  1  0  0  0  0
  3 14  1  0  0  0  0
  3 44  1  0  0  0  0
  4 30  2  0  0  0  0
  5 10  1  0  0  0  0
  5 21  1  0  0  0  0
  5 24  1  0  0  0  0
  6 24  2  0  0  0  0
  6 28  1  0  0  0  0
  7 30  1  0  0  0  0
  7 34  1  0  0  0  0
  7 51  1  0  0  0  0
  8 28  1  0  0  0  0
  8 34  2  0  0  0  0
  9 34  1  0  0  0  0
  9 52  1  0  0  0  0
  9 53  1  0  0  0  0
 10 11  1  0  0  0  0
 10 12  1  0  0  0  0
 10 35  1  0  0  0  0
 11 13  1  0  0  0  0
 11 36  1  0  0  0  0
 12 15  2  0  0  0  0
 12 16  1  0  0  0  0
 13 14  1  0  0  0  0
 13 37  1  0  0  0  0
 14 15  1  0  0  0  0
 14 38  1  0  0  0  0
 15 18  1  0  0  0  0
 16 17  2  0  0  0  0
 16 22  1  0  0  0  0
 17 19  1  0  0  0  0
 17 20  1  0  0  0  0
 18 19  2  0  0  0  0
 18 39  1  0  0  0  0
 19 26  1  0  0  0  0
 20 23  1  0  0  0  0
 20 25  2  0  0  0  0
 21 28  2  0  0  0  0
 21 30  1  0  0  0  0
 22 27  2  0  0  0  0
 22 40  1  0  0  0  0
 23 27  1  0  0  0  0
 23 31  2  0  0  0  0
 24 42  1  0  0  0  0
 25 29  1  0  0  0  0
 25 32  1  0  0  0  0
 26 29  2  0  0  0  0
 26 45  1  0  0  0  0
 27 46  1  0  0  0  0
 29 47  1  0  0  0  0
 31 33  1  0  0  0  0
 31 48  1  0  0  0  0
 32 33  2  0  0  0  0
 32 49  1  0  0  0  0
 33 50  1  0  0  0  0
M  END
> <PUBCHEM_COMPOUND_CID>
135625264

> <PUBCHEM_CONFORMER_RMSD>
0.8

> <PUBCHEM_CONFORMER_DIVERSEORDER>
1
9
8
4
3
10
5
7
2
6

> <PUBCHEM_MMFF94_PARTIAL_CHARGES>
43
1 -0.68
10 0.4
11 0.28
12 -0.14
13 0.28
14 0.42
15 -0.14
18 -0.15
2 -0.68
21 -0.24
22 -0.15
24 0.04
26 -0.15
27 -0.15
28 0.35
29 -0.15
3 -0.68
30 0.71
31 -0.15
32 -0.15
33 -0.15
34 0.56
39 0.15
4 -0.57
40 0.15
41 0.4
42 0.15
43 0.4
44 0.4
45 0.15
46 0.15
47 0.15
48 0.15
49 0.15
5 0.05
50 0.15
51 0.37
52 0.4
53 0.4
6 -0.57
7 -0.49
8 -0.57
9 -0.85

> <PUBCHEM_EFFECTIVE_ROTOR_COUNT>
1.8

> <PUBCHEM_PHARMACOPHORE_FEATURES>
17
1 1 acceptor
1 1 donor
1 2 acceptor
1 2 donor
1 3 acceptor
1 3 donor
1 4 acceptor
1 7 donor
1 9 donor
3 5 6 24 cation
5 5 6 21 24 28 rings
6 10 11 12 13 14 15 rings
6 12 15 16 17 18 19 rings
6 16 17 20 22 23 27 rings
6 17 19 20 25 26 29 rings
6 20 23 25 31 32 33 rings
6 7 8 21 28 30 34 rings

> <PUBCHEM_HEAVY_ATOM_COUNT>
34

> <PUBCHEM_ATOM_DEF_STEREO_COUNT>
0

> <PUBCHEM_ATOM_UDEF_STEREO_COUNT>
4

> <PUBCHEM_BOND_DEF_STEREO_COUNT>
0

> <PUBCHEM_BOND_UDEF_STEREO_COUNT>
0

> <PUBCHEM_ISOTOPIC_ATOM_COUNT>
0

> <PUBCHEM_COMPONENT_COUNT>
1

> <PUBCHEM_CACTVS_TAUTO_COUNT>
-1

> <PUBCHEM_CONFORMER_ID>
08157A3000000001

> <PUBCHEM_MMFF94_ENERGY>
108.6458

> <PUBCHEM_FEATURE_SELFOVERLAP>
86.604

> <PUBCHEM_SHAPE_FINGERPRINT>
11014199 57 18337952273261410870
11135609 187 18120094133070226020
11552529 35 18129104416073997664
11582403 64 13755834218660236553
11763715 3 18190482501206128028
11991303 11 17971472893294030717
12107183 9 18342750598599171403
12236239 1 17773888665138153363
12422481 6 17488479493530582358
12553582 1 18341321283930906398
12633257 1 15123502653289471707
131258 38 17053845008714958663
13140716 1 17908704282619321040
13690498 29 18122365488196707230
13782708 43 17603862347161316747
13911987 19 17899995003818721964
14347332 77 18410292467599997214
17349148 13 18113337475672419642
17492 89 18339079268749501902
17909252 39 18341888580998113802
1813 80 18272383004512854749
18393751 57 17839717586409618080
19319366 153 17694786624486850221
20775438 99 17760597639290311917
21033650 10 15719949103880844542
21133410 171 17538514969445551003
22393880 68 17822560604378246462
23598288 3 18129942261013894397
24893989 43 17123961994399670631
3380486 145 17898880064372967978
345986 75 17917716846229952241
3737641 26 18410295817452799286
44880168 125 16988566783919116062
4616759 239 17481682184864438898
46194498 28 17459745015674571773
463206 1 18266457792222715878
469060 322 18408611370066331224
5104073 3 18198058085187851706
5265222 85 15094495981845732859
5309563 4 18410572907283906847
6058803 2 18046358435965561988
70251023 43 18410288155457684753
7970288 3 18341328971981122687

> <PUBCHEM_SHAPE_MULTIPOLES>
651.32
11.39
4.98
1.42
0.02
2.7
-0.07
-12.89
1.68
0.28
0
1.81
0.14
-1.3

> <PUBCHEM_SHAPE_SELFOVERLAP>
1508.026

> <PUBCHEM_SHAPE_VOLUME>
330.1

> <PUBCHEM_COORDINATE_TYPE>
2
5
10

$$$$
