135625284
  -OEChem-03292013293D

 33 35  0     1  0  0  0  0  0999 V2000
    2.2304    0.3577   -0.9979 O   0  0  0  0  0  0  0  0  0  0  0  0
    2.9034    1.5767    1.6524 O   0  0  0  0  0  0  0  0  0  0  0  0
    4.5225   -0.7819   -2.1711 O   0  0  0  0  0  0  0  0  0  0  0  0
   -4.3938    1.7059   -0.1913 O   0  0  0  0  0  0  0  0  0  0  0  0
   -0.0608    0.4255   -0.2133 N   0  0  0  0  0  0  0  0  0  0  0  0
   -1.4607    2.1686   -0.2751 N   0  0  0  0  0  0  0  0  0  0  0  0
   -1.6379   -1.4064   -0.0858 N   0  0  0  0  0  0  0  0  0  0  0  0
   -3.8833   -0.5704   -0.0833 N   0  0  0  0  0  0  0  0  0  0  0  0
   -3.4612   -2.8839    0.0278 N   0  0  0  0  0  0  0  0  0  0  0  0
    1.2438   -0.3366   -0.2009 C   0  0  2  0  0  0  0  0  0  0  0  0
    3.4956    0.3017   -0.3061 C   0  0  1  0  0  0  0  0  0  0  0  0
    3.1500    0.2583    1.1777 C   0  0  2  0  0  0  0  0  0  0  0  0
    1.8607   -0.4881    1.1585 C   0  0  0  0  0  0  0  0  0  0  0  0
    4.2668   -0.9243   -0.7858 C   0  0  0  0  0  0  0  0  0  0  0  0
   -1.3202   -0.0950   -0.1605 C   0  0  0  0  0  0  0  0  0  0  0  0
   -0.1974    1.7906   -0.2814 C   0  0  0  0  0  0  0  0  0  0  0  0
    1.4071   -1.2698    2.1446 C   0  0  0  0  0  0  0  0  0  0  0  0
   -2.1537    0.9965   -0.2000 C   0  0  0  0  0  0  0  0  0  0  0  0
   -3.5758    0.7953   -0.1605 C   0  0  0  0  0  0  0  0  0  0  0  0
   -2.9353   -1.6203   -0.0482 C   0  0  0  0  0  0  0  0  0  0  0  0
    1.0430   -1.3020   -0.6788 H   0  0  0  0  0  0  0  0  0  0  0  0
    4.0409    1.2125   -0.5786 H   0  0  0  0  0  0  0  0  0  0  0  0
    3.9287   -0.2018    1.7932 H   0  0  0  0  0  0  0  0  0  0  0  0
    3.6944   -1.8470   -0.6474 H   0  0  0  0  0  0  0  0  0  0  0  0
    5.2224   -1.0116   -0.2595 H   0  0  0  0  0  0  0  0  0  0  0  0
    0.6534    2.4565   -0.3300 H   0  0  0  0  0  0  0  0  0  0  0  0
    0.4867   -1.8328    2.0374 H   0  0  0  0  0  0  0  0  0  0  0  0
    1.9501   -1.3617    3.0790 H   0  0  0  0  0  0  0  0  0  0  0  0
    3.7350    2.0746    1.5740 H   0  0  0  0  0  0  0  0  0  0  0  0
    5.0204   -1.5679   -2.4534 H   0  0  0  0  0  0  0  0  0  0  0  0
   -4.8660   -0.8260   -0.0500 H   0  0  0  0  0  0  0  0  0  0  0  0
   -2.8613   -3.7012    0.0580 H   0  0  0  0  0  0  0  0  0  0  0  0
   -4.4629   -3.0392    0.0563 H   0  0  0  0  0  0  0  0  0  0  0  0
  1 10  1  0  0  0  0
  1 11  1  0  0  0  0
  2 12  1  0  0  0  0
  2 29  1  0  0  0  0
  3 14  1  0  0  0  0
  3 30  1  0  0  0  0
  4 19  2  0  0  0  0
  5 10  1  0  0  0  0
  5 15  1  0  0  0  0
  5 16  1  0  0  0  0
  6 16  2  0  0  0  0
  6 18  1  0  0  0  0
  7 15  1  0  0  0  0
  7 20  2  0  0  0  0
  8 19  1  0  0  0  0
  8 20  1  0  0  0  0
  8 31  1  0  0  0  0
  9 20  1  0  0  0  0
  9 32  1  0  0  0  0
  9 33  1  0  0  0  0
 10 13  1  0  0  0  0
 10 21  1  0  0  0  0
 11 12  1  0  0  0  0
 11 14  1  0  0  0  0
 11 22  1  0  0  0  0
 12 13  1  0  0  0  0
 12 23  1  0  0  0  0
 13 17  2  0  0  0  0
 14 24  1  0  0  0  0
 14 25  1  0  0  0  0
 15 18  2  0  0  0  0
 16 26  1  0  0  0  0
 17 27  1  0  0  0  0
 17 28  1  0  0  0  0
 18 19  1  0  0  0  0
M  END
> <PUBCHEM_COMPOUND_CID>
135625284

> <PUBCHEM_CONFORMER_RMSD>
0.6

> <PUBCHEM_CONFORMER_DIVERSEORDER>
1
9
28
8
24
4
12
5
18
21
17
7
27
15
14
19
10
23
26
3
6
20
2
16
13
11
25
22

> <PUBCHEM_MMFF94_PARTIAL_CHARGES>
28
1 -0.56
10 0.67
11 0.28
12 0.42
13 -0.28
14 0.28
15 -0.03
16 0.04
17 -0.3
18 0.14
19 0.72
2 -0.68
20 0.56
26 0.15
27 0.15
28 0.15
29 0.4
3 -0.68
30 0.4
31 0.37
32 0.4
33 0.4
4 -0.57
5 0.05
6 -0.57
7 -0.58
8 -0.49
9 -0.85

> <PUBCHEM_EFFECTIVE_ROTOR_COUNT>
2.8

> <PUBCHEM_PHARMACOPHORE_FEATURES>
12
1 1 acceptor
1 2 acceptor
1 2 donor
1 3 acceptor
1 3 donor
1 4 acceptor
1 8 donor
1 9 donor
3 5 6 16 cation
5 1 10 11 12 13 rings
5 5 6 15 16 18 rings
6 7 8 15 18 19 20 rings

> <PUBCHEM_HEAVY_ATOM_COUNT>
20

> <PUBCHEM_ATOM_DEF_STEREO_COUNT>
2

> <PUBCHEM_ATOM_UDEF_STEREO_COUNT>
1

> <PUBCHEM_BOND_DEF_STEREO_COUNT>
0

> <PUBCHEM_BOND_UDEF_STEREO_COUNT>
0

> <PUBCHEM_ISOTOPIC_ATOM_COUNT>
0

> <PUBCHEM_COMPONENT_COUNT>
1

> <PUBCHEM_CACTVS_TAUTO_COUNT>
-1

> <PUBCHEM_CONFORMER_ID>
08157A4400000001

> <PUBCHEM_MMFF94_ENERGY>
43.4172

> <PUBCHEM_FEATURE_SELFOVERLAP>
61.08

> <PUBCHEM_SHAPE_FINGERPRINT>
10498660 4 18334571339172169684
11132069 177 18409441492686307969
11552529 35 16341729745565178727
12236239 1 17603869975106902396
12553582 1 18188206623848115283
12596599 1 18342744030623666968
13134695 92 15697995215623419730
13296908 3 18341326785799648382
13538477 17 18187920655797107325
13544592 145 18130509643209801029
13760787 19 17894912901944429759
14178342 30 18189596358862673049
14787075 74 17973718379183595128
15219456 202 17917987304472960944
15375462 189 17967808358228861569
15415430 112 18334016098953940063
15669948 3 18334286553123735843
16752209 62 18335693971041702495
16945 1 18262225651755502093
17804303 29 18342178851624487941
18175812 5 18060698402977765012
18186145 218 17530963622290085172
19026448 4 18060418044834859026
19862831 5 17821734927032797278
20681677 155 18334019362860066169
21267235 1 18334867138318525443
23175994 123 16845298198505919584
23402539 116 18260265261662946110
23493267 7 18410577245332504055
23557571 272 18270112534455020312
23559900 14 18342176648654444468
34934 24 18187916270983885097
474 4 16878801537733638396
5104073 3 18341890813911161688
53748568 43 17967534558037149987
57096353 35 17676205801152519006
6049 1 18131913771462296288
7097593 13 17610312992591525539
77492 1 17603299353951604130
9709674 26 18272644692727992277

> <PUBCHEM_SHAPE_MULTIPOLES>
363.21
8.35
2.08
1.38
0.29
0.41
-0.23
1.02
2.1
-2.31
-0.14
2.27
0.3
0.34

> <PUBCHEM_SHAPE_SELFOVERLAP>
790.752

> <PUBCHEM_SHAPE_VOLUME>
197.6

> <PUBCHEM_COORDINATE_TYPE>
2
5
10

$$$$
