135618574
  -OEChem-03292013293D

 35 37  0     1  0  0  0  0  0999 V2000
   -4.4456    2.4285   -1.6603 S   0  0  0  0  0  0  0  0  0  0  0  0
   -4.3151    1.0685   -0.2809 P   0  0  0  0  0  0  0  0  0  0  0  0
   -0.3308   -1.8460   -1.1851 O   0  0  0  0  0  0  0  0  0  0  0  0
   -3.5823   -0.3222   -0.6825 O   0  0  0  0  0  0  0  0  0  0  0  0
   -2.3544   -1.7377    1.8245 O   0  0  0  0  0  0  0  0  0  0  0  0
    4.9998    1.7863   -0.1348 O   0  0  0  0  0  0  0  0  0  0  0  0
   -5.7399    0.5608    0.3053 O   0  0  0  0  0  0  0  0  0  0  0  0
   -3.5432    1.5097    1.0759 O   0  0  0  0  0  0  0  0  0  0  0  0
    1.8803   -1.4807   -0.2337 N   0  0  0  0  0  0  0  0  0  0  0  0
    4.0506   -1.0060   -0.4903 N   0  0  0  0  0  0  0  0  0  0  0  0
    1.0063    0.7122    0.3013 N   0  0  0  0  0  0  0  0  0  0  0  0
    2.7736    2.3297    0.3152 N   0  0  0  0  0  0  0  0  0  0  0  0
    0.5556    2.9678    0.7805 N   0  0  0  0  0  0  0  0  0  0  0  0
    0.6127   -2.2992   -0.1823 C   0  0  1  0  0  0  0  0  0  0  0  0
   -1.6302   -1.6939   -0.5628 C   0  0  1  0  0  0  0  0  0  0  0  0
   -0.1083   -2.2096    1.1187 C   0  0  0  0  0  0  0  0  0  0  0  0
   -1.3732   -1.8690    0.8881 C   0  0  0  0  0  0  0  0  0  0  0  0
   -2.1891   -0.3325   -0.9442 C   0  0  0  0  0  0  0  0  0  0  0  0
    2.0065   -0.1412   -0.0111 C   0  0  0  0  0  0  0  0  0  0  0  0
    3.1370   -1.9564   -0.5182 C   0  0  0  0  0  0  0  0  0  0  0  0
    3.3457    0.1180   -0.1756 C   0  0  0  0  0  0  0  0  0  0  0  0
    3.8260    1.4617   -0.0082 C   0  0  0  0  0  0  0  0  0  0  0  0
    1.4180    1.9513    0.4606 C   0  0  0  0  0  0  0  0  0  0  0  0
    0.9020   -3.3305   -0.4127 H   0  0  0  0  0  0  0  0  0  0  0  0
   -2.2776   -2.4991   -0.9295 H   0  0  0  0  0  0  0  0  0  0  0  0
    0.3222   -2.4217    2.0858 H   0  0  0  0  0  0  0  0  0  0  0  0
   -2.0405   -0.1467   -2.0136 H   0  0  0  0  0  0  0  0  0  0  0  0
   -1.6829    0.4752   -0.4051 H   0  0  0  0  0  0  0  0  0  0  0  0
    3.3229   -2.9992   -0.7365 H   0  0  0  0  0  0  0  0  0  0  0  0
   -1.9602   -1.9146    2.6962 H   0  0  0  0  0  0  0  0  0  0  0  0
    3.0036    3.3092    0.4561 H   0  0  0  0  0  0  0  0  0  0  0  0
   -0.4360    2.7949    0.9046 H   0  0  0  0  0  0  0  0  0  0  0  0
    0.8820    3.9203    0.9013 H   0  0  0  0  0  0  0  0  0  0  0  0
   -3.7280    2.3941    1.4579 H   0  0  0  0  0  0  0  0  0  0  0  0
   -6.4330    1.2261    0.5029 H   0  0  0  0  0  0  0  0  0  0  0  0
  1  2  2  0  0  0  0
  2  4  1  0  0  0  0
  2  7  1  0  0  0  0
  2  8  1  0  0  0  0
  3 14  1  0  0  0  0
  3 15  1  0  0  0  0
  4 18  1  0  0  0  0
  5 17  1  0  0  0  0
  5 30  1  0  0  0  0
  6 22  2  0  0  0  0
  7 35  1  0  0  0  0
  8 34  1  0  0  0  0
  9 14  1  0  0  0  0
  9 19  1  0  0  0  0
  9 20  1  0  0  0  0
 10 20  2  0  0  0  0
 10 21  1  0  0  0  0
 11 19  1  0  0  0  0
 11 23  2  0  0  0  0
 12 22  1  0  0  0  0
 12 23  1  0  0  0  0
 12 31  1  0  0  0  0
 13 23  1  0  0  0  0
 13 32  1  0  0  0  0
 13 33  1  0  0  0  0
 14 16  1  0  0  0  0
 14 24  1  0  0  0  0
 15 17  1  0  0  0  0
 15 18  1  0  0  0  0
 15 25  1  0  0  0  0
 16 17  2  0  0  0  0
 16 26  1  0  0  0  0
 18 27  1  0  0  0  0
 18 28  1  0  0  0  0
 19 21  2  0  0  0  0
 20 29  1  0  0  0  0
 21 22  1  0  0  0  0
M  END
> <PUBCHEM_COMPOUND_CID>
135618574

> <PUBCHEM_CONFORMER_RMSD>
0.8

> <PUBCHEM_CONFORMER_DIVERSEORDER>
1
70
74
90
118
80
109
121
100
10
76
49
78
22
27
97
47
62
26
86
119
40
24
59
12
111
66
5
85
43
11
75
107
92
28
98
114
33
34
84
32
104
71
9
73
16
52
67
93
65
7
14
57
48
112
82
81
29
13
91
39
41
21
83
69
19
120
101
45
89
31
106
108
103
64
113
54
15
60
56
115
50
35
17
6
110
20
46
95
2
38
116
18
23
102
4
3
61
63
42
51
68
53
44
25
8
99
37
77
30
79
55
96
105
94
58
117
72
36
88
87

> <PUBCHEM_MMFF94_PARTIAL_CHARGES>
31
1 -0.68
10 -0.57
11 -0.58
12 -0.49
13 -0.85
14 0.67
15 0.42
16 -0.29
17 -0.06
18 0.28
19 -0.03
2 1.49
20 0.04
21 0.14
22 0.72
23 0.56
26 0.15
29 0.15
3 -0.56
30 0.45
31 0.37
32 0.4
33 0.4
34 0.5
35 0.5
4 -0.55
5 -0.53
6 -0.57
7 -0.77
8 -0.77
9 0.05

> <PUBCHEM_EFFECTIVE_ROTOR_COUNT>
4.6

> <PUBCHEM_PHARMACOPHORE_FEATURES>
11
1 12 donor
1 13 donor
1 3 acceptor
1 5 donor
1 6 acceptor
1 7 acceptor
1 8 acceptor
3 9 10 20 cation
5 3 14 15 16 17 rings
5 9 10 19 20 21 rings
6 11 12 19 21 22 23 rings

> <PUBCHEM_HEAVY_ATOM_COUNT>
23

> <PUBCHEM_ATOM_DEF_STEREO_COUNT>
2

> <PUBCHEM_ATOM_UDEF_STEREO_COUNT>
0

> <PUBCHEM_BOND_DEF_STEREO_COUNT>
0

> <PUBCHEM_BOND_UDEF_STEREO_COUNT>
0

> <PUBCHEM_ISOTOPIC_ATOM_COUNT>
0

> <PUBCHEM_COMPONENT_COUNT>
1

> <PUBCHEM_CACTVS_TAUTO_COUNT>
-1

> <PUBCHEM_CONFORMER_ID>
0815600E00000001

> <PUBCHEM_MMFF94_ENERGY>
20.9602

> <PUBCHEM_FEATURE_SELFOVERLAP>
56.018

> <PUBCHEM_SHAPE_FINGERPRINT>
1100329 8 16895108020510864571
116883 192 18057894541601535414
12596602 18 14707508987630726597
12769317 202 18191290586412511413
13402501 40 18335421253524407389
13464514 151 18410853304571667350
14466204 15 18267850852454876120
14931854 50 18343862212670009613
15081414 286 18343306946328502420
15196674 1 18412543223430414727
15238133 3 18187638051792909906
15295992 7 18333452044872560243
17093844 170 18337380557406910460
18219364 16 18195254544668455482
19930381 70 16901009683896869535
21475661 188 18261107444287827245
221357 26 18342171202651490559
22182937 141 18337956800230917323
23227448 37 18413105091632514687
23559900 14 18341894087515146774
25 1 18409724088670666350
335352 9 18412545406091446454
3524813 1 18188485770698999837
427121 178 17240767229401782979
474 4 18411980226696570187
7832392 63 18272642467729653062

> <PUBCHEM_SHAPE_MULTIPOLES>
420.91
9.52
3.37
1.19
5.83
0.68
-0.08
6
1.61
-0.56
-0.34
1.07
-0.13
1.34

> <PUBCHEM_SHAPE_SELFOVERLAP>
881.783

> <PUBCHEM_SHAPE_VOLUME>
242.5

> <PUBCHEM_COORDINATE_TYPE>
2
5
10

$$$$
