REMARK  Name = 135625354
REMARK  8 active torsions:
REMARK  status: ('A' for Active; 'I' for Inactive)
REMARK    1  A    between atoms: C_1  and  N_7
REMARK    2  A    between atoms: C_3  and  O_20
REMARK    3  A    between atoms: O_20  and  C_22
REMARK    4  A    between atoms: C_22  and  C_26
REMARK    5  A    between atoms: C_24  and  O_29
REMARK    6  A    between atoms: C_25  and  O_31
REMARK    7  A    between atoms: C_27  and  O_33
REMARK    8  A    between atoms: C_28  and  O_35
REMARK                            x       y       z     vdW  Elec       q    Type
REMARK                         _______ _______ _______ _____ _____    ______ ____
ROOT
ATOM      1  C   UNL     1       2.180   1.963  -0.123  0.00  0.00    +0.103 C 
ATOM      2  C   UNL     1       0.919   1.961  -1.017  0.00  0.00    +0.073 C 
ATOM      3  C   UNL     1      -0.213   2.588  -0.193  0.00  0.00    +0.193 C 
ATOM      4  C   UNL     1       1.771   2.813   1.043  0.00  0.00    -0.008 C 
ATOM      5  C   UNL     1       0.478   3.144   1.004  0.00  0.00    +0.014 C 
ENDROOT
BRANCH   1   7
ATOM      6  O   UNL     1       5.022  -3.199   1.000  0.00  0.00    -0.268 OA
ATOM      7  N   UNL     1       2.664   0.588   0.286  0.00  0.00    -0.259 N 
ATOM      8  N   UNL     1       2.626  -1.455   1.195  0.00  0.00    -0.240 NA
ATOM      9  N   UNL     1       4.906   0.626  -0.627  0.00  0.00    -0.357 NA
ATOM     10  N   UNL     1       6.024  -1.443  -0.169  0.00  0.00    -0.243 N 
ATOM     11  N   UNL     1       7.112   0.274  -1.356  0.00  0.00    -0.321 N 
ATOM     12  C   UNL     1       3.887   0.037   0.038  0.00  0.00    +0.210 C 
ATOM     13  C   UNL     1       1.941  -0.347   0.985  0.00  0.00    +0.222 C 
ATOM     14  C   UNL     1       3.832  -1.212   0.607  0.00  0.00    +0.176 C 
ATOM     15  C   UNL     1       4.979  -2.072   0.524  0.00  0.00    +0.273 C 
ATOM     16  C   UNL     1       5.971  -0.140  -0.718  0.00  0.00    +0.239 C 
ATOM     17  H   UNL     1       6.861  -1.949  -0.282  0.00  0.00    +0.159 HD
ATOM     18  H   UNL     1       7.150   1.170  -1.763  0.00  0.00    +0.146 HD
ATOM     19  H   UNL     1       7.892  -0.323  -1.407  0.00  0.00    +0.146 HD
ENDBRANCH   1   7
BRANCH   3  20
ATOM     20  O   UNL     1      -1.156   1.613   0.218  0.00  0.00    -0.446 OA
BRANCH  20  22
ATOM     21  O   UNL     1      -2.443   2.061  -1.647  0.00  0.00    -0.247 OA
ATOM     22  C   UNL     1      -2.229   1.452  -0.608  0.00  0.00    +0.347 C 
BRANCH  22  26
ATOM     23  O   UNL     1      -4.428   0.851  -0.443  0.00  0.00    -0.317 OA
ATOM     24  C   UNL     1      -2.797  -0.968  -0.643  0.00  0.00    +0.178 C 
ATOM     25  C   UNL     1      -3.903  -1.987  -0.356  0.00  0.00    +0.172 C 
ATOM     26  C   UNL     1      -3.133   0.399  -0.054  0.00  0.00    +0.245 C 
ATOM     27  C   UNL     1      -5.269  -1.402  -0.714  0.00  0.00    +0.196 C 
ATOM     28  C   UNL     1      -5.473  -0.040  -0.051  0.00  0.00    +0.266 C 
BRANCH  24  29
ATOM     29  O   UNL     1      -1.578  -1.428  -0.061  0.00  0.00    -0.379 OA
ATOM     30  H   UNL     1      -1.352  -2.297  -0.428  0.00  0.00    +0.211 HD
ENDBRANCH  24  29
BRANCH  25  31
ATOM     31  O   UNL     1      -3.654  -3.144  -1.155  0.00  0.00    -0.379 OA
ATOM     32  H   UNL     1      -2.787  -3.514  -0.926  0.00  0.00    +0.211 HD
ENDBRANCH  25  31
BRANCH  27  33
ATOM     33  O   UNL     1      -6.310  -2.280  -0.299  0.00  0.00    -0.378 OA
ATOM     34  H   UNL     1      -6.188  -3.147  -0.717  0.00  0.00    +0.211 HD
ENDBRANCH  27  33
BRANCH  28  35
ATOM     35  O   UNL     1      -5.549  -0.187   1.366  0.00  0.00    -0.326 OA
ATOM     36  C   UNL     1      -6.177   0.935   1.969  0.00  0.00    +0.177 C 
ENDBRANCH  28  35
ENDBRANCH  22  26
ENDBRANCH  20  22
ENDBRANCH   3  20
TORSDOF 8
