REMARK  Name = 135625326
REMARK  11 active torsions:
REMARK  status: ('A' for Active; 'I' for Inactive)
REMARK    1  A    between atoms: C_1  and  C_9
REMARK    2  A    between atoms: C_2  and  N_22
REMARK    3  A    between atoms: N_8  and  CA_11
REMARK    4  A    between atoms: CA_11  and  C_13
REMARK    5  A    between atoms: CA_11  and  CB_16
REMARK    6  A    between atoms: C_13  and  O_14
REMARK    7  A    between atoms: CB_16  and  CG_17
REMARK    8  A    between atoms: CG_17  and  CD_19
REMARK    9  A    between atoms: CD_19  and  OE1_20
REMARK   10  A    between atoms: N_22  and  C_24
REMARK   11  A    between atoms: C_24  and  C_28
REMARK                            x       y       z     vdW  Elec       q    Type
REMARK                         _______ _______ _______ _____ _____    ______ ____
ROOT
ATOM      1  C   UNL     1       2.131   0.708   0.870  0.00  0.00    +0.053 C 
ATOM      2  C   UNL     1      -0.575   0.213   0.405  0.00  0.00    +0.045 C 
ATOM      3  C   UNL     1       1.333   0.183   1.886  0.00  0.00    +0.006 C 
ATOM      4  C   UNL     1       1.575   0.986  -0.379  0.00  0.00    +0.006 C 
ATOM      5  C   UNL     1      -0.020  -0.065   1.654  0.00  0.00    +0.014 C 
ATOM      6  C   UNL     1       0.223   0.738  -0.612  0.00  0.00    +0.014 C 
ENDROOT
BRANCH   1   9
ATOM      7  O   UNL     1       3.954   1.190   2.264  0.00  0.00    -0.270 OA
ATOM      8  N   UNL     1       4.399   0.921   0.003  0.00  0.00    -0.293 N 
ATOM      9  C   ACE A   0       3.572   0.970   1.117  0.00  0.00    +0.246 C 
ATOM     10  H   UNL     1       3.997   0.738  -0.877  0.00  0.00    +0.150 HD
BRANCH   8  11
ATOM     11  CA  UNL     1       5.822   1.130   0.085  0.00  0.00    +0.172 C 
BRANCH  11  13
ATOM     12  OXT UNL     1       5.536   2.073  -2.142  0.00  0.00    -0.248 OA
ATOM     13  C   UNL     1       6.254   1.850  -1.176  0.00  0.00    +0.332 C 
BRANCH  13  14
ATOM     14  O   UNL     1       7.545   2.267  -1.106  0.00  0.00    -0.479 OA
ATOM     15  H   UNL     1       8.059   2.074  -0.346  0.00  0.00    +0.295 HD
ENDBRANCH  13  14
ENDBRANCH  11  13
BRANCH  11  16
ATOM     16  CB  UNL     1       6.596  -0.167   0.352  0.00  0.00    +0.043 C 
BRANCH  16  17
ATOM     17  CG  UNL     1       6.482  -1.249  -0.729  0.00  0.00    +0.112 C 
BRANCH  17  19
ATOM     18  OE2 UNL     1       7.912  -2.706   0.600  0.00  0.00    -0.250 OA
ATOM     19  CD  UNL     1       7.253  -2.512  -0.412  0.00  0.00    +0.314 C 
BRANCH  19  20
ATOM     20  OE1 UNL     1       7.166  -3.418  -1.421  0.00  0.00    -0.480 OA
ATOM     21  HE1 UNL     1       6.649  -3.227  -2.179  0.00  0.00    +0.295 HD
ENDBRANCH  19  20
ENDBRANCH  17  19
ENDBRANCH  16  17
ENDBRANCH  11  16
ENDBRANCH   8  11
ENDBRANCH   1   9
BRANCH   2  22
ATOM     22  N   UNL     1      -1.943  -0.036   0.169  0.00  0.00    -0.329 N 
ATOM     23  H   UNL     1      -2.312   0.168  -0.720  0.00  0.00    +0.147 HD
BRANCH  22  24
ATOM     24  C   UNL     1      -2.818  -0.572   1.165  0.00  0.00    +0.114 C 
BRANCH  24  28
ATOM     25  O   UNL     1      -6.879   2.455   0.012  0.00  0.00    -0.274 OA
ATOM     26  N   UNL     1      -8.073  -1.338  -0.958  0.00  0.00    -0.252 NA
ATOM     27  N   UNL     1      -8.467   0.988  -0.796  0.00  0.00    -0.283 N 
ATOM     28  C   UNL     1      -4.202  -0.758   0.607  0.00  0.00    -0.006 C 
ATOM     29  C   UNL     1      -6.322   0.159  -0.084  0.00  0.00    +0.138 C 
ATOM     30  C   UNL     1      -5.037   0.344   0.434  0.00  0.00    -0.014 C 
ATOM     31  C   UNL     1      -4.647  -2.034   0.264  0.00  0.00    -0.002 C 
ATOM     32  C   UNL     1      -6.784  -1.120  -0.434  0.00  0.00    +0.068 C 
ATOM     33  C   UNL     1      -5.931  -2.214  -0.254  0.00  0.00    +0.015 C 
ATOM     34  C   UNL     1      -7.226   1.316  -0.275  0.00  0.00    +0.233 C 
ATOM     35  C   UNL     1      -8.828  -0.302  -1.108  0.00  0.00    +0.218 C 
ATOM     36  H   UNL     1      -9.119   1.710  -0.949  0.00  0.00    +0.151 HD
ENDBRANCH  24  28
ENDBRANCH  22  24
ENDBRANCH   2  22
TORSDOF 11
