REMARK  Name = 135625320
REMARK  5 active torsions:
REMARK  status: ('A' for Active; 'I' for Inactive)
REMARK    1  A    between atoms: C_2  and  C_21
REMARK    2  A    between atoms: C_3  and  O_17
REMARK    3  A    between atoms: C_4  and  O_19
REMARK    4  A    between atoms: C_5  and  N_7
REMARK    5  A    between atoms: C_21  and  O_23
REMARK                            x       y       z     vdW  Elec       q    Type
REMARK                         _______ _______ _______ _____ _____    ______ ____
ROOT
ATOM      1  O   UNL     1      -1.502   0.064   1.196  0.00  0.00    -0.333 OA
ATOM      2  C   UNL     1      -2.674   0.068   0.353  0.00  0.00    +0.173 C 
ATOM      3  C   UNL     1      -2.439  -1.012  -0.695  0.00  0.00    +0.171 C 
ATOM      4  C   UNL     1      -1.715  -2.051   0.137  0.00  0.00    +0.187 C 
ATOM      5  C   UNL     1      -0.834  -1.212   1.069  0.00  0.00    +0.225 C 
ENDROOT
BRANCH   5   7
ATOM      6  O   UNL     1       4.638   0.549  -0.666  0.00  0.00    -0.268 OA
ATOM      7  N   UNL     1       0.609  -1.033   0.644  0.00  0.00    -0.247 N 
ATOM      8  N   UNL     1       2.712  -1.577   0.109  0.00  0.00    -0.241 NA
ATOM      9  N   UNL     1       0.690   1.373   0.363  0.00  0.00    -0.232 NA
ATOM     10  N   UNL     1       2.889   2.057  -0.331  0.00  0.00    -0.279 N 
ATOM     11  C   UNL     1       1.240   0.137   0.340  0.00  0.00    +0.154 C 
ATOM     12  C   UNL     1       1.536  -2.036   0.490  0.00  0.00    +0.223 C 
ATOM     13  C   UNL     1       2.526  -0.229   0.017  0.00  0.00    +0.162 C 
ATOM     14  C   UNL     1       3.477   0.785  -0.360  0.00  0.00    +0.267 C 
ATOM     15  C   UNL     1       1.553   2.285   0.021  0.00  0.00    +0.220 C 
ATOM     16  H   UNL     1       3.445   2.833  -0.571  0.00  0.00    +0.152 HD
ENDBRANCH   5   7
BRANCH   3  17
ATOM     17  O   UNL     1      -1.597  -0.557  -1.746  0.00  0.00    -0.379 OA
ATOM     18  H   UNL     1      -2.068   0.106  -2.273  0.00  0.00    +0.211 HD
ENDBRANCH   3  17
BRANCH   4  19
ATOM     19  O   UNL     1      -1.022  -3.011  -0.628  0.00  0.00    -0.378 OA
ATOM     20  H   UNL     1      -1.650  -3.495  -1.186  0.00  0.00    +0.211 HD
ENDBRANCH   4  19
BRANCH   2  21
ATOM     21  C   UNL     1      -2.902   1.470  -0.180  0.00  0.00    +0.140 C 
ATOM     22  C   UNL     1      -3.166   2.470   0.936  0.00  0.00    +0.034 C 
BRANCH  21  23
ATOM     23  O   UNL     1      -4.016   1.462  -1.069  0.00  0.00    -0.382 OA
ATOM     24  H   UNL     1      -3.855   0.826  -1.784  0.00  0.00    +0.210 HD
ENDBRANCH  21  23
ENDBRANCH   2  21
TORSDOF 5
