REMARK  Name = 135600343
REMARK  9 active torsions:
REMARK  status: ('A' for Active; 'I' for Inactive)
REMARK    1  A    between atoms: N_1  and  C_3
REMARK    2  A    between atoms: N_1  and  C_22
REMARK    3  A    between atoms: C_4  and  C_11
REMARK    4  A    between atoms: N_10  and  CA_13
REMARK    5  A    between atoms: CA_13  and  C_16
REMARK    6  A    between atoms: CA_13  and  CB_17
REMARK    7  A    between atoms: CB_17  and  CG_18
REMARK    8  A    between atoms: CG_18  and  CD_21
REMARK    9  A    between atoms: C_22  and  C_30
REMARK                            x       y       z     vdW  Elec       q    Type
REMARK                         _______ _______ _______ _____ _____    ______ ____
ROOT
ATOM      1  N   UNL     1       1.717   0.275  -0.086  0.00  0.00    -0.327 N 
ATOM      2  H   UNL     1       2.130  -0.565  -0.392  0.00  0.00    +0.147 HD
ENDROOT
BRANCH   1   3
ATOM      3  C   UNL     1       0.334   0.300   0.077  0.00  0.00    +0.045 C 
ATOM      4  C   UNL     1      -2.436   0.348   0.405  0.00  0.00    +0.053 C 
ATOM      5  C   UNL     1      -0.297   1.467   0.508  0.00  0.00    +0.014 C 
ATOM      6  C   UNL     1      -0.420  -0.843  -0.189  0.00  0.00    +0.014 C 
ATOM      7  C   UNL     1      -1.682   1.491   0.672  0.00  0.00    +0.006 C 
ATOM      8  C   UNL     1      -1.805  -0.819  -0.025  0.00  0.00    +0.006 C 
BRANCH   4  11
ATOM      9  O   UNL     1      -4.408   1.169   1.373  0.00  0.00    -0.270 OA
ATOM     10  N   UNL     1      -4.628  -0.512  -0.210  0.00  0.00    -0.293 N 
ATOM     11  C   ACE A   0      -3.880   0.373   0.575  0.00  0.00    +0.246 C 
ATOM     12  H   UNL     1      -4.145  -1.115  -0.820  0.00  0.00    +0.150 HD
BRANCH  10  13
ATOM     13  CA  UNL     1      -6.071  -0.589  -0.172  0.00  0.00    +0.177 C 
BRANCH  13  16
ATOM     14  O   UNL     1      -6.263  -2.555  -1.514  0.00  0.00    -0.244 OA
ATOM     15  OXT UNL     1      -7.105  -2.564   0.608  0.00  0.00    -0.244 OA
ATOM     16  C   UNL     1      -6.523  -2.045  -0.389  0.00  0.00    +0.382 C 
ENDBRANCH  13  16
BRANCH  13  17
ATOM     17  CB  UNL     1      -6.702   0.391  -1.171  0.00  0.00    +0.043 C 
BRANCH  17  18
ATOM     18  CG  UNL     1      -8.225   0.478  -1.066  0.00  0.00    +0.116 C 
BRANCH  18  21
ATOM     19  OE1 UNL     1      -9.880   0.323   0.635  0.00  0.00    -0.246 OA
ATOM     20  OE2 UNL     1      -8.088   1.707   0.938  0.00  0.00    -0.246 OA
ATOM     21  CD  UNL     1      -8.790   0.866   0.305  0.00  0.00    +0.365 C 
ENDBRANCH  18  21
ENDBRANCH  17  18
ENDBRANCH  13  17
ENDBRANCH  10  13
ENDBRANCH   4  11
ENDBRANCH   1   3
BRANCH   1  22
ATOM     22  C   UNL     1       2.576   1.392   0.162  0.00  0.00    +0.144 C 
BRANCH  22  30
ATOM     23  O   UNL     1       6.199  -0.931   2.617  0.00  0.00    -0.267 OA
ATOM     24  N   UNL     1       5.869   0.905  -1.701  0.00  0.00    -0.302 N 
ATOM     25  N   UNL     1       4.687   0.395   0.746  0.00  0.00    -0.399 NA
ATOM     26  N   UNL     1       7.916  -0.115  -0.962  0.00  0.00    -0.356 NA
ATOM     27  N   UNL     1       8.010  -1.020   1.200  0.00  0.00    -0.242 N 
ATOM     28  N   UNL     1       9.880  -1.131  -0.188  0.00  0.00    -0.321 N 
ATOM     29  C   UNL     1       4.452   1.174  -1.616  0.00  0.00    +0.121 C 
ATOM     30  C   UNL     1       3.978   0.957  -0.186  0.00  0.00    +0.124 C 
ATOM     31  C   UNL     1       3.707   0.257  -2.577  0.00  0.00    +0.029 C 
ATOM     32  C   UNL     1       6.605   0.256  -0.724  0.00  0.00    +0.218 C 
ATOM     33  C   UNL     1       5.973   0.016   0.448  0.00  0.00    +0.227 C 
ATOM     34  C   UNL     1       6.716  -0.685   1.532  0.00  0.00    +0.286 C 
ATOM     35  C   UNL     1       8.580  -0.730  -0.026  0.00  0.00    +0.239 C 
ATOM     36  H   UNL     1       6.344   1.205  -2.510  0.00  0.00    +0.150 HD
ATOM     37  H   UNL     1       8.557  -1.490   1.869  0.00  0.00    +0.159 HD
ATOM     38  H   UNL     1      10.347  -0.956  -1.037  0.00  0.00    +0.146 HD
ATOM     39  H   UNL     1      10.347  -1.593   0.545  0.00  0.00    +0.146 HD
ENDBRANCH  22  30
ENDBRANCH   1  22
TORSDOF 9
