REMARK  Name = 135666653
REMARK  10 active torsions:
REMARK  status: ('A' for Active; 'I' for Inactive)
REMARK    1  A    between atoms: N_1  and  C_4
REMARK    2  A    between atoms: N_1  and  N_19
REMARK    3  A    between atoms: C_4  and  N_5
REMARK    4  A    between atoms: N_5  and  N_7
REMARK    5  A    between atoms: N_7  and  C_8
REMARK    6  A    between atoms: C_8  and  C_9
REMARK    7  A    between atoms: C_10  and  O_15
REMARK    8  A    between atoms: C_13  and  O_17
REMARK    9  A    between atoms: C_20  and  C_22
REMARK   10  A    between atoms: C_20  and  C_27
REMARK                            x       y       z     vdW  Elec       q    Type
REMARK                         _______ _______ _______ _____ _____    ______ ____
ROOT
ATOM      1  N   UNL     1      -0.902  -1.616   0.028  0.00  0.00    -0.217 N 
ATOM      2  H   UNL     1      -0.314  -0.826   0.022  0.00  0.00    +0.176 HD
ENDROOT
BRANCH   1   4
ATOM      3  S   UNL     1      -1.171  -4.330   0.035  0.00  0.00    -0.016 S 
ATOM      4  C   UNL     1      -0.331  -2.877   0.022  0.00  0.00    +0.165 C 
BRANCH   4   5
ATOM      5  N   UNL     1       1.052  -2.882   0.008  0.00  0.00    -0.243 N 
ATOM      6  H   UNL     1       1.537  -3.739   0.003  0.00  0.00    +0.170 HD
BRANCH   5   7
ATOM      7  N   UNL     1       1.743  -1.717   0.000  0.00  0.00    -0.127 NA
BRANCH   7   8
ATOM      8  C   UNL     1       3.028  -1.857  -0.006  0.00  0.00    +0.141 C 
BRANCH   8   9
ATOM      9  C   UNL     1       3.929  -0.691  -0.012  0.00  0.00    +0.031 C 
ATOM     10  C   UNL     1       5.314  -0.856  -0.017  0.00  0.00    +0.134 C 
ATOM     11  C   UNL     1       3.379   0.591  -0.011  0.00  0.00    +0.003 C 
ATOM     12  C   UNL     1       6.149   0.260  -0.021  0.00  0.00    +0.073 C 
ATOM     13  C   UNL     1       5.600   1.542  -0.021  0.00  0.00    +0.137 C 
ATOM     14  C   UNL     1       4.215   1.708  -0.016  0.00  0.00    +0.037 C 
BRANCH  10  15
ATOM     15  O   UNL     1       5.869  -2.101  -0.017  0.00  0.00    -0.506 OA
ATOM     16  H   UNL     1       5.320  -2.859  -0.014  0.00  0.00    +0.292 HD
ENDBRANCH  10  15
BRANCH  13  17
ATOM     17  O   UNL     1       6.415   2.632  -0.024  0.00  0.00    -0.505 OA
ATOM     18  H   UNL     1       7.346   2.521  -0.027  0.00  0.00    +0.292 HD
ENDBRANCH  13  17
ENDBRANCH   8   9
ENDBRANCH   7   8
ENDBRANCH   5   7
ENDBRANCH   4   5
ENDBRANCH   1   4
BRANCH   1  19
ATOM     19  N   UNL     1      -2.243  -1.437   0.043  0.00  0.00    -0.178 NA
ATOM     20  C   UNL     1      -2.706  -0.219   0.025  0.00  0.00    +0.116 C 
BRANCH  20  22
ATOM     21  N   UNL     1      -4.618   1.258  -0.029  0.00  0.00    -0.242 NA
ATOM     22  C   UNL     1      -4.194  -0.026  -0.007  0.00  0.00    +0.100 C 
ATOM     23  C   UNL     1      -5.040  -1.123  -0.013  0.00  0.00    +0.021 C 
ATOM     24  C   UNL     1      -6.410  -0.887  -0.043  0.00  0.00    +0.003 C 
ATOM     25  C   UNL     1      -6.885   0.420  -0.067  0.00  0.00    +0.021 C 
ATOM     26  C   UNL     1      -5.956   1.448  -0.058  0.00  0.00    +0.099 C 
ENDBRANCH  20  22
BRANCH  20  27
ATOM     27  C   UNL     1      -1.848   0.990   0.030  0.00  0.00    +0.021 C 
ATOM     28  C   UNL     1      -1.469   1.572   1.239  0.00  0.00    +0.002 C 
ATOM     29  C   UNL     1      -1.419   1.545  -1.176  0.00  0.00    +0.002 C 
ATOM     30  C   UNL     1      -0.660   2.709   1.243  0.00  0.00    +0.000 C 
ATOM     31  C   UNL     1      -0.610   2.681  -1.172  0.00  0.00    +0.000 C 
ATOM     32  C   UNL     1      -0.231   3.263   0.038  0.00  0.00    +0.000 C 
ENDBRANCH  20  27
ENDBRANCH   1  19
TORSDOF 10
