REMARK  Name = 135612772
REMARK  5 active torsions:
REMARK  status: ('A' for Active; 'I' for Inactive)
REMARK    1  A    between atoms: C_6  and  C_16
REMARK    2  A    between atoms: C_16  and  N_17
REMARK    3  A    between atoms: N_17  and  C_19
REMARK    4  A    between atoms: C_22  and  C_26
REMARK    5  A    between atoms: C_26  and  O_27
REMARK                            x       y       z     vdW  Elec       q    Type
REMARK                         _______ _______ _______ _____ _____    ______ ____
ROOT
ATOM      1  O   UNL     1      -3.614  -2.685  -0.080  0.00  0.00    -0.267 OA
ATOM      2  N   UNL     1      -1.929  -0.641   0.446  0.00  0.00    -0.397 NA
ATOM      3  N   UNL     1      -5.390  -1.235  -0.406  0.00  0.00    -0.242 N 
ATOM      4  N   UNL     1      -5.149   1.099  -0.203  0.00  0.00    -0.371 NA
ATOM      5  N   UNL     1      -7.230   0.167  -0.750  0.00  0.00    -0.321 N 
ATOM      6  C   UNL     1      -1.154   0.436   0.697  0.00  0.00    +0.129 C 
ATOM      7  C   UNL     1      -3.224  -0.381   0.157  0.00  0.00    +0.214 C 
ATOM      8  C   UNL     1      -3.795   0.885   0.102  0.00  0.00    +0.168 C 
ATOM      9  C   UNL     1      -1.612   1.744   0.671  0.00  0.00    +0.032 C 
ATOM     10  C   UNL     1      -2.954   1.964   0.368  0.00  0.00    +0.037 C 
ATOM     11  C   UNL     1      -4.073  -1.549  -0.116  0.00  0.00    +0.285 C 
ATOM     12  C   UNL     1      -5.899   0.060  -0.445  0.00  0.00    +0.238 C 
ATOM     13  H   UNL     1      -6.008  -1.977  -0.598  0.00  0.00    +0.159 HD
ATOM     14  H   UNL     1      -7.761  -0.643  -0.926  0.00  0.00    +0.146 HD
ATOM     15  H   UNL     1      -7.655   1.054  -0.795  0.00  0.00    +0.146 HD
ENDROOT
BRANCH   6  16
ATOM     16  C   UNL     1       0.279   0.169   1.018  0.00  0.00    +0.147 C 
BRANCH  16  17
ATOM     17  N   UNL     1       1.127   0.471  -0.114  0.00  0.00    -0.327 N 
ATOM     18  H   UNL     1       0.707   0.834  -0.927  0.00  0.00    +0.147 HD
BRANCH  17  19
ATOM     19  C   UNL     1       2.498   0.279  -0.117  0.00  0.00    +0.045 C 
ATOM     20  C   UNL     1       3.134  -0.233   1.015  0.00  0.00    +0.015 C 
ATOM     21  C   UNL     1       3.244   0.597  -1.252  0.00  0.00    +0.015 C 
ATOM     22  C   UNL     1       5.261  -0.108  -0.124  0.00  0.00    +0.076 C 
ATOM     23  C   UNL     1       4.515  -0.426   1.011  0.00  0.00    +0.008 C 
ATOM     24  C   UNL     1       4.625   0.404  -1.256  0.00  0.00    +0.008 C 
BRANCH  22  26
ATOM     25  O   UNL     1       7.364  -0.757   0.814  0.00  0.00    -0.245 OA
ATOM     26  C   UNL     1       6.701  -0.310  -0.128  0.00  0.00    +0.338 C 
BRANCH  26  27
ATOM     27  O   UNL     1       7.274   0.049  -1.310  0.00  0.00    -0.477 OA
ATOM     28  H   UNL     1       6.743   0.384  -2.005  0.00  0.00    +0.295 HD
ENDBRANCH  26  27
ENDBRANCH  22  26
ENDBRANCH  17  19
ENDBRANCH  16  17
ENDBRANCH   6  16
TORSDOF 5
