135625290
  -OEChem-03292013293D

 38 40  0     1  0  0  0  0  0999 V2000
    5.0540    1.5741    0.2561 P   0  0  0  0  0  0  0  0  0  0  0  0
    0.1704   -3.2254    0.8481 O   0  0  0  0  0  0  0  0  0  0  0  0
    2.2359   -3.1384   -0.8860 O   0  0  0  0  0  0  0  0  0  0  0  0
    3.7375    0.6974    0.6008 O   0  0  0  0  0  0  0  0  0  0  0  0
    6.1746    0.4445   -0.0326 O   0  0  0  0  0  0  0  0  0  0  0  0
    4.7425    2.1731   -1.2133 O   0  0  0  0  0  0  0  0  0  0  0  0
    5.4301    2.5887    1.2960 O   0  0  0  0  0  0  0  0  0  0  0  0
   -5.5330    1.6421   -1.1962 O   0  0  0  0  0  0  0  0  0  0  0  0
   -1.5414   -0.2328   -0.1924 N   0  0  0  0  0  0  0  0  0  0  0  0
   -2.7798    0.7033   -1.8035 N   0  0  0  0  0  0  0  0  0  0  0  0
   -3.0841   -0.1185    1.6735 N   0  0  0  0  0  0  0  0  0  0  0  0
   -5.1514    0.8998    0.9841 N   0  0  0  0  0  0  0  0  0  0  0  0
   -0.3528   -0.8921    0.4735 C   0  0  2  0  0  0  0  0  0  0  0  0
    2.0701   -0.9683    0.2100 C   0  0  1  0  0  0  0  0  0  0  0  0
    0.9097   -0.0012    0.4515 C   0  0  0  0  0  0  0  0  0  0  0  0
    0.0701   -2.2329   -0.1746 C   0  0  1  0  0  0  0  0  0  0  0  0
    1.4549   -1.9654   -0.7684 C   0  0  2  0  0  0  0  0  0  0  0  0
    3.3155   -0.2834   -0.3313 C   0  0  0  0  0  0  0  0  0  0  0  0
   -2.7343    0.0907    0.3834 C   0  0  0  0  0  0  0  0  0  0  0  0
   -1.6172    0.1554   -1.5080 C   0  0  0  0  0  0  0  0  0  0  0  0
   -3.4712    0.6620   -0.6288 C   0  0  0  0  0  0  0  0  0  0  0  0
   -4.8076    1.1254   -0.3556 C   0  0  0  0  0  0  0  0  0  0  0  0
   -4.2925    0.3021    1.9137 C   0  0  0  0  0  0  0  0  0  0  0  0
   -0.6622   -1.0506    1.5140 H   0  0  0  0  0  0  0  0  0  0  0  0
    2.3299   -1.4654    1.1548 H   0  0  0  0  0  0  0  0  0  0  0  0
    1.0258    0.5368    1.3989 H   0  0  0  0  0  0  0  0  0  0  0  0
    0.8592    0.7528   -0.3431 H   0  0  0  0  0  0  0  0  0  0  0  0
   -0.6270   -2.6076   -0.9306 H   0  0  0  0  0  0  0  0  0  0  0  0
    1.3565   -1.5096   -1.7617 H   0  0  0  0  0  0  0  0  0  0  0  0
    4.1133   -1.0186   -0.4775 H   0  0  0  0  0  0  0  0  0  0  0  0
    3.1063    0.1958   -1.2936 H   0  0  0  0  0  0  0  0  0  0  0  0
   -0.7216   -3.3551    1.2132 H   0  0  0  0  0  0  0  0  0  0  0  0
    1.7380   -3.7651   -1.4380 H   0  0  0  0  0  0  0  0  0  0  0  0
   -0.7989    0.0128   -2.2004 H   0  0  0  0  0  0  0  0  0  0  0  0
   -4.7447    0.2125    2.9136 H   0  0  0  0  0  0  0  0  0  0  0  0
   -6.0754    1.1864    1.2944 H   0  0  0  0  0  0  0  0  0  0  0  0
    5.3783    2.8038   -1.6133 H   0  0  0  0  0  0  0  0  0  0  0  0
    7.1032    0.7239   -0.1796 H   0  0  0  0  0  0  0  0  0  0  0  0
  1  4  1  0  0  0  0
  1  5  1  0  0  0  0
  1  6  1  0  0  0  0
  1  7  2  0  0  0  0
  2 16  1  0  0  0  0
  2 32  1  0  0  0  0
  3 17  1  0  0  0  0
  3 33  1  0  0  0  0
  4 18  1  0  0  0  0
  5 38  1  0  0  0  0
  6 37  1  0  0  0  0
  8 22  2  0  0  0  0
  9 13  1  0  0  0  0
  9 19  1  0  0  0  0
  9 20  1  0  0  0  0
 10 20  2  0  0  0  0
 10 21  1  0  0  0  0
 11 19  1  0  0  0  0
 11 23  2  0  0  0  0
 12 22  1  0  0  0  0
 12 23  1  0  0  0  0
 12 36  1  0  0  0  0
 13 15  1  0  0  0  0
 13 16  1  0  0  0  0
 13 24  1  0  0  0  0
 14 15  1  0  0  0  0
 14 17  1  0  0  0  0
 14 18  1  0  0  0  0
 14 25  1  0  0  0  0
 15 26  1  0  0  0  0
 15 27  1  0  0  0  0
 16 17  1  0  0  0  0
 16 28  1  0  0  0  0
 17 29  1  0  0  0  0
 18 30  1  0  0  0  0
 18 31  1  0  0  0  0
 19 21  2  0  0  0  0
 20 34  1  0  0  0  0
 21 22  1  0  0  0  0
 23 35  1  0  0  0  0
M  END
> <PUBCHEM_COMPOUND_CID>
135625290

> <PUBCHEM_CONFORMER_RMSD>
0.8

> <PUBCHEM_CONFORMER_DIVERSEORDER>
1
64
38
40
43
14
5
26
41
36
6
49
31
57
25
54
20
65
34
32
44
7
29
35
55
62
50
4
61
39
59
16
47
37
52
33
9
12
46
10
30
21
15
51
8
19
58
2
22
17
11
28
24
48
45
42
3
63
60
18
53
23
27
56
13

> <PUBCHEM_MMFF94_PARTIAL_CHARGES>
28
1 1.51
10 -0.57
11 -0.58
12 -0.49
13 0.26
16 0.28
17 0.28
18 0.28
19 -0.03
2 -0.68
20 0.04
21 0.14
22 0.72
23 0.45
3 -0.68
32 0.4
33 0.4
34 0.15
35 0.06
36 0.37
37 0.5
38 0.5
4 -0.55
5 -0.77
6 -0.77
7 -0.7
8 -0.57
9 0.05

> <PUBCHEM_EFFECTIVE_ROTOR_COUNT>
5

> <PUBCHEM_PHARMACOPHORE_FEATURES>
14
1 12 donor
1 2 acceptor
1 2 donor
1 3 acceptor
1 3 donor
1 5 acceptor
1 6 acceptor
1 7 acceptor
1 8 acceptor
3 9 10 20 cation
4 1 5 6 7 anion
5 13 14 15 16 17 rings
5 9 10 19 20 21 rings
6 11 12 19 21 22 23 rings

> <PUBCHEM_HEAVY_ATOM_COUNT>
23

> <PUBCHEM_ATOM_DEF_STEREO_COUNT>
4

> <PUBCHEM_ATOM_UDEF_STEREO_COUNT>
0

> <PUBCHEM_BOND_DEF_STEREO_COUNT>
0

> <PUBCHEM_BOND_UDEF_STEREO_COUNT>
0

> <PUBCHEM_ISOTOPIC_ATOM_COUNT>
0

> <PUBCHEM_COMPONENT_COUNT>
1

> <PUBCHEM_CACTVS_TAUTO_COUNT>
-1

> <PUBCHEM_CONFORMER_ID>
08157A4A00000001

> <PUBCHEM_MMFF94_ENERGY>
21.0388

> <PUBCHEM_FEATURE_SELFOVERLAP>
71.238

> <PUBCHEM_SHAPE_FINGERPRINT>
10074138 170 17752482324449054730
10319926 262 16950559944075017168
12236239 1 17202760397873799903
12390115 104 18270129035909496026
12403259 118 17676769871965817132
12403259 415 18187374185712633950
12633257 1 16153431644567313661
12769317 202 18343011173416141632
12788726 201 17910652587048887710
12892183 10 16370713821429268650
13631057 29 18057876030535719647
13911852 28 10737548524039669272
13955234 65 18265053526837625258
14123256 34 8646495158598868144
15183329 4 15769504157511999716
15342168 16 18412265034124654677
15375358 24 17822576002236506711
17870717 6 13110966435543442937
17980427 23 16660369207495256671
1813 80 17198833921676947966
19784866 34 18273494598168314746
204376 136 18409449197657326314
20600515 1 16443077092690206413
20612939 158 18130507418717805398
20645477 56 18260829323912702750
20871999 31 15195566809963295471
21033648 29 18187637020958729684
21033650 10 14979966838890239083
21120745 212 17107927838027401918
21401589 2 18339360885069191626
22224240 67 18334861640944957979
22849339 104 15123498268223075421
23198884 109 16487257672632486101
23557571 272 17096096762052097727
23559900 14 16952264105642027171
2838139 119 17847065475913767216
3004659 81 15123524562529611556
350125 39 18124317370032253019
474 4 18201717366531245760
5104073 3 17677337091739164913
543368 44 17561359612829755961
621550 34 18187366463625024087
633830 44 18059584541922379094

> <PUBCHEM_SHAPE_MULTIPOLES>
416.17
12.8
2.63
1.46
5.52
1.66
-0.06
-11.63
-1.1
3.24
0.09
-1.44
-0.34
1.08

> <PUBCHEM_SHAPE_SELFOVERLAP>
877.651

> <PUBCHEM_SHAPE_VOLUME>
236.1

> <PUBCHEM_COORDINATE_TYPE>
2
5
10

$$$$
