REMARK  Name = 135600312
REMARK  12 active torsions:
REMARK  status: ('A' for Active; 'I' for Inactive)
REMARK    1  A    between atoms: C_1  and  C_9
REMARK    2  A    between atoms: C_2  and  O_22
REMARK    3  A    between atoms: N_8  and  CA_11
REMARK    4  A    between atoms: CA_11  and  C_13
REMARK    5  A    between atoms: CA_11  and  CB_16
REMARK    6  A    between atoms: C_13  and  O_14
REMARK    7  A    between atoms: CB_16  and  CG_17
REMARK    8  A    between atoms: CG_17  and  CD_19
REMARK    9  A    between atoms: CD_19  and  OE1_20
REMARK   10  A    between atoms: O_22  and  C_23
REMARK   11  A    between atoms: C_23  and  C_24
REMARK   12  A    between atoms: C_24  and  C_31
REMARK                            x       y       z     vdW  Elec       q    Type
REMARK                         _______ _______ _______ _____ _____    ______ ____
ROOT
ATOM      1  C   UNK A   0       1.923  -1.400  -1.012  0.00  0.00    +0.054 C 
ATOM      2  C   UNK A   0      -0.602  -2.316  -0.257  0.00  0.00    +0.139 C 
ATOM      3  C   UNK A   0       0.808  -1.097  -1.794  0.00  0.00    +0.008 C 
ATOM      4  C   UNK A   0       1.775  -2.162   0.147  0.00  0.00    +0.008 C 
ATOM      5  C   UNK A   0      -0.454  -1.555  -1.416  0.00  0.00    +0.037 C 
ATOM      6  C   UNK A   0       0.513  -2.620   0.525  0.00  0.00    +0.037 C 
ENDROOT
BRANCH   1   9
ATOM      7  O   UNK A   0       3.492  -0.680  -2.599  0.00  0.00    -0.270 OA
ATOM      8  N   GLU A   1       4.180  -0.728  -0.385  0.00  0.00    -0.293 N 
ATOM      9  C   UNK A   0       3.267  -0.911  -1.414  0.00  0.00    +0.246 C 
ATOM     10  H   GLU A   1       3.904  -0.942   0.536  0.00  0.00    +0.150 HD
BRANCH   8  11
ATOM     11  CA  GLU A   1       5.515  -0.236  -0.611  0.00  0.00    +0.172 C 
BRANCH  11  13
ATOM     12  OXT GLU A   1       6.067  -1.657   1.288  0.00  0.00    -0.248 OA
ATOM     13  C   GLU A   1       6.433  -0.929   0.375  0.00  0.00    +0.332 C 
BRANCH  13  14
ATOM     14  O   GLU A   1       7.742  -0.680   0.110  0.00  0.00    -0.479 OA
ATOM     15  H   GLU A   1       7.978  -0.115  -0.599  0.00  0.00    +0.295 HD
ENDBRANCH  13  14
ENDBRANCH  11  13
BRANCH  11  16
ATOM     16  CB  GLU A   1       5.598   1.295  -0.565  0.00  0.00    +0.043 C 
BRANCH  16  17
ATOM     17  CG  GLU A   1       5.231   1.944   0.776  0.00  0.00    +0.112 C 
BRANCH  17  19
ATOM     18  OE2 GLU A   1       5.634   4.141  -0.196  0.00  0.00    -0.250 OA
ATOM     19  CD  GLU A   1       5.317   3.454   0.766  0.00  0.00    +0.314 C 
BRANCH  19  20
ATOM     20  OE1 GLU A   1       5.035   3.980   1.987  0.00  0.00    -0.480 OA
ATOM     21  HE1 GLU A   1       4.796   3.416   2.696  0.00  0.00    +0.295 HD
ENDBRANCH  19  20
ENDBRANCH  17  19
ENDBRANCH  16  17
ENDBRANCH  11  16
ENDBRANCH   8  11
ENDBRANCH   1   9
BRANCH   2  22
ATOM     22  O   UNK A   0      -1.833  -2.763   0.112  0.00  0.00    -0.475 OA
BRANCH  22  23
ATOM     23  C   UNK A   0      -2.072  -2.930   1.509  0.00  0.00    +0.213 C 
BRANCH  23  24
ATOM     24  C   UNK A   0      -3.551  -2.711   1.809  0.00  0.00    +0.104 C 
BRANCH  24  31
ATOM     25  O   UNK A   0      -5.447  -0.444  -2.235  0.00  0.00    -0.266 OA
ATOM     26  N   UNK A   0      -4.471  -1.102   0.216  0.00  0.00    -0.393 NA
ATOM     27  N   UNK A   0      -4.337   0.957   2.125  0.00  0.00    -0.201 NA
ATOM     28  N   UNK A   0      -5.763   1.756  -1.579  0.00  0.00    -0.241 N 
ATOM     29  N   UNK A   0      -5.220   2.495   0.593  0.00  0.00    -0.318 NA
ATOM     30  N   UNK A   0      -6.106   3.992  -0.980  0.00  0.00    -0.320 N 
ATOM     31  C   UNK A   0      -4.006  -1.314   1.462  0.00  0.00    +0.117 C 
ATOM     32  C   UNK A   0      -4.865   0.160  -0.044  0.00  0.00    +0.257 C 
ATOM     33  C   UNK A   0      -3.940  -0.305   2.398  0.00  0.00    +0.191 C 
ATOM     34  C   UNK A   0      -4.806   1.185   0.881  0.00  0.00    +0.121 C 
ATOM     35  C   UNK A   0      -5.380   0.438  -1.389  0.00  0.00    +0.293 C 
ATOM     36  C   UNK A   0      -5.678   2.746  -0.603  0.00  0.00    +0.248 C 
ATOM     37  H   UNK A   0      -6.118   2.009  -2.461  0.00  0.00    +0.159 HD
ATOM     38  H   UNK A   0      -6.445   4.140  -1.892  0.00  0.00    +0.146 HD
ATOM     39  H   UNK A   0      -6.073   4.738  -0.340  0.00  0.00    +0.146 HD
ENDBRANCH  24  31
ENDBRANCH  23  24
ENDBRANCH  22  23
ENDBRANCH   2  22
TORSDOF 12
