REMARK  Name = 135616173
REMARK  4 active torsions:
REMARK  status: ('A' for Active; 'I' for Inactive)
REMARK    1  A    between atoms: N_2  and  C_17
REMARK    2  A    between atoms: C_18  and  O_21
REMARK    3  A    between atoms: C_20  and  C_23
REMARK    4  A    between atoms: C_23  and  O_24
REMARK                            x       y       z     vdW  Elec       q    Type
REMARK                         _______ _______ _______ _____ _____    ______ ____
ROOT
ATOM      1  O   UNL     1      -4.128  -2.104  -0.380  0.00  0.00    -0.268 OA
ATOM      2  N   UNL     1      -0.046  -0.242   0.151  0.00  0.00    -0.236 N 
ATOM      3  N   UNL     1      -1.159  -2.132  -0.284  0.00  0.00    -0.240 NA
ATOM      4  N   UNL     1      -1.887   1.307   0.414  0.00  0.00    -0.357 NA
ATOM      5  N   UNL     1      -3.975   0.175   0.105  0.00  0.00    -0.243 N 
ATOM      6  N   UNL     1      -3.916   2.478   0.591  0.00  0.00    -0.321 N 
ATOM      7  C   UNL     1      -1.370   0.082   0.174  0.00  0.00    +0.211 C 
ATOM      8  C   UNL     1       0.030  -1.585  -0.128  0.00  0.00    +0.224 C 
ATOM      9  C   UNL     1      -2.025  -1.096  -0.096  0.00  0.00    +0.176 C 
ATOM     10  C   UNL     1      -3.461  -1.104  -0.147  0.00  0.00    +0.273 C 
ATOM     11  C   UNL     1      -3.201   1.329   0.374  0.00  0.00    +0.239 C 
ATOM     12  H   UNL     1      -4.954   0.279   0.093  0.00  0.00    +0.159 HD
ATOM     13  H   UNL     1      -3.446   3.321   0.785  0.00  0.00    +0.146 HD
ATOM     14  H   UNL     1      -4.900   2.460   0.554  0.00  0.00    +0.146 HD
ENDROOT
BRANCH   2  17
ATOM     15  F   UNL     1       1.942   2.619  -0.652  0.00  0.00    -0.230 F 
ATOM     16  O   UNL     1       2.224  -0.011   1.009  0.00  0.00    -0.333 OA
ATOM     17  C   UNL     1       1.126   0.684   0.387  0.00  0.00    +0.231 C 
ATOM     18  C   UNL     1       2.966   0.585  -1.149  0.00  0.00    +0.177 C 
ATOM     19  C   UNL     1       1.664   1.308  -0.900  0.00  0.00    +0.236 C 
ATOM     20  C   UNL     1       3.423   0.265   0.267  0.00  0.00    +0.176 C 
BRANCH  18  21
ATOM     21  O   UNL     1       2.704  -0.583  -1.913  0.00  0.00    -0.379 OA
ATOM     22  H   UNL     1       2.417  -0.328  -2.804  0.00  0.00    +0.211 HD
ENDBRANCH  18  21
BRANCH  20  23
ATOM     23  C   UNL     1       4.376  -0.907   0.403  0.00  0.00    +0.169 C 
BRANCH  23  24
ATOM     24  O   UNL     1       4.713  -1.067   1.772  0.00  0.00    -0.379 OA
ATOM     25  H   UNL     1       5.323  -1.816   1.869  0.00  0.00    +0.211 HD
ENDBRANCH  23  24
ENDBRANCH  20  23
ENDBRANCH   2  17
TORSDOF 4
