REMARK  Name = 135641583
REMARK  8 active torsions:
REMARK  status: ('A' for Active; 'I' for Inactive)
REMARK    1  A    between atoms: N_2  and  N_7
REMARK    2  A    between atoms: N_3  and  N_17
REMARK    3  A    between atoms: N_7  and  C_8
REMARK    4  A    between atoms: C_8  and  C_9
REMARK    5  A    between atoms: C_10  and  O_15
REMARK    6  A    between atoms: N_17  and  C_18
REMARK    7  A    between atoms: C_18  and  C_19
REMARK    8  A    between atoms: C_20  and  O_25
REMARK                            x       y       z     vdW  Elec       q    Type
REMARK                         _______ _______ _______ _____ _____    ______ ____
ROOT
ATOM      1  O   UNL     1       0.136  -2.821   0.147  0.00  0.00    -0.250 OA
ATOM      2  N   UNL     1      -0.377  -0.561   0.096  0.00  0.00    -0.215 N 
ATOM      3  N   UNL     1       1.817  -1.226   0.170  0.00  0.00    -0.215 N 
ATOM      4  C   UNL     1       0.493  -1.643   0.138  0.00  0.00    +0.330 C 
ATOM      5  H   UNL     1      -0.028   0.359   0.091  0.00  0.00    +0.172 HD
ATOM      6  H   UNL     1       2.039  -0.267   0.161  0.00  0.00    +0.172 HD
ENDROOT
BRANCH   2   7
ATOM      7  N   UNL     1      -1.709  -0.791   0.063  0.00  0.00    -0.125 NA
BRANCH   7   8
ATOM      8  C   UNL     1      -2.425   0.285   0.029  0.00  0.00    +0.141 C 
BRANCH   8   9
ATOM      9  C   UNL     1      -3.897   0.242  -0.009  0.00  0.00    +0.031 C 
ATOM     10  C   UNL     1      -4.648   1.417  -0.042  0.00  0.00    +0.131 C 
ATOM     11  C   UNL     1      -4.540  -0.996  -0.011  0.00  0.00    +0.000 C 
ATOM     12  C   UNL     1      -6.041   1.355  -0.076  0.00  0.00    +0.036 C 
ATOM     13  C   UNL     1      -5.933  -1.059  -0.045  0.00  0.00    -0.000 C 
ATOM     14  C   UNL     1      -6.684   0.117  -0.078  0.00  0.00    +0.003 C 
BRANCH  10  15
ATOM     15  O   UNL     1      -4.039   2.636  -0.039  0.00  0.00    -0.506 OA
ATOM     16  H   UNL     1      -3.104   2.693  -0.016  0.00  0.00    +0.292 HD
ENDBRANCH  10  15
ENDBRANCH   8   9
ENDBRANCH   7   8
ENDBRANCH   2   7
BRANCH   3  17
ATOM     17  N   UNL     1       2.797  -2.156   0.213  0.00  0.00    -0.125 NA
BRANCH  17  18
ATOM     18  C   UNL     1       3.991  -1.658   0.240  0.00  0.00    +0.141 C 
BRANCH  18  19
ATOM     19  C   UNL     1       4.230  -0.204   0.224  0.00  0.00    +0.031 C 
ATOM     20  C   UNL     1       4.381   0.483  -0.981  0.00  0.00    +0.131 C 
ATOM     21  C   UNL     1       4.306   0.485   1.434  0.00  0.00    +0.000 C 
ATOM     22  C   UNL     1       4.609   1.859  -0.975  0.00  0.00    +0.036 C 
ATOM     23  C   UNL     1       4.533   1.861   1.440  0.00  0.00    -0.000 C 
ATOM     24  C   UNL     1       4.684   2.548   0.235  0.00  0.00    +0.003 C 
BRANCH  20  25
ATOM     25  O   UNL     1       4.313  -0.173  -2.174  0.00  0.00    -0.506 OA
ATOM     26  H   UNL     1       4.161  -1.098  -2.192  0.00  0.00    +0.292 HD
ENDBRANCH  20  25
ENDBRANCH  18  19
ENDBRANCH  17  18
ENDBRANCH   3  17
TORSDOF 8
