REMARK  Name = 135625306
REMARK  13 active torsions:
REMARK  status: ('A' for Active; 'I' for Inactive)
REMARK    1  A    between atoms: C_1  and  N_22
REMARK    2  A    between atoms: C_2  and  C_9
REMARK    3  A    between atoms: N_8  and  CA_11
REMARK    4  A    between atoms: CA_11  and  C_13
REMARK    5  A    between atoms: CA_11  and  CB_16
REMARK    6  A    between atoms: C_13  and  O_14
REMARK    7  A    between atoms: CB_16  and  CG_17
REMARK    8  A    between atoms: CG_17  and  CD_19
REMARK    9  A    between atoms: CD_19  and  OE1_20
REMARK   10  A    between atoms: N_22  and  C_23
REMARK   11  A    between atoms: N_22  and  C_39
REMARK   12  A    between atoms: C_23  and  C_30
REMARK   13  A    between atoms: C_39  and  C_40
REMARK                            x       y       z     vdW  Elec       q    Type
REMARK                         _______ _______ _______ _____ _____    ______ ____
ROOT
ATOM      1  C   UNL     1      -1.675  -2.382  -0.134  0.00  0.00    +0.049 C 
ATOM      2  C   UNL     1       1.106  -2.232  -0.286  0.00  0.00    +0.053 C 
ATOM      3  C   UNL     1      -1.017  -2.789  -1.295  0.00  0.00    +0.015 C 
ATOM      4  C   UNL     1      -0.943  -1.899   0.950  0.00  0.00    +0.015 C 
ATOM      5  C   UNL     1       0.373  -2.714  -1.370  0.00  0.00    +0.006 C 
ATOM      6  C   UNL     1       0.448  -1.825   0.875  0.00  0.00    +0.006 C 
ENDROOT
BRANCH   2   9
ATOM      7  O   UNL     1       3.189  -2.908  -1.124  0.00  0.00    -0.270 OA
ATOM      8  N   UNL     1       3.188  -1.182   0.425  0.00  0.00    -0.293 N 
ATOM      9  C   ACE A   0       2.587  -2.151  -0.367  0.00  0.00    +0.246 C 
ATOM     10  H   UNL     1       2.619  -0.622   1.001  0.00  0.00    +0.150 HD
BRANCH   8  11
ATOM     11  CA  UNL     1       4.612  -0.964   0.438  0.00  0.00    +0.172 C 
BRANCH  11  13
ATOM     12  OXT UNL     1       4.223  -0.357   2.764  0.00  0.00    -0.248 OA
ATOM     13  C   UNL     1       5.005  -0.581   1.849  0.00  0.00    +0.332 C 
BRANCH  13  14
ATOM     14  O   UNL     1       6.354  -0.548   2.009  0.00  0.00    -0.479 OA
ATOM     15  H   UNL     1       6.917  -0.726   1.281  0.00  0.00    +0.295 HD
ENDBRANCH  13  14
ENDBRANCH  11  13
BRANCH  11  16
ATOM     16  CB  UNL     1       5.067   0.042  -0.627  0.00  0.00    +0.043 C 
BRANCH  16  17
ATOM     17  CG  UNL     1       4.514   1.466  -0.480  0.00  0.00    +0.112 C 
BRANCH  17  19
ATOM     18  OE2 UNL     1       5.723   2.125  -2.490  0.00  0.00    -0.250 OA
ATOM     19  CD  UNL     1       4.982   2.416  -1.561  0.00  0.00    +0.314 C 
BRANCH  19  20
ATOM     20  OE1 UNL     1       4.511   3.674  -1.359  0.00  0.00    -0.480 OA
ATOM     21  HE1 UNL     1       3.946   3.852  -0.634  0.00  0.00    +0.295 HD
ENDBRANCH  19  20
ENDBRANCH  17  19
ENDBRANCH  16  17
ENDBRANCH  11  16
ENDBRANCH   8  11
ENDBRANCH   2   9
BRANCH   1  22
ATOM     22  N   UNL     1      -3.081  -2.458  -0.057  0.00  0.00    -0.290 N 
BRANCH  22  23
ATOM     23  C   UNL     1      -3.823  -1.523   0.767  0.00  0.00    +0.149 C 
BRANCH  23  30
ATOM     24  O   UNL     1      -2.054   2.722   2.741  0.00  0.00    -0.266 OA
ATOM     25  N   UNL     1      -3.091   0.771   1.157  0.00  0.00    -0.391 NA
ATOM     26  N   UNL     1      -3.771   1.495  -1.472  0.00  0.00    -0.200 NA
ATOM     27  N   UNL     1      -2.215   4.274   1.027  0.00  0.00    -0.241 N 
ATOM     28  N   UNL     1      -3.068   3.699  -1.094  0.00  0.00    -0.318 NA
ATOM     29  N   UNL     1      -2.350   5.889  -0.660  0.00  0.00    -0.320 N 
ATOM     30  C   UNL     1      -3.612  -0.114   0.286  0.00  0.00    +0.133 C 
ATOM     31  C   UNL     1      -3.946   0.241  -1.004  0.00  0.00    +0.193 C 
ATOM     32  C   UNL     1      -2.922   2.018   0.678  0.00  0.00    +0.257 C 
ATOM     33  C   UNL     1      -3.251   2.393  -0.611  0.00  0.00    +0.121 C 
ATOM     34  C   UNL     1      -2.357   3.017   1.592  0.00  0.00    +0.293 C 
ATOM     35  C   UNL     1      -2.566   4.590  -0.283  0.00  0.00    +0.248 C 
ATOM     36  H   UNL     1      -1.840   4.991   1.588  0.00  0.00    +0.159 HD
ATOM     37  H   UNL     1      -1.969   6.531  -0.018  0.00  0.00    +0.146 HD
ATOM     38  H   UNL     1      -2.577   6.181  -1.573  0.00  0.00    +0.146 HD
ENDBRANCH  23  30
ENDBRANCH  22  23
BRANCH  22  39
ATOM     39  C   UNL     1      -3.803  -3.476  -0.793  0.00  0.00    +0.170 C 
BRANCH  39  40
ATOM     40  C   UNL     1      -3.352  -4.814  -0.403  0.00  0.00    -0.056 C 
ATOM     41  C   UNL     1      -2.985  -5.913  -0.087  0.00  0.00    -0.012 C 
ENDBRANCH  39  40
ENDBRANCH  22  39
ENDBRANCH   1  22
TORSDOF 13
