REMARK  Name = 135625284
REMARK  4 active torsions:
REMARK  status: ('A' for Active; 'I' for Inactive)
REMARK    1  A    between atoms: N_2  and  C_16
REMARK    2  A    between atoms: C_17  and  C_23
REMARK    3  A    between atoms: C_18  and  O_21
REMARK    4  A    between atoms: C_23  and  O_24
REMARK                            x       y       z     vdW  Elec       q    Type
REMARK                         _______ _______ _______ _____ _____    ______ ____
ROOT
ATOM      1  O   UNL     1      -4.394   1.706  -0.191  0.00  0.00    -0.268 OA
ATOM      2  N   UNL     1      -0.061   0.425  -0.213  0.00  0.00    -0.235 N 
ATOM      3  N   UNL     1      -1.461   2.169  -0.275  0.00  0.00    -0.240 NA
ATOM      4  N   UNL     1      -1.638  -1.406  -0.086  0.00  0.00    -0.357 NA
ATOM      5  N   UNL     1      -3.883  -0.570  -0.083  0.00  0.00    -0.243 N 
ATOM      6  N   UNL     1      -3.461  -2.884   0.028  0.00  0.00    -0.321 N 
ATOM      7  C   UNL     1      -1.320  -0.095  -0.161  0.00  0.00    +0.211 C 
ATOM      8  C   UNL     1      -0.197   1.791  -0.281  0.00  0.00    +0.224 C 
ATOM      9  C   UNL     1      -2.154   0.997  -0.200  0.00  0.00    +0.176 C 
ATOM     10  C   UNL     1      -3.576   0.795  -0.161  0.00  0.00    +0.273 C 
ATOM     11  C   UNL     1      -2.935  -1.620  -0.048  0.00  0.00    +0.239 C 
ATOM     12  H   UNL     1      -4.835  -0.819  -0.051  0.00  0.00    +0.159 HD
ATOM     13  H   UNL     1      -2.863  -3.665   0.056  0.00  0.00    +0.146 HD
ATOM     14  H   UNL     1      -4.437  -3.010   0.054  0.00  0.00    +0.146 HD
ENDROOT
BRANCH   2  16
ATOM     15  O   UNL     1       2.230   0.358  -0.998  0.00  0.00    -0.331 OA
ATOM     16  C   UNL     1       1.244  -0.337  -0.201  0.00  0.00    +0.218 C 
ATOM     17  C   UNL     1       3.496   0.302  -0.306  0.00  0.00    +0.177 C 
ATOM     18  C   UNL     1       3.150   0.258   1.178  0.00  0.00    +0.162 C 
ATOM     19  C   UNL     1       1.861  -0.488   1.159  0.00  0.00    +0.031 C 
ATOM     20  C   UNL     1       1.407  -1.270   2.145  0.00  0.00    -0.003 C 
BRANCH  18  21
ATOM     21  O   UNL     1       2.903   1.577   1.652  0.00  0.00    -0.378 OA
ATOM     22  H   UNL     1       3.736   2.075   1.670  0.00  0.00    +0.211 HD
ENDBRANCH  18  21
BRANCH  17  23
ATOM     23  C   UNL     1       4.267  -0.924  -0.786  0.00  0.00    +0.170 C 
BRANCH  23  24
ATOM     24  O   UNL     1       4.522  -0.782  -2.171  0.00  0.00    -0.379 OA
ATOM     25  H   UNL     1       5.013  -1.555  -2.491  0.00  0.00    +0.211 HD
ENDBRANCH  23  24
ENDBRANCH  17  23
ENDBRANCH   2  16
TORSDOF 4
