REMARK  Name = 135618550
REMARK  12 active torsions:
REMARK  status: ('A' for Active; 'I' for Inactive)
REMARK    1  A    between atoms: C_1  and  C_9
REMARK    2  A    between atoms: C_2  and  S_22
REMARK    3  A    between atoms: N_8  and  CA_11
REMARK    4  A    between atoms: CA_11  and  C_13
REMARK    5  A    between atoms: CA_11  and  CB_16
REMARK    6  A    between atoms: C_13  and  O_14
REMARK    7  A    between atoms: CB_16  and  CG_17
REMARK    8  A    between atoms: CG_17  and  CD_19
REMARK    9  A    between atoms: CD_19  and  OE1_20
REMARK   10  A    between atoms: S_22  and  C_23
REMARK   11  A    between atoms: C_23  and  C_24
REMARK   12  A    between atoms: C_24  and  C_31
REMARK                            x       y       z     vdW  Elec       q    Type
REMARK                         _______ _______ _______ _____ _____    ______ ____
ROOT
ATOM      1  C   UNK A   0       2.023  -2.156   0.549  0.00  0.00    +0.053 C 
ATOM      2  C   UNK A   0      -0.688  -2.808   0.482  0.00  0.00    +0.025 C 
ATOM      3  C   UNK A   0       1.584  -3.232  -0.221  0.00  0.00    +0.005 C 
ATOM      4  C   UNK A   0       1.107  -1.405   1.286  0.00  0.00    +0.005 C 
ATOM      5  C   UNK A   0       0.228  -3.558  -0.255  0.00  0.00    +0.006 C 
ATOM      6  C   UNK A   0      -0.249  -1.732   1.252  0.00  0.00    +0.006 C 
ENDROOT
BRANCH   1   9
ATOM      7  O   UNK A   0       4.301  -2.683   0.364  0.00  0.00    -0.270 OA
ATOM      8  N   GLU A   1       3.767  -0.479   0.851  0.00  0.00    -0.293 N 
ATOM      9  C   UNK A   0       3.467  -1.808   0.585  0.00  0.00    +0.246 C 
ATOM     10  H   GLU A   1       3.026   0.149   1.016  0.00  0.00    +0.150 HD
BRANCH   8  11
ATOM     11  CA  GLU A   1       5.118   0.018   0.895  0.00  0.00    +0.172 C 
BRANCH  11  13
ATOM     12  OXT GLU A   1       4.214   1.540   2.567  0.00  0.00    -0.248 OA
ATOM     13  C   GLU A   1       5.179   1.089   1.964  0.00  0.00    +0.332 C 
BRANCH  13  14
ATOM     14  O   GLU A   1       6.455   1.480   2.219  0.00  0.00    -0.479 OA
ATOM     15  H   GLU A   1       7.165   1.108   1.733  0.00  0.00    +0.295 HD
ENDBRANCH  13  14
ENDBRANCH  11  13
BRANCH  11  16
ATOM     16  CB  GLU A   1       5.623   0.483  -0.477  0.00  0.00    +0.043 C 
BRANCH  16  17
ATOM     17  CG  GLU A   1       4.861   1.656  -1.107  0.00  0.00    +0.112 C 
BRANCH  17  19
ATOM     18  OE2 GLU A   1       6.326   1.543  -3.050  0.00  0.00    -0.250 OA
ATOM     19  CD  GLU A   1       5.390   2.068  -2.464  0.00  0.00    +0.314 C 
BRANCH  19  20
ATOM     20  OE1 GLU A   1       4.719   3.142  -2.957  0.00  0.00    -0.480 OA
ATOM     21  HE1 GLU A   1       4.007   3.512  -2.474  0.00  0.00    +0.295 HD
ENDBRANCH  19  20
ENDBRANCH  17  19
ENDBRANCH  16  17
ENDBRANCH  11  16
ENDBRANCH   8  11
ENDBRANCH   1   9
BRANCH   2  22
ATOM     22  S   UNK A   0      -2.420  -3.225   0.439  0.00  0.00    -0.113 S 
BRANCH  22  23
ATOM     23  C   UNK A   0      -2.800  -3.042  -1.327  0.00  0.00    +0.069 C 
BRANCH  23  24
ATOM     24  C   UNK A   0      -4.250  -2.623  -1.579  0.00  0.00    +0.069 C 
BRANCH  24  31
ATOM     25  O   UNK A   0      -1.870   1.653  -0.507  0.00  0.00    -0.266 OA
ATOM     26  N   UNK A   0      -3.660  -0.365  -0.851  0.00  0.00    -0.393 NA
ATOM     27  N   UNK A   0      -6.301   0.123  -0.022  0.00  0.00    -0.201 NA
ATOM     28  N   UNK A   0      -3.503   3.016   0.415  0.00  0.00    -0.241 N 
ATOM     29  N   UNK A   0      -5.729   2.286   0.674  0.00  0.00    -0.318 NA
ATOM     30  N   UNK A   0      -5.102   4.441   1.355  0.00  0.00    -0.320 N 
ATOM     31  C   UNK A   0      -4.628  -1.293  -0.974  0.00  0.00    +0.114 C 
ATOM     32  C   UNK A   0      -4.048   0.804  -0.306  0.00  0.00    +0.257 C 
ATOM     33  C   UNK A   0      -5.924  -1.053  -0.568  0.00  0.00    +0.191 C 
ATOM     34  C   UNK A   0      -5.341   1.062   0.107  0.00  0.00    +0.121 C 
ATOM     35  C   UNK A   0      -3.026   1.845  -0.153  0.00  0.00    +0.293 C 
ATOM     36  C   UNK A   0      -4.823   3.215   0.813  0.00  0.00    +0.248 C 
ATOM     37  H   UNK A   0      -2.867   3.755   0.546  0.00  0.00    +0.159 HD
ATOM     38  H   UNK A   0      -4.389   5.115   1.441  0.00  0.00    +0.146 HD
ATOM     39  H   UNK A   0      -6.016   4.650   1.657  0.00  0.00    +0.146 HD
ENDBRANCH  24  31
ENDBRANCH  23  24
ENDBRANCH  22  23
ENDBRANCH   2  22
TORSDOF 12
