135618521
  -OEChem-03292013293D

 43 47  0     1  0  0  0  0  0999 V2000
   -3.1320   -2.5333    0.0757 O   0  0  0  0  0  0  0  0  0  0  0  0
    4.7511   -2.0586    0.6242 O   0  0  0  0  0  0  0  0  0  0  0  0
   -1.3721   -0.3536    0.7037 N   0  0  0  0  0  0  0  0  0  0  0  0
   -2.4339    2.1343    0.4100 N   0  0  0  0  0  0  0  0  0  0  0  0
    2.0672   -1.3469    0.8203 N   0  0  0  0  0  0  0  0  0  0  0  0
    2.0958    1.7407    0.7247 N   0  0  0  0  0  0  0  0  0  0  0  0
   -4.4420    1.2382   -0.5775 N   0  0  0  0  0  0  0  0  0  0  0  0
   -4.6484   -1.0813   -0.8421 N   0  0  0  0  0  0  0  0  0  0  0  0
    3.2885    1.3593   -1.1896 N   0  0  0  0  0  0  0  0  0  0  0  0
    4.8697   -0.4207   -1.0493 N   0  0  0  0  0  0  0  0  0  0  0  0
   -6.3554    0.3263   -1.5743 N   0  0  0  0  0  0  0  0  0  0  0  0
    4.9923    1.1486   -2.7803 N   0  0  0  0  0  0  0  0  0  0  0  0
   -0.8869    0.7104    1.6224 C   0  0  1  0  0  0  0  0  0  0  0  0
    0.5476    0.2540    1.9957 C   0  0  1  0  0  0  0  0  0  0  0  0
   -1.0643    2.0497    0.8962 C   0  0  0  0  0  0  0  0  0  0  0  0
    0.8154   -0.8398    0.9952 C   0  0  0  0  0  0  0  0  0  0  0  0
   -0.3005   -1.1647    0.3156 C   0  0  0  0  0  0  0  0  0  0  0  0
    1.6376    1.3188    2.0473 C   0  0  0  0  0  0  0  0  0  0  0  0
   -2.6376   -0.1950    0.1345 C   0  0  0  0  0  0  0  0  0  0  0  0
   -3.1938    1.0397   -0.0165 C   0  0  0  0  0  0  0  0  0  0  0  0
   -0.3497   -2.1321   -0.8201 C   0  0  0  0  0  0  0  0  0  0  0  0
   -3.4575   -1.3883   -0.2198 C   0  0  0  0  0  0  0  0  0  0  0  0
    2.9626   -0.5355    0.3518 C   0  0  0  0  0  0  0  0  0  0  0  0
    2.7318    0.9035   -0.0185 C   0  0  0  0  0  0  0  0  0  0  0  0
   -5.1238    0.2083   -0.9862 C   0  0  0  0  0  0  0  0  0  0  0  0
    4.3045   -1.1057    0.0122 C   0  0  0  0  0  0  0  0  0  0  0  0
    4.3338    0.7238   -1.6554 C   0  0  0  0  0  0  0  0  0  0  0  0
   -1.5081    0.7081    2.5296 H   0  0  0  0  0  0  0  0  0  0  0  0
    0.4958   -0.2114    2.9905 H   0  0  0  0  0  0  0  0  0  0  0  0
   -0.8572    2.8890    1.5672 H   0  0  0  0  0  0  0  0  0  0  0  0
   -0.3969    2.1285    0.0319 H   0  0  0  0  0  0  0  0  0  0  0  0
    1.2753    2.1981    2.5919 H   0  0  0  0  0  0  0  0  0  0  0  0
    2.4951    0.9520    2.6277 H   0  0  0  0  0  0  0  0  0  0  0  0
   -2.8437    3.0491    0.2533 H   0  0  0  0  0  0  0  0  0  0  0  0
   -0.7919   -3.0805   -0.5035 H   0  0  0  0  0  0  0  0  0  0  0  0
    0.6511   -2.3565   -1.2049 H   0  0  0  0  0  0  0  0  0  0  0  0
   -0.9233   -1.7294   -1.6606 H   0  0  0  0  0  0  0  0  0  0  0  0
   -5.2419   -1.8485   -1.1434 H   0  0  0  0  0  0  0  0  0  0  0  0
    5.7378   -0.7868   -1.4293 H   0  0  0  0  0  0  0  0  0  0  0  0
   -6.7843    1.2342   -1.7171 H   0  0  0  0  0  0  0  0  0  0  0  0
   -6.8742   -0.4883   -1.8837 H   0  0  0  0  0  0  0  0  0  0  0  0
    4.6850    1.9700   -3.2896 H   0  0  0  0  0  0  0  0  0  0  0  0
    5.8036    0.6555   -3.1366 H   0  0  0  0  0  0  0  0  0  0  0  0
  1 22  2  0  0  0  0
  2 26  2  0  0  0  0
  3 13  1  0  0  0  0
  3 17  1  0  0  0  0
  3 19  1  0  0  0  0
  4 15  1  0  0  0  0
  4 20  1  0  0  0  0
  4 34  1  0  0  0  0
  5 16  1  0  0  0  0
  5 23  2  0  0  0  0
  6 18  1  0  0  0  0
  6 24  2  0  0  0  0
  7 20  1  0  0  0  0
  7 25  2  0  0  0  0
  8 22  1  0  0  0  0
  8 25  1  0  0  0  0
  8 38  1  0  0  0  0
  9 24  1  0  0  0  0
  9 27  2  0  0  0  0
 10 26  1  0  0  0  0
 10 27  1  0  0  0  0
 10 39  1  0  0  0  0
 11 25  1  0  0  0  0
 11 40  1  0  0  0  0
 11 41  1  0  0  0  0
 12 27  1  0  0  0  0
 12 42  1  0  0  0  0
 12 43  1  0  0  0  0
 13 14  1  0  0  0  0
 13 15  1  0  0  0  0
 13 28  1  0  0  0  0
 14 16  1  0  0  0  0
 14 18  1  0  0  0  0
 14 29  1  0  0  0  0
 15 30  1  0  0  0  0
 15 31  1  0  0  0  0
 16 17  2  0  0  0  0
 17 21  1  0  0  0  0
 18 32  1  0  0  0  0
 18 33  1  0  0  0  0
 19 20  2  0  0  0  0
 19 22  1  0  0  0  0
 21 35  1  0  0  0  0
 21 36  1  0  0  0  0
 21 37  1  0  0  0  0
 23 24  1  0  0  0  0
 23 26  1  0  0  0  0
M  END
> <PUBCHEM_COMPOUND_CID>
135618521

> <PUBCHEM_CONFORMER_RMSD>
0.6

> <PUBCHEM_CONFORMER_DIVERSEORDER>
1
6
2
4
7
5
8
3

> <PUBCHEM_MMFF94_PARTIAL_CHARGES>
34
1 -0.57
10 -0.49
11 -0.85
12 -0.85
13 0.37
14 0.14
15 0.37
16 0.03
17 -0.04
18 0.25
19 0.11
2 -0.57
20 0.27
21 0.14
22 0.62
23 0.45
24 0.66
25 0.56
26 0.63
27 0.56
3 -0.57
34 0.4
38 0.37
39 0.37
4 -0.87
40 0.4
41 0.4
42 0.4
43 0.4
5 -0.62
6 -0.7
7 -0.62
8 -0.49
9 -0.66

> <PUBCHEM_EFFECTIVE_ROTOR_COUNT>
0.6

> <PUBCHEM_PHARMACOPHORE_FEATURES>
16
1 1 acceptor
1 10 donor
1 11 donor
1 12 donor
1 2 acceptor
1 3 cation
1 4 cation
1 4 donor
1 5 acceptor
1 8 donor
3 6 9 24 cation
5 3 13 14 16 17 rings
6 3 4 13 15 19 20 rings
6 7 8 19 20 22 25 rings
6 9 10 23 24 26 27 rings
7 5 6 14 16 18 23 24 rings

> <PUBCHEM_HEAVY_ATOM_COUNT>
27

> <PUBCHEM_ATOM_DEF_STEREO_COUNT>
0

> <PUBCHEM_ATOM_UDEF_STEREO_COUNT>
2

> <PUBCHEM_BOND_DEF_STEREO_COUNT>
0

> <PUBCHEM_BOND_UDEF_STEREO_COUNT>
0

> <PUBCHEM_ISOTOPIC_ATOM_COUNT>
0

> <PUBCHEM_COMPONENT_COUNT>
1

> <PUBCHEM_CACTVS_TAUTO_COUNT>
-1

> <PUBCHEM_CONFORMER_ID>
08155FD900000001

> <PUBCHEM_MMFF94_ENERGY>
105.0733

> <PUBCHEM_FEATURE_SELFOVERLAP>
81.561

> <PUBCHEM_SHAPE_FINGERPRINT>
10498660 4 18335699489800312721
10759866 29 18260544507061435483
12363563 72 16702028577605381192
12670546 177 18409732845924145820
12892183 10 11167946870084756547
13544653 18 14692577589597375850
14848178 5 15410891885960745325
16752209 62 18131352977350349138
17492 54 18335710454746318100
17959699 21 17748821900052943205
1813 80 15339121251240488200
193927 3 16845580828454299409
19784866 240 14979961380392441845
19862831 5 18412547612934360194
20645477 70 16988553649761099385
21033648 29 14707220919520643716
21475661 188 15647064806053557332
21503847 285 17022900129744118932
21781051 124 18410009979607415635
21857420 4 16117908850789000135
22182313 1 18056469788969118403
23559900 14 18270669965312351153
3004659 81 18337106770711725626
3886686 26 11164621908637298821
4058900 60 17970904467762857489
474 4 17022905669993597709
633830 44 16877657980656792778
7808743 9 12036035489849664226
9981440 41 17684653521405054008

> <PUBCHEM_SHAPE_MULTIPOLES>
494.1
11.29
2.19
1.79
3.76
0.22
-0.59
1.44
-7.83
0.39
0.37
-1.81
-0.58
-0.67

> <PUBCHEM_SHAPE_SELFOVERLAP>
1108.793

> <PUBCHEM_SHAPE_VOLUME>
254.3

> <PUBCHEM_COORDINATE_TYPE>
2
5
10

$$$$
