REMARK  Name = 135625296
REMARK  5 active torsions:
REMARK  status: ('A' for Active; 'I' for Inactive)
REMARK    1  A    between atoms: N_2  and  C1*_32
REMARK    2  A    between atoms: N_4  and  C_17
REMARK    3  A    between atoms: C3*_34  and  O3*_36
REMARK    4  A    between atoms: C4*_35  and  C5*_38
REMARK    5  A    between atoms: C5*_38  and  O5*_39
REMARK                            x       y       z     vdW  Elec       q    Type
REMARK                         _______ _______ _______ _____ _____    ______ ____
ROOT
ATOM      1  O   UNL     1      -2.324   4.437   0.191  0.00  0.00    -0.267 OA
ATOM      2  N   UNL     1      -2.340  -0.072  -0.101  0.00  0.00    -0.200 N 
ATOM      3  N   UNL     1      -1.057   1.755   0.031  0.00  0.00    -0.364 NA
ATOM      4  N   UNL     1       0.033  -0.442  -0.101  0.00  0.00    -0.275 N 
ATOM      5  N   UNL     1      -4.544   0.929  -0.058  0.00  0.00    -0.355 NA
ATOM      6  N   UNL     1      -4.370   3.314   0.098  0.00  0.00    -0.242 N 
ATOM      7  N   UNL     1      -6.476   2.264   0.008  0.00  0.00    -0.321 N 
ATOM      8  C   UNL     1      -3.194   0.990  -0.041  0.00  0.00    +0.229 C 
ATOM      9  C   UNL     1      -1.066   0.439  -0.054  0.00  0.00    +0.250 C 
ATOM     10  C   UNL     1      -2.378   2.093   0.039  0.00  0.00    +0.232 C 
ATOM     11  C   UNL     1      -2.970   3.399   0.117  0.00  0.00    +0.286 C 
ATOM     12  C   UNL     1      -5.113   2.113   0.012  0.00  0.00    +0.240 C 
ATOM     13  H   UNL     1      -0.224  -1.390  -0.164  0.00  0.00    +0.156 HD
ATOM     14  H   UNL     1      -4.876   4.157   0.147  0.00  0.00    +0.159 HD
ATOM     15  H   UNL     1      -7.059   1.473  -0.049  0.00  0.00    +0.146 HD
ATOM     16  H   UNL     1      -6.871   3.164   0.062  0.00  0.00    +0.146 HD
ENDROOT
BRANCH   4  17
ATOM     17  C   UNL     1       1.426  -0.234  -0.073  0.00  0.00    +0.051 C 
ATOM     18  C   UNL     1       2.297  -1.317  -0.134  0.00  0.00    +0.015 C 
ATOM     19  C   UNL     1       3.690  -1.129  -0.108  0.00  0.00    +0.001 C 
ATOM     20  C   UNL     1       4.241   0.176  -0.019  0.00  0.00    +0.000 C 
ATOM     21  C   UNL     1       1.938   1.052   0.015  0.00  0.00    +0.015 C 
ATOM     22  C   UNL     1       5.672   0.334   0.005  0.00  0.00    +0.000 C 
ATOM     23  C   UNL     1       3.321   1.253   0.041  0.00  0.00    +0.001 C 
ATOM     24  C   UNL     1       6.497  -0.819  -0.061  0.00  0.00    +0.000 C 
ATOM     25  C   UNL     1       4.535  -2.240  -0.171  0.00  0.00    +0.000 C 
ATOM     26  C   UNL     1       5.917  -2.087  -0.148  0.00  0.00    +0.000 C 
ATOM     27  C   UNL     1       6.333   1.585   0.091  0.00  0.00    +0.000 C 
ATOM     28  C   UNL     1       7.897  -0.699  -0.039  0.00  0.00    +0.000 C 
ATOM     29  C   UNL     1       7.726   1.691   0.111  0.00  0.00    +0.000 C 
ATOM     30  C   UNL     1       8.508   0.548   0.046  0.00  0.00    +0.000 C 
ENDBRANCH   4  17
BRANCH   2  32
ATOM     31  O4* UNL     1      -3.960  -1.703  -0.933  0.00  0.00    -0.335 OA
ATOM     32  C1* UNL     1      -2.734  -1.524  -0.199  0.00  0.00    +0.203 C 
ATOM     33  C2* UNL     1      -2.949  -2.179   1.161  0.00  0.00    +0.083 C 
ATOM     34  C3* UNL     1      -3.896  -3.307   0.821  0.00  0.00    +0.144 C 
ATOM     35  C4* UNL     1      -4.762  -2.706  -0.278  0.00  0.00    +0.173 C 
BRANCH  34  36
ATOM     36  O3* UNL     1      -3.136  -4.392   0.294  0.00  0.00    -0.382 OA
ATOM     37  H3* UNL     1      -2.585  -4.772   0.995  0.00  0.00    +0.210 HD
ENDBRANCH  34  36
BRANCH  35  38
ATOM     38  C5* UNL     1      -6.014  -2.028   0.263  0.00  0.00    +0.169 C 
BRANCH  38  39
ATOM     39  O5* UNL     1      -6.746  -1.494  -0.826  0.00  0.00    -0.379 OA
ATOM     40  H5* UNL     1      -7.547  -1.058  -0.494  0.00  0.00    +0.211 HD
ENDBRANCH  38  39
ENDBRANCH  35  38
ENDBRANCH   2  32
TORSDOF 5
