REMARK  Name = 135625291
REMARK  6 active torsions:
REMARK  status: ('A' for Active; 'I' for Inactive)
REMARK    1  A    between atoms: N_2  and  C_15
REMARK    2  A    between atoms: C_15  and  C_16
REMARK    3  A    between atoms: C_16  and  N_17
REMARK    4  A    between atoms: N_17  and  C_20
REMARK    5  A    between atoms: C_20  and  C_21
REMARK    6  A    between atoms: C_21  and  O_22
REMARK                            x       y       z     vdW  Elec       q    Type
REMARK                         _______ _______ _______ _____ _____    ______ ____
ROOT
ATOM      1  O   UNL     1       0.271   1.737  -1.004  0.00  0.00    -0.272 OA
ATOM      2  N   UNL     1       0.307  -1.236  -0.410  0.00  0.00    -0.235 NA
ATOM      3  N   UNL     1       2.093  -2.262   0.444  0.00  0.00    -0.194 NA
ATOM      4  N   UNL     1       2.443   1.714  -0.201  0.00  0.00    -0.245 N 
ATOM      5  N   UNL     1       3.550  -0.263   0.589  0.00  0.00    -0.323 NA
ATOM      6  N   UNL     1       4.645   1.806   0.588  0.00  0.00    -0.320 N 
ATOM      7  C   UNL     1       1.260  -0.273  -0.249  0.00  0.00    +0.234 C 
ATOM      8  C   UNL     1       2.349  -0.926   0.278  0.00  0.00    +0.087 C 
ATOM      9  C   UNL     1       0.856  -2.416   0.021  0.00  0.00    +0.214 C 
ATOM     10  C   UNL     1       1.224   1.125  -0.534  0.00  0.00    +0.259 C 
ATOM     11  C   UNL     1       3.545   1.026   0.337  0.00  0.00    +0.248 C 
ATOM     12  H   UNL     1       2.539   2.682  -0.354  0.00  0.00    +0.159 HD
ATOM     13  H   UNL     1       4.620   2.770   0.392  0.00  0.00    +0.146 HD
ATOM     14  H   UNL     1       5.459   1.402   0.965  0.00  0.00    +0.146 HD
ENDROOT
BRANCH   2  15
ATOM     15  C   UNL     1      -1.028  -1.069  -0.931  0.00  0.00    +0.052 C 
BRANCH  15  16
ATOM     16  C   UNL     1      -1.963  -0.451   0.107  0.00  0.00    -0.064 C 
BRANCH  16  17
ATOM     17  N   UNL     1      -3.300  -0.285  -0.451  0.00  0.00    +0.386 N 
ATOM     18  H   UNL     1      -3.663  -1.198  -0.725  0.00  0.00    -0.084 HD
ATOM     19  H   UNL     1      -3.240   0.332  -1.261  0.00  0.00    -0.084 HD
BRANCH  17  20
ATOM     20  C   UNL     1      -4.200   0.314   0.524  0.00  0.00    -0.049 C 
BRANCH  20  21
ATOM     21  C   UNL     1      -5.602   0.444  -0.049  0.00  0.00    +0.114 C 
BRANCH  21  22
ATOM     22  O   UNL     1      -6.448   1.015   0.941  0.00  0.00    -0.384 OA
ATOM     23  H   UNL     1      -7.347   1.103   0.586  0.00  0.00    +0.210 HD
ENDBRANCH  21  22
ENDBRANCH  20  21
ENDBRANCH  17  20
ENDBRANCH  16  17
ENDBRANCH  15  16
ENDBRANCH   2  15
TORSDOF 6
