135618590
  -OEChem-03292013293D

 29 30  0     1  0  0  0  0  0999 V2000
    4.7823   -0.2165   -0.1110 O   0  0  0  0  0  0  0  0  0  0  0  0
    2.7649    0.2639   -1.8248 O   0  0  0  0  0  0  0  0  0  0  0  0
    3.3494    1.6590    1.3951 O   0  0  0  0  0  0  0  0  0  0  0  0
   -1.6087    2.5492   -0.5020 O   0  0  0  0  0  0  0  0  0  0  0  0
   -0.6991   -2.0342    0.0863 N   0  0  0  0  0  0  0  0  0  0  0  0
    0.2382    0.5155   -0.4725 N   0  0  0  0  0  0  0  0  0  0  0  0
   -2.9390   -1.1922    0.3112 N   0  0  0  0  0  0  0  0  0  0  0  0
   -3.3234    1.1016    0.0089 N   0  0  0  0  0  0  0  0  0  0  0  0
   -5.1015   -0.3163    0.5210 N   0  0  0  0  0  0  0  0  0  0  0  0
    0.7152   -1.9158   -0.1544 C   0  0  0  0  0  0  0  0  0  0  0  0
    1.0617   -0.4829   -0.4432 C   0  0  0  0  0  0  0  0  0  0  0  0
   -1.5955   -0.9774    0.0612 C   0  0  0  0  0  0  0  0  0  0  0  0
   -1.0865    0.2473   -0.2162 C   0  0  0  0  0  0  0  0  0  0  0  0
    3.4847   -0.5171    0.3762 C   0  0  2  0  0  0  0  0  0  0  0  0
    2.4928   -0.1855   -0.7209 C   0  0  0  0  0  0  0  0  0  0  0  0
   -2.0090    1.4155   -0.2544 C   0  0  0  0  0  0  0  0  0  0  0  0
    3.2326    0.2678    1.6564 C   0  0  0  0  0  0  0  0  0  0  0  0
   -3.7591   -0.1817    0.2831 C   0  0  0  0  0  0  0  0  0  0  0  0
    1.0049   -2.5335   -1.0100 H   0  0  0  0  0  0  0  0  0  0  0  0
    1.2596   -2.2579    0.7297 H   0  0  0  0  0  0  0  0  0  0  0  0
   -1.0883   -2.9477    0.2943 H   0  0  0  0  0  0  0  0  0  0  0  0
    3.4530   -1.5920    0.5787 H   0  0  0  0  0  0  0  0  0  0  0  0
    2.2360    0.0698    2.0625 H   0  0  0  0  0  0  0  0  0  0  0  0
    3.9840    0.0102    2.4098 H   0  0  0  0  0  0  0  0  0  0  0  0
   -4.0074    1.8523   -0.0003 H   0  0  0  0  0  0  0  0  0  0  0  0
    4.9657   -0.8198   -0.8515 H   0  0  0  0  0  0  0  0  0  0  0  0
   -5.5096   -1.2209    0.7305 H   0  0  0  0  0  0  0  0  0  0  0  0
   -5.7261    0.4822    0.4950 H   0  0  0  0  0  0  0  0  0  0  0  0
    3.1886    2.1220    2.2349 H   0  0  0  0  0  0  0  0  0  0  0  0
  1 14  1  0  0  0  0
  1 26  1  0  0  0  0
  2 15  2  0  0  0  0
  3 17  1  0  0  0  0
  3 29  1  0  0  0  0
  4 16  2  0  0  0  0
  5 10  1  0  0  0  0
  5 12  1  0  0  0  0
  5 21  1  0  0  0  0
  6 11  2  0  0  0  0
  6 13  1  0  0  0  0
  7 12  1  0  0  0  0
  7 18  2  0  0  0  0
  8 16  1  0  0  0  0
  8 18  1  0  0  0  0
  8 25  1  0  0  0  0
  9 18  1  0  0  0  0
  9 27  1  0  0  0  0
  9 28  1  0  0  0  0
 10 11  1  0  0  0  0
 10 19  1  0  0  0  0
 10 20  1  0  0  0  0
 11 15  1  0  0  0  0
 12 13  2  0  0  0  0
 13 16  1  0  0  0  0
 14 15  1  0  0  0  0
 14 17  1  0  0  0  0
 14 22  1  0  0  0  0
 17 23  1  0  0  0  0
 17 24  1  0  0  0  0
M  END
> <PUBCHEM_COMPOUND_CID>
135618590

> <PUBCHEM_CONFORMER_RMSD>
0.6

> <PUBCHEM_CONFORMER_DIVERSEORDER>
1
32
24
31
22
30
18
33
26
28
27
21
3
17
23
6
29
19
25
16
5
9
14
15
4
10
20
11
13
2
12
7
8

> <PUBCHEM_MMFF94_PARTIAL_CHARGES>
24
1 -0.68
10 0.43
11 0.39
12 0.27
13 0.19
14 0.34
15 0.51
16 0.62
17 0.28
18 0.56
2 -0.57
21 0.4
25 0.37
26 0.4
27 0.4
28 0.4
29 0.4
3 -0.68
4 -0.57
5 -0.87
6 -0.62
7 -0.62
8 -0.49
9 -0.85

> <PUBCHEM_EFFECTIVE_ROTOR_COUNT>
3.4

> <PUBCHEM_PHARMACOPHORE_FEATURES>
13
1 1 acceptor
1 1 donor
1 2 acceptor
1 3 acceptor
1 3 donor
1 4 acceptor
1 5 cation
1 5 donor
1 6 acceptor
1 8 donor
1 9 donor
6 5 6 10 11 12 13 rings
6 7 8 12 13 16 18 rings

> <PUBCHEM_HEAVY_ATOM_COUNT>
18

> <PUBCHEM_ATOM_DEF_STEREO_COUNT>
1

> <PUBCHEM_ATOM_UDEF_STEREO_COUNT>
0

> <PUBCHEM_BOND_DEF_STEREO_COUNT>
0

> <PUBCHEM_BOND_UDEF_STEREO_COUNT>
0

> <PUBCHEM_ISOTOPIC_ATOM_COUNT>
0

> <PUBCHEM_COMPONENT_COUNT>
1

> <PUBCHEM_CACTVS_TAUTO_COUNT>
-1

> <PUBCHEM_CONFORMER_ID>
0815601E00000001

> <PUBCHEM_MMFF94_ENERGY>
42.8782

> <PUBCHEM_FEATURE_SELFOVERLAP>
66.073

> <PUBCHEM_SHAPE_FINGERPRINT>
10608611 8 18341327773679121196
10646746 165 18340484478557561648
11132069 177 18412546522360923815
11796584 16 15936695938960911843
12119455 92 17418372489160560638
12236239 1 17458065962861471574
12251169 10 18040435494894945446
12403259 226 18340763724456762636
12403259 415 18341609291790413440
12824470 246 15865203579429936403
13134695 92 16558461995025141274
13140716 1 18265058122757911267
13538477 17 17822580524489208686
13581323 91 18260824886868490530
13862211 1 18335706087524330539
14178342 30 18117559522423220429
15042514 8 18335427923466602531
15342168 16 16773228621203592864
16945 1 18408890646035168391
17804303 29 18337388215554950418
17846911 113 18409449185130893103
18186145 218 17775568619741488346
19786989 88 16845569833628087830
19862831 5 12031789188532520592
200 152 14851603284479115723
20510252 161 18340489971557067241
20559304 39 18041001739209413844
20645477 70 13695859316781749120
21486144 27 17275107253547874366
21524375 3 18340772558978118014
22854114 59 18201719552690698371
23048698 100 16588031224948620270
23402539 116 18410288125541009639
23463225 33 18040719130050379950
23557571 272 18341619178820790901
23559900 14 18338521828948510134
2748010 2 18119535323591177287
3524813 1 18273207595315811568
4072396 5 18186792566053146755
43471831 8 18187644639872166387
474 4 14835537259703876658
5104073 3 18265338309492386155
5374978 207 18261111893615534865
53812653 166 18342738490205512354
6333272 397 18412541037471480600
69090 78 17917706920212579271
7364860 26 18126563410321785134
77492 1 17385726902262713766
90316 7 17676760981489288973

> <PUBCHEM_SHAPE_MULTIPOLES>
322.05
8.18
1.81
1.09
0.53
0.31
-0.06
0.71
-1.87
0.69
-0.01
-1.24
0.26
0.69

> <PUBCHEM_SHAPE_SELFOVERLAP>
687.273

> <PUBCHEM_SHAPE_VOLUME>
175.5

> <PUBCHEM_COORDINATE_TYPE>
2
5
10

$$$$
