REMARK  Name = 135618591
REMARK  5 active torsions:
REMARK  status: ('A' for Active; 'I' for Inactive)
REMARK    1  A    between atoms: C_2  and  N_17
REMARK    2  A    between atoms: C_3  and  N_7
REMARK    3  A    between atoms: C_4  and  O_21
REMARK    4  A    between atoms: C_5  and  C_23
REMARK    5  A    between atoms: C_23  and  O_24
REMARK                            x       y       z     vdW  Elec       q    Type
REMARK                         _______ _______ _______ _____ _____    ______ ____
ROOT
ATOM      1  O   UNL     1      -2.026  -0.517   0.963  0.00  0.00    -0.337 OA
ATOM      2  C   UNL     1      -1.734   0.986  -0.848  0.00  0.00    +0.012 C 
ATOM      3  C   UNL     1      -1.069   0.409   0.404  0.00  0.00    +0.177 C 
ATOM      4  C   UNL     1      -3.196   1.015  -0.429  0.00  0.00    +0.124 C 
ATOM      5  C   UNL     1      -3.326  -0.268   0.386  0.00  0.00    +0.171 C 
ENDROOT
BRANCH   3   7
ATOM      6  O   UNL     1       4.608  -1.350  -0.417  0.00  0.00    -0.268 OA
ATOM      7  N   UNL     1       0.249  -0.275   0.136  0.00  0.00    -0.251 N 
ATOM      8  N   UNL     1       1.688  -1.901  -0.405  0.00  0.00    -0.241 NA
ATOM      9  N   UNL     1       1.787   1.549   0.568  0.00  0.00    -0.232 NA
ATOM     10  N   UNL     1       4.056   0.823   0.234  0.00  0.00    -0.279 N 
ATOM     11  C   UNL     1       1.495   0.274   0.222  0.00  0.00    +0.154 C 
ATOM     12  C   UNL     1       0.417  -1.584  -0.244  0.00  0.00    +0.223 C 
ATOM     13  C   UNL     1       2.354  -0.747  -0.116  0.00  0.00    +0.162 C 
ATOM     14  C   UNL     1       3.774  -0.502  -0.126  0.00  0.00    +0.267 C 
ATOM     15  C   UNL     1       3.071   1.764   0.556  0.00  0.00    +0.220 C 
ATOM     16  H   UNL     1       4.998   1.107   0.261  0.00  0.00    +0.152 HD
ENDBRANCH   3   7
BRANCH   2  17
ATOM     17  N   UNL     1      -1.200   2.280  -1.244  0.00  0.00    +0.386 N 
ATOM     18  H   UNL     1      -0.220   2.177  -1.509  0.00  0.00    -0.089 HD
ATOM     19  H   UNL     1      -1.274   2.932  -0.463  0.00  0.00    -0.089 HD
ATOM     20  H   UNL     1      -1.730   2.638  -2.038  0.00  0.00    -0.089 HD
ENDBRANCH   2  17
BRANCH   4  21
ATOM     21  O   UNL     1      -3.436   2.127   0.434  0.00  0.00    -0.384 OA
ATOM     22  H   UNL     1      -3.357   2.951  -0.070  0.00  0.00    +0.210 HD
ENDBRANCH   4  21
BRANCH   5  23
ATOM     23  C   UNL     1      -3.713  -1.474  -0.459  0.00  0.00    +0.169 C 
BRANCH  23  24
ATOM     24  O   UNL     1      -3.796  -2.610   0.384  0.00  0.00    -0.379 OA
ATOM     25  H   UNL     1      -4.042  -3.386  -0.143  0.00  0.00    +0.211 HD
ENDBRANCH  23  24
ENDBRANCH   5  23
TORSDOF 5
