REMARK  Name = 135618563
REMARK  11 active torsions:
REMARK  status: ('A' for Active; 'I' for Inactive)
REMARK    1  A    between atoms: C_2  and  O_17
REMARK    2  A    between atoms: C_3  and  O_19
REMARK    3  A    between atoms: C_4  and  C_21
REMARK    4  A    between atoms: C_5  and  N_7
REMARK    5  A    between atoms: C_21  and  S_22
REMARK    6  A    between atoms: S_22  and  C_23
REMARK    7  A    between atoms: C_23  and  C_24
REMARK    8  A    between atoms: C_24  and  C_25
REMARK    9  A    between atoms: C_25  and  N_26
REMARK   10  A    between atoms: C_25  and  C_31
REMARK   11  A    between atoms: C_31  and  O_32
REMARK                            x       y       z     vdW  Elec       q    Type
REMARK                         _______ _______ _______ _____ _____    ______ ____
ROOT
ATOM      1  O   UNK     1       0.018   1.749   1.049  0.00  0.00    -0.335 OA
ATOM      2  C   UNK     1       0.407   3.544  -0.459  0.00  0.00    +0.169 C 
ATOM      3  C   UNK     1       1.298   2.378  -0.840  0.00  0.00    +0.187 C 
ATOM      4  C   UNK     1      -0.639   2.874   0.423  0.00  0.00    +0.157 C 
ATOM      5  C   UNK     1       1.315   1.560   0.448  0.00  0.00    +0.225 C 
ENDROOT
BRANCH   5   7
ATOM      6  O   UNK     1       3.509  -3.973  -0.315  0.00  0.00    -0.268 OA
ATOM      7  N   UNK     1       1.608   0.097   0.213  0.00  0.00    -0.247 N 
ATOM      8  N   UNK     1       1.233  -2.064  -0.229  0.00  0.00    -0.241 NA
ATOM      9  N   UNK     1       4.015   0.079   0.495  0.00  0.00    -0.232 NA
ATOM     10  N   UNK     1       4.874  -2.146   0.186  0.00  0.00    -0.279 N 
ATOM     11  C   UNK     1       2.826  -0.515   0.244  0.00  0.00    +0.154 C 
ATOM     12  C   UNK     1       0.682  -0.876  -0.075  0.00  0.00    +0.223 C 
ATOM     13  C   UNK     1       2.563  -1.838  -0.030  0.00  0.00    +0.162 C 
ATOM     14  C   UNK     1       3.652  -2.780  -0.075  0.00  0.00    +0.267 C 
ATOM     15  C   UNK     1       4.995  -0.777   0.453  0.00  0.00    +0.220 C 
ATOM     16  H   UNK     1       5.692  -2.693   0.182  0.00  0.00    +0.152 HD
ENDBRANCH   5   7
BRANCH   2  17
ATOM     17  O   UNK     1       1.127   4.479   0.343  0.00  0.00    -0.379 OA
ATOM     18  H   UNK     1       1.800   4.919  -0.199  0.00  0.00    +0.211 HD
ENDBRANCH   2  17
BRANCH   3  19
ATOM     19  O   UNK     1       2.587   2.780  -1.256  0.00  0.00    -0.378 OA
ATOM     20  H   UNK     1       2.517   3.294  -2.075  0.00  0.00    +0.211 HD
ENDBRANCH   3  19
BRANCH   4  21
ATOM     21  C   UNK     1      -1.836   2.352  -0.360  0.00  0.00    +0.090 C 
BRANCH  21  22
ATOM     22  S   UNK     1      -3.035   1.582   0.758  0.00  0.00    -0.138 S 
BRANCH  22  23
ATOM     23  C   UNK     1      -4.271   1.097  -0.469  0.00  0.00    +0.056 C 
BRANCH  23  24
ATOM     24  C   UNK     1      -3.909  -0.192  -1.212  0.00  0.00    +0.001 C 
BRANCH  24  25
ATOM     25  C   UNK     1      -3.717  -1.433  -0.329  0.00  0.00    +0.037 C 
BRANCH  25  26
ATOM     26  N   UNK     1      -3.462  -2.598  -1.183  0.00  0.00    +0.389 N 
ATOM     27  H   UNK     1      -2.620  -2.436  -1.736  0.00  0.00    -0.088 HD
ATOM     28  H   UNK     1      -4.255  -2.743  -1.806  0.00  0.00    -0.088 HD
ATOM     29  H   UNK     1      -3.331  -3.425  -0.600  0.00  0.00    -0.088 HD
ENDBRANCH  25  26
BRANCH  25  31
ATOM     30  O   UNK     1      -5.924  -2.400   0.042  0.00  0.00    -0.253 OA
ATOM     31  C   UNK     1      -4.977  -1.745   0.460  0.00  0.00    +0.293 C 
BRANCH  31  32
ATOM     32  O   UNK     1      -4.939  -1.233   1.717  0.00  0.00    -0.482 OA
ATOM     33  H   UNK     1      -4.195  -0.736   1.998  0.00  0.00    +0.295 HD
ENDBRANCH  31  32
ENDBRANCH  25  31
ENDBRANCH  24  25
ENDBRANCH  23  24
ENDBRANCH  22  23
ENDBRANCH  21  22
ENDBRANCH   4  21
TORSDOF 11
