135616719
  -OEChem-03292013293D

 41 43  0     1  0  0  0  0  0999 V2000
    4.7925    1.5820    0.0124 P   0  0  0  0  0  0  0  0  0  0  0  0
    1.2445   -0.5431    1.2380 O   0  0  0  0  0  0  0  0  0  0  0  0
   -0.6361   -2.7519   -0.8984 O   0  0  0  0  0  0  0  0  0  0  0  0
    1.3379   -3.5459    0.8468 O   0  0  0  0  0  0  0  0  0  0  0  0
    3.7806    0.5135    0.6876 O   0  0  0  0  0  0  0  0  0  0  0  0
    5.9053    0.6367   -0.6827 O   0  0  0  0  0  0  0  0  0  0  0  0
    3.9568    2.1598   -1.2457 O   0  0  0  0  0  0  0  0  0  0  0  0
   -4.2057    3.1192   -0.6639 O   0  0  0  0  0  0  0  0  0  0  0  0
    5.3381    2.6184    0.9508 O   0  0  0  0  0  0  0  0  0  0  0  0
   -0.8506    0.2369    0.2583 N   0  0  0  0  0  0  0  0  0  0  0  0
   -1.3590    2.3071   -0.4182 N   0  0  0  0  0  0  0  0  0  0  0  0
   -3.0669   -0.6827    0.5773 N   0  0  0  0  0  0  0  0  0  0  0  0
   -4.7308    0.9587    0.0503 N   0  0  0  0  0  0  0  0  0  0  0  0
   -5.3518   -1.1975    0.7634 N   0  0  0  0  0  0  0  0  0  0  0  0
    0.3734   -1.8257   -0.5501 C   0  0  2  0  0  0  0  0  0  0  0  0
    1.6454   -2.4909   -0.0633 C   0  0  1  0  0  0  0  0  0  0  0  0
   -0.0039   -0.9533    0.6426 C   0  0  1  0  0  0  0  0  0  0  0  0
    2.3123   -1.3703    0.7243 C   0  0  1  0  0  0  0  0  0  0  0  0
    3.2213   -0.4985   -0.1311 C   0  0  0  0  0  0  0  0  0  0  0  0
   -2.2124    0.3099    0.2446 C   0  0  0  0  0  0  0  0  0  0  0  0
   -0.3828    1.4627   -0.1481 C   0  0  0  0  0  0  0  0  0  0  0  0
   -2.4917    1.5885   -0.1735 C   0  0  0  0  0  0  0  0  0  0  0  0
   -0.4243   -3.3045   -2.1937 C   0  0  0  0  0  0  0  0  0  0  0  0
   -3.8620    2.0020   -0.2991 C   0  0  0  0  0  0  0  0  0  0  0  0
   -4.3302   -0.3314    0.4713 C   0  0  0  0  0  0  0  0  0  0  0  0
    0.5973   -1.1763   -1.4081 H   0  0  0  0  0  0  0  0  0  0  0  0
    2.2616   -2.9067   -0.8654 H   0  0  0  0  0  0  0  0  0  0  0  0
   -0.5858   -1.4952    1.3977 H   0  0  0  0  0  0  0  0  0  0  0  0
    2.8665   -1.7417    1.5938 H   0  0  0  0  0  0  0  0  0  0  0  0
    2.6566   -0.0204   -0.9372 H   0  0  0  0  0  0  0  0  0  0  0  0
    4.0229   -1.1035   -0.5657 H   0  0  0  0  0  0  0  0  0  0  0  0
    2.1814   -3.9158    1.1589 H   0  0  0  0  0  0  0  0  0  0  0  0
    0.6731    1.6811   -0.2313 H   0  0  0  0  0  0  0  0  0  0  0  0
   -1.2408   -4.0010   -2.4031 H   0  0  0  0  0  0  0  0  0  0  0  0
    0.5186   -3.8570   -2.2349 H   0  0  0  0  0  0  0  0  0  0  0  0
   -0.4378   -2.5183   -2.9549 H   0  0  0  0  0  0  0  0  0  0  0  0
   -5.7282    1.1446   -0.0034 H   0  0  0  0  0  0  0  0  0  0  0  0
   -5.1645   -2.1449    1.0731 H   0  0  0  0  0  0  0  0  0  0  0  0
   -6.3229   -0.9177    0.6786 H   0  0  0  0  0  0  0  0  0  0  0  0
    4.3438    2.8863   -1.7791 H   0  0  0  0  0  0  0  0  0  0  0  0
    6.6942    1.0533   -1.0903 H   0  0  0  0  0  0  0  0  0  0  0  0
  1  5  1  0  0  0  0
  1  6  1  0  0  0  0
  1  7  1  0  0  0  0
  1  9  2  0  0  0  0
  2 17  1  0  0  0  0
  2 18  1  0  0  0  0
  3 15  1  0  0  0  0
  3 23  1  0  0  0  0
  4 16  1  0  0  0  0
  4 32  1  0  0  0  0
  5 19  1  0  0  0  0
  6 41  1  0  0  0  0
  7 40  1  0  0  0  0
  8 24  2  0  0  0  0
 10 17  1  0  0  0  0
 10 20  1  0  0  0  0
 10 21  1  0  0  0  0
 11 21  2  0  0  0  0
 11 22  1  0  0  0  0
 12 20  1  0  0  0  0
 12 25  2  0  0  0  0
 13 24  1  0  0  0  0
 13 25  1  0  0  0  0
 13 37  1  0  0  0  0
 14 25  1  0  0  0  0
 14 38  1  0  0  0  0
 14 39  1  0  0  0  0
 15 16  1  0  0  0  0
 15 17  1  0  0  0  0
 15 26  1  0  0  0  0
 16 18  1  0  0  0  0
 16 27  1  0  0  0  0
 17 28  1  0  0  0  0
 18 19  1  0  0  0  0
 18 29  1  0  0  0  0
 19 30  1  0  0  0  0
 19 31  1  0  0  0  0
 20 22  2  0  0  0  0
 21 33  1  0  0  0  0
 22 24  1  0  0  0  0
 23 34  1  0  0  0  0
 23 35  1  0  0  0  0
 23 36  1  0  0  0  0
M  END
> <PUBCHEM_COMPOUND_CID>
135616719

> <PUBCHEM_CONFORMER_RMSD>
0.8

> <PUBCHEM_CONFORMER_DIVERSEORDER>
1
46
67
19
49
14
10
38
15
51
69
33
30
74
65
59
42
71
54
32
48
21
57
39
68
31
52
34
73
25
26
9
50
37
70
11
17
56
64
3
29
12
58
5
4
8
55
61
44
2
16
43
22
40
35
28
63
60
75
36
66
24
18
72
6
41
20
13
7
62
23
53
27
76
47
45

> <PUBCHEM_MMFF94_PARTIAL_CHARGES>
32
1 1.51
10 0.05
11 -0.57
12 -0.58
13 -0.49
14 -0.85
15 0.28
16 0.28
17 0.54
18 0.28
19 0.28
2 -0.56
20 -0.03
21 0.04
22 0.14
23 0.28
24 0.72
25 0.56
3 -0.56
32 0.4
33 0.15
37 0.37
38 0.4
39 0.4
4 -0.68
40 0.5
41 0.5
5 -0.55
6 -0.77
7 -0.77
8 -0.57
9 -0.7

> <PUBCHEM_EFFECTIVE_ROTOR_COUNT>
6

> <PUBCHEM_PHARMACOPHORE_FEATURES>
15
1 13 donor
1 14 donor
1 2 acceptor
1 3 acceptor
1 4 acceptor
1 4 donor
1 6 acceptor
1 7 acceptor
1 8 acceptor
1 9 acceptor
3 10 11 21 cation
4 1 6 7 9 anion
5 10 11 20 21 22 rings
5 2 15 16 17 18 rings
6 12 13 20 22 24 25 rings

> <PUBCHEM_HEAVY_ATOM_COUNT>
25

> <PUBCHEM_ATOM_DEF_STEREO_COUNT>
4

> <PUBCHEM_ATOM_UDEF_STEREO_COUNT>
0

> <PUBCHEM_BOND_DEF_STEREO_COUNT>
0

> <PUBCHEM_BOND_UDEF_STEREO_COUNT>
0

> <PUBCHEM_ISOTOPIC_ATOM_COUNT>
0

> <PUBCHEM_COMPONENT_COUNT>
1

> <PUBCHEM_CACTVS_TAUTO_COUNT>
-1

> <PUBCHEM_CONFORMER_ID>
081558CF00000001

> <PUBCHEM_MMFF94_ENERGY>
27.4567

> <PUBCHEM_FEATURE_SELFOVERLAP>
76.344

> <PUBCHEM_SHAPE_FINGERPRINT>
10090160 65 18186517739084631507
10498660 4 18410294675134163536
10871710 139 18195522829626500854
10906281 52 18335997398023186753
11488393 25 17985003508828308214
12403259 118 18262503815317390864
13583140 156 17316174970707937186
1454969 45 18340485681655060167
14787075 74 18335701688955274971
14790565 3 18411423942010731105
14840074 17 18342738559500060863
15196674 1 18334857182130659336
15575132 122 18410571812314887189
17980427 23 17894639149350897909
19591789 44 18266460008488884225
21524375 3 18412267233707345674
21756936 100 18189332532639966842
22620623 9 17130140038666499246
23227448 37 18199184182220239980
23559900 14 18049154467331691635
350125 39 18335983069875254106
3729539 64 17844548625510893214
474 4 17894636950396200364
5104073 3 18188210884218140865
6669772 16 18059862740625449478
67856867 119 18188765029478022946
7808743 9 18267578190819505120
9709674 26 17837489653423032847
9981440 41 18187367644524818290

> <PUBCHEM_SHAPE_MULTIPOLES>
446.48
10.74
3.88
1.13
3.75
1.51
0.36
-8.65
-0.72
0.69
1.22
0.27
0.68
0.35

> <PUBCHEM_SHAPE_SELFOVERLAP>
939.142

> <PUBCHEM_SHAPE_VOLUME>
254.6

> <PUBCHEM_COORDINATE_TYPE>
2
5
10

$$$$
