REMARK  Name = 135602217
REMARK  4 active torsions:
REMARK  status: ('A' for Active; 'I' for Inactive)
REMARK    1  A    between atoms: N_1  and  C_14
REMARK    2  A    between atoms: C_14  and  C_15
REMARK    3  A    between atoms: C_15  and  C_17
REMARK    4  A    between atoms: C_17  and  O_18
REMARK                            x       y       z     vdW  Elec       q    Type
REMARK                         _______ _______ _______ _____ _____    ______ ____
ROOT
ATOM      1  N   UNL     1      -0.253  -0.422  -0.440  0.00  0.00    -0.275 N 
ATOM      2  N   UNL     1       2.929   1.415   0.086  0.00  0.00    -0.270 NA
ATOM      3  N   UNL     1       1.631  -1.889   0.081  0.00  0.00    -0.236 NA
ATOM      4  N   UNL     1       3.749  -0.635   0.415  0.00  0.00    -0.307 N 
ATOM      5  N   UNL     1       0.072   1.988  -0.534  0.00  0.00    -0.287 NA
ATOM      6  C   UNL     1       0.483   0.772  -0.366  0.00  0.00    +0.123 C 
ATOM      7  C   UNL     1       1.879   0.558  -0.063  0.00  0.00    +0.164 C 
ATOM      8  C   UNL     1       2.407  -0.704   0.144  0.00  0.00    +0.125 C 
ATOM      9  C   UNL     1       0.379  -1.650  -0.201  0.00  0.00    +0.222 C 
ATOM     10  C   UNL     1       4.031   0.651   0.371  0.00  0.00    +0.163 C 
ATOM     11  H   UNL     1       2.902   2.396   0.003  0.00  0.00    +0.126 HD
ATOM     12  H   UNL     1       4.364  -1.381   0.601  0.00  0.00    +0.149 HD
ATOM     13  H   UNL     1      -0.874   2.163  -0.742  0.00  0.00    +0.188 HD
ENDROOT
BRANCH   1  14
ATOM     14  C   UNL     1      -1.681  -0.388  -0.746  0.00  0.00    +0.105 C 
BRANCH  14  15
ATOM     15  C   UNL     1      -2.478   0.044   0.478  0.00  0.00    +0.131 C 
BRANCH  15  17
ATOM     16  O   UNL     1      -4.524  -0.192  -0.826  0.00  0.00    -0.250 OA
ATOM     17  C   UNL     1      -3.972   0.061   0.236  0.00  0.00    +0.316 C 
BRANCH  17  18
ATOM     18  O   UNL     1      -4.653   0.392   1.365  0.00  0.00    -0.480 OA
ATOM     19  H   UNL     1      -4.186   0.578   2.156  0.00  0.00    +0.295 HD
ENDBRANCH  17  18
ENDBRANCH  15  17
ENDBRANCH  14  15
ENDBRANCH   1  14
TORSDOF 4
