REMARK  Name = 135625331
REMARK  4 active torsions:
REMARK  status: ('A' for Active; 'I' for Inactive)
REMARK    1  A    between atoms: N_2  and  C_15
REMARK    2  A    between atoms: C_15  and  C_16
REMARK    3  A    between atoms: C_16  and  C_17
REMARK    4  A    between atoms: C_17  and  C_19
REMARK                            x       y       z     vdW  Elec       q    Type
REMARK                         _______ _______ _______ _____ _____    ______ ____
ROOT
ATOM      1  O   UNL     1      -0.077   1.767  -1.096  0.00  0.00    -0.272 OA
ATOM      2  N   UNL     1      -0.263  -1.186  -0.434  0.00  0.00    -0.232 NA
ATOM      3  N   UNL     1       1.435  -2.318   0.467  0.00  0.00    -0.194 NA
ATOM      4  N   UNL     1       2.078   1.607  -0.263  0.00  0.00    -0.245 N 
ATOM      5  N   UNL     1       3.030  -0.426   0.587  0.00  0.00    -0.323 NA
ATOM      6  N   UNL     1       4.271   1.559   0.554  0.00  0.00    -0.320 N 
ATOM      7  C   UNL     1       0.755  -0.291  -0.282  0.00  0.00    +0.234 C 
ATOM      8  C   UNL     1       1.788  -1.008   0.274  0.00  0.00    +0.087 C 
ATOM      9  C   UNL     1       0.194  -2.392   0.031  0.00  0.00    +0.214 C 
ATOM     10  C   UNL     1       0.824   1.099  -0.599  0.00  0.00    +0.259 C 
ATOM     11  C   UNL     1       3.121   0.854   0.305  0.00  0.00    +0.248 C 
ATOM     12  H   UNL     1       2.246   2.562  -0.437  0.00  0.00    +0.159 HD
ATOM     13  H   UNL     1       4.318   2.517   0.335  0.00  0.00    +0.146 HD
ATOM     14  H   UNL     1       5.050   1.106   0.951  0.00  0.00    +0.146 HD
ENDROOT
BRANCH   2  15
ATOM     15  C   UNL     1      -1.576  -0.936  -0.977  0.00  0.00    +0.076 C 
BRANCH  15  16
ATOM     16  C   UNL     1      -2.479  -0.224   0.032  0.00  0.00    +0.026 C 
BRANCH  16  17
ATOM     17  C   UNL     1      -3.877  -0.003  -0.536  0.00  0.00    +0.074 C 
BRANCH  17  19
ATOM     18  O   UNL     1      -4.442   1.160   1.519  0.00  0.00    -0.288 OA
ATOM     19  C   UNL     1      -4.781   0.739   0.418  0.00  0.00    +0.207 C 
ENDBRANCH  17  19
ENDBRANCH  16  17
ENDBRANCH  15  16
ENDBRANCH   2  15
TORSDOF 4
