REMARK  Name = 135659015
REMARK  4 active torsions:
REMARK  status: ('A' for Active; 'I' for Inactive)
REMARK    1  A    between atoms: N_2  and  C_15
REMARK    2  A    between atoms: C_16  and  C_22
REMARK    3  A    between atoms: C_18  and  O_20
REMARK    4  A    between atoms: C_22  and  O_23
REMARK                            x       y       z     vdW  Elec       q    Type
REMARK                         _______ _______ _______ _____ _____    ______ ____
ROOT
ATOM      1  O   UNL     1       4.634   0.042  -0.333  0.00  0.00    -0.268 OA
ATOM      2  N   UNL     1       0.338   1.391   0.044  0.00  0.00    -0.263 N 
ATOM      3  N   UNL     1       2.455   2.059  -0.228  0.00  0.00    -0.240 NA
ATOM      4  N   UNL     1       0.641  -1.007   0.165  0.00  0.00    -0.357 NA
ATOM      5  N   UNL     1       2.961  -1.563  -0.050  0.00  0.00    -0.243 N 
ATOM      6  N   UNL     1       1.342  -3.248   0.233  0.00  0.00    -0.321 N 
ATOM      7  C   UNL     1       1.097   0.258   0.035  0.00  0.00    +0.210 C 
ATOM      8  C   UNL     1       1.200   2.449  -0.117  0.00  0.00    +0.222 C 
ATOM      9  C   UNL     1       2.387   0.700  -0.133  0.00  0.00    +0.176 C 
ATOM     10  C   UNL     1       3.456  -0.258  -0.187  0.00  0.00    +0.273 C 
ATOM     11  C   UNL     1       1.599  -1.907   0.119  0.00  0.00    +0.239 C 
ATOM     12  H   UNL     1       3.615  -2.299  -0.073  0.00  0.00    +0.159 HD
ATOM     13  H   UNL     1       0.417  -3.564   0.353  0.00  0.00    +0.146 HD
ATOM     14  H   UNL     1       2.082  -3.896   0.195  0.00  0.00    +0.146 HD
ENDROOT
BRANCH   2  15
ATOM     15  C   UNL     1      -1.163   1.485   0.200  0.00  0.00    +0.079 C 
ATOM     16  C   UNL     1      -3.151   0.158  -0.236  0.00  0.00    +0.058 C 
ATOM     17  C   UNL     1      -1.920   0.749  -0.922  0.00  0.00    +0.025 C 
ATOM     18  C   UNL     1      -2.595  -0.270   1.121  0.00  0.00    +0.115 C 
ATOM     19  C   UNL     1      -1.706   0.905   1.521  0.00  0.00    +0.049 C 
BRANCH  18  20
ATOM     20  O   UNL     1      -3.618  -0.464   2.080  0.00  0.00    -0.384 OA
ATOM     21  H   UNL     1      -4.174  -1.213   1.812  0.00  0.00    +0.210 HD
ENDBRANCH  18  20
BRANCH  16  22
ATOM     22  C   UNL     1      -3.776  -0.984  -1.023  0.00  0.00    +0.140 C 
BRANCH  22  23
ATOM     23  O   UNL     1      -4.181  -0.495  -2.290  0.00  0.00    -0.382 OA
ATOM     24  H   UNL     1      -4.582  -1.216  -2.801  0.00  0.00    +0.210 HD
ENDBRANCH  22  23
ENDBRANCH  16  22
ENDBRANCH   2  15
TORSDOF 4
