REMARK  Name = 135625274
REMARK  5 active torsions:
REMARK  status: ('A' for Active; 'I' for Inactive)
REMARK    1  A    between atoms: N_2  and  C1*_34
REMARK    2  A    between atoms: N_3  and  C_17
REMARK    3  A    between atoms: C3*_36  and  O3*_38
REMARK    4  A    between atoms: C4*_37  and  C5*_40
REMARK    5  A    between atoms: C5*_40  and  O5*_41
REMARK                            x       y       z     vdW  Elec       q    Type
REMARK                         _______ _______ _______ _____ _____    ______ ____
ROOT
ATOM      1  O   UNL     1       2.342   4.378  -0.166  0.00  0.00    -0.267 OA
ATOM      2  N   UNL     1       2.583  -0.126   0.104  0.00  0.00    -0.200 N 
ATOM      3  N   UNL     1       0.233  -0.613   0.108  0.00  0.00    -0.275 N 
ATOM      4  N   UNL     1       1.210   1.636  -0.015  0.00  0.00    -0.364 NA
ATOM      5  N   UNL     1       4.734   0.984   0.062  0.00  0.00    -0.355 NA
ATOM      6  N   UNL     1       4.441   3.358  -0.082  0.00  0.00    -0.242 N 
ATOM      7  N   UNL     1       6.597   2.414  -0.003  0.00  0.00    -0.321 N 
ATOM      8  C   UNL     1       1.285   0.322   0.063  0.00  0.00    +0.250 C 
ATOM      9  C   UNL     1       3.383   0.978   0.047  0.00  0.00    +0.229 C 
ATOM     10  C   UNL     1       2.513   2.039  -0.025  0.00  0.00    +0.232 C 
ATOM     11  C   UNL     1       3.039   3.374  -0.099  0.00  0.00    +0.286 C 
ATOM     12  C   UNL     1       5.244   2.195  -0.004  0.00  0.00    +0.240 C 
ATOM     13  H   UNL     1       0.536  -1.548   0.166  0.00  0.00    +0.156 HD
ATOM     14  H   UNL     1       4.904   4.225  -0.129  0.00  0.00    +0.159 HD
ATOM     15  H   UNL     1       7.219   1.653   0.049  0.00  0.00    +0.146 HD
ATOM     16  H   UNL     1       6.946   3.333  -0.053  0.00  0.00    +0.146 HD
ENDROOT
BRANCH   3  17
ATOM     17  C   UNL     1      -1.171  -0.472   0.084  0.00  0.00    +0.051 C 
ATOM     18  C   UNL     1      -3.961  -0.194   0.037  0.00  0.00    +0.000 C 
ATOM     19  C   UNL     1      -5.371  -0.053   0.014  0.00  0.00    +0.000 C 
ATOM     20  C   UNL     1      -3.135   0.953  -0.021  0.00  0.00    +0.001 C 
ATOM     21  C   UNL     1      -3.380  -1.481   0.120  0.00  0.00    +0.001 C 
ATOM     22  C   UNL     1      -1.742   0.797   0.003  0.00  0.00    +0.015 C 
ATOM     23  C   UNL     1      -1.983  -1.603   0.142  0.00  0.00    +0.015 C 
ATOM     24  C   UNL     1      -6.197  -1.200   0.072  0.00  0.00    +0.000 C 
ATOM     25  C   UNL     1      -5.952   1.234  -0.069  0.00  0.00    +0.000 C 
ATOM     26  C   UNL     1      -3.728   2.220  -0.103  0.00  0.00    +0.000 C 
ATOM     27  C   UNL     1      -4.214  -2.606   0.177  0.00  0.00    +0.000 C 
ATOM     28  C   UNL     1      -5.604  -2.467   0.154  0.00  0.00    +0.000 C 
ATOM     29  C   UNL     1      -5.117   2.358  -0.126  0.00  0.00    +0.000 C 
ATOM     30  C   UNL     1      -7.590  -1.044   0.048  0.00  0.00    +0.000 C 
ATOM     31  C   UNL     1      -7.348   1.356  -0.091  0.00  0.00    +0.000 C 
ATOM     32  C   UNL     1      -8.161   0.225  -0.033  0.00  0.00    +0.000 C 
ENDBRANCH   3  17
BRANCH   2  34
ATOM     33  O4* UNL     1       4.284  -1.677   0.925  0.00  0.00    -0.335 OA
ATOM     34  C1* UNL     1       3.049  -1.557   0.195  0.00  0.00    +0.203 C 
ATOM     35  C2* UNL     1       3.293  -2.194  -1.169  0.00  0.00    +0.083 C 
ATOM     36  C3* UNL     1       4.295  -3.275  -0.837  0.00  0.00    +0.144 C 
ATOM     37  C4* UNL     1       5.134  -2.637   0.264  0.00  0.00    +0.173 C 
BRANCH  36  38
ATOM     38  O3* UNL     1       3.592  -4.398  -0.312  0.00  0.00    -0.382 OA
ATOM     39  H3* UNL     1       3.059  -4.803  -1.015  0.00  0.00    +0.210 HD
ENDBRANCH  36  38
BRANCH  37  40
ATOM     40  C5* UNL     1       6.348  -1.895  -0.277  0.00  0.00    +0.169 C 
BRANCH  40  41
ATOM     41  O5* UNL     1       7.056  -1.329   0.813  0.00  0.00    -0.379 OA
ATOM     42  H5* UNL     1       7.834  -0.853   0.481  0.00  0.00    +0.211 HD
ENDBRANCH  40  41
ENDBRANCH  37  40
ENDBRANCH   2  34
TORSDOF 5
