REMARK  Name = 135625251
REMARK  4 active torsions:
REMARK  status: ('A' for Active; 'I' for Inactive)
REMARK    1  A    between atoms: N_2  and  C_17
REMARK    2  A    between atoms: C_18  and  O_21
REMARK    3  A    between atoms: C_20  and  C_23
REMARK    4  A    between atoms: C_23  and  O_24
REMARK                            x       y       z     vdW  Elec       q    Type
REMARK                         _______ _______ _______ _____ _____    ______ ____
ROOT
ATOM      1  O   UNL     1      -4.370  -1.804  -0.707  0.00  0.00    -0.268 OA
ATOM      2  N   UNL     1      -0.126  -0.441   0.026  0.00  0.00    -0.236 N 
ATOM      3  N   UNL     1      -1.416  -2.110  -0.716  0.00  0.00    -0.240 NA
ATOM      4  N   UNL     1      -1.812   1.187   0.633  0.00  0.00    -0.357 NA
ATOM      5  N   UNL     1      -4.000   0.321   0.187  0.00  0.00    -0.243 N 
ATOM      6  N   UNL     1      -3.721   2.477   1.091  0.00  0.00    -0.321 N 
ATOM      7  C   UNL     1      -1.414  -0.012   0.152  0.00  0.00    +0.211 C 
ATOM      8  C   UNL     1      -0.178  -1.708  -0.500  0.00  0.00    +0.224 C 
ATOM      9  C   UNL     1      -2.179  -1.056  -0.310  0.00  0.00    +0.176 C 
ATOM     10  C   UNL     1      -3.610  -0.929  -0.314  0.00  0.00    +0.273 C 
ATOM     11  C   UNL     1      -3.119   1.331   0.640  0.00  0.00    +0.239 C 
ATOM     12  H   UNL     1      -4.966   0.511   0.227  0.00  0.00    +0.159 HD
ATOM     13  H   UNL     1      -3.172   3.224   1.422  0.00  0.00    +0.146 HD
ATOM     14  H   UNL     1      -4.703   2.553   1.084  0.00  0.00    +0.146 HD
ENDROOT
BRANCH   2  17
ATOM     15  F   UNL     1       1.289   2.404  -0.705  0.00  0.00    -0.230 F 
ATOM     16  O   UNL     1       2.165  -0.578   0.842  0.00  0.00    -0.333 OA
ATOM     17  C   UNL     1       1.127   0.317   0.390  0.00  0.00    +0.231 C 
ATOM     18  C   UNL     1       3.188   1.040  -0.524  0.00  0.00    +0.177 C 
ATOM     19  C   UNL     1       1.700   1.114  -0.775  0.00  0.00    +0.236 C 
ATOM     20  C   UNL     1       3.336  -0.361   0.039  0.00  0.00    +0.176 C 
BRANCH  18  21
ATOM     21  O   UNL     1       3.940   1.222  -1.708  0.00  0.00    -0.379 OA
ATOM     22  H   UNL     1       3.817   2.127  -2.033  0.00  0.00    +0.211 HD
ENDBRANCH  18  21
BRANCH  20  23
ATOM     23  C   UNL     1       4.581  -0.540   0.888  0.00  0.00    +0.169 C 
BRANCH  23  24
ATOM     24  O   UNL     1       4.619  -1.873   1.371  0.00  0.00    -0.379 OA
ATOM     25  H   UNL     1       5.412  -1.997   1.916  0.00  0.00    +0.211 HD
ENDBRANCH  23  24
ENDBRANCH  20  23
ENDBRANCH   2  17
TORSDOF 4
