REMARK  Name = 135618521
REMARK  0 active torsions:
REMARK  status: ('A' for Active; 'I' for Inactive)
REMARK                            x       y       z     vdW  Elec       q    Type
REMARK                         _______ _______ _______ _____ _____    ______ ____
ROOT
ATOM      1  O   UNL     1      -3.132  -2.533   0.076  0.00  0.00    -0.273 OA
ATOM      2  O   UNL     1       4.751  -2.059   0.624  0.00  0.00    -0.266 OA
ATOM      3  N   UNL     1      -1.372  -0.354   0.704  0.00  0.00    -0.255 NA
ATOM      4  N   UNL     1      -2.434   2.134   0.410  0.00  0.00    -0.309 N 
ATOM      5  N   UNL     1       2.067  -1.347   0.820  0.00  0.00    -0.394 NA
ATOM      6  N   UNL     1       2.096   1.741   0.725  0.00  0.00    -0.207 NA
ATOM      7  N   UNL     1      -4.442   1.238  -0.578  0.00  0.00    -0.361 NA
ATOM      8  N   UNL     1      -4.648  -1.081  -0.842  0.00  0.00    -0.246 N 
ATOM      9  N   UNL     1       3.288   1.359  -1.190  0.00  0.00    -0.318 NA
ATOM     10  N   UNL     1       4.870  -0.421  -1.049  0.00  0.00    -0.241 N 
ATOM     11  N   UNL     1      -6.355   0.326  -1.574  0.00  0.00    -0.321 N 
ATOM     12  N   UNL     1       4.992   1.149  -2.780  0.00  0.00    -0.320 N 
ATOM     13  C   UNL     1      -0.887   0.710   1.622  0.00  0.00    +0.086 C 
ATOM     14  C   UNL     1       0.548   0.254   1.996  0.00  0.00    +0.091 C 
ATOM     15  C   UNL     1      -1.064   2.050   0.896  0.00  0.00    +0.105 C 
ATOM     16  C   UNL     1       0.815  -0.840   0.995  0.00  0.00    +0.105 C 
ATOM     17  C   UNL     1      -0.300  -1.165   0.316  0.00  0.00    +0.107 C 
ATOM     18  C   UNL     1       1.638   1.319   2.047  0.00  0.00    +0.145 C 
ATOM     19  C   UNL     1      -2.638  -0.195   0.135  0.00  0.00    +0.203 C 
ATOM     20  C   UNL     1      -3.194   1.040  -0.017  0.00  0.00    +0.183 C 
ATOM     21  C   UNL     1      -0.350  -2.132  -0.820  0.00  0.00    +0.025 C 
ATOM     22  C   UNL     1      -3.458  -1.388  -0.220  0.00  0.00    +0.252 C 
ATOM     23  C   UNL     1       2.963  -0.535   0.352  0.00  0.00    +0.257 C 
ATOM     24  C   UNL     1       2.732   0.903  -0.018  0.00  0.00    +0.121 C 
ATOM     25  C   UNL     1      -5.124   0.208  -0.986  0.00  0.00    +0.239 C 
ATOM     26  C   UNL     1       4.304  -1.106   0.012  0.00  0.00    +0.293 C 
ATOM     27  C   UNL     1       4.334   0.724  -1.655  0.00  0.00    +0.248 C 
ATOM     28  H   UNL     1      -2.855   3.024   0.379  0.00  0.00    +0.149 HD
ATOM     29  H   UNL     1      -5.189  -1.820  -1.203  0.00  0.00    +0.159 HD
ATOM     30  H   UNL     1       5.719  -0.766  -1.409  0.00  0.00    +0.159 HD
ATOM     31  H   UNL     1      -6.754   1.217  -1.708  0.00  0.00    +0.146 HD
ATOM     32  H   UNL     1      -6.842  -0.479  -1.863  0.00  0.00    +0.146 HD
ATOM     33  H   UNL     1       4.677   1.946  -3.264  0.00  0.00    +0.146 HD
ATOM     34  H   UNL     1       5.781   0.656  -3.105  0.00  0.00    +0.146 HD
ENDROOT
TORSDOF 0
