135666651
  -OEChem-03292013293D

 44 46  0     0  0  0  0  0  0999 V2000
   -0.6901   -4.2790    0.0376 S   0  0  0  0  0  0  0  0  0  0  0  0
    6.2114   -1.6514   -0.0171 O   0  0  0  0  0  0  0  0  0  0  0  0
   -1.9257   -1.4518    0.0437 N   0  0  0  0  0  0  0  0  0  0  0  0
   -4.4503    1.1029   -0.0290 N   0  0  0  0  0  0  0  0  0  0  0  0
   -0.5764   -1.5543    0.0286 N   0  0  0  0  0  0  0  0  0  0  0  0
    1.4464   -2.7064    0.0079 N   0  0  0  0  0  0  0  0  0  0  0  0
    2.0697   -1.5039   -0.0011 N   0  0  0  0  0  0  0  0  0  0  0  0
   -1.6698    0.9940    0.0285 C   0  0  0  0  0  0  0  0  0  0  0  0
   -2.4577   -0.2625    0.0253 C   0  0  0  0  0  0  0  0  0  0  0  0
   -3.9537   -0.1543   -0.0061 C   0  0  0  0  0  0  0  0  0  0  0  0
   -1.3237    1.5976    1.2374 C   0  0  0  0  0  0  0  0  0  0  0  0
   -1.2736    1.5712   -1.1779 C   0  0  0  0  0  0  0  0  0  0  0  0
   -0.5813    2.7787    1.2400 C   0  0  0  0  0  0  0  0  0  0  0  0
   -0.5313    2.7520   -1.1754 C   0  0  0  0  0  0  0  0  0  0  0  0
   -4.7362   -1.2977   -0.0103 C   0  0  0  0  0  0  0  0  0  0  0  0
   -0.1852    3.3558    0.0335 C   0  0  0  0  0  0  0  0  0  0  0  0
    4.1932   -0.3548   -0.0149 C   0  0  0  0  0  0  0  0  0  0  0  0
   -6.1174   -1.1407   -0.0401 C   0  0  0  0  0  0  0  0  0  0  0  0
    5.5854   -0.4408   -0.0196 C   0  0  0  0  0  0  0  0  0  0  0  0
    3.5716    0.8939   -0.0151 C   0  0  0  0  0  0  0  0  0  0  0  0
   -6.6660    0.1367   -0.0644 C   0  0  0  0  0  0  0  0  0  0  0  0
   -5.7972    1.2160   -0.0576 C   0  0  0  0  0  0  0  0  0  0  0  0
    6.3560    0.7219   -0.0246 C   0  0  0  0  0  0  0  0  0  0  0  0
    4.3422    2.0566   -0.0199 C   0  0  0  0  0  0  0  0  0  0  0  0
    5.7344    1.9706   -0.0248 C   0  0  0  0  0  0  0  0  0  0  0  0
    3.3603   -1.5704   -0.0081 C   0  0  0  0  0  0  0  0  0  0  0  0
    0.0650   -2.7799    0.0236 C   0  0  0  0  0  0  0  0  0  0  0  0
   -1.6264    1.1555    2.1830 H   0  0  0  0  0  0  0  0  0  0  0  0
   -1.5369    1.1083   -2.1254 H   0  0  0  0  0  0  0  0  0  0  0  0
   -0.3110    3.2483    2.1812 H   0  0  0  0  0  0  0  0  0  0  0  0
   -0.2218    3.2010   -2.1146 H   0  0  0  0  0  0  0  0  0  0  0  0
   -4.3162   -2.2974    0.0086 H   0  0  0  0  0  0  0  0  0  0  0  0
    0.3939    4.2746    0.0353 H   0  0  0  0  0  0  0  0  0  0  0  0
   -6.7654   -2.0120   -0.0444 H   0  0  0  0  0  0  0  0  0  0  0  0
    2.4896    0.9949   -0.0112 H   0  0  0  0  0  0  0  0  0  0  0  0
   -7.7398    0.2829   -0.0878 H   0  0  0  0  0  0  0  0  0  0  0  0
   -6.1745    2.2331   -0.0756 H   0  0  0  0  0  0  0  0  0  0  0  0
    7.4415    0.6701   -0.0280 H   0  0  0  0  0  0  0  0  0  0  0  0
    3.8581    3.0290   -0.0199 H   0  0  0  0  0  0  0  0  0  0  0  0
    6.3342    2.8761   -0.0285 H   0  0  0  0  0  0  0  0  0  0  0  0
   -0.0259   -0.7035    0.0151 H   0  0  0  0  0  0  0  0  0  0  0  0
    3.8858   -2.5426   -0.0078 H   0  0  0  0  0  0  0  0  0  0  0  0
    2.0187   -3.5448    0.0048 H   0  0  0  0  0  0  0  0  0  0  0  0
    7.1738   -1.5115   -0.0206 H   0  0  0  0  0  0  0  0  0  0  0  0
  1 27  2  0  0  0  0
  2 19  1  0  0  0  0
  2 44  1  0  0  0  0
  3  5  1  0  0  0  0
  3  9  2  0  0  0  0
  4 10  1  0  0  0  0
  4 22  2  0  0  0  0
  5 27  1  0  0  0  0
  5 41  1  0  0  0  0
  6  7  1  0  0  0  0
  6 27  1  0  0  0  0
  6 43  1  0  0  0  0
  7 26  2  0  0  0  0
  8  9  1  0  0  0  0
  8 11  2  0  0  0  0
  8 12  1  0  0  0  0
  9 10  1  0  0  0  0
 10 15  2  0  0  0  0
 11 13  1  0  0  0  0
 11 28  1  0  0  0  0
 12 14  2  0  0  0  0
 12 29  1  0  0  0  0
 13 16  2  0  0  0  0
 13 30  1  0  0  0  0
 14 16  1  0  0  0  0
 14 31  1  0  0  0  0
 15 18  1  0  0  0  0
 15 32  1  0  0  0  0
 16 33  1  0  0  0  0
 17 19  1  0  0  0  0
 17 20  2  0  0  0  0
 17 26  1  0  0  0  0
 18 21  2  0  0  0  0
 18 34  1  0  0  0  0
 19 23  2  0  0  0  0
 20 24  1  0  0  0  0
 20 35  1  0  0  0  0
 21 22  1  0  0  0  0
 21 36  1  0  0  0  0
 22 37  1  0  0  0  0
 23 25  1  0  0  0  0
 23 38  1  0  0  0  0
 24 25  2  0  0  0  0
 24 39  1  0  0  0  0
 25 40  1  0  0  0  0
 26 42  1  0  0  0  0
M  END
> <PUBCHEM_COMPOUND_CID>
135666651

> <PUBCHEM_CONFORMER_RMSD>
1

> <PUBCHEM_CONFORMER_DIVERSEORDER>
1
109
91
67
65
89
76
98
71
39
74
73
55
77
104
62
107
27
63
96
92
87
99
113
52
90
7
38
117
43
81
72
110
93
69
111
59
121
61
5
34
41
44
119
22
36
82
35
70
37
60
75
84
116
54
32
29
64
102
20
85
108
30
80
66
120
11
100
97
78
103
86
94
53
83
13
3
106
40
28
101
88
14
112
57
31
46
49
50
21
26
15
42
122
68
51
10
118
47
33
95
105
2
79
114
25
48
24
56
12
58
8
18
23
45
16
115
9
6
17
19
4

> <PUBCHEM_MMFF94_PARTIAL_CHARGES>
44
1 -0.38
10 0.4
11 -0.15
12 -0.15
13 -0.15
14 -0.15
15 -0.15
16 -0.15
17 0.09
18 -0.15
19 0.08
2 -0.53
20 -0.15
21 -0.15
22 0.16
23 -0.15
24 -0.15
25 -0.15
26 0.3
27 0.5
28 0.15
29 0.15
3 -0.51
30 0.15
31 0.15
32 0.15
33 0.15
34 0.15
35 0.15
36 0.15
37 0.15
38 0.15
39 0.15
4 -0.62
40 0.15
41 0.37
42 0.06
43 0.37
44 0.45
5 -0.37
6 -0.37
7 -0.51
8 0.09
9 0.28

> <PUBCHEM_EFFECTIVE_ROTOR_COUNT>
7

> <PUBCHEM_PHARMACOPHORE_FEATURES>
10
1 1 acceptor
1 2 donor
1 3 acceptor
1 4 acceptor
1 5 donor
1 6 donor
1 7 acceptor
6 17 19 20 23 24 25 rings
6 4 10 15 18 21 22 rings
6 8 11 12 13 14 16 rings

> <PUBCHEM_HEAVY_ATOM_COUNT>
27

> <PUBCHEM_ATOM_DEF_STEREO_COUNT>
0

> <PUBCHEM_ATOM_UDEF_STEREO_COUNT>
0

> <PUBCHEM_BOND_DEF_STEREO_COUNT>
2

> <PUBCHEM_BOND_UDEF_STEREO_COUNT>
0

> <PUBCHEM_ISOTOPIC_ATOM_COUNT>
0

> <PUBCHEM_COMPONENT_COUNT>
1

> <PUBCHEM_CACTVS_TAUTO_COUNT>
-1

> <PUBCHEM_CONFORMER_ID>
08161BDB00000001

> <PUBCHEM_MMFF94_ENERGY>
85.3556

> <PUBCHEM_FEATURE_SELFOVERLAP>
50.793

> <PUBCHEM_SHAPE_FINGERPRINT>
10670039 82 18264223430772363702
1100329 8 18267024044873462807
11112241 14 16914234467700488704
11578080 2 16807551904701184751
12166972 35 17967817145800690012
12788726 201 17775297061818443248
12838862 33 18338780308755038432
13402501 40 18411136952638273504
1361 2 18335984246084552000
14028597 1 17845954965417851361
14117953 113 18335141990329228396
14394314 77 18340491156995122729
14784336 7 17916019260665034873
14790565 3 18411984650423441745
14840074 17 18114187449093935420
15575132 122 18186800244969531604
15840311 113 18054807083240040377
15927050 60 17694500751347668412
19611394 137 18042982041377737419
20642791 178 18188503479239518821
21779490 112 16243804139462409380
221357 26 18272093769289641694
23559900 14 18340480192602752401
3004659 81 18261109682155991216
3178227 256 18337404841668603515
350125 39 18338234869519958746
392239 28 18340776957061013387
4197921 191 18260832575888747878
46194498 28 17845663517305936046
5486654 2 18411141350684706852
59755656 215 18411987927673542302
6138700 20 18410012126230544851
6328613 192 18270400474276104313

> <PUBCHEM_SHAPE_MULTIPOLES>
528.72
15.49
4.19
0.83
3.97
2
-0.02
-0.96
0.4
0.59
-0.08
-0.21
-0.5
-0.01

> <PUBCHEM_SHAPE_SELFOVERLAP>
1127.319

> <PUBCHEM_SHAPE_VOLUME>
295.1

> <PUBCHEM_COORDINATE_TYPE>
2
5
10

$$$$
