REMARK  Name = 135659020
REMARK  5 active torsions:
REMARK  status: ('A' for Active; 'I' for Inactive)
REMARK    1  A    between atoms: N_2  and  C1*_34
REMARK    2  A    between atoms: C_21  and  C_27
REMARK    3  A    between atoms: C3*_36  and  O3*_38
REMARK    4  A    between atoms: C4*_37  and  C5*_40
REMARK    5  A    between atoms: C5*_40  and  O5*_41
REMARK                            x       y       z     vdW  Elec       q    Type
REMARK                         _______ _______ _______ _____ _____    ______ ____
ROOT
ATOM      1  O   UNL     1      -3.344  -4.425  -0.113  0.00  0.00    -0.267 OA
ATOM      2  N   UNL     1      -2.808   0.057   0.092  0.00  0.00    -0.200 N 
ATOM      3  N   UNL     1      -1.758  -1.915  -0.008  0.00  0.00    -0.364 NA
ATOM      4  N   UNL     1      -0.454   0.106   0.077  0.00  0.00    -0.238 N 
ATOM      5  N   UNL     1      -5.117  -0.668   0.076  0.00  0.00    -0.355 NA
ATOM      6  N   UNL     1       1.890   0.751   0.089  0.00  0.00    -0.239 N 
ATOM      7  N   UNL     1      -5.237  -3.058  -0.035  0.00  0.00    -0.242 N 
ATOM      8  N   UNL     1       1.494  -1.439  -0.010  0.00  0.00    -0.318 NA
ATOM      9  N   UNL     1      -7.198  -1.758   0.041  0.00  0.00    -0.321 N 
ATOM     10  N   UNL     1       3.813  -2.157  -0.060  0.00  0.00    -0.181 NA
ATOM     11  C   UNL     1      -3.785  -0.894   0.055  0.00  0.00    +0.229 C 
ATOM     12  C   UNL     1      -1.606  -0.607   0.052  0.00  0.00    +0.252 C 
ATOM     13  C   UNL     1      -3.111  -2.089  -0.006  0.00  0.00    +0.232 C 
ATOM     14  C   UNL     1      -3.858  -3.315  -0.057  0.00  0.00    +0.286 C 
ATOM     15  C   UNL     1       0.950  -0.243   0.050  0.00  0.00    +0.259 C 
ATOM     16  C   UNL     1      -5.828  -1.774   0.030  0.00  0.00    +0.240 C 
ATOM     17  C   UNL     1       3.122   0.155   0.053  0.00  0.00    +0.130 C 
ATOM     18  C   UNL     1       2.846  -1.206  -0.009  0.00  0.00    +0.105 C 
ATOM     19  C   UNL     1       1.645   2.174   0.157  0.00  0.00    +0.122 C 
ATOM     20  C   UNL     1       4.424   0.643   0.066  0.00  0.00    +0.028 C 
ATOM     21  C   UNL     1       5.427  -0.321   0.014  0.00  0.00    +0.022 C 
ATOM     22  C   UNL     1       5.074  -1.665  -0.046  0.00  0.00    +0.111 C 
ATOM     23  H   UNL     1      -0.606   1.077   0.123  0.00  0.00    +0.159 HD
ATOM     24  H   UNL     1      -5.842  -3.834  -0.066  0.00  0.00    +0.159 HD
ATOM     25  H   UNL     1      -7.680  -0.901   0.084  0.00  0.00    +0.146 HD
ATOM     26  H   UNL     1      -7.701  -2.604   0.005  0.00  0.00    +0.146 HD
ENDROOT
BRANCH  21  27
ATOM     27  C   UNL     1       6.818   0.072   0.022  0.00  0.00    +0.002 C 
ATOM     28  C   UNL     1       7.769  -0.716  -0.626  0.00  0.00    +0.000 C 
ATOM     29  C   UNL     1       7.209   1.239   0.678  0.00  0.00    +0.000 C 
ATOM     30  C   UNL     1       9.111  -0.336  -0.619  0.00  0.00    +0.000 C 
ATOM     31  C   UNL     1       8.551   1.619   0.686  0.00  0.00    +0.000 C 
ATOM     32  C   UNL     1       9.502   0.831   0.037  0.00  0.00    +0.000 C 
ENDBRANCH  21  27
BRANCH   2  34
ATOM     33  O4* UNL     1      -4.212   1.889   0.898  0.00  0.00    -0.335 OA
ATOM     34  C1* UNL     1      -3.021   1.548   0.164  0.00  0.00    +0.203 C 
ATOM     35  C2* UNL     1      -3.162   2.199  -1.208  0.00  0.00    +0.083 C 
ATOM     36  C3* UNL     1      -3.962   3.440  -0.887  0.00  0.00    +0.144 C 
ATOM     37  C4* UNL     1      -4.889   2.970   0.226  0.00  0.00    +0.173 C 
BRANCH  36  38
ATOM     38  O3* UNL     1      -3.073   4.433  -0.383  0.00  0.00    -0.382 OA
ATOM     39  H3* UNL     1      -2.483   4.731  -1.094  0.00  0.00    +0.210 HD
ENDBRANCH  36  38
BRANCH  37  40
ATOM     40  C5* UNL     1      -6.217   2.440  -0.298  0.00  0.00    +0.169 C 
BRANCH  40  41
ATOM     41  O5* UNL     1      -7.004   2.019   0.803  0.00  0.00    -0.379 OA
ATOM     42  H5* UNL     1      -7.853   1.679   0.482  0.00  0.00    +0.211 HD
ENDBRANCH  40  41
ENDBRANCH  37  40
ENDBRANCH   2  34
TORSDOF 5
