REMARK  Name = 135625279
REMARK  5 active torsions:
REMARK  status: ('A' for Active; 'I' for Inactive)
REMARK    1  A    between atoms: N_2  and  C_12
REMARK    2  A    between atoms: C_12  and  C_14
REMARK    3  A    between atoms: C_12  and  O_15
REMARK    4  A    between atoms: O_15  and  C_16
REMARK    5  A    between atoms: C_16  and  C_19
REMARK                            x       y       z     vdW  Elec       q    Type
REMARK                         _______ _______ _______ _____ _____    ______ ____
ROOT
ATOM      1  O   UNL     1       4.461   0.889   0.060  0.00  0.00    -0.268 OA
ATOM      2  N   UNL     1       0.050   0.349  -0.783  0.00  0.00    -0.243 N 
ATOM      3  N   UNL     1       1.864   1.590  -1.203  0.00  0.00    -0.241 NA
ATOM      4  N   UNL     1       0.985  -1.304   0.722  0.00  0.00    -0.232 NA
ATOM      5  N   UNL     1       3.328  -0.885   1.069  0.00  0.00    -0.279 N 
ATOM      6  C   UNL     1       1.070  -0.213  -0.073  0.00  0.00    +0.154 C 
ATOM      7  C   UNL     1       2.167   0.569  -0.351  0.00  0.00    +0.162 C 
ATOM      8  C   UNL     1       0.578   1.430  -1.447  0.00  0.00    +0.223 C 
ATOM      9  C   UNL     1       3.436   0.246   0.250  0.00  0.00    +0.267 C 
ATOM     10  C   UNL     1       2.135  -1.591   1.262  0.00  0.00    +0.220 C 
ATOM     11  H   UNL     1       4.136  -1.201   1.535  0.00  0.00    +0.152 HD
ENDROOT
BRANCH   2  12
ATOM     12  C   UNL     1      -1.322  -0.093  -0.838  0.00  0.00    +0.262 C 
BRANCH  12  14
ATOM     13  O   UNL     1      -1.861  -2.462  -0.846  0.00  0.00    -0.284 OA
ATOM     14  C   UNL     1      -1.409  -1.484  -1.433  0.00  0.00    +0.258 C 
ENDBRANCH  12  14
BRANCH  12  15
ATOM     15  O   UNL     1      -1.901  -0.141   0.463  0.00  0.00    -0.326 OA
BRANCH  15  16
ATOM     16  C   UNL     1      -2.594   1.052   0.806  0.00  0.00    +0.182 C 
ATOM     17  C   UNL     1      -2.531   1.238   2.310  0.00  0.00    +0.041 C 
BRANCH  16  19
ATOM     18  O   UNL     1      -4.446  -0.096  -0.263  0.00  0.00    -0.286 OA
ATOM     19  C   UNL     1      -4.009   0.905   0.295  0.00  0.00    +0.237 C 
ENDBRANCH  16  19
ENDBRANCH  15  16
ENDBRANCH  12  15
ENDBRANCH   2  12
TORSDOF 5
