135625280
  -OEChem-03292013293D

 38 39  0     1  0  0  0  0  0999 V2000
   -2.5749    0.1933    1.1092 O   0  0  0  0  0  0  0  0  0  0  0  0
   -3.8758    1.5716   -1.9361 O   0  0  0  0  0  0  0  0  0  0  0  0
   -4.9140   -1.3689    1.2328 O   0  0  0  0  0  0  0  0  0  0  0  0
    4.2156   -0.8820   -0.4682 O   0  0  0  0  0  0  0  0  0  0  0  0
    0.7599   -3.8342    0.4876 O   0  0  0  0  0  0  0  0  0  0  0  0
   -0.3566    0.0278    0.3090 N   0  0  0  0  0  0  0  0  0  0  0  0
    1.2680    1.7288    0.4863 N   0  0  0  0  0  0  0  0  0  0  0  0
    1.6354   -1.8226   -0.3549 N   0  0  0  0  0  0  0  0  0  0  0  0
    3.5288    1.2408    0.0941 N   0  0  0  0  0  0  0  0  0  0  0  0
    2.8902    3.4095    0.6591 N   0  0  0  0  0  0  0  0  0  0  0  0
   -2.9835    0.8314   -1.1292 C   0  0  2  0  0  0  0  0  0  0  0  0
   -3.6365    0.3349    0.1504 C   0  0  1  0  0  0  0  0  0  0  0  0
   -1.8801    1.7070   -0.5803 C   0  0  0  0  0  0  0  0  0  0  0  0
   -1.4313    0.9314    0.6461 C   0  0  1  0  0  0  0  0  0  0  0  0
   -4.3530   -0.9934   -0.0145 C   0  0  0  0  0  0  0  0  0  0  0  0
    0.9443    0.4041    0.2306 C   0  0  0  0  0  0  0  0  0  0  0  0
    1.8955   -0.5057   -0.0923 C   0  0  0  0  0  0  0  0  0  0  0  0
    3.3217   -0.0923   -0.1787 C   0  0  0  0  0  0  0  0  0  0  0  0
    2.5090    2.1159    0.4174 C   0  0  0  0  0  0  0  0  0  0  0  0
    1.9939   -2.3514   -1.6660 C   0  0  0  0  0  0  0  0  0  0  0  0
    1.0436   -2.6461    0.5976 C   0  0  0  0  0  0  0  0  0  0  0  0
   -2.5651    0.0042   -1.7149 H   0  0  0  0  0  0  0  0  0  0  0  0
   -4.3371    1.0773    0.5538 H   0  0  0  0  0  0  0  0  0  0  0  0
   -1.0943    1.9082   -1.3153 H   0  0  0  0  0  0  0  0  0  0  0  0
   -2.2931    2.6797   -0.2828 H   0  0  0  0  0  0  0  0  0  0  0  0
   -1.1334    1.6045    1.4577 H   0  0  0  0  0  0  0  0  0  0  0  0
   -3.6531   -1.7808   -0.3133 H   0  0  0  0  0  0  0  0  0  0  0  0
   -5.1548   -0.9197   -0.7556 H   0  0  0  0  0  0  0  0  0  0  0  0
   -0.6092   -0.9098    0.0182 H   0  0  0  0  0  0  0  0  0  0  0  0
   -3.3634    1.9410   -2.6754 H   0  0  0  0  0  0  0  0  0  0  0  0
   -5.3647   -2.2202    1.0993 H   0  0  0  0  0  0  0  0  0  0  0  0
    4.4787    1.5978    0.0549 H   0  0  0  0  0  0  0  0  0  0  0  0
    2.9576   -2.8638   -1.5914 H   0  0  0  0  0  0  0  0  0  0  0  0
    1.2446   -3.0856   -1.9788 H   0  0  0  0  0  0  0  0  0  0  0  0
    2.0424   -1.5532   -2.4133 H   0  0  0  0  0  0  0  0  0  0  0  0
    0.8571   -2.1197    1.5496 H   0  0  0  0  0  0  0  0  0  0  0  0
    2.2095    4.1205    0.9033 H   0  0  0  0  0  0  0  0  0  0  0  0
    3.8618    3.6944    0.6012 H   0  0  0  0  0  0  0  0  0  0  0  0
  1 12  1  0  0  0  0
  1 14  1  0  0  0  0
  2 11  1  0  0  0  0
  2 30  1  0  0  0  0
  3 15  1  0  0  0  0
  3 31  1  0  0  0  0
  4 18  2  0  0  0  0
  5 21  2  0  0  0  0
  6 14  1  0  0  0  0
  6 16  1  0  0  0  0
  6 29  1  0  0  0  0
  7 16  1  0  0  0  0
  7 19  2  0  0  0  0
  8 17  1  0  0  0  0
  8 20  1  0  0  0  0
  8 21  1  0  0  0  0
  9 18  1  0  0  0  0
  9 19  1  0  0  0  0
  9 32  1  0  0  0  0
 10 19  1  0  0  0  0
 10 37  1  0  0  0  0
 10 38  1  0  0  0  0
 11 12  1  0  0  0  0
 11 13  1  0  0  0  0
 11 22  1  0  0  0  0
 12 15  1  0  0  0  0
 12 23  1  0  0  0  0
 13 14  1  0  0  0  0
 13 24  1  0  0  0  0
 13 25  1  0  0  0  0
 14 26  1  0  0  0  0
 15 27  1  0  0  0  0
 15 28  1  0  0  0  0
 16 17  2  0  0  0  0
 17 18  1  0  0  0  0
 20 33  1  0  0  0  0
 20 34  1  0  0  0  0
 20 35  1  0  0  0  0
 21 36  1  0  0  0  0
M  END
> <PUBCHEM_COMPOUND_CID>
135625280

> <PUBCHEM_CONFORMER_RMSD>
0.8

> <PUBCHEM_CONFORMER_DIVERSEORDER>
1
53
64
43
52
19
38
23
36
54
48
9
15
31
22
5
32
30
26
42
67
49
55
34
18
29
20
60
63
59
35
56
66
51
13
46
45
27
10
33
41
17
28
14
65
8
68
61
4
12
37
40
62
21
25
50
24
6
7
47
16
3
57
11
44
58
39
2

> <PUBCHEM_MMFF94_PARTIAL_CHARGES>
27
1 -0.56
10 -0.85
11 0.28
12 0.28
14 0.65
15 0.28
16 0.27
17 0.12
18 0.62
19 0.56
2 -0.68
20 0.3
21 0.57
29 0.4
3 -0.68
30 0.4
31 0.4
32 0.37
36 0.06
37 0.4
38 0.4
4 -0.57
5 -0.57
6 -0.87
7 -0.62
8 -0.47
9 -0.49

> <PUBCHEM_EFFECTIVE_ROTOR_COUNT>
6

> <PUBCHEM_PHARMACOPHORE_FEATURES>
13
1 1 acceptor
1 10 donor
1 2 acceptor
1 2 donor
1 3 acceptor
1 3 donor
1 4 acceptor
1 5 acceptor
1 6 cation
1 6 donor
1 9 donor
5 1 11 12 13 14 rings
6 7 9 16 17 18 19 rings

> <PUBCHEM_HEAVY_ATOM_COUNT>
21

> <PUBCHEM_ATOM_DEF_STEREO_COUNT>
3

> <PUBCHEM_ATOM_UDEF_STEREO_COUNT>
0

> <PUBCHEM_BOND_DEF_STEREO_COUNT>
0

> <PUBCHEM_BOND_UDEF_STEREO_COUNT>
0

> <PUBCHEM_ISOTOPIC_ATOM_COUNT>
0

> <PUBCHEM_COMPONENT_COUNT>
1

> <PUBCHEM_CACTVS_TAUTO_COUNT>
-1

> <PUBCHEM_CONFORMER_ID>
08157A4000000001

> <PUBCHEM_MMFF94_ENERGY>
74.0368

> <PUBCHEM_FEATURE_SELFOVERLAP>
66.022

> <PUBCHEM_SHAPE_FINGERPRINT>
10871710 139 16458278162703617548
12403259 226 18335137557875225972
12403259 415 18334857250829316260
12553582 1 17620200827693155947
12596602 18 17559698290058620315
12730499 353 18334853888460455421
13583140 156 16808099636794698112
14178342 30 18199464355616086752
19433438 38 18114463375130927479
200 152 17988916752373411509
20645477 70 18200584818284035101
21197605 99 17909279310084718675
21524375 3 18341048639923680618
221490 88 18338803320841475438
2255824 54 18272932730578631636
23419403 2 16691949483488918646
23557571 272 17676207957753551021
23559900 14 18262507083608252193
23598288 3 17274831216649165857
238 59 18268125631160340767
2748010 2 18196664105916916744
2838139 119 16371881520242940046
2871803 45 18409444804391046719
3060560 45 18412254022298051692
3323516 105 18411426102505387679
33824 294 18410294743790090147
58051976 378 18412536596390738023
621550 34 18335138739292023193
633830 44 18059585710138003549
7399639 24 18261946462018046901
81228 2 17259882539376307632
9709674 26 18410860940949907019

> <PUBCHEM_SHAPE_MULTIPOLES>
377.92
8.11
3.4
1.17
6.48
1.3
-0.42
-0.44
-0.41
-2.88
0.35
0.85
0.14
1.72

> <PUBCHEM_SHAPE_SELFOVERLAP>
791.988

> <PUBCHEM_SHAPE_VOLUME>
212.5

> <PUBCHEM_COORDINATE_TYPE>
2
5
10

$$$$
