REMARK  Name = 135625328
REMARK  5 active torsions:
REMARK  status: ('A' for Active; 'I' for Inactive)
REMARK    1  A    between atoms: N_2  and  C_17
REMARK    2  A    between atoms: C_16  and  N_20
REMARK    3  A    between atoms: C_18  and  O_24
REMARK    4  A    between atoms: C_19  and  C_26
REMARK    5  A    between atoms: C_26  and  O_27
REMARK                            x       y       z     vdW  Elec       q    Type
REMARK                         _______ _______ _______ _____ _____    ______ ____
ROOT
ATOM      1  O   UNL     1       4.399  -1.766   0.710  0.00  0.00    -0.268 OA
ATOM      2  N   UNL     1       0.133  -0.450   0.015  0.00  0.00    -0.240 N 
ATOM      3  N   UNL     1       1.447  -2.090   0.779  0.00  0.00    -0.240 NA
ATOM      4  N   UNL     1       1.796   1.172  -0.665  0.00  0.00    -0.357 NA
ATOM      5  N   UNL     1       3.998   0.333  -0.235  0.00  0.00    -0.243 N 
ATOM      6  N   UNL     1       3.688   2.461  -1.191  0.00  0.00    -0.321 N 
ATOM      7  C   UNL     1       1.415  -0.016  -0.145  0.00  0.00    +0.211 C 
ATOM      8  C   UNL     1       0.203  -1.702   0.575  0.00  0.00    +0.224 C 
ATOM      9  C   UNL     1       2.195  -1.042   0.332  0.00  0.00    +0.176 C 
ATOM     10  C   UNL     1       3.625  -0.906   0.307  0.00  0.00    +0.273 C 
ATOM     11  C   UNL     1       3.102   1.324  -0.699  0.00  0.00    +0.239 C 
ATOM     12  H   UNL     1       4.961   0.528  -0.297  0.00  0.00    +0.159 HD
ATOM     13  H   UNL     1       3.128   3.196  -1.532  0.00  0.00    +0.146 HD
ATOM     14  H   UNL     1       4.669   2.544  -1.203  0.00  0.00    +0.146 HD
ENDROOT
BRANCH   2  17
ATOM     15  O   UNL     1      -2.153  -0.636  -0.785  0.00  0.00    -0.337 OA
ATOM     16  C   UNL     1      -1.734   1.084   0.816  0.00  0.00    +0.012 C 
ATOM     17  C   UNL     1      -1.133   0.290  -0.347  0.00  0.00    +0.178 C 
ATOM     18  C   UNL     1      -3.214   1.049   0.480  0.00  0.00    +0.124 C 
ATOM     19  C   UNL     1      -3.361  -0.365  -0.058  0.00  0.00    +0.171 C 
BRANCH  16  20
ATOM     20  N   UNL     1      -1.221   2.444   0.890  0.00  0.00    +0.386 N 
ATOM     21  H   UNL     1      -0.227   2.421   1.118  0.00  0.00    -0.089 HD
ATOM     22  H   UNL     1      -1.723   2.959   1.614  0.00  0.00    -0.089 HD
ATOM     23  H   UNL     1      -1.353   2.907  -0.009  0.00  0.00    -0.089 HD
ENDBRANCH  16  20
BRANCH  18  24
ATOM     24  O   UNL     1      -4.031   1.241   1.618  0.00  0.00    -0.384 OA
ATOM     25  H   UNL     1      -3.922   2.148   1.944  0.00  0.00    +0.210 HD
ENDBRANCH  18  24
BRANCH  19  26
ATOM     26  C   UNL     1      -4.560  -0.541  -0.972  0.00  0.00    +0.169 C 
BRANCH  26  27
ATOM     27  O   UNL     1      -4.598  -1.885  -1.424  0.00  0.00    -0.379 OA
ATOM     28  H   UNL     1      -5.361  -2.008  -2.010  0.00  0.00    +0.211 HD
ENDBRANCH  26  27
ENDBRANCH  19  26
ENDBRANCH   2  17
TORSDOF 5
