REMARK  Name = 135625290
REMARK  8 active torsions:
REMARK  status: ('A' for Active; 'I' for Inactive)
REMARK    1  A    between atoms: C_1  and  N_7
REMARK    2  A    between atoms: C_2  and  C_21
REMARK    3  A    between atoms: C_4  and  O_17
REMARK    4  A    between atoms: C_5  and  O_19
REMARK    5  A    between atoms: C_21  and  O_22
REMARK    6  A    between atoms: O_22  and  P_23
REMARK    7  A    between atoms: P_23  and  O_25
REMARK    8  A    between atoms: P_23  and  O_27
REMARK                            x       y       z     vdW  Elec       q    Type
REMARK                         _______ _______ _______ _____ _____    ______ ____
ROOT
ATOM      1  C   UNL     1      -0.353  -0.892   0.473  0.00  0.00    +0.105 C 
ATOM      2  C   UNL     1       2.070  -0.968   0.210  0.00  0.00    +0.061 C 
ATOM      3  C   UNL     1       0.910  -0.001   0.452  0.00  0.00    +0.027 C 
ATOM      4  C   UNL     1       0.070  -2.233  -0.175  0.00  0.00    +0.155 C 
ATOM      5  C   UNL     1       1.455  -1.965  -0.768  0.00  0.00    +0.141 C 
ENDROOT
BRANCH   1   7
ATOM      6  O   UNL     1      -5.533   1.642  -1.196  0.00  0.00    -0.268 OA
ATOM      7  N   UNL     1      -1.541  -0.233  -0.192  0.00  0.00    -0.271 N 
ATOM      8  N   UNL     1      -2.780   0.703  -1.804  0.00  0.00    -0.241 NA
ATOM      9  N   UNL     1      -3.084  -0.118   1.673  0.00  0.00    -0.232 NA
ATOM     10  N   UNL     1      -5.151   0.900   0.984  0.00  0.00    -0.279 N 
ATOM     11  C   UNL     1      -2.734   0.091   0.383  0.00  0.00    +0.152 C 
ATOM     12  C   UNL     1      -1.617   0.155  -1.508  0.00  0.00    +0.221 C 
ATOM     13  C   UNL     1      -3.471   0.662  -0.629  0.00  0.00    +0.162 C 
ATOM     14  C   UNL     1      -4.808   1.125  -0.356  0.00  0.00    +0.267 C 
ATOM     15  C   UNL     1      -4.293   0.302   1.914  0.00  0.00    +0.220 C 
ATOM     16  H   UNL     1      -6.046   1.177   1.288  0.00  0.00    +0.152 HD
ENDBRANCH   1   7
BRANCH   4  17
ATOM     17  O   UNL     1       0.170  -3.225   0.848  0.00  0.00    -0.380 OA
ATOM     18  H   UNL     1      -0.708  -3.393   1.223  0.00  0.00    +0.211 HD
ENDBRANCH   4  17
BRANCH   5  19
ATOM     19  O   UNL     1       2.236  -3.138  -0.886  0.00  0.00    -0.382 OA
ATOM     20  H   UNL     1       3.100  -2.915  -1.266  0.00  0.00    +0.210 HD
ENDBRANCH   5  19
BRANCH   2  21
ATOM     21  C   UNL     1       3.316  -0.283  -0.331  0.00  0.00    +0.156 C 
BRANCH  21  22
ATOM     22  O   UNL     1       3.737   0.697   0.601  0.00  0.00    -0.273 OA
BRANCH  22  23
ATOM     23  P   UNL     1       5.054   1.574   0.256  0.00  0.00    +0.473 P 
ATOM     24  O   UNL     1       5.430   2.589   1.296  0.00  0.00    -0.227 OA
BRANCH  23  25
ATOM     25  O   UNL     1       6.175   0.445  -0.033  0.00  0.00    -0.303 OA
ATOM     26  H   UNL     1       5.851  -0.166  -0.713  0.00  0.00    +0.222 HD
ENDBRANCH  23  25
BRANCH  23  27
ATOM     27  O   UNL     1       4.742   2.173  -1.213  0.00  0.00    -0.303 OA
ATOM     28  H   UNL     1       4.510   1.449  -1.815  0.00  0.00    +0.222 HD
ENDBRANCH  23  27
ENDBRANCH  22  23
ENDBRANCH  21  22
ENDBRANCH   2  21
TORSDOF 8
