REMARK  Name = 135625316
REMARK  8 active torsions:
REMARK  status: ('A' for Active; 'I' for Inactive)
REMARK    1  A    between atoms: N_2  and  C1*_16
REMARK    2  A    between atoms: N_3  and  C_25
REMARK    3  A    between atoms: C3*_18  and  O3*_20
REMARK    4  A    between atoms: C4*_19  and  C5*_22
REMARK    5  A    between atoms: C5*_22  and  O5*_23
REMARK    6  A    between atoms: C_25  and  C_26
REMARK    7  A    between atoms: C_26  and  C_28
REMARK    8  A    between atoms: C_26  and  O_29
REMARK                            x       y       z     vdW  Elec       q    Type
REMARK                         _______ _______ _______ _____ _____    ______ ____
ROOT
ATOM      1  O   UNL     1       3.920   0.840   0.598  0.00  0.00    -0.273 OA
ATOM      2  N   UNL     1      -0.646   0.445   0.313  0.00  0.00    -0.249 N 
ATOM      3  N   UNL     1       1.202  -0.594   0.733  0.00  0.00    -0.240 NA
ATOM      4  N   UNL     1       0.236   2.686  -0.184  0.00  0.00    -0.361 NA
ATOM      5  N   UNL     1       2.626   2.665   0.023  0.00  0.00    -0.246 N 
ATOM      6  N   UNL     1       1.487   4.630  -0.573  0.00  0.00    -0.321 N 
ATOM      7  C   UNL     1       0.362   1.377   0.160  0.00  0.00    +0.189 C 
ATOM      8  C   UNL     1      -0.125  -0.737   0.658  0.00  0.00    +0.173 C 
ATOM      9  C   UNL     1       1.535   0.704   0.430  0.00  0.00    +0.204 C 
ATOM     10  C   UNL     1       2.811   1.321   0.381  0.00  0.00    +0.252 C 
ATOM     11  C   UNL     1       1.394   3.302  -0.243  0.00  0.00    +0.239 C 
ATOM     12  H   UNL     1       3.436   3.220  -0.050  0.00  0.00    +0.159 HD
ATOM     13  H   UNL     1       0.673   5.145  -0.773  0.00  0.00    +0.146 HD
ATOM     14  H   UNL     1       2.368   5.067  -0.610  0.00  0.00    +0.146 HD
ENDROOT
BRANCH   2  16
ATOM     15  O4* UNL     1      -2.929  -0.093   1.003  0.00  0.00    -0.335 OA
ATOM     16  C1* UNL     1      -2.118   0.709   0.124  0.00  0.00    +0.197 C 
ATOM     17  C2* UNL     1      -2.601   0.415  -1.292  0.00  0.00    +0.083 C 
ATOM     18  C3* UNL     1      -4.069   0.130  -1.072  0.00  0.00    +0.144 C 
ATOM     19  C4* UNL     1      -4.082  -0.571   0.280  0.00  0.00    +0.173 C 
BRANCH  18  20
ATOM     20  O3* UNL     1      -4.761   1.372  -0.974  0.00  0.00    -0.382 OA
ATOM     21  H3* UNL     1      -4.751   1.817  -1.837  0.00  0.00    +0.210 HD
ENDBRANCH  18  20
BRANCH  19  22
ATOM     22  C5* UNL     1      -3.967  -2.085   0.160  0.00  0.00    +0.169 C 
BRANCH  22  23
ATOM     23  O5* UNL     1      -3.977  -2.645   1.461  0.00  0.00    -0.379 OA
ATOM     24  H5* UNL     1      -3.904  -3.610   1.398  0.00  0.00    +0.211 HD
ENDBRANCH  22  23
ENDBRANCH  19  22
ENDBRANCH   2  16
BRANCH   3  25
ATOM     25  C   UNL     1       2.122  -1.657   1.081  0.00  0.00    +0.105 C 
BRANCH  25  26
ATOM     26  C   UNL     1       2.848  -2.222  -0.148  0.00  0.00    +0.143 C 
BRANCH  26  28
ATOM     27 CL   UNL     1       2.786  -3.872  -2.319  0.00  0.00    -0.111 Cl
ATOM     28  C   UNL     1       1.940  -3.191  -0.904  0.00  0.00    +0.125 C 
ENDBRANCH  26  28
BRANCH  26  29
ATOM     29  O   UNL     1       4.005  -2.927   0.303  0.00  0.00    -0.382 OA
ATOM     30  H   UNL     1       4.586  -2.318   0.785  0.00  0.00    +0.210 HD
ENDBRANCH  26  29
ENDBRANCH  25  26
ENDBRANCH   3  25
TORSDOF 8
