REMARK  Name = 135618532
REMARK  5 active torsions:
REMARK  status: ('A' for Active; 'I' for Inactive)
REMARK    1  A    between atoms: N_1  and  C_3
REMARK    2  A    between atoms: N_1  and  C_20
REMARK    3  A    between atoms: C_4  and  S_9
REMARK    4  A    between atoms: S_9  and  N_13
REMARK    5  A    between atoms: C_20  and  C_27
REMARK                            x       y       z     vdW  Elec       q    Type
REMARK                         _______ _______ _______ _____ _____    ______ ____
ROOT
ATOM      1  N   UNL     1       0.546   1.044  -0.136  0.00  0.00    -0.327 N 
ATOM      2  H   UNL     1       0.949   0.627  -0.931  0.00  0.00    +0.147 HD
ENDROOT
BRANCH   1   3
ATOM      3  C   UNL     1      -0.840   1.174  -0.098  0.00  0.00    +0.045 C 
ATOM      4  C   UNL     1      -3.617   1.433  -0.026  0.00  0.00    +0.125 C 
ATOM      5  C   UNL     1      -1.611   0.720  -1.168  0.00  0.00    +0.016 C 
ATOM      6  C   UNL     1      -1.457   1.758   1.008  0.00  0.00    +0.016 C 
ATOM      7  C   UNL     1      -2.999   0.849  -1.132  0.00  0.00    +0.021 C 
ATOM      8  C   UNL     1      -2.846   1.888   1.044  0.00  0.00    +0.021 C 
BRANCH   4   9
ATOM      9  S   UNL     1      -5.354   1.596   0.018  0.00  0.00    +0.075 S 
ATOM     10  O   UNL     1      -5.676   2.690   0.927  0.00  0.00    -0.150 OA
ATOM     11  O   UNL     1      -5.853   1.651  -1.350  0.00  0.00    -0.150 OA
BRANCH   9  13
ATOM     12  O   UNL     1      -4.736  -2.608  -1.224  0.00  0.00    -0.356 OA
ATOM     13  N   UNL     1      -5.857   0.123   0.757  0.00  0.00    -0.196 N 
ATOM     14  N   UNL     1      -5.215  -1.309  -1.109  0.00  0.00    -0.061 NA
ATOM     15  C   UNL     1      -5.371  -1.112   0.203  0.00  0.00    +0.189 C 
ATOM     16  C   UNL     1      -5.011  -2.241   0.958  0.00  0.00    +0.074 C 
ATOM     17  C   UNL     1      -4.620  -3.153   0.015  0.00  0.00    +0.156 C 
ATOM     18  C   UNL     1      -4.124  -4.534   0.081  0.00  0.00    +0.075 C 
ATOM     19  H   UNL     1      -6.459   0.126   1.536  0.00  0.00    +0.175 HD
ENDBRANCH   9  13
ENDBRANCH   4   9
ENDBRANCH   1   3
BRANCH   1  20
ATOM     20  C   UNL     1       1.422   1.478   0.910  0.00  0.00    +0.144 C 
BRANCH  20  27
ATOM     21  O   UNL     1       4.535  -2.366   1.313  0.00  0.00    -0.267 OA
ATOM     22  N   UNL     1       4.859   1.883  -0.682  0.00  0.00    -0.300 N 
ATOM     23  N   UNL     1       3.354   0.047   0.742  0.00  0.00    -0.398 NA
ATOM     24  N   UNL     1       6.706   0.348  -0.771  0.00  0.00    -0.356 NA
ATOM     25  N   UNL     1       6.479  -1.754   0.244  0.00  0.00    -0.242 N 
ATOM     26  N   UNL     1       8.472  -1.190  -0.825  0.00  0.00    -0.321 N 
ATOM     27  C   UNL     1       2.830   1.199   0.453  0.00  0.00    +0.126 C 
ATOM     28  C   UNL     1       3.532   2.296  -0.315  0.00  0.00    +0.146 C 
ATOM     29  C   UNL     1       5.417   0.654  -0.374  0.00  0.00    +0.218 C 
ATOM     30  C   UNL     1       4.639  -0.206   0.324  0.00  0.00    +0.227 C 
ATOM     31  C   UNL     1       5.191  -1.542   0.682  0.00  0.00    +0.286 C 
ATOM     32  C   UNL     1       7.204  -0.815  -0.467  0.00  0.00    +0.239 C 
ATOM     33  H   UNL     1       5.412   2.520  -1.190  0.00  0.00    +0.150 HD
ATOM     34  H   UNL     1       6.905  -2.617   0.447  0.00  0.00    +0.159 HD
ATOM     35  H   UNL     1       9.044  -0.569  -1.333  0.00  0.00    +0.146 HD
ATOM     36  H   UNL     1       8.812  -2.079  -0.575  0.00  0.00    +0.146 HD
ENDBRANCH  20  27
ENDBRANCH   1  20
TORSDOF 5
