REMARK  Name = 135618561
REMARK  5 active torsions:
REMARK  status: ('A' for Active; 'I' for Inactive)
REMARK    1  A    between atoms: N_3  and  C1*_19
REMARK    2  A    between atoms: C2*_18  and  O2*_22
REMARK    3  A    between atoms: C3*_20  and  O3*_24
REMARK    4  A    between atoms: C4*_21  and  C5*_26
REMARK    5  A    between atoms: C5*_26  and  O5*_27
REMARK                            x       y       z     vdW  Elec       q    Type
REMARK                         _______ _______ _______ _____ _____    ______ ____
ROOT
ATOM      1  O   UNL     1      -1.404  -2.343   0.102  0.00  0.00    -0.272 OA
ATOM      2  O   UNL     1       4.637  -1.254  -0.330  0.00  0.00    -0.268 OA
ATOM      3  N   UNL     1       0.009  -0.464   0.215  0.00  0.00    -0.205 N 
ATOM      4  N   UNL     1       1.568   1.325   0.301  0.00  0.00    -0.356 NA
ATOM      5  N   UNL     1       2.089  -2.291  -0.224  0.00  0.00    -0.253 NA
ATOM      6  N   UNL     1       3.856   0.884   0.025  0.00  0.00    -0.243 N 
ATOM      7  N   UNL     1       3.128   3.071   0.382  0.00  0.00    -0.321 N 
ATOM      8  C   UNL     1       1.331  -0.025   0.146  0.00  0.00    +0.216 C 
ATOM      9  C   UNL     1      -0.304  -1.809   0.068  0.00  0.00    +0.258 C 
ATOM     10  C   UNL     1       2.294  -0.945  -0.066  0.00  0.00    +0.175 C 
ATOM     11  C   UNL     1       0.869  -2.707  -0.162  0.00  0.00    +0.211 C 
ATOM     12  C   UNL     1       3.706  -0.477  -0.139  0.00  0.00    +0.273 C 
ATOM     13  C   UNL     1       2.797   1.750   0.240  0.00  0.00    +0.239 C 
ATOM     14  H   UNL     1       4.765   1.260  -0.012  0.00  0.00    +0.159 HD
ATOM     15  H   UNL     1       2.423   3.741   0.538  0.00  0.00    +0.146 HD
ATOM     16  H   UNL     1       4.070   3.351   0.329  0.00  0.00    +0.146 HD
ENDROOT
BRANCH   3  19
ATOM     17  O4* UNL     1      -2.091  -0.144   1.192  0.00  0.00    -0.333 OA
ATOM     18  C2* UNL     1      -1.671   0.974  -0.854  0.00  0.00    +0.187 C 
ATOM     19  C1* UNL     1      -1.042   0.487   0.440  0.00  0.00    +0.230 C 
ATOM     20  C3* UNL     1      -3.091   1.273  -0.420  0.00  0.00    +0.171 C 
ATOM     21  C4* UNL     1      -3.362   0.155   0.576  0.00  0.00    +0.175 C 
BRANCH  18  22
ATOM     22  O2* UNL     1      -1.020   2.111  -1.381  0.00  0.00    -0.378 OA
ATOM     23  H2* UNL     1      -0.118   1.874  -1.645  0.00  0.00    +0.211 HD
ENDBRANCH  18  22
BRANCH  20  24
ATOM     24  O3* UNL     1      -3.141   2.513   0.285  0.00  0.00    -0.379 OA
ATOM     25  H3* UNL     1      -2.971   3.243  -0.331  0.00  0.00    +0.211 HD
ENDBRANCH  20  24
BRANCH  21  26
ATOM     26  C5* UNL     1      -3.885  -1.118  -0.075  0.00  0.00    +0.169 C 
BRANCH  26  27
ATOM     27  O5* UNL     1      -5.272  -0.966  -0.320  0.00  0.00    -0.379 OA
ATOM     28  H5* UNL     1      -5.618  -1.771  -0.736  0.00  0.00    +0.211 HD
ENDBRANCH  26  27
ENDBRANCH  21  26
ENDBRANCH   3  19
TORSDOF 5
