REMARK  Name = 135600311
REMARK  7 active torsions:
REMARK  status: ('A' for Active; 'I' for Inactive)
REMARK    1  A    between atoms: C_2  and  O_17
REMARK    2  A    between atoms: C_3  and  O_19
REMARK    3  A    between atoms: C_4  and  C_21
REMARK    4  A    between atoms: C_5  and  N_7
REMARK    5  A    between atoms: C_21  and  S_22
REMARK    6  A    between atoms: S_22  and  C_23
REMARK    7  A    between atoms: C_23  and  C_24
REMARK                            x       y       z     vdW  Elec       q    Type
REMARK                         _______ _______ _______ _____ _____    ______ ____
ROOT
ATOM      1  O   UNL     1       0.839  -1.031   0.976  0.00  0.00    -0.335 OA
ATOM      2  C   UNL     1       0.991  -2.944  -0.426  0.00  0.00    +0.169 C 
ATOM      3  C   UNL     1      -0.243  -2.150  -0.807  0.00  0.00    +0.187 C 
ATOM      4  C   UNL     1       1.799  -1.922   0.365  0.00  0.00    +0.157 C 
ATOM      5  C   UNL     1      -0.472  -1.304   0.442  0.00  0.00    +0.225 C 
ENDROOT
BRANCH   5   7
ATOM      6  O   UNL     1      -4.364   3.177  -0.443  0.00  0.00    -0.268 OA
ATOM      7  N   UNL     1      -1.231  -0.029   0.159  0.00  0.00    -0.247 N 
ATOM      8  N   UNL     1      -1.592   2.107  -0.401  0.00  0.00    -0.241 NA
ATOM      9  N   UNL     1      -3.502  -0.767   0.576  0.00  0.00    -0.232 NA
ATOM     10  N   UNL     1      -5.045   1.043   0.217  0.00  0.00    -0.279 N 
ATOM     11  C   UNL     1      -2.580   0.161   0.232  0.00  0.00    +0.154 C 
ATOM     12  C   UNL     1      -0.681   1.169  -0.225  0.00  0.00    +0.223 C 
ATOM     13  C   UNL     1      -2.769   1.479  -0.117  0.00  0.00    +0.162 C 
ATOM     14  C   UNL     1      -4.105   2.018  -0.142  0.00  0.00    +0.267 C 
ATOM     15  C   UNL     1      -4.707  -0.273   0.551  0.00  0.00    +0.220 C 
ATOM     16  H   UNL     1      -5.996   1.298   0.235  0.00  0.00    +0.152 HD
ENDBRANCH   5   7
BRANCH   2  17
ATOM     17  O   UNL     1       0.644  -4.009   0.457  0.00  0.00    -0.379 OA
ATOM     18  H   UNL     1       0.128  -4.674  -0.025  0.00  0.00    +0.211 HD
ENDBRANCH   2  17
BRANCH   3  19
ATOM     19  O   UNL     1      -1.348  -2.969  -1.130  0.00  0.00    -0.378 OA
ATOM     20  H   UNL     1      -1.148  -3.483  -1.928  0.00  0.00    +0.211 HD
ENDBRANCH   3  19
BRANCH   4  21
ATOM     21  C   UNL     1       2.731  -1.093  -0.508  0.00  0.00    +0.090 C 
BRANCH  21  22
ATOM     22  S   UNL     1       3.660   0.087   0.504  0.00  0.00    -0.138 S 
BRANCH  22  23
ATOM     23  C   UNL     1       4.624   0.867  -0.812  0.00  0.00    +0.058 C 
BRANCH  23  24
ATOM     24  C   UNL     1       5.630   1.934  -0.348  0.00  0.00    +0.011 C 
ATOM     25  C   UNL     1       4.960   3.101   0.381  0.00  0.00    +0.001 C 
ATOM     26  C   UNL     1       6.763   1.350   0.498  0.00  0.00    +0.001 C 
ENDBRANCH  23  24
ENDBRANCH  22  23
ENDBRANCH  21  22
ENDBRANCH   4  21
TORSDOF 7
