REMARK  Name = 135625263
REMARK  5 active torsions:
REMARK  status: ('A' for Active; 'I' for Inactive)
REMARK    1  A    between atoms: C_7  and  C_18
REMARK    2  A    between atoms: C_16  and  O_20
REMARK    3  A    between atoms: C_17  and  O_22
REMARK    4  A    between atoms: C_19  and  C_24
REMARK    5  A    between atoms: C_24  and  O_25
REMARK                            x       y       z     vdW  Elec       q    Type
REMARK                         _______ _______ _______ _____ _____    ______ ____
ROOT
ATOM      1  O   UNL     1       1.029  -1.070  -0.036  0.00  0.00    -0.412 OA
ATOM      2  O   UNL     1       4.531   1.017  -0.139  0.00  0.00    -0.208 OA
ATOM      3  N   UNL     1       0.501   2.419   0.514  0.00  0.00    -0.171 NA
ATOM      4  N   UNL     1       1.833   2.261   0.341  0.00  0.00    -0.262 N 
ATOM      5  N   UNL     1       3.405  -0.989  -0.293  0.00  0.00    -0.280 NA
ATOM      6  N   UNL     1       2.164  -2.991  -0.434  0.00  0.00    -0.302 N 
ATOM      7  C   UNL     1       0.018   1.175   0.394  0.00  0.00    +0.144 A 
ATOM      8  C   UNL     1       1.039   0.257   0.149  0.00  0.00    +0.196 A 
ATOM      9  C   UNL     1       2.200   0.968   0.118  0.00  0.00    +0.205 A 
ATOM     10  C   UNL     1       3.483   0.383  -0.109  0.00  0.00    +0.229 C 
ATOM     11  C   UNL     1       2.269  -1.639  -0.256  0.00  0.00    +0.352 C 
ATOM     12  H   UNL     1       2.474   3.008   0.373  0.00  0.00    +0.190 HD
ATOM     13  H   UNL     1       1.282  -3.426  -0.395  0.00  0.00    +0.148 HD
ATOM     14  H   UNL     1       2.971  -3.530  -0.601  0.00  0.00    +0.148 HD
ENDROOT
BRANCH   7  18
ATOM     15  O   UNL     1      -1.732  -0.378   1.099  0.00  0.00    -0.345 OA
ATOM     16  C   UNL     1      -2.195   0.944  -0.812  0.00  0.00    +0.173 C 
ATOM     17  C   UNL     1      -3.390   0.049  -0.546  0.00  0.00    +0.170 C 
ATOM     18  C   UNL     1      -1.466   0.919   0.527  0.00  0.00    +0.189 C 
ATOM     19  C   UNL     1      -2.802  -1.017   0.369  0.00  0.00    +0.174 C 
BRANCH  16  20
ATOM     20  O   UNL     1      -2.565   2.256  -1.189  0.00  0.00    -0.379 OA
ATOM     21  H   UNL     1      -3.025   2.229  -2.043  0.00  0.00    +0.211 HD
ENDBRANCH  16  20
BRANCH  17  22
ATOM     22  O   UNL     1      -4.411   0.761   0.153  0.00  0.00    -0.379 OA
ATOM     23  H   UNL     1      -4.788   1.440  -0.428  0.00  0.00    +0.211 HD
ENDBRANCH  17  22
BRANCH  19  24
ATOM     24  C   UNL     1      -2.220  -2.200  -0.393  0.00  0.00    +0.169 C 
BRANCH  24  25
ATOM     25  O   UNL     1      -1.691  -3.125   0.541  0.00  0.00    -0.379 OA
ATOM     26  H   UNL     1      -1.317  -3.884   0.068  0.00  0.00    +0.211 HD
ENDBRANCH  24  25
ENDBRANCH  19  24
ENDBRANCH   7  18
TORSDOF 5
