REMARK  Name = 135625300
REMARK  3 active torsions:
REMARK  status: ('A' for Active; 'I' for Inactive)
REMARK    1  A    between atoms: N_2  and  C_15
REMARK    2  A    between atoms: C_15  and  C_16
REMARK    3  A    between atoms: C_16  and  C_18
REMARK                            x       y       z     vdW  Elec       q    Type
REMARK                         _______ _______ _______ _____ _____    ______ ____
ROOT
ATOM      1  O   UNL     1       0.291   2.410  -0.431  0.00  0.00    -0.272 OA
ATOM      2  N   UNL     1      -0.974  -0.318  -0.812  0.00  0.00    -0.231 NA
ATOM      3  N   UNL     1       0.133  -2.214  -0.417  0.00  0.00    -0.194 NA
ATOM      4  N   UNL     1       2.171   1.221   0.214  0.00  0.00    -0.245 N 
ATOM      5  N   UNL     1       2.271  -1.176   0.281  0.00  0.00    -0.323 NA
ATOM      6  N   UNL     1       4.126   0.120   0.881  0.00  0.00    -0.320 N 
ATOM      7  C   UNL     1       0.275   0.047  -0.402  0.00  0.00    +0.235 C 
ATOM      8  C   UNL     1       0.938  -1.135  -0.164  0.00  0.00    +0.087 C 
ATOM      9  C   UNL     1      -1.011  -1.688  -0.805  0.00  0.00    +0.214 C 
ATOM     10  C   UNL     1       0.854   1.340  -0.227  0.00  0.00    +0.259 C 
ATOM     11  C   UNL     1       2.829   0.001   0.451  0.00  0.00    +0.248 C 
ATOM     12  H   UNL     1       2.677   2.051   0.371  0.00  0.00    +0.159 HD
ATOM     13  H   UNL     1       4.525   1.012   1.001  0.00  0.00    +0.146 HD
ATOM     14  H   UNL     1       4.658  -0.686   1.069  0.00  0.00    +0.146 HD
ENDROOT
BRANCH   2  15
ATOM     15  C   UNL     1      -2.063   0.552  -1.186  0.00  0.00    +0.091 C 
BRANCH  15  16
ATOM     16  C   UNL     1      -2.759   1.204   0.011  0.00  0.00    +0.123 C 
BRANCH  16  18
ATOM     17  N   UNL     1      -3.763  -0.574   1.669  0.00  0.00    -0.196 NA
ATOM     18  C   UNL     1      -3.320   0.210   0.937  0.00  0.00    +0.075 C 
ENDBRANCH  16  18
ENDBRANCH  15  16
ENDBRANCH   2  15
TORSDOF 3
