REMARK  Name = 135625312
REMARK  13 active torsions:
REMARK  status: ('A' for Active; 'I' for Inactive)
REMARK    1  A    between atoms: C_1  and  N_22
REMARK    2  A    between atoms: C_2  and  C_9
REMARK    3  A    between atoms: N_8  and  CA_11
REMARK    4  A    between atoms: CA_11  and  C_13
REMARK    5  A    between atoms: CA_11  and  CB_16
REMARK    6  A    between atoms: C_13  and  O_14
REMARK    7  A    between atoms: CB_16  and  CG_17
REMARK    8  A    between atoms: CG_17  and  CD_19
REMARK    9  A    between atoms: CD_19  and  OE1_20
REMARK   10  A    between atoms: N_22  and  C_23
REMARK   11  A    between atoms: N_22  and  C_39
REMARK   12  A    between atoms: C_23  and  C_28
REMARK   13  A    between atoms: C_39  and  C_41
REMARK                            x       y       z     vdW  Elec       q    Type
REMARK                         _______ _______ _______ _____ _____    ______ ____
ROOT
ATOM      1  C   UNL     1      -1.550  -2.478  -0.137  0.00  0.00    +0.049 C 
ATOM      2  C   UNL     1       1.224  -2.222  -0.289  0.00  0.00    +0.053 C 
ATOM      3  C   UNL     1      -0.877  -2.858  -1.298  0.00  0.00    +0.015 C 
ATOM      4  C   UNL     1      -0.836  -1.970   0.948  0.00  0.00    +0.015 C 
ATOM      5  C   UNL     1       0.510  -2.730  -1.374  0.00  0.00    +0.006 C 
ATOM      6  C   UNL     1       0.551  -1.842   0.872  0.00  0.00    +0.006 C 
ENDROOT
BRANCH   2   9
ATOM      7  O   UNL     1       3.331  -2.816  -1.129  0.00  0.00    -0.270 OA
ATOM      8  N   UNL     1       3.260  -1.096   0.423  0.00  0.00    -0.293 N 
ATOM      9  C   ACE A   0       2.670  -2.087  -0.369  0.00  0.00    +0.246 C 
ATOM     10  H   UNL     1       2.677  -0.554   1.003  0.00  0.00    +0.150 HD
BRANCH   8  11
ATOM     11  CA  UNL     1       4.680  -0.824   0.437  0.00  0.00    +0.172 C 
BRANCH  11  13
ATOM     12  OXT UNL     1       4.267  -0.236   2.764  0.00  0.00    -0.248 OA
ATOM     13  C   UNL     1       5.058  -0.429   1.849  0.00  0.00    +0.332 C 
BRANCH  13  14
ATOM     14  O   UNL     1       6.405  -0.345   2.010  0.00  0.00    -0.479 OA
ATOM     15  H   UNL     1       6.973  -0.500   1.281  0.00  0.00    +0.295 HD
ENDBRANCH  13  14
ENDBRANCH  11  13
BRANCH  11  16
ATOM     16  CB  UNL     1       5.096   0.201  -0.625  0.00  0.00    +0.043 C 
BRANCH  16  17
ATOM     17  CG  UNL     1       4.491   1.603  -0.476  0.00  0.00    +0.112 C 
BRANCH  17  19
ATOM     18  OE2 UNL     1       5.674   2.311  -2.484  0.00  0.00    -0.250 OA
ATOM     19  CD  UNL     1       4.923   2.572  -1.555  0.00  0.00    +0.314 C 
BRANCH  19  20
ATOM     20  OE1 UNL     1       4.405   3.811  -1.351  0.00  0.00    -0.480 OA
ATOM     21  HE1 UNL     1       3.833   3.966  -0.625  0.00  0.00    +0.295 HD
ENDBRANCH  19  20
ENDBRANCH  17  19
ENDBRANCH  16  17
ENDBRANCH  11  16
ENDBRANCH   8  11
ENDBRANCH   2   9
BRANCH   1  22
ATOM     22  N   UNL     1      -2.942  -2.607  -0.060  0.00  0.00    -0.291 N 
BRANCH  22  23
ATOM     23  C   UNL     1      -3.735  -1.715   0.758  0.00  0.00    +0.118 C 
BRANCH  23  28
ATOM     24  O   UNL     1      -2.195   2.820   2.747  0.00  0.00    -0.270 OA
ATOM     25  N   UNL     1      -3.284   3.661  -1.101  0.00  0.00    -0.377 NA
ATOM     26  N   UNL     1      -2.468   4.314   1.007  0.00  0.00    -0.244 N 
ATOM     27  N   UNL     1      -2.712   5.897  -0.694  0.00  0.00    -0.321 N 
ATOM     28  C   UNL     1      -3.612  -0.306   0.285  0.00  0.00    -0.006 C 
ATOM     29  C   UNL     1      -3.136   0.680   1.149  0.00  0.00    +0.004 C 
ATOM     30  C   UNL     1      -3.025   1.997   0.695  0.00  0.00    +0.079 C 
ATOM     31  C   UNL     1      -3.972   0.024  -1.020  0.00  0.00    -0.021 C 
ATOM     32  C   UNL     1      -3.383   2.345  -0.614  0.00  0.00    +0.121 C 
ATOM     33  C   UNL     1      -3.858   1.342  -1.467  0.00  0.00    +0.085 C 
ATOM     34  C   UNL     1      -2.525   3.058   1.591  0.00  0.00    +0.254 C 
ATOM     35  C   UNL     1      -2.841   4.591  -0.303  0.00  0.00    +0.237 C 
ATOM     36  H   UNL     1      -2.142   5.061   1.558  0.00  0.00    +0.159 HD
ATOM     37  H   UNL     1      -2.958   6.164  -1.609  0.00  0.00    +0.146 HD
ATOM     38  H   UNL     1      -2.374   6.570  -0.059  0.00  0.00    +0.146 HD
ENDBRANCH  23  28
ENDBRANCH  22  23
BRANCH  22  39
ATOM     39  C   UNL     1      -3.626  -3.662  -0.806  0.00  0.00    +0.198 C 
BRANCH  39  41
ATOM     40  N   UNL     1      -2.804  -6.025  -0.017  0.00  0.00    -0.194 NA
ATOM     41  C   UNL     1      -3.166  -4.979  -0.365  0.00  0.00    +0.095 C 
ENDBRANCH  39  41
ENDBRANCH  22  39
ENDBRANCH   1  22
TORSDOF 13
