REMARK  Name = 135616719
REMARK  8 active torsions:
REMARK  status: ('A' for Active; 'I' for Inactive)
REMARK    1  A    between atoms: C_2  and  O_20
REMARK    2  A    between atoms: C_3  and  O_22
REMARK    3  A    between atoms: C_4  and  N_7
REMARK    4  A    between atoms: C_5  and  C_24
REMARK    5  A    between atoms: C_24  and  O_25
REMARK    6  A    between atoms: O_25  and  P_26
REMARK    7  A    between atoms: P_26  and  O_28
REMARK    8  A    between atoms: P_26  and  O_30
REMARK                            x       y       z     vdW  Elec       q    Type
REMARK                         _______ _______ _______ _____ _____    ______ ____
ROOT
ATOM      1  O   UNL     1       1.244  -0.543   1.238  0.00  0.00    -0.333 OA
ATOM      2  C   UNL     1       0.373  -1.826  -0.550  0.00  0.00    +0.191 C 
ATOM      3  C   UNL     1       1.645  -2.491  -0.063  0.00  0.00    +0.171 C 
ATOM      4  C   UNL     1      -0.004  -0.953   0.643  0.00  0.00    +0.226 C 
ATOM      5  C   UNL     1       2.312  -1.370   0.724  0.00  0.00    +0.176 C 
ENDROOT
BRANCH   4   7
ATOM      6  O   UNL     1      -4.206   3.119  -0.664  0.00  0.00    -0.268 OA
ATOM      7  N   UNL     1      -0.851   0.237   0.258  0.00  0.00    -0.237 N 
ATOM      8  N   UNL     1      -1.359   2.307  -0.418  0.00  0.00    -0.240 NA
ATOM      9  N   UNL     1      -3.067  -0.683   0.577  0.00  0.00    -0.357 NA
ATOM     10  N   UNL     1      -4.731   0.959   0.050  0.00  0.00    -0.243 N 
ATOM     11  N   UNL     1      -5.352  -1.198   0.763  0.00  0.00    -0.321 N 
ATOM     12  C   UNL     1      -2.212   0.310   0.245  0.00  0.00    +0.211 C 
ATOM     13  C   UNL     1      -0.383   1.463  -0.148  0.00  0.00    +0.224 C 
ATOM     14  C   UNL     1      -2.492   1.589  -0.173  0.00  0.00    +0.176 C 
ATOM     15  C   UNL     1      -3.862   2.002  -0.299  0.00  0.00    +0.273 C 
ATOM     16  C   UNL     1      -4.330  -0.331   0.471  0.00  0.00    +0.239 C 
ATOM     17  H   UNL     1      -5.697   1.138  -0.001  0.00  0.00    +0.159 HD
ATOM     18  H   UNL     1      -5.150  -2.113   1.063  0.00  0.00    +0.146 HD
ATOM     19  H   UNL     1      -6.287  -0.904   0.674  0.00  0.00    +0.146 HD
ENDBRANCH   4   7
BRANCH   2  20
ATOM     20  O   UNL     1      -0.636  -2.752  -0.898  0.00  0.00    -0.347 OA
ATOM     21  C   UNL     1      -0.424  -3.304  -2.194  0.00  0.00    +0.174 C 
ENDBRANCH   2  20
BRANCH   3  22
ATOM     22  O   UNL     1       1.338  -3.546   0.847  0.00  0.00    -0.379 OA
ATOM     23  H   UNL     1       0.911  -4.273   0.367  0.00  0.00    +0.211 HD
ENDBRANCH   3  22
BRANCH   5  24
ATOM     24  C   UNL     1       3.221  -0.498  -0.131  0.00  0.00    +0.186 C 
BRANCH  24  25
ATOM     25  O   UNL     1       3.781   0.513   0.688  0.00  0.00    -0.271 OA
BRANCH  25  26
ATOM     26  P   UNL     1       4.793   1.582   0.012  0.00  0.00    +0.473 P 
ATOM     27  O   UNL     1       5.338   2.618   0.951  0.00  0.00    -0.227 OA
BRANCH  26  28
ATOM     28  O   UNL     1       5.905   0.637  -0.683  0.00  0.00    -0.303 OA
ATOM     29  H   UNL     1       5.468   0.000  -1.269  0.00  0.00    +0.222 HD
ENDBRANCH  26  28
BRANCH  26  30
ATOM     30  O   UNL     1       3.957   2.160  -1.246  0.00  0.00    -0.303 OA
ATOM     31  H   UNL     1       3.645   1.422  -1.793  0.00  0.00    +0.222 HD
ENDBRANCH  26  30
ENDBRANCH  25  26
ENDBRANCH  24  25
ENDBRANCH   5  24
TORSDOF 8
