REMARK  Name = 135625315
REMARK  8 active torsions:
REMARK  status: ('A' for Active; 'I' for Inactive)
REMARK    1  A    between atoms: N_2  and  C1*_16
REMARK    2  A    between atoms: N_3  and  C_25
REMARK    3  A    between atoms: C3*_18  and  O3*_20
REMARK    4  A    between atoms: C4*_19  and  C5*_22
REMARK    5  A    between atoms: C5*_22  and  O5*_23
REMARK    6  A    between atoms: C_25  and  C_26
REMARK    7  A    between atoms: C_26  and  C_30
REMARK    8  A    between atoms: C_26  and  O_31
REMARK                            x       y       z     vdW  Elec       q    Type
REMARK                         _______ _______ _______ _____ _____    ______ ____
ROOT
ATOM      1  O   UNL     1       2.927   2.354  -0.579  0.00  0.00    -0.273 OA
ATOM      2  N   UNL     1      -1.155   0.336   0.014  0.00  0.00    -0.249 N 
ATOM      3  N   UNL     1       0.922   0.022  -0.492  0.00  0.00    -0.240 NA
ATOM      4  N   UNL     1      -1.134   2.768   0.380  0.00  0.00    -0.361 NA
ATOM      5  N   UNL     1       1.082   3.609   0.019  0.00  0.00    -0.246 N 
ATOM      6  N   UNL     1      -0.668   5.051   0.625  0.00  0.00    -0.321 N 
ATOM      7  C   UNL     1      -0.554   1.579   0.070  0.00  0.00    +0.189 C 
ATOM      8  C   UNL     1      -0.254  -0.591  -0.326  0.00  0.00    +0.173 C 
ATOM      9  C   UNL     1       0.769   1.366  -0.254  0.00  0.00    +0.204 C 
ATOM     10  C   UNL     1       1.731   2.408  -0.307  0.00  0.00    +0.252 C 
ATOM     11  C   UNL     1      -0.282   3.765   0.344  0.00  0.00    +0.239 C 
ATOM     12  H   UNL     1       1.634   4.424   0.021  0.00  0.00    +0.159 HD
ATOM     13  H   UNL     1      -1.604   5.244   0.862  0.00  0.00    +0.146 HD
ATOM     14  H   UNL     1      -0.008   5.782   0.591  0.00  0.00    +0.146 HD
ENDROOT
BRANCH   2  16
ATOM     15  O4* UNL     1      -2.804  -1.246   0.882  0.00  0.00    -0.335 OA
ATOM     16  C1* UNL     1      -2.610   0.054   0.294  0.00  0.00    +0.197 C 
ATOM     17  C2* UNL     1      -3.478   0.093  -0.959  0.00  0.00    +0.083 C 
ATOM     18  C3* UNL     1      -4.635  -0.796  -0.568  0.00  0.00    +0.144 C 
ATOM     19  C4* UNL     1      -3.972  -1.859   0.299  0.00  0.00    +0.173 C 
BRANCH  18  20
ATOM     20  O3* UNL     1      -5.545  -0.033   0.222  0.00  0.00    -0.382 OA
ATOM     21  H3* UNL     1      -5.965   0.643  -0.332  0.00  0.00    +0.210 HD
ENDBRANCH  18  20
BRANCH  19  22
ATOM     22  C5* UNL     1      -3.516  -3.071  -0.502  0.00  0.00    +0.169 C 
BRANCH  22  23
ATOM     23  O5* UNL     1      -2.905  -3.995   0.382  0.00  0.00    -0.379 OA
ATOM     24  H5* UNL     1      -2.610  -4.773  -0.117  0.00  0.00    +0.211 HD
ENDBRANCH  22  23
ENDBRANCH  19  22
ENDBRANCH   2  16
BRANCH   3  25
ATOM     25  C   UNL     1       2.150  -0.648  -0.867  0.00  0.00    +0.107 C 
BRANCH  25  26
ATOM     26  C   UNL     1       2.792  -1.382   0.327  0.00  0.00    +0.169 C 
BRANCH  26  30
ATOM     27 CL   UNL     1       4.598  -2.682  -1.296  0.00  0.00    -0.080 Cl
ATOM     28 CL   UNL     1       5.271  -0.183   0.042  0.00  0.00    -0.080 Cl
ATOM     29 CL   UNL     1       4.892  -2.620   1.583  0.00  0.00    -0.080 Cl
ATOM     30  C   UNL     1       4.300  -1.684   0.165  0.00  0.00    +0.224 C 
ENDBRANCH  26  30
BRANCH  26  31
ATOM     31  O   UNL     1       2.080  -2.613   0.503  0.00  0.00    -0.379 OA
ATOM     32  H   UNL     1       1.133  -2.427   0.604  0.00  0.00    +0.211 HD
ENDBRANCH  26  31
ENDBRANCH  25  26
ENDBRANCH   3  25
TORSDOF 8
