REMARK  Name = 135618583
REMARK  4 active torsions:
REMARK  status: ('A' for Active; 'I' for Inactive)
REMARK    1  A    between atoms: C_8  and  C_18
REMARK    2  A    between atoms: C_18  and  O_19
REMARK    3  A    between atoms: C_18  and  C_21
REMARK    4  A    between atoms: C_21  and  O_23
REMARK                            x       y       z     vdW  Elec       q    Type
REMARK                         _______ _______ _______ _____ _____    ______ ____
ROOT
ATOM      1  O   UNL     1       1.822   2.285  -0.499  0.00  0.00    -0.268 OA
ATOM      2  O   UNL     1      -3.140   2.272   0.157  0.00  0.00    -0.272 OA
ATOM      3  N   UNL     1      -0.412   1.742  -0.200  0.00  0.00    -0.280 N 
ATOM      4  N   UNL     1       0.341  -0.931  -0.279  0.00  0.00    -0.339 NA
ATOM      5  N   UNL     1      -3.585   0.006   0.234  0.00  0.00    -0.245 N 
ATOM      6  N   UNL     1      -1.868  -1.591   0.018  0.00  0.00    -0.312 NA
ATOM      7  N   UNL     1      -4.091  -2.271   0.318  0.00  0.00    -0.320 N 
ATOM      8  C   UNL     1       1.246  -0.010  -0.405  0.00  0.00    +0.203 C 
ATOM      9  C   UNL     1      -1.336   0.745  -0.070  0.00  0.00    +0.259 C 
ATOM     10  C   UNL     1       0.923   1.468  -0.374  0.00  0.00    +0.276 C 
ATOM     11  C   UNL     1      -0.973  -0.550  -0.108  0.00  0.00    +0.143 C 
ATOM     12  C   UNL     1      -2.759   1.107   0.116  0.00  0.00    +0.264 C 
ATOM     13  C   UNL     1      -3.130  -1.304   0.183  0.00  0.00    +0.249 C 
ATOM     14  H   UNL     1      -0.710   2.680  -0.167  0.00  0.00    +0.151 HD
ATOM     15  H   UNL     1      -4.549   0.160   0.360  0.00  0.00    +0.159 HD
ATOM     16  H   UNL     1      -5.034  -2.015   0.441  0.00  0.00    +0.146 HD
ATOM     17  H   UNL     1      -3.839  -3.223   0.291  0.00  0.00    +0.146 HD
ENDROOT
BRANCH   8  18
ATOM     18  C   UNL     1       2.687  -0.390  -0.592  0.00  0.00    +0.195 C 
BRANCH  18  19
ATOM     19  O   UNL     1       2.688  -1.602  -1.328  0.00  0.00    -0.375 OA
ATOM     20  H   UNL     1       3.603  -1.890  -1.475  0.00  0.00    +0.211 HD
ENDBRANCH  18  19
BRANCH  18  21
ATOM     21  C   UNL     1       3.410  -0.602   0.736  0.00  0.00    +0.144 C 
ATOM     22  C   UNL     1       4.882  -0.948   0.557  0.00  0.00    +0.035 C 
BRANCH  21  23
ATOM     23  O   UNL     1       3.296   0.574   1.536  0.00  0.00    -0.382 OA
ATOM     24  H   UNL     1       2.359   0.797   1.652  0.00  0.00    +0.210 HD
ENDBRANCH  21  23
ENDBRANCH  18  21
ENDBRANCH   8  18
TORSDOF 4
