REMARK  Name = 135625329
REMARK  2 active torsions:
REMARK  status: ('A' for Active; 'I' for Inactive)
REMARK    1  A    between atoms: N_2  and  C_16
REMARK    2  A    between atoms: N_5  and  O_20
REMARK                            x       y       z     vdW  Elec       q    Type
REMARK                         _______ _______ _______ _____ _____    ______ ____
ROOT
ATOM      1  O   UNL     1      -3.062   2.332   0.370  0.00  0.00    -0.272 OA
ATOM      2  N   UNL     1       1.386   1.103  -0.073  0.00  0.00    -0.274 N 
ATOM      3  N   UNL     1      -0.852   1.671   0.142  0.00  0.00    -0.245 N 
ATOM      4  N   UNL     1      -0.177  -0.601  -0.234  0.00  0.00    -0.323 NA
ATOM      5  N   UNL     1      -3.700  -0.603  -0.026  0.00  0.00    -0.122 NA
ATOM      6  N   UNL     1      -2.116  -2.139  -0.347  0.00  0.00    -0.192 NA
ATOM      7  C   UNL     1       0.113   0.669  -0.063  0.00  0.00    +0.252 C 
ATOM      8  C   UNL     1      -2.511   0.064   0.002  0.00  0.00    +0.258 C 
ATOM      9  C   UNL     1      -1.550  -0.900  -0.198  0.00  0.00    +0.089 C 
ATOM     10  C   UNL     1      -2.228   1.451   0.190  0.00  0.00    +0.261 C 
ATOM     11  C   UNL     1      -3.411  -1.925  -0.238  0.00  0.00    +0.238 C 
ATOM     12  H   UNL     1       1.556   2.064   0.059  0.00  0.00    +0.153 HD
ATOM     13  H   UNL     1      -0.533   2.595   0.260  0.00  0.00    +0.159 HD
ENDROOT
BRANCH   2  16
ATOM     14  O   UNL     1       2.808  -0.468   0.947  0.00  0.00    -0.338 OA
ATOM     15  C   UNL     1       3.724   1.053  -0.709  0.00  0.00    +0.051 C 
ATOM     16  C   UNL     1       2.516   0.225  -0.269  0.00  0.00    +0.192 C 
ATOM     17  C   UNL     1       4.963   0.172  -0.843  0.00  0.00    +0.007 C 
ATOM     18  C   UNL     1       5.170  -0.657   0.419  0.00  0.00    +0.032 C 
ATOM     19  C   UNL     1       3.890  -1.388   0.800  0.00  0.00    +0.144 C 
ENDBRANCH   2  16
BRANCH   5  20
ATOM     20  O   UNL     1      -4.963  -0.059   0.130  0.00  0.00    -0.308 OA
ATOM     21  H   UNL     1      -5.062   0.862   0.272  0.00  0.00    +0.237 HD
ENDBRANCH   5  20
TORSDOF 2
