135600311
  -OEChem-03292013293D

 43 45  0     1  0  0  0  0  0999 V2000
    3.6598    0.0873    0.5042 S   0  0  0  0  0  0  0  0  0  0  0  0
    0.8392   -1.0307    0.9759 O   0  0  0  0  0  0  0  0  0  0  0  0
    0.6442   -4.0092    0.4574 O   0  0  0  0  0  0  0  0  0  0  0  0
   -1.3484   -2.9692   -1.1302 O   0  0  0  0  0  0  0  0  0  0  0  0
   -4.3643    3.1766   -0.4425 O   0  0  0  0  0  0  0  0  0  0  0  0
   -1.2313   -0.0295    0.1586 N   0  0  0  0  0  0  0  0  0  0  0  0
   -1.5924    2.1065   -0.4006 N   0  0  0  0  0  0  0  0  0  0  0  0
   -3.5023   -0.7670    0.5758 N   0  0  0  0  0  0  0  0  0  0  0  0
   -5.0453    1.0430    0.2168 N   0  0  0  0  0  0  0  0  0  0  0  0
    0.9912   -2.9437   -0.4258 C   0  0  1  0  0  0  0  0  0  0  0  0
   -0.2427   -2.1501   -0.8066 C   0  0  2  0  0  0  0  0  0  0  0  0
    1.7986   -1.9220    0.3647 C   0  0  1  0  0  0  0  0  0  0  0  0
   -0.4725   -1.3043    0.4416 C   0  0  1  0  0  0  0  0  0  0  0  0
    2.7307   -1.0929   -0.5082 C   0  0  0  0  0  0  0  0  0  0  0  0
   -2.5796    0.1608    0.2317 C   0  0  0  0  0  0  0  0  0  0  0  0
   -0.6813    1.1693   -0.2253 C   0  0  0  0  0  0  0  0  0  0  0  0
    4.6236    0.8668   -0.8120 C   0  0  0  0  0  0  0  0  0  0  0  0
   -2.7693    1.4787   -0.1167 C   0  0  0  0  0  0  0  0  0  0  0  0
    5.6297    1.9338   -0.3477 C   0  0  0  0  0  0  0  0  0  0  0  0
   -4.1047    2.0182   -0.1419 C   0  0  0  0  0  0  0  0  0  0  0  0
    4.9604    3.1008    0.3813 C   0  0  0  0  0  0  0  0  0  0  0  0
    6.7631    1.3502    0.4985 C   0  0  0  0  0  0  0  0  0  0  0  0
   -4.7066   -0.2733    0.5509 C   0  0  0  0  0  0  0  0  0  0  0  0
    1.5119   -3.3757   -1.2853 H   0  0  0  0  0  0  0  0  0  0  0  0
   -0.0262   -1.5088   -1.6697 H   0  0  0  0  0  0  0  0  0  0  0  0
    2.3616   -2.4050    1.1728 H   0  0  0  0  0  0  0  0  0  0  0  0
   -1.0561   -1.8283    1.2080 H   0  0  0  0  0  0  0  0  0  0  0  0
    2.1632   -0.5216   -1.2496 H   0  0  0  0  0  0  0  0  0  0  0  0
    3.4358   -1.7473   -1.0306 H   0  0  0  0  0  0  0  0  0  0  0  0
    1.4670   -4.4703    0.6944 H   0  0  0  0  0  0  0  0  0  0  0  0
   -1.0778   -3.5477   -1.8634 H   0  0  0  0  0  0  0  0  0  0  0  0
    0.3830    1.3002   -0.3645 H   0  0  0  0  0  0  0  0  0  0  0  0
    3.9210    1.3276   -1.5158 H   0  0  0  0  0  0  0  0  0  0  0  0
    5.1631    0.0835   -1.3563 H   0  0  0  0  0  0  0  0  0  0  0  0
    6.0900    2.3442   -1.2568 H   0  0  0  0  0  0  0  0  0  0  0  0
    6.4042    0.9788    1.4636 H   0  0  0  0  0  0  0  0  0  0  0  0
    7.2533    0.5228   -0.0252 H   0  0  0  0  0  0  0  0  0  0  0  0
    4.1408    3.5147   -0.2155 H   0  0  0  0  0  0  0  0  0  0  0  0
    5.6827    3.9059    0.5555 H   0  0  0  0  0  0  0  0  0  0  0  0
    7.5232    2.1130    0.6996 H   0  0  0  0  0  0  0  0  0  0  0  0
    4.5602    2.8039    1.3559 H   0  0  0  0  0  0  0  0  0  0  0  0
   -5.5852   -0.8870    0.8034 H   0  0  0  0  0  0  0  0  0  0  0  0
   -6.0256    1.3091    0.2337 H   0  0  0  0  0  0  0  0  0  0  0  0
  1 14  1  0  0  0  0
  1 17  1  0  0  0  0
  2 12  1  0  0  0  0
  2 13  1  0  0  0  0
  3 10  1  0  0  0  0
  3 30  1  0  0  0  0
  4 11  1  0  0  0  0
  4 31  1  0  0  0  0
  5 20  2  0  0  0  0
  6 13  1  0  0  0  0
  6 15  1  0  0  0  0
  6 16  1  0  0  0  0
  7 16  2  0  0  0  0
  7 18  1  0  0  0  0
  8 15  1  0  0  0  0
  8 23  2  0  0  0  0
  9 20  1  0  0  0  0
  9 23  1  0  0  0  0
  9 43  1  0  0  0  0
 10 11  1  0  0  0  0
 10 12  1  0  0  0  0
 10 24  1  0  0  0  0
 11 13  1  0  0  0  0
 11 25  1  0  0  0  0
 12 14  1  0  0  0  0
 12 26  1  0  0  0  0
 13 27  1  0  0  0  0
 14 28  1  0  0  0  0
 14 29  1  0  0  0  0
 15 18  2  0  0  0  0
 16 32  1  0  0  0  0
 17 19  1  0  0  0  0
 17 33  1  0  0  0  0
 17 34  1  0  0  0  0
 18 20  1  0  0  0  0
 19 21  1  0  0  0  0
 19 22  1  0  0  0  0
 19 35  1  0  0  0  0
 21 38  1  0  0  0  0
 21 39  1  0  0  0  0
 21 41  1  0  0  0  0
 22 36  1  0  0  0  0
 22 37  1  0  0  0  0
 22 40  1  0  0  0  0
 23 42  1  0  0  0  0
M  END
> <PUBCHEM_COMPOUND_CID>
135600311

> <PUBCHEM_CONFORMER_RMSD>
0.8

> <PUBCHEM_CONFORMER_DIVERSEORDER>
1
142
63
78
52
26
119
162
30
47
132
75
138
25
34
111
121
44
2
140
18
16
129
86
89
160
24
71
90
88
8
5
143
101
115
144
40
104
77
125
32
108
163
103
122
145
133
128
126
113
97
164
159
137
13
66
154
105
100
23
80
38
118
106
17
141
93
110
147
165
7
15
58
36
99
56
42
116
127
79
95
46
19
41
120
82
12
85
9
149
68
83
49
76
62
94
92
35
123
67
45
39
157
33
151
107
64
65
114
158
81
54
148
84
6
48
10
96
74
14
91
27
29
53
61
161
4
21
11
134
117
150
31
57
124
28
135
72
130
156
146
109
3
131
37
155
60
50
43
70
152
87
139
55
102
112
136
22
69
98
20
51
73
59
153

> <PUBCHEM_MMFF94_PARTIAL_CHARGES>
25
1 -0.46
10 0.28
11 0.28
12 0.28
13 0.54
14 0.23
15 -0.03
16 0.04
17 0.23
18 0.14
2 -0.56
20 0.72
23 0.45
3 -0.68
30 0.4
31 0.4
32 0.15
4 -0.68
42 0.06
43 0.37
5 -0.57
6 0.05
7 -0.57
8 -0.58
9 -0.49

> <PUBCHEM_EFFECTIVE_ROTOR_COUNT>
6

> <PUBCHEM_PHARMACOPHORE_FEATURES>
13
1 2 acceptor
1 3 acceptor
1 3 donor
1 4 acceptor
1 4 donor
1 5 acceptor
1 9 donor
3 19 21 22 hydrophobe
3 6 7 16 cation
4 1 14 17 19 hydrophobe
5 2 10 11 12 13 rings
5 6 7 15 16 18 rings
6 8 9 15 18 20 23 rings

> <PUBCHEM_HEAVY_ATOM_COUNT>
23

> <PUBCHEM_ATOM_DEF_STEREO_COUNT>
4

> <PUBCHEM_ATOM_UDEF_STEREO_COUNT>
0

> <PUBCHEM_BOND_DEF_STEREO_COUNT>
0

> <PUBCHEM_BOND_UDEF_STEREO_COUNT>
0

> <PUBCHEM_ISOTOPIC_ATOM_COUNT>
0

> <PUBCHEM_COMPONENT_COUNT>
1

> <PUBCHEM_CACTVS_TAUTO_COUNT>
-1

> <PUBCHEM_CONFORMER_ID>
081518B700000001

> <PUBCHEM_MMFF94_ENERGY>
51.5976

> <PUBCHEM_FEATURE_SELFOVERLAP>
66.157

> <PUBCHEM_SHAPE_FINGERPRINT>
10493431 412 18410293644431391076
10871710 139 18268705185463142255
12769317 202 18343577417904904048
12788726 201 18121204644246377826
12895837 130 18118690061681096580
13402501 40 18411701015368734208
14251764 75 18341622481609067352
14257110 125 18409167723223772228
1454969 45 18340483474094585007
14790565 3 18411985758208811312
15196674 1 18335985281203084712
16087824 20 18340204215901891111
17834072 32 18411418445180137536
20645477 56 18341057427717022442
21756936 100 18340480175459260534
22620623 9 16844434110873135638
23227448 37 18269838782209432796
23559900 14 17904762185346369835
245318 6 17678197060019304468
2838139 119 18412539938381917444
34797466 226 18059299756032246805
508706 21 17911227631998758744
5104073 3 18115032883510122553
550186 72 18337109072735185685
6327066 14 18409444804502050636
67856867 119 18189895310072360546
7064713 232 18261114106062133268
7288768 16 18040434429906924410
7808743 9 18339639044526250194
9709674 26 17764029065505551447
9981440 41 18260555527878841842

> <PUBCHEM_SHAPE_MULTIPOLES>
433.78
12.52
4.09
0.86
11.85
1.75
0.04
-13.25
-0.95
0.09
0.47
0.2
0.21
0.37

> <PUBCHEM_SHAPE_SELFOVERLAP>
901.461

> <PUBCHEM_SHAPE_VOLUME>
250.8

> <PUBCHEM_COORDINATE_TYPE>
2
5
10

$$$$
