REMARK  Name = 135645809
REMARK  4 active torsions:
REMARK  status: ('A' for Active; 'I' for Inactive)
REMARK    1  A    between atoms: C_3  and  S_11
REMARK    2  A    between atoms: C_4  and  N_16
REMARK    3  A    between atoms: N_15  and  N_16
REMARK    4  A    between atoms: N_15  and  C_20
REMARK                            x       y       z     vdW  Elec       q    Type
REMARK                         _______ _______ _______ _____ _____    ______ ____
ROOT
ATOM      1  C   UNL     1       2.793   0.640  -0.108  0.00  0.00    +0.019 C 
ATOM      2  C   UNL     1       1.391   0.602  -0.298  0.00  0.00    +0.018 C 
ATOM      3  C   UNL     1       3.516  -0.564  -0.080  0.00  0.00    +0.112 C 
ATOM      4  C   UNL     1       0.753  -0.639  -0.455  0.00  0.00    +0.089 C 
ATOM      5  C   UNL     1       2.866  -1.788  -0.238  0.00  0.00    +0.020 C 
ATOM      6  C   UNL     1       1.487  -1.826  -0.425  0.00  0.00    +0.019 C 
ATOM      7  C   UNL     1       3.431   1.882   0.049  0.00  0.00    +0.001 C 
ATOM      8  C   UNL     1       0.669   1.806  -0.325  0.00  0.00    +0.001 C 
ATOM      9  C   UNL     1       2.698   3.068   0.019  0.00  0.00    +0.000 C 
ATOM     10  C   UNL     1       1.319   3.030  -0.168  0.00  0.00    +0.000 C 
ENDROOT
BRANCH   3  11
ATOM     11  S   UNL     1       5.257  -0.624   0.150  0.00  0.00    +0.042 S 
ATOM     12  O   UNL     1       5.488  -0.184   1.705  0.00  0.00    -0.065 OA
ATOM     13  O   UNL     1       5.667  -2.012   0.029  0.00  0.00    -0.065 OA
ATOM     14  O   UNL     1       5.822   0.403  -0.706  0.00  0.00    -0.065 OA
ENDBRANCH   3  11
BRANCH   4  15
ATOM     15  N   UNL     1      -0.634  -0.733  -0.646  0.00  0.00    -0.128 NA
BRANCH  15  16
ATOM     16  N   UNL     1      -1.209  -0.829   0.462  0.00  0.00    -0.127 NA
BRANCH  16  20
ATOM     17  N   UNL     1      -4.639  -1.734  -0.053  0.00  0.00    -0.355 N 
ATOM     18  C   UNL     1      -3.507   0.171   0.211  0.00  0.00    +0.033 A 
ATOM     19  C   UNL     1      -4.780  -0.366   0.007  0.00  0.00    +0.058 A 
ATOM     20  C   UNL     1      -2.598  -0.922   0.270  0.00  0.00    +0.102 A 
ATOM     21  C   UNL     1      -3.324  -2.080   0.104  0.00  0.00    +0.051 A 
ATOM     22  C   UNL     1      -3.369   1.569   0.311  0.00  0.00    +0.003 C 
ATOM     23  C   UNL     1      -5.926   0.430  -0.101  0.00  0.00    +0.017 C 
ATOM     24  C   UNL     1      -2.900  -3.493   0.079  0.00  0.00    +0.051 C 
ATOM     25  C   UNL     1      -4.507   2.378   0.204  0.00  0.00    +0.000 C 
ATOM     26  C   UNL     1      -5.765   1.814   0.001  0.00  0.00    +0.001 C 
ATOM     27  H   UNL     1      -5.377  -2.371  -0.190  0.00  0.00    +0.166 HD
ENDBRANCH  16  20
ENDBRANCH  15  16
ENDBRANCH   4  15
TORSDOF 4
