REMARK  Name = 135623238
REMARK  6 active torsions:
REMARK  status: ('A' for Active; 'I' for Inactive)
REMARK    1  A    between atoms: C_3  and  C_12
REMARK    2  A    between atoms: C_4  and  O_22
REMARK    3  A    between atoms: C_5  and  C_9
REMARK    4  A    between atoms: C_7  and  O_24
REMARK    5  A    between atoms: N_11  and  C_14
REMARK    6  A    between atoms: C_19  and  O_20
REMARK                            x       y       z     vdW  Elec       q    Type
REMARK                         _______ _______ _______ _____ _____    ______ ____
ROOT
ATOM      1  O   UNL     1      -2.913   2.003  -0.061  0.00  0.00    -0.389 OA
ATOM      2  O   UNL     1      -0.860   2.951  -0.103  0.00  0.00    -0.244 OA
ATOM      3  C   UNL     1      -0.940   0.585  -0.094  0.00  0.00    +0.123 A 
ATOM      4  C   UNL     1      -1.722  -0.507  -0.058  0.00  0.00    +0.150 A 
ATOM      5  C   UNL     1      -3.163  -0.384   0.025  0.00  0.00    +0.140 A 
ATOM      6  C   UNL     1      -1.550   1.937  -0.082  0.00  0.00    +0.352 A 
ATOM      7  C   UNL     1      -3.715   0.841   0.012  0.00  0.00    +0.301 A 
ENDROOT
BRANCH   5   9
ATOM      8  O   UNL     1      -4.377  -1.944   1.290  0.00  0.00    -0.291 OA
ATOM      9  C   UNL     1      -4.061  -1.542   0.172  0.00  0.00    +0.183 C 
ATOM     10  C   UNL     1      -4.574  -2.197  -1.082  0.00  0.00    +0.078 C 
ENDBRANCH   5   9
BRANCH   3  12
ATOM     11  N   UNL     1       1.302  -0.188   0.682  0.00  0.00    -0.249 NA
ATOM     12  C   UNL     1       0.520   0.417  -0.170  0.00  0.00    +0.069 C 
ATOM     13  C   UNL     1       1.212   1.019  -1.379  0.00  0.00    +0.052 C 
BRANCH  11  14
ATOM     14  C   UNL     1       2.683  -0.247   0.437  0.00  0.00    +0.081 C 
ATOM     15  C   UNL     1       3.520   0.762   0.915  0.00  0.00    +0.022 C 
ATOM     16  C   UNL     1       3.219  -1.314  -0.284  0.00  0.00    +0.022 C 
ATOM     17  C   UNL     1       4.892   0.703   0.672  0.00  0.00    +0.038 C 
ATOM     18  C   UNL     1       4.591  -1.373  -0.527  0.00  0.00    +0.038 C 
ATOM     19  C   UNL     1       5.428  -0.364  -0.049  0.00  0.00    +0.134 C 
BRANCH  19  20
ATOM     20  O   UNL     1       6.767  -0.421  -0.286  0.00  0.00    -0.506 OA
ATOM     21  H   UNL     1       7.329   0.257   0.035  0.00  0.00    +0.292 HD
ENDBRANCH  19  20
ENDBRANCH  11  14
ENDBRANCH   3  12
BRANCH   4  22
ATOM     22  O   UNL     1      -1.183  -1.778  -0.122  0.00  0.00    -0.505 OA
ATOM     23  H   UNL     1      -0.254  -1.891  -0.176  0.00  0.00    +0.292 HD
ENDBRANCH   4  22
BRANCH   7  24
ATOM     24  O   UNL     1      -5.077   1.038   0.094  0.00  0.00    -0.479 OA
ATOM     25  H   UNL     1      -5.426   1.908   0.082  0.00  0.00    +0.295 HD
ENDBRANCH   7  24
TORSDOF 6
