135618550
  -OEChem-03292013293D

 53 55  0     1  0  0  0  0  0999 V2000
   -2.4202   -3.2248    0.4389 S   0  0  0  0  0  0  0  0  0  0  0  0
    6.4555    1.4799    2.2187 O   0  0  0  0  0  0  0  0  0  0  0  0
    4.2138    1.5405    2.5666 O   0  0  0  0  0  0  0  0  0  0  0  0
    4.3008   -2.6827    0.3640 O   0  0  0  0  0  0  0  0  0  0  0  0
    4.7192    3.1416   -2.9572 O   0  0  0  0  0  0  0  0  0  0  0  0
    6.3263    1.5429   -3.0500 O   0  0  0  0  0  0  0  0  0  0  0  0
   -1.8702    1.6532   -0.5071 O   0  0  0  0  0  0  0  0  0  0  0  0
    3.7665   -0.4789    0.8509 N   0  0  0  0  0  0  0  0  0  0  0  0
   -3.6602   -0.3653   -0.8511 N   0  0  0  0  0  0  0  0  0  0  0  0
   -6.3012    0.1227   -0.0225 N   0  0  0  0  0  0  0  0  0  0  0  0
   -3.5030    3.0156    0.4151 N   0  0  0  0  0  0  0  0  0  0  0  0
   -5.7295    2.2862    0.6743 N   0  0  0  0  0  0  0  0  0  0  0  0
   -5.1021    4.4415    1.3545 N   0  0  0  0  0  0  0  0  0  0  0  0
    5.1184    0.0180    0.8946 C   0  0  1  0  0  0  0  0  0  0  0  0
    5.6230    0.4830   -0.4767 C   0  0  0  0  0  0  0  0  0  0  0  0
    4.8611    1.6558   -1.1070 C   0  0  0  0  0  0  0  0  0  0  0  0
    5.1792    1.0889    1.9642 C   0  0  0  0  0  0  0  0  0  0  0  0
    3.4674   -1.8081    0.5851 C   0  0  0  0  0  0  0  0  0  0  0  0
    2.0235   -2.1557    0.5494 C   0  0  0  0  0  0  0  0  0  0  0  0
   -4.2496   -2.6227   -1.5788 C   0  0  0  0  0  0  0  0  0  0  0  0
   -2.7997   -3.0424   -1.3266 C   0  0  0  0  0  0  0  0  0  0  0  0
   -4.6285   -1.2927   -0.9740 C   0  0  0  0  0  0  0  0  0  0  0  0
   -0.6880   -2.8081    0.4819 C   0  0  0  0  0  0  0  0  0  0  0  0
    5.3899    2.0679   -2.4637 C   0  0  0  0  0  0  0  0  0  0  0  0
    1.5840   -3.2324   -0.2211 C   0  0  0  0  0  0  0  0  0  0  0  0
    1.1071   -1.4055    1.2863 C   0  0  0  0  0  0  0  0  0  0  0  0
    0.2284   -3.5585   -0.2549 C   0  0  0  0  0  0  0  0  0  0  0  0
   -0.2487   -1.7316    1.2525 C   0  0  0  0  0  0  0  0  0  0  0  0
   -4.0481    0.8040   -0.3060 C   0  0  0  0  0  0  0  0  0  0  0  0
   -5.9240   -1.0534   -0.5678 C   0  0  0  0  0  0  0  0  0  0  0  0
   -5.3415    1.0620    0.1073 C   0  0  0  0  0  0  0  0  0  0  0  0
   -3.0265    1.8446   -0.1526 C   0  0  0  0  0  0  0  0  0  0  0  0
   -4.8230    3.2147    0.8126 C   0  0  0  0  0  0  0  0  0  0  0  0
    5.7571   -0.8048    1.2408 H   0  0  0  0  0  0  0  0  0  0  0  0
    6.6809    0.7642   -0.3914 H   0  0  0  0  0  0  0  0  0  0  0  0
    5.5929   -0.3660   -1.1725 H   0  0  0  0  0  0  0  0  0  0  0  0
    4.9239    2.5291   -0.4485 H   0  0  0  0  0  0  0  0  0  0  0  0
    3.8069    1.3854   -1.2334 H   0  0  0  0  0  0  0  0  0  0  0  0
    3.0222    0.2046    0.9430 H   0  0  0  0  0  0  0  0  0  0  0  0
   -4.9193   -3.4053   -1.1993 H   0  0  0  0  0  0  0  0  0  0  0  0
   -4.4190   -2.5585   -2.6606 H   0  0  0  0  0  0  0  0  0  0  0  0
   -2.6077   -4.0022   -1.8183 H   0  0  0  0  0  0  0  0  0  0  0  0
   -2.1213   -2.3083   -1.7765 H   0  0  0  0  0  0  0  0  0  0  0  0
    2.2820   -3.8266   -0.8051 H   0  0  0  0  0  0  0  0  0  0  0  0
    1.4103   -0.5796    1.9229 H   0  0  0  0  0  0  0  0  0  0  0  0
   -0.0925   -4.4030   -0.8599 H   0  0  0  0  0  0  0  0  0  0  0  0
   -0.9482   -1.1388    1.8370 H   0  0  0  0  0  0  0  0  0  0  0  0
   -6.7094   -1.7938   -0.6647 H   0  0  0  0  0  0  0  0  0  0  0  0
    6.4952    2.1620    2.9225 H   0  0  0  0  0  0  0  0  0  0  0  0
   -2.8453    3.7779    0.5497 H   0  0  0  0  0  0  0  0  0  0  0  0
    5.0711    3.4233   -3.8285 H   0  0  0  0  0  0  0  0  0  0  0  0
   -6.0366    4.6751    1.6719 H   0  0  0  0  0  0  0  0  0  0  0  0
   -4.3847    5.1513    1.4545 H   0  0  0  0  0  0  0  0  0  0  0  0
  1 21  1  0  0  0  0
  1 23  1  0  0  0  0
  2 17  1  0  0  0  0
  2 49  1  0  0  0  0
  3 17  2  0  0  0  0
  4 18  2  0  0  0  0
  5 24  1  0  0  0  0
  5 51  1  0  0  0  0
  6 24  2  0  0  0  0
  7 32  2  0  0  0  0
  8 14  1  0  0  0  0
  8 18  1  0  0  0  0
  8 39  1  0  0  0  0
  9 22  1  0  0  0  0
  9 29  2  0  0  0  0
 10 30  1  0  0  0  0
 10 31  2  0  0  0  0
 11 32  1  0  0  0  0
 11 33  1  0  0  0  0
 11 50  1  0  0  0  0
 12 31  1  0  0  0  0
 12 33  2  0  0  0  0
 13 33  1  0  0  0  0
 13 52  1  0  0  0  0
 13 53  1  0  0  0  0
 14 15  1  0  0  0  0
 14 17  1  0  0  0  0
 14 34  1  0  0  0  0
 15 16  1  0  0  0  0
 15 35  1  0  0  0  0
 15 36  1  0  0  0  0
 16 24  1  0  0  0  0
 16 37  1  0  0  0  0
 16 38  1  0  0  0  0
 18 19  1  0  0  0  0
 19 25  2  0  0  0  0
 19 26  1  0  0  0  0
 20 21  1  0  0  0  0
 20 22  1  0  0  0  0
 20 40  1  0  0  0  0
 20 41  1  0  0  0  0
 21 42  1  0  0  0  0
 21 43  1  0  0  0  0
 22 30  2  0  0  0  0
 23 27  2  0  0  0  0
 23 28  1  0  0  0  0
 25 27  1  0  0  0  0
 25 44  1  0  0  0  0
 26 28  2  0  0  0  0
 26 45  1  0  0  0  0
 27 46  1  0  0  0  0
 28 47  1  0  0  0  0
 29 31  1  0  0  0  0
 29 32  1  0  0  0  0
 30 48  1  0  0  0  0
M  END
> <PUBCHEM_COMPOUND_CID>
135618550

> <PUBCHEM_CONFORMER_RMSD>
1.2

> <PUBCHEM_CONFORMER_DIVERSEORDER>
1
23
85
44
131
119
143
8
2
88
41
55
137
48
69
132
40
62
81
61
54
9
160
82
35
12
74
152
37
31
24
114
159
5
77
14
50
30
155
84
142
56
71
106
149
27
126
70
145
89
130
45
90
153
3
68
135
36
39
92
18
118
57
136
6
158
19
66
124
86
133
33
157
105
10
34
58
13
91
72
113
22
122
32
156
75
120
28
7
67
140
20
107
64
11
46
154
4
83
95
15
111
151
38
51
110
99
116
80
150
16
129
97
94
17
161
115
65
52
49
79
60
53
141
73
144
98
26
63
87
29
21
138
104
59
103
25
121
42
148
127
47
147
96
101
78
112
76
102
128
108
109
139
125
93
134
43
123
100
117
146

> <PUBCHEM_MMFF94_PARTIAL_CHARGES>
43
1 -0.33
10 -0.62
11 -0.49
12 -0.63
13 -0.85
14 0.36
16 0.06
17 0.66
18 0.54
19 0.09
2 -0.65
20 0.14
21 0.23
22 0.17
23 0.1
24 0.66
25 -0.15
26 -0.15
27 -0.15
28 -0.15
29 0.4
3 -0.57
30 0.16
31 0.49
32 0.54
33 0.56
39 0.37
4 -0.57
44 0.15
45 0.15
46 0.15
47 0.15
48 0.15
49 0.5
5 -0.65
50 0.37
51 0.5
52 0.4
53 0.4
6 -0.57
7 -0.57
8 -0.73
9 -0.62

> <PUBCHEM_EFFECTIVE_ROTOR_COUNT>
11

> <PUBCHEM_PHARMACOPHORE_FEATURES>
16
1 11 donor
1 13 donor
1 2 acceptor
1 3 acceptor
1 4 acceptor
1 5 acceptor
1 6 acceptor
1 7 acceptor
1 8 donor
1 9 acceptor
3 10 12 31 cation
3 2 3 17 anion
3 5 6 24 anion
6 11 12 29 31 32 33 rings
6 19 23 25 26 27 28 rings
6 9 10 22 29 30 31 rings

> <PUBCHEM_HEAVY_ATOM_COUNT>
33

> <PUBCHEM_ATOM_DEF_STEREO_COUNT>
1

> <PUBCHEM_ATOM_UDEF_STEREO_COUNT>
0

> <PUBCHEM_BOND_DEF_STEREO_COUNT>
0

> <PUBCHEM_BOND_UDEF_STEREO_COUNT>
0

> <PUBCHEM_ISOTOPIC_ATOM_COUNT>
0

> <PUBCHEM_COMPONENT_COUNT>
1

> <PUBCHEM_CACTVS_TAUTO_COUNT>
-1

> <PUBCHEM_CONFORMER_ID>
08155FF600000001

> <PUBCHEM_MMFF94_ENERGY>
78.1421

> <PUBCHEM_FEATURE_SELFOVERLAP>
81.408

> <PUBCHEM_SHAPE_FINGERPRINT>
100830 2 18261686942671606332
10556698 54 17845636093649528593
13165054 235 18261380187464651183
14790565 3 18055630621511667979
14840074 17 17603588555553531533
14849402 71 18116154359801830866
15001296 14 17896601876517540700
15357212 105 18055653719866807017
15513586 35 17243305095084658132
15968369 153 18054785345676786371
16708801 149 18261946435941924200
1768 23 18187938286806721100
20691028 202 18336826399314191513
22122407 14 17460036399821185576
23569914 152 17056416405624433726
245318 6 17822870769730778540
2838139 119 18271794740217856738
3610482 184 18409172142323425903
42767 46 18260840336056239860
44249763 50 17344607448302169914
50677037 204 18410000057573221509
6036956 94 18264489499775782133
6700243 42 17625282066400172558

> <PUBCHEM_SHAPE_MULTIPOLES>
617.87
18.31
5.37
2.16
7.61
0.81
-0.98
14.89
-2.43
-4.36
-0.03
5
1.8
-4.69

> <PUBCHEM_SHAPE_SELFOVERLAP>
1302.535

> <PUBCHEM_SHAPE_VOLUME>
346.8

> <PUBCHEM_COORDINATE_TYPE>
2
5
10

$$$$
