REMARK  Name = 135600316
REMARK  7 active torsions:
REMARK  status: ('A' for Active; 'I' for Inactive)
REMARK    1  A    between atoms: C_1  and  C_22
REMARK    2  A    between atoms: C_2  and  N_7
REMARK    3  A    between atoms: C_4  and  O_20
REMARK    4  A    between atoms: C_22  and  O_23
REMARK    5  A    between atoms: O_23  and  P_24
REMARK    6  A    between atoms: P_24  and  O_26
REMARK    7  A    between atoms: P_24  and  O_28
REMARK                            x       y       z     vdW  Elec       q    Type
REMARK                         _______ _______ _______ _____ _____    ______ ____
ROOT
ATOM      1  C   UNL     1       1.932  -1.321  -0.272  0.00  0.00    +0.059 C 
ATOM      2  C   UNL     1      -0.294  -1.916   0.497  0.00  0.00    +0.079 C 
ATOM      3  C   UNL     1       0.889  -0.972   0.788  0.00  0.00    +0.025 C 
ATOM      4  C   UNL     1       1.071  -1.587  -1.503  0.00  0.00    +0.115 C 
ATOM      5  C   UNL     1      -0.089  -2.411  -0.949  0.00  0.00    +0.049 C 
ENDROOT
BRANCH   2   7
ATOM      6  O   UNL     1      -5.294   1.387   0.744  0.00  0.00    -0.268 OA
ATOM      7  N   UNL     1      -1.633  -1.262   0.752  0.00  0.00    -0.263 N 
ATOM      8  N   UNL     1      -3.648  -0.911   1.657  0.00  0.00    -0.240 NA
ATOM      9  N   UNL     1      -1.527   0.576  -0.820  0.00  0.00    -0.357 NA
ATOM     10  N   UNL     1      -3.532   1.883  -0.706  0.00  0.00    -0.243 N 
ATOM     11  N   UNL     1      -1.805   2.457  -2.200  0.00  0.00    -0.321 N 
ATOM     12  C   UNL     1      -2.139  -0.152   0.140  0.00  0.00    +0.210 C 
ATOM     13  C   UNL     1      -2.578  -1.682   1.657  0.00  0.00    +0.222 C 
ATOM     14  C   UNL     1      -3.372   0.036   0.716  0.00  0.00    +0.176 C 
ATOM     15  C   UNL     1      -4.184   1.141   0.289  0.00  0.00    +0.273 C 
ATOM     16  C   UNL     1      -2.249   1.596  -1.230  0.00  0.00    +0.239 C 
ATOM     17  H   UNL     1      -4.005   2.666  -1.070  0.00  0.00    +0.159 HD
ATOM     18  H   UNL     1      -0.921   2.321  -2.611  0.00  0.00    +0.146 HD
ATOM     19  H   UNL     1      -2.370   3.212  -2.484  0.00  0.00    +0.146 HD
ENDBRANCH   2   7
BRANCH   4  20
ATOM     20  O   UNL     1       1.792  -2.303  -2.487  0.00  0.00    -0.384 OA
ATOM     21  H   UNL     1       2.520  -1.754  -2.818  0.00  0.00    +0.210 HD
ENDBRANCH   4  20
BRANCH   1  22
ATOM     22  C   UNL     1       2.961  -0.222  -0.484  0.00  0.00    +0.156 C 
BRANCH  22  23
ATOM     23  O   UNL     1       3.632   0.016   0.741  0.00  0.00    -0.273 OA
BRANCH  23  24
ATOM     24  P   UNL     1       4.787   1.151   0.781  0.00  0.00    +0.473 P 
ATOM     25  O   UNL     1       5.445   1.337   2.117  0.00  0.00    -0.227 OA
BRANCH  24  26
ATOM     26  O   UNL     1       5.779   0.698  -0.412  0.00  0.00    -0.303 OA
ATOM     27  H   UNL     1       5.273   0.601  -1.234  0.00  0.00    +0.222 HD
ENDBRANCH  24  26
BRANCH  24  28
ATOM     28  O   UNL     1       4.056   2.462   0.181  0.00  0.00    -0.303 OA
ATOM     29  H   UNL     1       3.661   2.248  -0.679  0.00  0.00    +0.222 HD
ENDBRANCH  24  28
ENDBRANCH  23  24
ENDBRANCH  22  23
ENDBRANCH   1  22
TORSDOF 7
