135618591
  -OEChem-03292013293D

 32 34  0     1  0  0  0  0  0999 V2000
   -2.0263   -0.5173    0.9634 O   0  0  0  0  0  0  0  0  0  0  0  0
   -3.4364    2.1268    0.4345 O   0  0  0  0  0  0  0  0  0  0  0  0
   -3.7961   -2.6097    0.3839 O   0  0  0  0  0  0  0  0  0  0  0  0
    4.6076   -1.3503   -0.4167 O   0  0  0  0  0  0  0  0  0  0  0  0
    0.2495   -0.2746    0.1363 N   0  0  0  0  0  0  0  0  0  0  0  0
   -1.1996    2.2801   -1.2441 N   0  0  0  0  0  0  0  0  0  0  0  0
    1.6875   -1.9007   -0.4054 N   0  0  0  0  0  0  0  0  0  0  0  0
    1.7868    1.5490    0.5676 N   0  0  0  0  0  0  0  0  0  0  0  0
    4.0555    0.8229    0.2338 N   0  0  0  0  0  0  0  0  0  0  0  0
   -1.7342    0.9859   -0.8476 C   0  0  1  0  0  0  0  0  0  0  0  0
   -1.0693    0.4092    0.4040 C   0  0  1  0  0  0  0  0  0  0  0  0
   -3.1965    1.0152   -0.4289 C   0  0  1  0  0  0  0  0  0  0  0  0
   -3.3261   -0.2676    0.3859 C   0  0  1  0  0  0  0  0  0  0  0  0
   -3.7128   -1.4738   -0.4588 C   0  0  0  0  0  0  0  0  0  0  0  0
    1.4949    0.2739    0.2219 C   0  0  0  0  0  0  0  0  0  0  0  0
    0.4175   -1.5839   -0.2441 C   0  0  0  0  0  0  0  0  0  0  0  0
    2.3540   -0.7468   -0.1158 C   0  0  0  0  0  0  0  0  0  0  0  0
    3.7736   -0.5019   -0.1262 C   0  0  0  0  0  0  0  0  0  0  0  0
    3.0707    1.7637    0.5562 C   0  0  0  0  0  0  0  0  0  0  0  0
   -1.6170    0.2861   -1.6851 H   0  0  0  0  0  0  0  0  0  0  0  0
   -0.8649    1.1676    1.1700 H   0  0  0  0  0  0  0  0  0  0  0  0
   -3.8902    1.0838   -1.2725 H   0  0  0  0  0  0  0  0  0  0  0  0
   -4.0258   -0.1609    1.2226 H   0  0  0  0  0  0  0  0  0  0  0  0
   -2.9612   -1.6856   -1.2256 H   0  0  0  0  0  0  0  0  0  0  0  0
   -4.6845   -1.3196   -0.9381 H   0  0  0  0  0  0  0  0  0  0  0  0
   -1.6954    2.6176   -2.0679 H   0  0  0  0  0  0  0  0  0  0  0  0
   -0.2220    2.1811   -1.5136 H   0  0  0  0  0  0  0  0  0  0  0  0
   -4.3677    2.0832    0.7114 H   0  0  0  0  0  0  0  0  0  0  0  0
   -0.4173   -2.2554   -0.3910 H   0  0  0  0  0  0  0  0  0  0  0  0
   -4.0465   -3.3643   -0.1758 H   0  0  0  0  0  0  0  0  0  0  0  0
    3.4915    2.7485    0.8120 H   0  0  0  0  0  0  0  0  0  0  0  0
    5.0287    1.1132    0.2608 H   0  0  0  0  0  0  0  0  0  0  0  0
  1 11  1  0  0  0  0
  1 13  1  0  0  0  0
  2 12  1  0  0  0  0
  2 28  1  0  0  0  0
  3 14  1  0  0  0  0
  3 30  1  0  0  0  0
  4 18  2  0  0  0  0
  5 11  1  0  0  0  0
  5 15  1  0  0  0  0
  5 16  1  0  0  0  0
  6 10  1  0  0  0  0
  6 26  1  0  0  0  0
  6 27  1  0  0  0  0
  7 16  2  0  0  0  0
  7 17  1  0  0  0  0
  8 15  1  0  0  0  0
  8 19  2  0  0  0  0
  9 18  1  0  0  0  0
  9 19  1  0  0  0  0
  9 32  1  0  0  0  0
 10 11  1  0  0  0  0
 10 12  1  0  0  0  0
 10 20  1  0  0  0  0
 11 21  1  0  0  0  0
 12 13  1  0  0  0  0
 12 22  1  0  0  0  0
 13 14  1  0  0  0  0
 13 23  1  0  0  0  0
 14 24  1  0  0  0  0
 14 25  1  0  0  0  0
 15 17  2  0  0  0  0
 16 29  1  0  0  0  0
 17 18  1  0  0  0  0
 19 31  1  0  0  0  0
M  END
> <PUBCHEM_COMPOUND_CID>
135618591

> <PUBCHEM_CONFORMER_RMSD>
0.6

> <PUBCHEM_CONFORMER_DIVERSEORDER>
1
11
15
6
5
7
8
16
12
10
3
2
14
13
4
9

> <PUBCHEM_MMFF94_PARTIAL_CHARGES>
26
1 -0.56
10 0.27
11 0.54
12 0.28
13 0.28
14 0.28
15 -0.03
16 0.04
17 0.14
18 0.72
19 0.45
2 -0.68
26 0.36
27 0.36
28 0.4
29 0.15
3 -0.68
30 0.4
31 0.06
32 0.37
4 -0.57
5 0.05
6 -0.99
7 -0.57
8 -0.58
9 -0.49

> <PUBCHEM_EFFECTIVE_ROTOR_COUNT>
3

> <PUBCHEM_PHARMACOPHORE_FEATURES>
13
1 1 acceptor
1 2 acceptor
1 2 donor
1 3 acceptor
1 3 donor
1 4 acceptor
1 6 cation
1 6 donor
1 9 donor
3 5 7 16 cation
5 1 10 11 12 13 rings
5 5 7 15 16 17 rings
6 8 9 15 17 18 19 rings

> <PUBCHEM_HEAVY_ATOM_COUNT>
19

> <PUBCHEM_ATOM_DEF_STEREO_COUNT>
4

> <PUBCHEM_ATOM_UDEF_STEREO_COUNT>
0

> <PUBCHEM_BOND_DEF_STEREO_COUNT>
0

> <PUBCHEM_BOND_UDEF_STEREO_COUNT>
0

> <PUBCHEM_ISOTOPIC_ATOM_COUNT>
0

> <PUBCHEM_COMPONENT_COUNT>
1

> <PUBCHEM_CACTVS_TAUTO_COUNT>
-1

> <PUBCHEM_CONFORMER_ID>
0815601F00000001

> <PUBCHEM_MMFF94_ENERGY>
40.1047

> <PUBCHEM_FEATURE_SELFOVERLAP>
66.121

> <PUBCHEM_SHAPE_FINGERPRINT>
10608611 8 18410570660847108361
11132069 177 18260824904017101013
11471102 20 18343298129003009376
11578080 2 14202532000154290711
11615757 297 17989209252288207778
12403259 226 18410288125371970336
12403259 415 18343299297197268912
12500047 106 18263923242153645445
12623949 98 17844269503533228343
12633257 1 18265328409022971737
12916754 54 18342460369513941843
12969540 114 17752465596284588309
13675066 3 17703502229900506810
15196674 1 18412544314726582672
15219456 202 18410854352047886920
15375462 6 18409164437093755886
15653759 3 18187082832426998640
16945 1 18120361073860983553
18175812 5 18410011030961182509
18186145 218 18341330003099502672
19141452 34 18411986892871065427
19930381 70 17983007049115253369
200 152 17917422134132171983
20645477 56 18263365798548822501
21501502 16 18336259050992570803
221490 88 18412831304357230138
23402539 116 17748542623783015870
23557571 272 18408327674712132853
23559900 14 18268707208783095930
2871803 45 18336818788606282479
3286 77 18342737446539132316
4028521 119 18041268864848374149
4214541 1 18412545379678005593
5104073 3 18413668006862019506
77779 3 18413109463334046392
8809292 202 18334580100910591930
9709674 26 18411705382638194263

> <PUBCHEM_SHAPE_MULTIPOLES>
342.63
8.13
2.35
0.84
1.83
0.05
0.07
1.39
-0.15
-1.1
0.16
-0.28
-0.19
0.78

> <PUBCHEM_SHAPE_SELFOVERLAP>
743.36

> <PUBCHEM_SHAPE_VOLUME>
182.5

> <PUBCHEM_COORDINATE_TYPE>
2
5
10

$$$$
