REMARK  Name = 135600340
REMARK  5 active torsions:
REMARK  status: ('A' for Active; 'I' for Inactive)
REMARK    1  A    between atoms: N_3  and  C1*_18
REMARK    2  A    between atoms: C2*_17  and  O2*_21
REMARK    3  A    between atoms: C3*_19  and  O3*_23
REMARK    4  A    between atoms: C4*_20  and  C5*_25
REMARK    5  A    between atoms: C5*_25  and  O5*_26
REMARK                            x       y       z     vdW  Elec       q    Type
REMARK                         _______ _______ _______ _____ _____    ______ ____
ROOT
ATOM      1 CL   UNL     1       0.164  -3.706   0.579  0.00  0.00    -0.032 Cl
ATOM      2  O   UNL     1      -4.545  -0.662  -0.233  0.00  0.00    -0.267 OA
ATOM      3  N   UNL     1      -0.076  -1.048   0.305  0.00  0.00    -0.201 N 
ATOM      4  N   UNL     1      -2.015  -2.158   0.190  0.00  0.00    -0.367 NA
ATOM      5  N   UNL     1      -0.848   1.226   0.007  0.00  0.00    -0.355 NA
ATOM      6  N   UNL     1      -3.229   1.266  -0.265  0.00  0.00    -0.242 N 
ATOM      7  N   UNL     1      -1.980   3.261  -0.309  0.00  0.00    -0.321 N 
ATOM      8  C   UNL     1      -1.043  -0.107   0.109  0.00  0.00    +0.229 C 
ATOM      9  C   UNL     1      -0.710  -2.267   0.347  0.00  0.00    +0.252 C 
ATOM     10  C   UNL     1      -2.217  -0.818   0.042  0.00  0.00    +0.231 C 
ATOM     11  C   UNL     1      -3.453  -0.114  -0.162  0.00  0.00    +0.286 C 
ATOM     12  C   UNL     1      -1.964   1.897  -0.181  0.00  0.00    +0.240 C 
ATOM     13  H   UNL     1      -4.014   1.843  -0.407  0.00  0.00    +0.159 HD
ATOM     14  H   UNL     1      -1.138   3.770  -0.261  0.00  0.00    +0.146 HD
ATOM     15  H   UNL     1      -2.833   3.733  -0.449  0.00  0.00    +0.146 HD
ENDROOT
BRANCH   3  18
ATOM     16  O4* UNL     1       1.653   0.494   1.072  0.00  0.00    -0.333 OA
ATOM     17  C2* UNL     1       2.134  -0.741  -0.888  0.00  0.00    +0.187 C 
ATOM     18  C1* UNL     1       1.403  -0.783   0.450  0.00  0.00    +0.230 C 
ATOM     19  C3* UNL     1       3.337   0.122  -0.563  0.00  0.00    +0.171 C 
ATOM     20  C4* UNL     1       2.744   1.152   0.390  0.00  0.00    +0.175 C 
BRANCH  17  21
ATOM     21  O2* UNL     1       2.488  -2.024  -1.365  0.00  0.00    -0.378 OA
ATOM     22  H2* UNL     1       1.683  -2.531  -1.557  0.00  0.00    +0.211 HD
ENDBRANCH  17  21
BRANCH  19  23
ATOM     23  O3* UNL     1       4.311  -0.633   0.156  0.00  0.00    -0.379 OA
ATOM     24  H3* UNL     1       4.704  -1.297  -0.432  0.00  0.00    +0.211 HD
ENDBRANCH  19  23
BRANCH  20  25
ATOM     25  C5* UNL     1       2.191   2.378  -0.324  0.00  0.00    +0.169 C 
BRANCH  25  26
ATOM     26  O5* UNL     1       1.656   3.264   0.643  0.00  0.00    -0.379 OA
ATOM     27  H5* UNL     1       1.300   4.050   0.200  0.00  0.00    +0.211 HD
ENDBRANCH  25  26
ENDBRANCH  20  25
ENDBRANCH   3  18
TORSDOF 5
