REMARK  Name = 135618549
REMARK  7 active torsions:
REMARK  status: ('A' for Active; 'I' for Inactive)
REMARK    1  A    between atoms: C_3  and  O_18
REMARK    2  A    between atoms: C_4  and  N_8
REMARK    3  A    between atoms: C_5  and  C_20
REMARK    4  A    between atoms: C_20  and  O_21
REMARK    5  A    between atoms: O_21  and  P_22
REMARK    6  A    between atoms: P_22  and  O_24
REMARK    7  A    between atoms: P_22  and  O_26
REMARK                            x       y       z     vdW  Elec       q    Type
REMARK                         _______ _______ _______ _____ _____    ______ ____
ROOT
ATOM      1 CL   UNL     1      -0.958  -3.110  -1.375  0.00  0.00    -0.108 Cl
ATOM      2  O   UNL     1       1.045  -0.755   1.074  0.00  0.00    -0.334 OA
ATOM      3  C   UNL     1       1.554  -2.581  -0.363  0.00  0.00    +0.159 C 
ATOM      4  C   UNL     1      -0.181  -1.197   0.450  0.00  0.00    +0.212 C 
ATOM      5  C   UNL     1       2.157  -1.487   0.513  0.00  0.00    +0.175 C 
ATOM      6  C   UNL     1       0.250  -1.944  -0.809  0.00  0.00    +0.156 C 
ENDROOT
BRANCH   4   8
ATOM      7  O   UNL     1      -4.626   2.741  -0.402  0.00  0.00    -0.268 OA
ATOM      8  N   UNL     1      -1.099  -0.029   0.188  0.00  0.00    -0.248 N 
ATOM      9  N   UNL     1      -1.736   2.059  -0.306  0.00  0.00    -0.241 NA
ATOM     10  N   UNL     1      -3.258  -1.086   0.502  0.00  0.00    -0.232 NA
ATOM     11  N   UNL     1      -5.025   0.509   0.157  0.00  0.00    -0.279 N 
ATOM     12  C   UNL     1      -2.462  -0.027   0.223  0.00  0.00    +0.154 C 
ATOM     13  C   UNL     1      -0.709   1.248  -0.135  0.00  0.00    +0.223 C 
ATOM     14  C   UNL     1      -2.822   1.265  -0.085  0.00  0.00    +0.162 C 
ATOM     15  C   UNL     1      -4.218   1.618  -0.135  0.00  0.00    +0.267 C 
ATOM     16  C   UNL     1      -4.518  -0.760   0.455  0.00  0.00    +0.220 C 
ATOM     17  H   UNL     1      -6.002   0.631   0.153  0.00  0.00    +0.152 HD
ENDBRANCH   4   8
BRANCH   3  18
ATOM     18  O   UNL     1       1.299  -3.721   0.457  0.00  0.00    -0.380 OA
ATOM     19  H   UNL     1       2.141  -4.116   0.733  0.00  0.00    +0.210 HD
ENDBRANCH   3  18
BRANCH   5  20
ATOM     20  C   UNL     1       3.027  -0.511  -0.266  0.00  0.00    +0.186 C 
BRANCH  20  21
ATOM     21  O   UNL     1       3.527   0.466   0.630  0.00  0.00    -0.271 OA
BRANCH  21  22
ATOM     22  P   UNL     1       4.489   1.630   0.045  0.00  0.00    +0.473 P 
ATOM     23  O   UNL     1       4.973   2.622   1.063  0.00  0.00    -0.227 OA
BRANCH  22  24
ATOM     24  O   UNL     1       3.636   2.255  -1.178  0.00  0.00    -0.303 OA
ATOM     25  H   UNL     1       3.368   1.544  -1.781  0.00  0.00    +0.222 HD
ENDBRANCH  22  24
BRANCH  22  26
ATOM     26  O   UNL     1       5.655   0.795  -0.702  0.00  0.00    -0.303 OA
ATOM     27  H   UNL     1       5.255   0.181  -1.338  0.00  0.00    +0.222 HD
ENDBRANCH  22  26
ENDBRANCH  21  22
ENDBRANCH  20  21
ENDBRANCH   5  20
TORSDOF 7
