REMARK  Name = 135618519
REMARK  3 active torsions:
REMARK  status: ('A' for Active; 'I' for Inactive)
REMARK    1  A    between atoms: C_5  and  N_15
REMARK    2  A    between atoms: N_15  and  C_17
REMARK    3  A    between atoms: C_17  and  C_18
REMARK                            x       y       z     vdW  Elec       q    Type
REMARK                         _______ _______ _______ _____ _____    ______ ____
ROOT
ATOM      1  O   UNL     1      -1.342  -2.303   0.040  0.00  0.00    -0.273 OA
ATOM      2  N   UNL     1      -3.254  -1.054   0.286  0.00  0.00    -0.246 N 
ATOM      3  N   UNL     1      -3.259   1.259  -0.074  0.00  0.00    -0.361 NA
ATOM      4  N   UNL     1      -5.227   0.155   0.554  0.00  0.00    -0.321 N 
ATOM      5  C   UNL     1      -1.205   0.044  -0.358  0.00  0.00    +0.199 C 
ATOM      6  C   UNL     1      -1.908   1.206  -0.378  0.00  0.00    +0.180 C 
ATOM      7  C   UNL     1      -1.918  -1.218   0.004  0.00  0.00    +0.251 C 
ATOM      8  C   UNL     1      -3.893   0.168   0.243  0.00  0.00    +0.239 C 
ATOM      9  H   UNL     1      -3.781  -1.849   0.532  0.00  0.00    +0.159 HD
ATOM     10  H   UNL     1      -5.669  -0.693   0.788  0.00  0.00    +0.146 HD
ATOM     11  H   UNL     1      -5.743   0.993   0.542  0.00  0.00    +0.146 HD
ATOM     12  N   UNL     1      -1.260   2.377  -0.712  0.00  0.00    -0.335 N 
ATOM     13  H   UNL     1      -1.757   3.227  -0.730  0.00  0.00    +0.144 HD
ATOM     14  H   UNL     1      -0.300   2.364  -0.931  0.00  0.00    +0.144 HD
ENDROOT
BRANCH   5  15
ATOM     15  N   UNL     1       0.124  -0.107  -0.641  0.00  0.00    -0.281 NA
ATOM     16  H   UNL     1       0.505   0.409  -1.388  0.00  0.00    +0.124 HD
BRANCH  15  17
ATOM     17  C   UNL     1       0.994  -0.983   0.098  0.00  0.00    +0.096 C 
BRANCH  17  18
ATOM     18  C   UNL     1       2.393  -0.434   0.128  0.00  0.00    -0.006 C 
ATOM     19  C   UNL     1       3.300  -0.779  -0.874  0.00  0.00    -0.003 C 
ATOM     20  C   UNL     1       2.784   0.422   1.158  0.00  0.00    -0.003 C 
ATOM     21  C   UNL     1       4.598  -0.270  -0.845  0.00  0.00    -0.000 C 
ATOM     22  C   UNL     1       4.082   0.932   1.186  0.00  0.00    -0.000 C 
ATOM     23  C   UNL     1       4.989   0.586   0.185  0.00  0.00    -0.000 C 
ENDBRANCH  17  18
ENDBRANCH  15  17
ENDBRANCH   5  15
TORSDOF 3
