REMARK  Name = 135616717
REMARK  5 active torsions:
REMARK  status: ('A' for Active; 'I' for Inactive)
REMARK    1  A    between atoms: N_2  and  C1*_14
REMARK    2  A    between atoms: C2*_15  and  O2*_18
REMARK    3  A    between atoms: C3*_16  and  O3*_20
REMARK    4  A    between atoms: C4*_17  and  C5*_22
REMARK    5  A    between atoms: C5*_22  and  O5*_23
REMARK                            x       y       z     vdW  Elec       q    Type
REMARK                         _______ _______ _______ _____ _____    ______ ____
ROOT
ATOM      1  O   UNL     1      -4.639   0.911  -0.276  0.00  0.00    -0.273 OA
ATOM      2  N   UNL     1      -0.134   0.128   0.193  0.00  0.00    -0.257 N 
ATOM      3  N   UNL     1      -1.644   1.618  -0.223  0.00  0.00    -0.242 NA
ATOM      4  N   UNL     1      -1.570  -1.846   0.512  0.00  0.00    -0.236 NA
ATOM      5  N   UNL     1      -3.875  -1.211   0.222  0.00  0.00    -0.283 N 
ATOM      6  C   UNL     1      -1.346  -0.529   0.250  0.00  0.00    +0.132 C 
ATOM      7  C   UNL     1      -0.328   1.420  -0.092  0.00  0.00    +0.172 C 
ATOM      8  C   UNL     1      -2.304   0.431  -0.018  0.00  0.00    +0.191 C 
ATOM      9  C   UNL     1      -3.698   0.153  -0.054  0.00  0.00    +0.246 C 
ATOM     10  C   UNL     1      -2.254   2.896  -0.532  0.00  0.00    +0.092 C 
ATOM     11  C   UNL     1      -2.841  -2.113   0.482  0.00  0.00    +0.220 C 
ATOM     12  H   UNL     1      -4.797  -1.558   0.232  0.00  0.00    +0.151 HD
ENDROOT
BRANCH   2  14
ATOM     13  O4* UNL     1       2.146   0.426   1.014  0.00  0.00    -0.333 OA
ATOM     14  C1* UNL     1       1.219  -0.505   0.418  0.00  0.00    +0.224 C 
ATOM     15  C2* UNL     1       1.878  -0.976  -0.874  0.00  0.00    +0.187 C 
ATOM     16  C3* UNL     1       3.348  -0.953  -0.504  0.00  0.00    +0.171 C 
ATOM     17  C4* UNL     1       3.436   0.286   0.379  0.00  0.00    +0.175 C 
BRANCH  15  18
ATOM     18  O2* UNL     1       1.433  -2.253  -1.288  0.00  0.00    -0.378 OA
ATOM     19  H2* UNL     1       0.490  -2.210  -1.512  0.00  0.00    +0.211 HD
ENDBRANCH  15  18
BRANCH  16  20
ATOM     20  O3* UNL     1       3.678  -2.088   0.296  0.00  0.00    -0.379 OA
ATOM     21  H3* UNL     1       3.628  -2.890  -0.246  0.00  0.00    +0.211 HD
ENDBRANCH  16  20
BRANCH  17  22
ATOM     22  C5* UNL     1       3.722   1.559  -0.406  0.00  0.00    +0.169 C 
BRANCH  22  23
ATOM     23  O5* UNL     1       3.774   2.647   0.500  0.00  0.00    -0.379 OA
ATOM     24  H5* UNL     1       3.956   3.466   0.012  0.00  0.00    +0.211 HD
ENDBRANCH  22  23
ENDBRANCH  17  22
ENDBRANCH   2  14
TORSDOF 5
