REMARK  Name = 135666651
REMARK  9 active torsions:
REMARK  status: ('A' for Active; 'I' for Inactive)
REMARK    1  A    between atoms: N_1  and  C_4
REMARK    2  A    between atoms: N_1  and  N_17
REMARK    3  A    between atoms: C_4  and  N_5
REMARK    4  A    between atoms: N_5  and  N_7
REMARK    5  A    between atoms: N_7  and  C_8
REMARK    6  A    between atoms: C_8  and  C_9
REMARK    7  A    between atoms: C_10  and  O_15
REMARK    8  A    between atoms: C_18  and  C_20
REMARK    9  A    between atoms: C_18  and  C_25
REMARK                            x       y       z     vdW  Elec       q    Type
REMARK                         _______ _______ _______ _____ _____    ______ ____
ROOT
ATOM      1  N   UNL     1      -0.576  -1.554   0.029  0.00  0.00    -0.217 N 
ATOM      2  H   UNL     1      -0.035  -0.732   0.021  0.00  0.00    +0.176 HD
ENDROOT
BRANCH   1   4
ATOM      3  S   UNL     1      -0.690  -4.279   0.038  0.00  0.00    -0.016 S 
ATOM      4  C   UNL     1       0.065  -2.780   0.024  0.00  0.00    +0.165 C 
BRANCH   4   5
ATOM      5  N   UNL     1       1.446  -2.706   0.008  0.00  0.00    -0.243 N 
ATOM      6  H   UNL     1       1.980  -3.534   0.003  0.00  0.00    +0.170 HD
BRANCH   5   7
ATOM      7  N   UNL     1       2.070  -1.504  -0.001  0.00  0.00    -0.127 NA
BRANCH   7   8
ATOM      8  C   UNL     1       3.360  -1.570  -0.008  0.00  0.00    +0.141 C 
BRANCH   8   9
ATOM      9  C   UNL     1       4.193  -0.355  -0.015  0.00  0.00    +0.031 C 
ATOM     10  C   UNL     1       5.585  -0.441  -0.020  0.00  0.00    +0.131 C 
ATOM     11  C   UNL     1       3.572   0.894  -0.015  0.00  0.00    +0.000 C 
ATOM     12  C   UNL     1       6.356   0.722  -0.025  0.00  0.00    +0.036 C 
ATOM     13  C   UNL     1       4.342   2.057  -0.020  0.00  0.00    -0.000 C 
ATOM     14  C   UNL     1       5.734   1.971  -0.025  0.00  0.00    +0.003 C 
BRANCH  10  15
ATOM     15  O   UNL     1       6.211  -1.651  -0.017  0.00  0.00    -0.506 OA
ATOM     16  H   UNL     1       5.706  -2.440  -0.014  0.00  0.00    +0.292 HD
ENDBRANCH  10  15
ENDBRANCH   8   9
ENDBRANCH   7   8
ENDBRANCH   5   7
ENDBRANCH   4   5
ENDBRANCH   1   4
BRANCH   1  17
ATOM     17  N   UNL     1      -1.926  -1.452   0.044  0.00  0.00    -0.178 NA
ATOM     18  C   UNL     1      -2.458  -0.263   0.025  0.00  0.00    +0.116 C 
BRANCH  18  20
ATOM     19  N   UNL     1      -4.450   1.103  -0.029  0.00  0.00    -0.242 NA
ATOM     20  C   UNL     1      -3.954  -0.154  -0.006  0.00  0.00    +0.100 C 
ATOM     21  C   UNL     1      -4.736  -1.298  -0.010  0.00  0.00    +0.021 C 
ATOM     22  C   UNL     1      -6.117  -1.141  -0.040  0.00  0.00    +0.003 C 
ATOM     23  C   UNL     1      -6.666   0.137  -0.064  0.00  0.00    +0.021 C 
ATOM     24  C   UNL     1      -5.797   1.216  -0.058  0.00  0.00    +0.099 C 
ENDBRANCH  18  20
BRANCH  18  25
ATOM     25  C   UNL     1      -1.670   0.994   0.029  0.00  0.00    +0.021 C 
ATOM     26  C   UNL     1      -1.324   1.598   1.237  0.00  0.00    +0.002 C 
ATOM     27  C   UNL     1      -1.274   1.571  -1.178  0.00  0.00    +0.002 C 
ATOM     28  C   UNL     1      -0.581   2.779   1.240  0.00  0.00    +0.000 C 
ATOM     29  C   UNL     1      -0.531   2.752  -1.175  0.00  0.00    +0.000 C 
ATOM     30  C   UNL     1      -0.185   3.356   0.034  0.00  0.00    +0.000 C 
ENDBRANCH  18  25
ENDBRANCH   1  17
TORSDOF 9
