REMARK  Name = 135618571
REMARK  6 active torsions:
REMARK  status: ('A' for Active; 'I' for Inactive)
REMARK    1  A    between atoms: N_3  and  C_12
REMARK    2  A    between atoms: C_5  and  O_23
REMARK    3  A    between atoms: C_6  and  O_25
REMARK    4  A    between atoms: C_7  and  O_27
REMARK    5  A    between atoms: C_8  and  O_29
REMARK    6  A    between atoms: C_19  and  O_31
REMARK                            x       y       z     vdW  Elec       q    Type
REMARK                         _______ _______ _______ _____ _____    ______ ____
ROOT
ATOM      1  O   UNL     1      -0.819  -2.696  -0.100  0.00  0.00    -0.287 OA
ATOM      2  O   UNL     1      -2.426   2.432  -0.048  0.00  0.00    -0.286 OA
ATOM      3  C   UNL     1       4.005  -0.059  -0.435  0.00  0.00    +0.141 C 
ATOM      4  C   UNL     1       3.566  -1.343   0.316  0.00  0.00    +0.168 C 
ATOM      5  C   UNL     1       3.155   1.155   0.025  0.00  0.00    +0.146 C 
ATOM      6  C   UNL     1       2.066  -1.679   0.125  0.00  0.00    +0.158 C 
ATOM      7  C   UNL     1       1.205  -0.456   0.094  0.00  0.00    -0.005 C 
ATOM      8  C   UNL     1       1.719   0.783   0.083  0.00  0.00    +0.089 C 
ATOM      9  C   UNL     1      -0.238  -0.402   0.042  0.00  0.00    +0.038 C 
ATOM     10  C   UNL     1       0.548   1.646   0.050  0.00  0.00    +0.073 C 
ATOM     11  C   UNL     1       5.506   0.203  -0.259  0.00  0.00    +0.034 C 
ATOM     12  C   UNL     1      -0.678   0.859   0.030  0.00  0.00    +0.054 C 
ATOM     13  C   UNL     1      -1.187  -1.530  -0.036  0.00  0.00    +0.195 C 
ATOM     14  C   UNL     1      -2.083   1.258  -0.024  0.00  0.00    +0.200 C 
ATOM     15  C   UNL     1      -2.632  -1.186  -0.049  0.00  0.00    +0.045 C 
ATOM     16  C   UNL     1      -3.062   0.149  -0.044  0.00  0.00    +0.076 C 
ATOM     17  C   UNL     1      -4.430   0.445  -0.063  0.00  0.00    +0.137 C 
ATOM     18  C   UNL     1      -3.578  -2.218  -0.072  0.00  0.00    +0.003 C 
ATOM     19  C   UNL     1      -5.365  -0.590  -0.085  0.00  0.00    +0.037 C 
ATOM     20  C   UNL     1      -4.940  -1.917  -0.089  0.00  0.00    +0.003 C 
ENDROOT
BRANCH  10  21
ATOM     21  N   UNL     1       0.594   2.955   0.031  0.00  0.00    -0.133 NA
ATOM     22  N   UNL     1       0.635   4.101   0.014  0.00  0.00    +0.004 NA
ENDBRANCH  10  21
BRANCH   3  23
ATOM     23  O   UNL     1       3.773  -0.264  -1.837  0.00  0.00    -0.382 OA
ATOM     24  H   UNL     1       2.830  -0.434  -1.988  0.00  0.00    +0.210 HD
ENDBRANCH   3  23
BRANCH   4  25
ATOM     25  O   UNL     1       4.343  -2.449  -0.151  0.00  0.00    -0.379 OA
ATOM     26  H   UNL     1       5.286  -2.252  -0.037  0.00  0.00    +0.211 HD
ENDBRANCH   4  25
BRANCH   5  27
ATOM     27  O   UNL     1       3.566   1.584   1.320  0.00  0.00    -0.381 OA
ATOM     28  H   UNL     1       4.504   1.831   1.296  0.00  0.00    +0.210 HD
ENDBRANCH   5  27
BRANCH   6  29
ATOM     29  O   UNL     1       1.665  -2.503   1.221  0.00  0.00    -0.378 OA
ATOM     30  H   UNL     1       2.219  -3.299   1.247  0.00  0.00    +0.211 HD
ENDBRANCH   6  29
BRANCH  17  31
ATOM     31  O   UNL     1      -4.908   1.722  -0.058  0.00  0.00    -0.505 OA
ATOM     32  H   UNL     1      -4.313   2.445  -0.044  0.00  0.00    +0.292 HD
ENDBRANCH  17  31
TORSDOF 6
