135618549
  -OEChem-03292013293D

 35 37  0     1  0  0  0  0  0999 V2000
   -0.9583   -3.1097   -1.3755 Cl  0  0  0  0  0  0  0  0  0  0  0  0
    4.4891    1.6302    0.0455 P   0  0  0  0  0  0  0  0  0  0  0  0
    1.0447   -0.7547    1.0742 O   0  0  0  0  0  0  0  0  0  0  0  0
    1.2988   -3.7207    0.4572 O   0  0  0  0  0  0  0  0  0  0  0  0
    3.5272    0.4660    0.6297 O   0  0  0  0  0  0  0  0  0  0  0  0
    3.6361    2.2546   -1.1782 O   0  0  0  0  0  0  0  0  0  0  0  0
    5.6547    0.7948   -0.7019 O   0  0  0  0  0  0  0  0  0  0  0  0
   -4.6261    2.7408   -0.4022 O   0  0  0  0  0  0  0  0  0  0  0  0
    4.9729    2.6222    1.0625 O   0  0  0  0  0  0  0  0  0  0  0  0
   -1.0994   -0.0287    0.1877 N   0  0  0  0  0  0  0  0  0  0  0  0
   -1.7355    2.0586   -0.3065 N   0  0  0  0  0  0  0  0  0  0  0  0
   -3.2579   -1.0856    0.5024 N   0  0  0  0  0  0  0  0  0  0  0  0
   -5.0248    0.5095    0.1572 N   0  0  0  0  0  0  0  0  0  0  0  0
    1.5541   -2.5812   -0.3631 C   0  0  2  0  0  0  0  0  0  0  0  0
   -0.1813   -1.1971    0.4497 C   0  0  1  0  0  0  0  0  0  0  0  0
    2.1567   -1.4869    0.5131 C   0  0  1  0  0  0  0  0  0  0  0  0
    0.2504   -1.9440   -0.8089 C   0  0  2  0  0  0  0  0  0  0  0  0
    3.0274   -0.5109   -0.2664 C   0  0  0  0  0  0  0  0  0  0  0  0
   -2.4625   -0.0274    0.2226 C   0  0  0  0  0  0  0  0  0  0  0  0
   -0.7091    1.2484   -0.1346 C   0  0  0  0  0  0  0  0  0  0  0  0
   -2.8220    1.2649   -0.0846 C   0  0  0  0  0  0  0  0  0  0  0  0
   -4.2179    1.6176   -0.1349 C   0  0  0  0  0  0  0  0  0  0  0  0
   -4.5175   -0.7605    0.4552 C   0  0  0  0  0  0  0  0  0  0  0  0
    2.1938   -2.8931   -1.1941 H   0  0  0  0  0  0  0  0  0  0  0  0
   -0.7029   -1.8342    1.1742 H   0  0  0  0  0  0  0  0  0  0  0  0
    2.7225   -1.8941    1.3588 H   0  0  0  0  0  0  0  0  0  0  0  0
    0.4387   -1.2416   -1.6292 H   0  0  0  0  0  0  0  0  0  0  0  0
    2.4449   -0.0049   -1.0424 H   0  0  0  0  0  0  0  0  0  0  0  0
    3.8624   -1.0415   -0.7341 H   0  0  0  0  0  0  0  0  0  0  0  0
    2.1593   -4.0658    0.7508 H   0  0  0  0  0  0  0  0  0  0  0  0
    0.3309    1.5281   -0.2334 H   0  0  0  0  0  0  0  0  0  0  0  0
   -5.3098   -1.4981    0.6561 H   0  0  0  0  0  0  0  0  0  0  0  0
   -6.0325    0.6383    0.1510 H   0  0  0  0  0  0  0  0  0  0  0  0
    3.9901    3.0364   -1.6533 H   0  0  0  0  0  0  0  0  0  0  0  0
    6.4248    1.2789   -1.0688 H   0  0  0  0  0  0  0  0  0  0  0  0
  1 17  1  0  0  0  0
  2  5  1  0  0  0  0
  2  6  1  0  0  0  0
  2  7  1  0  0  0  0
  2  9  2  0  0  0  0
  3 15  1  0  0  0  0
  3 16  1  0  0  0  0
  4 14  1  0  0  0  0
  4 30  1  0  0  0  0
  5 18  1  0  0  0  0
  6 34  1  0  0  0  0
  7 35  1  0  0  0  0
  8 22  2  0  0  0  0
 10 15  1  0  0  0  0
 10 19  1  0  0  0  0
 10 20  1  0  0  0  0
 11 20  2  0  0  0  0
 11 21  1  0  0  0  0
 12 19  1  0  0  0  0
 12 23  2  0  0  0  0
 13 22  1  0  0  0  0
 13 23  1  0  0  0  0
 13 33  1  0  0  0  0
 14 16  1  0  0  0  0
 14 17  1  0  0  0  0
 14 24  1  0  0  0  0
 15 17  1  0  0  0  0
 15 25  1  0  0  0  0
 16 18  1  0  0  0  0
 16 26  1  0  0  0  0
 17 27  1  0  0  0  0
 18 28  1  0  0  0  0
 18 29  1  0  0  0  0
 19 21  2  0  0  0  0
 20 31  1  0  0  0  0
 21 22  1  0  0  0  0
 23 32  1  0  0  0  0
M  END
> <PUBCHEM_COMPOUND_CID>
135618549

> <PUBCHEM_CONFORMER_RMSD>
0.8

> <PUBCHEM_CONFORMER_DIVERSEORDER>
1
45
38
16
33
23
50
15
55
12
4
42
39
32
58
30
10
3
14
43
49
22
57
40
59
18
47
5
34
56
35
2
51
21
20
19
41
8
25
26
53
31
9
36
52
17
54
24
28
48
27
11
44
46
6
7
37
13
29

> <PUBCHEM_MMFF94_PARTIAL_CHARGES>
29
1 -0.29
10 0.05
11 -0.57
12 -0.58
13 -0.49
14 0.28
15 0.54
16 0.28
17 0.29
18 0.28
19 -0.03
2 1.51
20 0.04
21 0.14
22 0.72
23 0.45
3 -0.56
30 0.4
31 0.15
32 0.06
33 0.37
34 0.5
35 0.5
4 -0.68
5 -0.55
6 -0.77
7 -0.77
8 -0.57
9 -0.7

> <PUBCHEM_EFFECTIVE_ROTOR_COUNT>
5

> <PUBCHEM_PHARMACOPHORE_FEATURES>
13
1 13 donor
1 3 acceptor
1 4 acceptor
1 4 donor
1 6 acceptor
1 7 acceptor
1 8 acceptor
1 9 acceptor
3 10 11 20 cation
4 2 6 7 9 anion
5 10 11 19 20 21 rings
5 3 14 15 16 17 rings
6 12 13 19 21 22 23 rings

> <PUBCHEM_HEAVY_ATOM_COUNT>
23

> <PUBCHEM_ATOM_DEF_STEREO_COUNT>
4

> <PUBCHEM_ATOM_UDEF_STEREO_COUNT>
0

> <PUBCHEM_BOND_DEF_STEREO_COUNT>
0

> <PUBCHEM_BOND_UDEF_STEREO_COUNT>
0

> <PUBCHEM_ISOTOPIC_ATOM_COUNT>
0

> <PUBCHEM_COMPONENT_COUNT>
1

> <PUBCHEM_CACTVS_TAUTO_COUNT>
-1

> <PUBCHEM_CONFORMER_ID>
08155FF500000001

> <PUBCHEM_MMFF94_ENERGY>
16.7153

> <PUBCHEM_FEATURE_SELFOVERLAP>
66.15

> <PUBCHEM_SHAPE_FINGERPRINT>
10090160 65 18260826029245694007
10498660 4 18411984641559239440
10871710 139 18196367254498727575
10906281 52 18337684048949735873
11578080 2 16372112331289443807
11796584 16 10807943634562204952
12173636 292 18267580389716069134
12403259 118 18335687322057353514
12788726 201 17248940174483476330
13583140 156 17242990403021238658
14123255 52 18412542137156954134
14341114 328 17240481437930263720
14528608 73 18413385427994420925
1454969 45 18340768264817852679
14790565 3 18412268371372921929
15196674 1 18408323263379987936
1813 80 13542463138070902114
19591789 44 18195529431112430473
21524375 3 18411985771573423298
22620623 9 16987149646474639190
23227448 37 18127408067311454820
23559900 14 18050562950454041643
2838139 119 18412537734937139484
350125 39 18336827494757887170
474 4 18041003951022852932
5104073 3 18188777128680341121
67856867 119 18263355911048947162
7808743 9 18267860778166397616
9709674 26 17909269083962271983
9981440 41 18261394476662406954

> <PUBCHEM_SHAPE_MULTIPOLES>
418.04
10.45
3.7
0.94
2.8
1.6
0.1
-9.33
-0.21
1.25
0.65
0.4
0.2
0.21

> <PUBCHEM_SHAPE_SELFOVERLAP>
873.523

> <PUBCHEM_SHAPE_VOLUME>
239.9

> <PUBCHEM_COORDINATE_TYPE>
2
5
10

$$$$
