REMARK  Name = 135618553
REMARK  5 active torsions:
REMARK  status: ('A' for Active; 'I' for Inactive)
REMARK    1  A    between atoms: C_6  and  N_25
REMARK    2  A    between atoms: N_13  and  C1*_19
REMARK    3  A    between atoms: C3*_16  and  O3*_20
REMARK    4  A    between atoms: C4*_18  and  C5*_22
REMARK    5  A    between atoms: C5*_22  and  O5*_23
REMARK                            x       y       z     vdW  Elec       q    Type
REMARK                         _______ _______ _______ _____ _____    ______ ____
ROOT
ATOM      1  O   UNL     1      -3.973   0.929  -1.161  0.00  0.00    -0.273 OA
ATOM      2  N   UNL     1      -0.695   0.464   1.187  0.00  0.00    -0.361 NA
ATOM      3  N   UNL     1      -2.595   1.669   0.526  0.00  0.00    -0.246 N 
ATOM      4  N   UNL     1      -1.245   2.481   2.247  0.00  0.00    -0.321 N 
ATOM      5  C   UNL     1      -1.014  -0.467   0.226  0.00  0.00    +0.194 C 
ATOM      6  C   UNL     1      -2.077  -0.403  -0.601  0.00  0.00    +0.197 C 
ATOM      7  C   UNL     1      -2.979   0.780  -0.456  0.00  0.00    +0.251 C 
ATOM      8  C   UNL     1      -1.474   1.498   1.321  0.00  0.00    +0.239 C 
ATOM      9  H   UNL     1      -3.150   2.470   0.670  0.00  0.00    +0.159 HD
ATOM     10  H   UNL     1      -0.465   2.422   2.845  0.00  0.00    +0.146 HD
ATOM     11  H   UNL     1      -1.860   3.247   2.315  0.00  0.00    +0.146 HD
ATOM     12  O   UNL     1       0.052  -3.867   0.315  0.00  0.00    -0.264 OA
ATOM     13  N   UNL     1      -0.139  -1.533   0.145  0.00  0.00    -0.205 N 
ATOM     14  C   UNL     1      -0.607  -2.833   0.356  0.00  0.00    +0.310 C 
ENDROOT
BRANCH  13  19
ATOM     15  O4* UNL     1       1.334  -0.131  -1.019  0.00  0.00    -0.335 OA
ATOM     16  C3* UNL     1       3.122  -0.044   0.520  0.00  0.00    +0.144 C 
ATOM     17  C2* UNL     1       2.070  -0.974   1.077  0.00  0.00    +0.083 C 
ATOM     18  C4* UNL     1       2.304   0.774  -0.466  0.00  0.00    +0.173 C 
ATOM     19  C1* UNL     1       1.239  -1.276  -0.157  0.00  0.00    +0.203 C 
BRANCH  16  20
ATOM     20  O3* UNL     1       3.696   0.752   1.535  0.00  0.00    -0.382 OA
ATOM     21  H3* UNL     1       4.206   0.189   2.138  0.00  0.00    +0.210 HD
ENDBRANCH  16  20
BRANCH  18  22
ATOM     22  C5* UNL     1       3.135   1.377  -1.586  0.00  0.00    +0.169 C 
BRANCH  22  23
ATOM     23  O5* UNL     1       2.276   2.104  -2.446  0.00  0.00    -0.379 OA
ATOM     24  H5* UNL     1       2.795   2.495  -3.166  0.00  0.00    +0.211 HD
ENDBRANCH  22  23
ENDBRANCH  18  22
ENDBRANCH  13  19
BRANCH   6  25
ATOM     25  N   UNL     1      -2.430  -1.302  -1.565  0.00  0.00    -0.308 NA
ATOM     26  H   UNL     1      -1.880  -2.105  -1.715  0.00  0.00    +0.120 HD
ATOM     27  H   UNL     1      -3.234  -1.148  -2.111  0.00  0.00    +0.120 HD
ENDBRANCH   6  25
TORSDOF 5
