REMARK  Name = 135625302
REMARK  8 active torsions:
REMARK  status: ('A' for Active; 'I' for Inactive)
REMARK    1  A    between atoms: C_1  and  C_2
REMARK    2  A    between atoms: C_1  and  C_12
REMARK    3  A    between atoms: C_2  and  CA_3
REMARK    4  A    between atoms: CA_3  and  N_4
REMARK    5  A    between atoms: CA_3  and  C_9
REMARK    6  A    between atoms: C_9  and  O_10
REMARK    7  A    between atoms: C_12  and  N_16
REMARK    8  A    between atoms: N_16  and  C_18
REMARK                            x       y       z     vdW  Elec       q    Type
REMARK                         _______ _______ _______ _____ _____    ______ ____
ROOT
ATOM      1  C   UNL     1      -1.528   0.722   0.669  0.00  0.00    +0.017 C 
ENDROOT
BRANCH   1   2
ATOM      2  C   UNL     1      -2.208  -0.446  -0.061  0.00  0.00    -0.010 C 
BRANCH   2   3
ATOM      3  CA  UNL     1      -3.654  -0.662   0.412  0.00  0.00    +0.036 C 
BRANCH   3   4
ATOM      4  N   UNL     1      -4.114  -1.989   0.011  0.00  0.00    +0.389 N 
ATOM      5  H1  UNL     1      -3.498  -2.697   0.408  0.00  0.00    -0.088 HD
ATOM      6  H2  UNL     1      -4.102  -2.060  -1.007  0.00  0.00    -0.088 HD
ATOM      7  H3  UNL     1      -5.065  -2.136   0.350  0.00  0.00    -0.088 HD
ENDBRANCH   3   4
BRANCH   3   9
ATOM      8  OXT UNL     1      -5.206   0.155  -1.280  0.00  0.00    -0.253 OA
ATOM      9  C   UNL     1      -4.620   0.324  -0.218  0.00  0.00    +0.293 C 
BRANCH   9  10
ATOM     10  O   UNL     1      -4.794   1.433   0.549  0.00  0.00    -0.482 OA
ATOM     11  H   UNL     1      -4.325   1.522   1.356  0.00  0.00    +0.295 HD
ENDBRANCH   9  10
ENDBRANCH   3   9
ENDBRANCH   2   3
ENDBRANCH   1   2
BRANCH   1  12
ATOM     12  C   UNL     1      -0.099   0.954   0.190  0.00  0.00    +0.092 C 
BRANCH  12  13
ATOM     13  N   UNL     1       0.714  -0.234   0.454  0.00  0.00    -0.186 NA
BRANCH  13  18
ATOM     14  O   UNL     1       5.121  -1.444  -0.074  0.00  0.00    -0.274 OA
ATOM     15  N   UNL     1       2.604   0.944  -0.428  0.00  0.00    -0.262 NA
ATOM     16  N   UNL     1       2.838  -1.136   0.306  0.00  0.00    -0.278 N 
ATOM     17  C   UNL     1       4.007   0.658  -0.656  0.00  0.00    +0.134 C 
ATOM     18  C   UNL     1       1.947  -0.119   0.125  0.00  0.00    +0.210 C 
ATOM     19  C   UNL     1       4.103  -0.771  -0.118  0.00  0.00    +0.239 C 
ATOM     20  C   UNL     1       4.890   1.611   0.120  0.00  0.00    +0.027 C 
ATOM     21  H   UNL     1       2.175   1.803  -0.647  0.00  0.00    +0.126 HD
ATOM     22  H   UNL     1       2.610  -2.015   0.688  0.00  0.00    +0.152 HD
ENDBRANCH  13  18
ENDBRANCH  12  13
ENDBRANCH   1  12
TORSDOF 8
