135783064
  -OEChem-03292013293D

 35 37  0     1  0  0  0  0  0999 V2000
   -1.5631    3.7102   -1.0146 S   0  0  0  0  0  0  0  0  0  0  0  0
    2.2960    0.3334    1.0788 O   0  0  0  0  0  0  0  0  0  0  0  0
    1.9606   -2.2290   -1.4314 O   0  0  0  0  0  0  0  0  0  0  0  0
    4.1786   -1.8525    0.1534 O   0  0  0  0  0  0  0  0  0  0  0  0
    3.5618    2.8105    0.7425 O   0  0  0  0  0  0  0  0  0  0  0  0
   -4.4423   -0.0646   -0.1571 O   0  0  0  0  0  0  0  0  0  0  0  0
    0.0753   -0.2400    0.2438 N   0  0  0  0  0  0  0  0  0  0  0  0
   -0.2051    1.0693    0.0780 N   0  0  0  0  0  0  0  0  0  0  0  0
   -1.0307   -2.3802    0.3825 N   0  0  0  0  0  0  0  0  0  0  0  0
   -3.4093   -2.1302    0.1548 N   0  0  0  0  0  0  0  0  0  0  0  0
   -3.5101    2.4515    0.2808 N   0  0  0  0  0  0  0  0  0  0  0  0
    2.2141   -0.9373   -0.9161 C   0  0  1  0  0  0  0  0  0  0  0  0
    1.5112   -0.6769    0.4122 C   0  0  1  0  0  0  0  0  0  0  0  0
    3.6688   -0.7205   -0.5498 C   0  0  1  0  0  0  0  0  0  0  0  0
    3.5830    0.4423    0.4306 C   0  0  1  0  0  0  0  0  0  0  0  0
    3.6611    1.8028   -0.2484 C   0  0  0  0  0  0  0  0  0  0  0  0
   -1.0307   -1.0339    0.2362 C   0  0  0  0  0  0  0  0  0  0  0  0
   -2.1001   -0.1875    0.0541 C   0  0  0  0  0  0  0  0  0  0  0  0
   -1.5391    1.0933   -0.0374 C   0  0  0  0  0  0  0  0  0  0  0  0
   -3.4313   -0.7380    0.0015 C   0  0  0  0  0  0  0  0  0  0  0  0
   -2.2131    2.3458   -0.2285 C   0  0  0  0  0  0  0  0  0  0  0  0
   -2.2357   -2.8686    0.3340 C   0  0  0  0  0  0  0  0  0  0  0  0
    1.9004   -0.2006   -1.6659 H   0  0  0  0  0  0  0  0  0  0  0  0
    1.4740   -1.5657    1.0533 H   0  0  0  0  0  0  0  0  0  0  0  0
    4.3134   -0.5445   -1.4157 H   0  0  0  0  0  0  0  0  0  0  0  0
    4.3384    0.3794    1.2222 H   0  0  0  0  0  0  0  0  0  0  0  0
    2.8351    1.9489   -0.9516 H   0  0  0  0  0  0  0  0  0  0  0  0
    4.6118    1.9217   -0.7771 H   0  0  0  0  0  0  0  0  0  0  0  0
    2.5280   -2.3477   -2.2120 H   0  0  0  0  0  0  0  0  0  0  0  0
    5.0986   -1.6530    0.3974 H   0  0  0  0  0  0  0  0  0  0  0  0
    3.6179    3.6676    0.2866 H   0  0  0  0  0  0  0  0  0  0  0  0
   -4.2953   -2.6270    0.1341 H   0  0  0  0  0  0  0  0  0  0  0  0
   -2.4235   -3.9487    0.4354 H   0  0  0  0  0  0  0  0  0  0  0  0
   -4.0371    3.3120    0.1728 H   0  0  0  0  0  0  0  0  0  0  0  0
   -3.9652    1.7060    0.7960 H   0  0  0  0  0  0  0  0  0  0  0  0
  1 21  2  0  0  0  0
  2 13  1  0  0  0  0
  2 15  1  0  0  0  0
  3 12  1  0  0  0  0
  3 29  1  0  0  0  0
  4 14  1  0  0  0  0
  4 30  1  0  0  0  0
  5 16  1  0  0  0  0
  5 31  1  0  0  0  0
  6 20  2  0  0  0  0
  7  8  1  0  0  0  0
  7 13  1  0  0  0  0
  7 17  1  0  0  0  0
  8 19  2  0  0  0  0
  9 17  1  0  0  0  0
  9 22  2  0  0  0  0
 10 20  1  0  0  0  0
 10 22  1  0  0  0  0
 10 32  1  0  0  0  0
 11 21  1  0  0  0  0
 11 34  1  0  0  0  0
 11 35  1  0  0  0  0
 12 13  1  0  0  0  0
 12 14  1  0  0  0  0
 12 23  1  0  0  0  0
 13 24  1  0  0  0  0
 14 15  1  0  0  0  0
 14 25  1  0  0  0  0
 15 16  1  0  0  0  0
 15 26  1  0  0  0  0
 16 27  1  0  0  0  0
 16 28  1  0  0  0  0
 17 18  2  0  0  0  0
 18 19  1  0  0  0  0
 18 20  1  0  0  0  0
 19 21  1  0  0  0  0
 22 33  1  0  0  0  0
M  END
> <PUBCHEM_COMPOUND_CID>
135783064

> <PUBCHEM_CONFORMER_RMSD>
0.6

> <PUBCHEM_CONFORMER_DIVERSEORDER>
1
48
57
4
43
32
8
33
61
12
11
6
59
29
46
45
5
39
26
63
14
9
51
38
19
18
60
23
42
49
56
44
22
31
15
7
28
16
25
53
21
24
30
10
50
41
27
35
54
13
47
36
40
3
20
58
55
37
2
62
17
52
34

> <PUBCHEM_MMFF94_PARTIAL_CHARGES>
29
1 -0.38
10 -0.49
11 -0.8
12 0.28
13 0.54
14 0.28
15 0.28
16 0.28
17 -0.03
18 -0.09
19 0.2
2 -0.56
20 0.72
21 0.53
22 0.45
29 0.4
3 -0.68
30 0.4
31 0.4
32 0.37
33 0.06
34 0.37
35 0.37
4 -0.68
5 -0.68
6 -0.57
7 0.31
8 -0.71
9 -0.58

> <PUBCHEM_EFFECTIVE_ROTOR_COUNT>
4

> <PUBCHEM_PHARMACOPHORE_FEATURES>
14
1 1 acceptor
1 10 donor
1 2 acceptor
1 3 acceptor
1 3 donor
1 4 acceptor
1 4 donor
1 5 acceptor
1 5 donor
1 6 acceptor
1 8 acceptor
5 2 12 13 14 15 rings
5 7 8 17 18 19 rings
6 9 10 17 18 20 22 rings

> <PUBCHEM_HEAVY_ATOM_COUNT>
22

> <PUBCHEM_ATOM_DEF_STEREO_COUNT>
4

> <PUBCHEM_ATOM_UDEF_STEREO_COUNT>
0

> <PUBCHEM_BOND_DEF_STEREO_COUNT>
0

> <PUBCHEM_BOND_UDEF_STEREO_COUNT>
0

> <PUBCHEM_ISOTOPIC_ATOM_COUNT>
0

> <PUBCHEM_COMPONENT_COUNT>
1

> <PUBCHEM_CACTVS_TAUTO_COUNT>
-1

> <PUBCHEM_CONFORMER_ID>
0817E29800000001

> <PUBCHEM_MMFF94_ENERGY>
58.0023

> <PUBCHEM_FEATURE_SELFOVERLAP>
71.19

> <PUBCHEM_SHAPE_FINGERPRINT>
10498660 4 18335418018928262607
10608611 8 18412544297446538664
10616163 171 18339928245911788350
10670039 82 18116726303907368012
1100329 8 17328020967452180699
11578080 2 17024838594735589116
12173636 292 18263922133915134693
12403259 226 18411979144169509282
12403260 363 18339349791068685494
12553582 1 18120110621543854367
12633257 1 18266457603523352896
12730499 353 17471296154768043525
13140716 1 18337116657441474737
14223421 5 18411417353857459312
14790565 3 18338803304390119697
15196674 1 18338799017447859611
15375358 24 18341049721865549231
15375462 6 18339361993423921990
15420108 30 15525499815548188986
15961568 22 18189617327342301516
16752209 62 18263633001080157371
16945 1 18408040697951192955
17134986 127 17831013525139272517
18186145 218 18126567812467571384
19591789 44 17977952285045455873
20510252 161 18412826859145109473
21524375 3 17754462257095792345
23402539 116 18410564106932801711
23419403 2 16961509155710948727
23557571 272 18263370355023638582
23558518 356 18334019401462011409
23559900 14 18413105052914537706
2748010 2 18265900159717712615
350125 39 18047472223394554587
4214541 1 18410856525654591168
474 4 17313674879198581460
5104073 3 18410577330947209226
7097593 13 17898268538555524698
7364860 26 17544479017130016457
81228 2 18335150807886101793
9709674 26 18343025454066460278
9925002 15 16760561366999270772

> <PUBCHEM_SHAPE_MULTIPOLES>
402.35
7.76
3.81
0.88
3.06
2.11
-0.15
0.28
0.19
-2
-0.49
0.46
0.04
1.04

> <PUBCHEM_SHAPE_SELFOVERLAP>
861.082

> <PUBCHEM_SHAPE_VOLUME>
225.4

> <PUBCHEM_COORDINATE_TYPE>
2
5
10

$$$$
