REMARK  Name = 135705572
REMARK  2 active torsions:
REMARK  status: ('A' for Active; 'I' for Inactive)
REMARK    1  A    between atoms: C_19  and  O_26
REMARK    2  A    between atoms: C_25  and  O_28
REMARK                            x       y       z     vdW  Elec       q    Type
REMARK                         _______ _______ _______ _____ _____    ______ ____
ROOT
ATOM      1  O   UNL     1       2.342  -3.446  -0.001  0.00  0.00    -0.222 OA
ATOM      2  O   UNL     1      -3.926   3.290   0.000  0.00  0.00    -0.288 OA
ATOM      3  N   UNL     1       1.597   1.861   0.001  0.00  0.00    -0.399 NA
ATOM      4  N   UNL     1      -1.456   1.859   0.000  0.00  0.00    -0.396 NA
ATOM      5  N   UNL     1       0.026  -3.790   0.001  0.00  0.00    -0.175 NA
ATOM      6  C   UNL     1       1.525  -0.476   0.000  0.00  0.00    +0.045 A 
ATOM      7  C   UNL     1       2.891  -0.070   0.000  0.00  0.00    +0.029 C 
ATOM      8  C   UNL     1       0.806   0.824   0.001  0.00  0.00    +0.161 A 
ATOM      9  C   UNL     1      -1.381  -0.470   0.001  0.00  0.00    +0.037 A 
ATOM     10  C   UNL     1      -0.663   0.825   0.001  0.00  0.00    +0.161 A 
ATOM     11  C   UNL     1       0.798  -1.593   0.001  0.00  0.00    +0.087 A 
ATOM     12  C   UNL     1      -0.648  -1.580   0.001  0.00  0.00    +0.034 A 
ATOM     13  C   UNL     1       4.134  -0.882   0.000  0.00  0.00    -0.016 C 
ATOM     14  C   UNL     1       2.857   1.277   0.001  0.00  0.00    +0.134 C 
ATOM     15  C   UNL     1      -2.758  -0.079   0.000  0.00  0.00    +0.038 C 
ATOM     16  C   UNL     1       5.429  -0.030  -0.005  0.00  0.00    +0.090 C 
ATOM     17  C   UNL     1      -2.715   1.270   0.000  0.00  0.00    +0.167 C 
ATOM     18  C   UNL     1       4.049   2.072   0.002  0.00  0.00    +0.064 C 
ATOM     19  C   UNL     1       5.250   1.473  -0.001  0.00  0.00    +0.118 C 
ATOM     20  C   UNL     1       1.196  -3.029   0.000  0.00  0.00    +0.155 C 
ATOM     21  C   UNL     1      -1.006  -2.996   0.001  0.00  0.00    +0.112 C 
ATOM     22  C   UNL     1      -3.983  -0.822   0.000  0.00  0.00    +0.035 C 
ATOM     23  C   UNL     1      -3.967   2.060  -0.001  0.00  0.00    +0.210 C 
ATOM     24  C   UNL     1      -5.298   1.313  -0.002  0.00  0.00    +0.135 C 
ATOM     25  C   UNL     1      -5.163  -0.185  -0.001  0.00  0.00    +0.119 C 
ENDROOT
BRANCH  19  26
ATOM     26  O   UNL     1       6.406   2.227   0.000  0.00  0.00    -0.509 OA
ATOM     27  H   UNL     1       7.242   1.803  -0.001  0.00  0.00    +0.292 HD
ENDBRANCH  19  26
BRANCH  25  28
ATOM     28  O   UNL     1      -6.342  -0.904  -0.001  0.00  0.00    -0.509 OA
ATOM     29  H   UNL     1      -6.320  -1.841   0.000  0.00  0.00    +0.292 HD
ENDBRANCH  25  28
TORSDOF 2
