135789923
  -OEChem-03292013293D

 40 41  0     0  0  0  0  0  0999 V2000
   -2.4709    0.6314   -2.4072 O   0  0  0  0  0  0  0  0  0  0  0  0
   -3.9487   -1.7029    2.1926 O   0  0  0  0  0  0  0  0  0  0  0  0
    5.2932    1.3964    0.6846 O   0  0  0  0  0  0  0  0  0  0  0  0
    1.2194   -3.1267   -1.0551 O   0  0  0  0  0  0  0  0  0  0  0  0
   -2.7347    2.4079    0.7671 N   0  0  0  0  0  0  0  0  0  0  0  0
   -1.3457   -2.2015   -0.8345 N   0  0  0  0  0  0  0  0  0  0  0  0
   -0.2722   -1.4421   -0.5108 N   0  0  0  0  0  0  0  0  0  0  0  0
   -2.5685   -0.2202   -0.1706 C   0  0  0  0  0  0  0  0  0  0  0  0
   -2.6606    0.0294    1.1942 C   0  0  0  0  0  0  0  0  0  0  0  0
   -2.5594    0.8426   -1.0670 C   0  0  0  0  0  0  0  0  0  0  0  0
   -2.6440    2.1261   -0.5520 C   0  0  0  0  0  0  0  0  0  0  0  0
   -2.6759   -1.0672    2.2027 C   0  0  0  0  0  0  0  0  0  0  0  0
   -2.7406    1.3493    1.6081 C   0  0  0  0  0  0  0  0  0  0  0  0
   -2.4809   -1.6042   -0.6687 C   0  0  0  0  0  0  0  0  0  0  0  0
   -2.6380    3.3038   -1.4710 C   0  0  0  0  0  0  0  0  0  0  0  0
    2.1241   -1.0966   -0.3009 C   0  0  0  0  0  0  0  0  0  0  0  0
    1.9827    0.2869   -0.4087 C   0  0  0  0  0  0  0  0  0  0  0  0
    3.3306   -1.6423    0.1378 C   0  0  0  0  0  0  0  0  0  0  0  0
    1.0134   -1.9702   -0.6448 C   0  0  0  0  0  0  0  0  0  0  0  0
    4.2539    0.5790    0.3613 C   0  0  0  0  0  0  0  0  0  0  0  0
    3.0475    1.1247   -0.0775 C   0  0  0  0  0  0  0  0  0  0  0  0
    4.3954   -0.8046    0.4690 C   0  0  0  0  0  0  0  0  0  0  0  0
    5.0799    2.8009    0.5514 C   0  0  0  0  0  0  0  0  0  0  0  0
   -1.8978   -1.8106    2.0013 H   0  0  0  0  0  0  0  0  0  0  0  0
   -2.4966   -0.6800    3.2120 H   0  0  0  0  0  0  0  0  0  0  0  0
   -2.8160    1.6116    2.6589 H   0  0  0  0  0  0  0  0  0  0  0  0
   -3.4235   -2.1254   -0.9011 H   0  0  0  0  0  0  0  0  0  0  0  0
   -3.4893    3.2577   -2.1577 H   0  0  0  0  0  0  0  0  0  0  0  0
   -2.7116    4.2411   -0.9092 H   0  0  0  0  0  0  0  0  0  0  0  0
   -1.7091    3.3326   -2.0494 H   0  0  0  0  0  0  0  0  0  0  0  0
    1.0713    0.7510   -0.7747 H   0  0  0  0  0  0  0  0  0  0  0  0
    3.4591   -2.7174    0.2329 H   0  0  0  0  0  0  0  0  0  0  0  0
    2.8721    2.1892   -0.1904 H   0  0  0  0  0  0  0  0  0  0  0  0
    5.3325   -1.2352    0.8113 H   0  0  0  0  0  0  0  0  0  0  0  0
   -0.4051   -0.5178   -0.1247 H   0  0  0  0  0  0  0  0  0  0  0  0
   -2.4062   -0.3177   -2.6005 H   0  0  0  0  0  0  0  0  0  0  0  0
   -3.9191   -2.4104    2.8590 H   0  0  0  0  0  0  0  0  0  0  0  0
    4.8890    3.0819   -0.4899 H   0  0  0  0  0  0  0  0  0  0  0  0
    4.2942    3.1547    1.2276 H   0  0  0  0  0  0  0  0  0  0  0  0
    6.0078    3.2986    0.8516 H   0  0  0  0  0  0  0  0  0  0  0  0
  1 10  1  0  0  0  0
  1 36  1  0  0  0  0
  2 12  1  0  0  0  0
  2 37  1  0  0  0  0
  3 20  1  0  0  0  0
  3 23  1  0  0  0  0
  4 19  2  0  0  0  0
  5 11  2  0  0  0  0
  5 13  1  0  0  0  0
  6  7  1  0  0  0  0
  6 14  2  0  0  0  0
  7 19  1  0  0  0  0
  7 35  1  0  0  0  0
  8  9  1  0  0  0  0
  8 10  2  0  0  0  0
  8 14  1  0  0  0  0
  9 12  1  0  0  0  0
  9 13  2  0  0  0  0
 10 11  1  0  0  0  0
 11 15  1  0  0  0  0
 12 24  1  0  0  0  0
 12 25  1  0  0  0  0
 13 26  1  0  0  0  0
 14 27  1  0  0  0  0
 15 28  1  0  0  0  0
 15 29  1  0  0  0  0
 15 30  1  0  0  0  0
 16 17  2  0  0  0  0
 16 18  1  0  0  0  0
 16 19  1  0  0  0  0
 17 21  1  0  0  0  0
 17 31  1  0  0  0  0
 18 22  2  0  0  0  0
 18 32  1  0  0  0  0
 20 21  2  0  0  0  0
 20 22  1  0  0  0  0
 21 33  1  0  0  0  0
 22 34  1  0  0  0  0
 23 38  1  0  0  0  0
 23 39  1  0  0  0  0
 23 40  1  0  0  0  0
M  END
> <PUBCHEM_COMPOUND_CID>
135789923

> <PUBCHEM_CONFORMER_RMSD>
0.8

> <PUBCHEM_CONFORMER_DIVERSEORDER>
1
23
15
22
21
25
6
24
12
16
19
5
13
17
20
10
7
18
14
3
9
8
11
2
4

> <PUBCHEM_MMFF94_PARTIAL_CHARGES>
32
1 -0.53
10 0.08
11 0.17
12 0.42
13 0.16
14 0.3
15 0.14
16 0.09
17 -0.15
18 -0.15
19 0.54
2 -0.68
20 0.08
21 -0.15
22 -0.15
23 0.28
26 0.15
27 0.06
3 -0.36
31 0.15
32 0.15
33 0.15
34 0.15
35 0.37
36 0.45
37 0.4
4 -0.57
5 -0.62
6 -0.51
7 -0.37
8 0.09
9 -0.14

> <PUBCHEM_EFFECTIVE_ROTOR_COUNT>
6

> <PUBCHEM_PHARMACOPHORE_FEATURES>
10
1 1 donor
1 2 acceptor
1 2 donor
1 3 acceptor
1 4 acceptor
1 5 acceptor
1 6 acceptor
1 7 donor
6 16 17 18 20 21 22 rings
6 5 8 9 10 11 13 rings

> <PUBCHEM_HEAVY_ATOM_COUNT>
23

> <PUBCHEM_ATOM_DEF_STEREO_COUNT>
0

> <PUBCHEM_ATOM_UDEF_STEREO_COUNT>
0

> <PUBCHEM_BOND_DEF_STEREO_COUNT>
1

> <PUBCHEM_BOND_UDEF_STEREO_COUNT>
0

> <PUBCHEM_ISOTOPIC_ATOM_COUNT>
0

> <PUBCHEM_COMPONENT_COUNT>
1

> <PUBCHEM_CACTVS_TAUTO_COUNT>
-1

> <PUBCHEM_CONFORMER_ID>
0817FD6300000001

> <PUBCHEM_MMFF94_ENERGY>
85.9744

> <PUBCHEM_FEATURE_SELFOVERLAP>
50.754

> <PUBCHEM_SHAPE_FINGERPRINT>
10670039 82 18266751349691380508
10764073 3 9222672293248304581
11552529 35 17168721837276441434
11640471 11 17130422376857470879
12403814 3 18412269462705766683
12596599 1 15123499303183242040
12596602 18 16733818843689485008
12892183 10 18040433313320812018
13583140 156 17968370170053177970
14468879 13 18335412422902698913
14957384 54 18191291702998396298
15295992 7 17611756604551432475
15342168 16 17988372472621324323
18186145 218 17988650688008312926
18219364 16 18343023250700400595
21095088 737 18129080359756411540
21475661 188 17401779514668647345
21623110 236 17912363435319574553
21864079 5 18202006499561200128
22749437 52 18271516512230529564
23503958 25 18336562529197528366
23559900 14 17846215506887763510
27216 239 18409451349831197273
3187 122 18040727990979374569
469060 322 18194400228307334419
5081480 168 17200545973245171108
633830 44 17775294833141138836
9981440 41 18265594546756104579

> <PUBCHEM_SHAPE_MULTIPOLES>
434.91
9.66
3.43
1.73
11.21
1.07
0.37
4.73
3.06
-0.27
-0.74
-2.49
-0.09
1.87

> <PUBCHEM_SHAPE_SELFOVERLAP>
928.448

> <PUBCHEM_SHAPE_VOLUME>
240.6

> <PUBCHEM_COORDINATE_TYPE>
2
5
10

$$$$
