REMARK  Name = 135794128
REMARK  7 active torsions:
REMARK  status: ('A' for Active; 'I' for Inactive)
REMARK    1  A    between atoms: N_3  and  C_12
REMARK    2  A    between atoms: C_5  and  O_23
REMARK    3  A    between atoms: C_6  and  O_31
REMARK    4  A    between atoms: C_7  and  O_25
REMARK    5  A    between atoms: C_8  and  O_27
REMARK    6  A    between atoms: C_19  and  O_29
REMARK    7  A    between atoms: O_31  and  C_33
REMARK                            x       y       z     vdW  Elec       q    Type
REMARK                         _______ _______ _______ _____ _____    ______ ____
ROOT
ATOM      1  O   UNL     1      -1.758  -2.756   0.161  0.00  0.00    -0.287 OA
ATOM      2  O   UNL     1      -2.439   2.552  -0.326  0.00  0.00    -0.286 OA
ATOM      3  C   UNL     1       3.419  -1.088  -0.703  0.00  0.00    +0.155 C 
ATOM      4  C   UNL     1       2.826   0.303  -0.354  0.00  0.00    +0.215 C 
ATOM      5  C   UNL     1       2.813  -2.181   0.214  0.00  0.00    +0.166 C 
ATOM      6  C   UNL     1       1.269  -2.260   0.133  0.00  0.00    +0.148 C 
ATOM      7  C   UNL     1       1.354   0.205  -0.187  0.00  0.00    +0.020 C 
ATOM      8  C   UNL     1       0.634  -0.912  -0.005  0.00  0.00    +0.078 C 
ATOM      9  C   UNL     1      -0.778  -0.604   0.002  0.00  0.00    +0.027 C 
ATOM     10  C   UNL     1       0.352   1.256  -0.269  0.00  0.00    +0.085 C 
ATOM     11  C   UNL     1       4.951  -1.084  -0.628  0.00  0.00    +0.036 C 
ATOM     12  C   UNL     1      -0.991   0.707  -0.140  0.00  0.00    +0.055 C 
ATOM     13  C   UNL     1      -1.913  -1.543   0.103  0.00  0.00    +0.192 C 
ATOM     14  C   UNL     1      -2.306   1.346  -0.177  0.00  0.00    +0.200 C 
ATOM     15  C   UNL     1      -3.273  -0.947   0.115  0.00  0.00    +0.045 C 
ATOM     16  C   UNL     1      -3.462   0.436  -0.021  0.00  0.00    +0.076 C 
ATOM     17  C   UNL     1      -4.755   0.971  -0.012  0.00  0.00    +0.137 C 
ATOM     18  C   UNL     1      -4.384  -1.788   0.258  0.00  0.00    +0.003 C 
ATOM     19  C   UNL     1      -5.856   0.126   0.132  0.00  0.00    +0.037 C 
ATOM     20  C   UNL     1      -5.671  -1.249   0.266  0.00  0.00    +0.003 C 
ENDROOT
BRANCH  10  21
ATOM     21  N   UNL     1       0.624   2.526  -0.447  0.00  0.00    -0.130 NA
ATOM     22  N   UNL     1       0.863   3.637  -0.602  0.00  0.00    +0.004 NA
ENDBRANCH  10  21
BRANCH   3  23
ATOM     23  O   UNL     1       3.063  -1.400  -2.059  0.00  0.00    -0.380 OA
ATOM     24  H   UNL     1       2.097  -1.411  -2.146  0.00  0.00    +0.211 HD
ENDBRANCH   3  23
BRANCH   5  25
ATOM     25  O   UNL     1       3.353  -3.454  -0.152  0.00  0.00    -0.380 OA
ATOM     26  H   UNL     1       4.321  -3.420  -0.106  0.00  0.00    +0.211 HD
ENDBRANCH   5  25
BRANCH   6  27
ATOM     27  O   UNL     1       0.802  -2.873   1.336  0.00  0.00    -0.381 OA
ATOM     28  H   UNL     1       1.210  -3.748   1.432  0.00  0.00    +0.210 HD
ENDBRANCH   6  27
BRANCH  17  29
ATOM     29  O   UNL     1      -5.002   2.305  -0.139  0.00  0.00    -0.505 OA
ATOM     30  H   UNL     1      -4.290   2.906  -0.237  0.00  0.00    +0.292 HD
ENDBRANCH  17  29
BRANCH   4  31
ATOM     31  O   UNL     1       3.390   0.789   0.861  0.00  0.00    -0.445 OA
BRANCH  31  33
ATOM     32  O   UNL     1       4.216   2.641  -0.245  0.00  0.00    -0.250 OA
ATOM     33  C   UNL     1       4.062   1.976   0.770  0.00  0.00    +0.318 C 
ATOM     34  C   UNL     1       4.598   2.361   2.115  0.00  0.00    +0.121 C 
ENDBRANCH  31  33
ENDBRANCH   4  31
TORSDOF 7
