135718453
  -OEChem-03292013293D

 34 36  0     1  0  0  0  0  0999 V2000
   -2.1362    0.2792   -1.0608 O   0  0  0  0  0  0  0  0  0  0  0  0
   -2.0423   -2.6043    0.2755 O   0  0  0  0  0  0  0  0  0  0  0  0
   -4.5376    1.6545   -1.6258 O   0  0  0  0  0  0  0  0  0  0  0  0
    4.2351    1.9551    0.7314 O   0  0  0  0  0  0  0  0  0  0  0  0
    0.1128    0.3140   -0.1224 N   0  0  0  0  0  0  0  0  0  0  0  0
   -3.9288   -1.1615    1.7786 N   0  0  0  0  0  0  0  0  0  0  0  0
    1.2713    2.0915    0.5851 N   0  0  0  0  0  0  0  0  0  0  0  0
    1.9130   -1.2445   -0.5579 N   0  0  0  0  0  0  0  0  0  0  0  0
    4.0266   -0.2322   -0.0595 N   0  0  0  0  0  0  0  0  0  0  0  0
    3.9105   -2.4458   -0.8531 N   0  0  0  0  0  0  0  0  0  0  0  0
   -2.8994   -0.4489    1.0427 C   0  0  1  0  0  0  0  0  0  0  0  0
   -1.6791   -1.2877    0.6920 C   0  0  2  0  0  0  0  0  0  0  0  0
   -1.0808   -0.5347   -0.5018 C   0  0  1  0  0  0  0  0  0  0  0  0
   -3.3510    0.0362   -0.3289 C   0  0  1  0  0  0  0  0  0  0  0  0
   -4.1910    1.3008   -0.2968 C   0  0  0  0  0  0  0  0  0  0  0  0
    1.4274   -0.0464   -0.1642 C   0  0  0  0  0  0  0  0  0  0  0  0
    0.0700    1.6086    0.3347 C   0  0  0  0  0  0  0  0  0  0  0  0
    2.1102    1.0623    0.2745 C   0  0  0  0  0  0  0  0  0  0  0  0
    3.5441    1.0178    0.3529 C   0  0  0  0  0  0  0  0  0  0  0  0
    3.2251   -1.3136   -0.4962 C   0  0  0  0  0  0  0  0  0  0  0  0
   -2.5650    0.4108    1.6381 H   0  0  0  0  0  0  0  0  0  0  0  0
   -0.9915   -1.3924    1.5379 H   0  0  0  0  0  0  0  0  0  0  0  0
   -0.7208   -1.2011   -1.2939 H   0  0  0  0  0  0  0  0  0  0  0  0
   -3.8863   -0.7500   -0.8777 H   0  0  0  0  0  0  0  0  0  0  0  0
   -3.6257    2.1349    0.1314 H   0  0  0  0  0  0  0  0  0  0  0  0
   -5.1108    1.1537    0.2769 H   0  0  0  0  0  0  0  0  0  0  0  0
   -4.7004   -0.5318    1.9930 H   0  0  0  0  0  0  0  0  0  0  0  0
   -3.5555   -1.4778    2.6724 H   0  0  0  0  0  0  0  0  0  0  0  0
   -1.2230   -3.0663    0.0285 H   0  0  0  0  0  0  0  0  0  0  0  0
   -0.8587    2.1463    0.4673 H   0  0  0  0  0  0  0  0  0  0  0  0
   -5.0710    2.4660   -1.5764 H   0  0  0  0  0  0  0  0  0  0  0  0
    5.0327   -0.3724   -0.0431 H   0  0  0  0  0  0  0  0  0  0  0  0
    3.4234   -3.2736   -1.1789 H   0  0  0  0  0  0  0  0  0  0  0  0
    4.9224   -2.4898   -0.8021 H   0  0  0  0  0  0  0  0  0  0  0  0
  1 13  1  0  0  0  0
  1 14  1  0  0  0  0
  2 12  1  0  0  0  0
  2 29  1  0  0  0  0
  3 15  1  0  0  0  0
  3 31  1  0  0  0  0
  4 19  2  0  0  0  0
  5 13  1  0  0  0  0
  5 16  1  0  0  0  0
  5 17  1  0  0  0  0
  6 11  1  0  0  0  0
  6 27  1  0  0  0  0
  6 28  1  0  0  0  0
  7 17  2  0  0  0  0
  7 18  1  0  0  0  0
  8 16  1  0  0  0  0
  8 20  2  0  0  0  0
  9 19  1  0  0  0  0
  9 20  1  0  0  0  0
  9 32  1  0  0  0  0
 10 20  1  0  0  0  0
 10 33  1  0  0  0  0
 10 34  1  0  0  0  0
 11 12  1  0  0  0  0
 11 14  1  0  0  0  0
 11 21  1  0  0  0  0
 12 13  1  0  0  0  0
 12 22  1  0  0  0  0
 13 23  1  0  0  0  0
 14 15  1  0  0  0  0
 14 24  1  0  0  0  0
 15 25  1  0  0  0  0
 15 26  1  0  0  0  0
 16 18  2  0  0  0  0
 17 30  1  0  0  0  0
 18 19  1  0  0  0  0
M  END
> <PUBCHEM_COMPOUND_CID>
135718453

> <PUBCHEM_CONFORMER_RMSD>
0.6

> <PUBCHEM_CONFORMER_DIVERSEORDER>
1
16
4
5
9
7
12
11
6
8
14
2
13
3
15
10

> <PUBCHEM_MMFF94_PARTIAL_CHARGES>
28
1 -0.56
10 -0.85
11 0.27
12 0.28
13 0.54
14 0.28
15 0.28
16 -0.03
17 0.04
18 0.14
19 0.72
2 -0.68
20 0.56
27 0.36
28 0.36
29 0.4
3 -0.68
30 0.15
31 0.4
32 0.37
33 0.4
34 0.4
4 -0.57
5 0.05
6 -0.99
7 -0.57
8 -0.58
9 -0.49

> <PUBCHEM_EFFECTIVE_ROTOR_COUNT>
3

> <PUBCHEM_PHARMACOPHORE_FEATURES>
14
1 1 acceptor
1 10 donor
1 2 acceptor
1 2 donor
1 3 acceptor
1 3 donor
1 4 acceptor
1 6 cation
1 6 donor
1 9 donor
3 5 7 17 cation
5 1 11 12 13 14 rings
5 5 7 16 17 18 rings
6 8 9 16 18 19 20 rings

> <PUBCHEM_HEAVY_ATOM_COUNT>
20

> <PUBCHEM_ATOM_DEF_STEREO_COUNT>
4

> <PUBCHEM_ATOM_UDEF_STEREO_COUNT>
0

> <PUBCHEM_BOND_DEF_STEREO_COUNT>
0

> <PUBCHEM_BOND_UDEF_STEREO_COUNT>
0

> <PUBCHEM_ISOTOPIC_ATOM_COUNT>
0

> <PUBCHEM_COMPONENT_COUNT>
1

> <PUBCHEM_CACTVS_TAUTO_COUNT>
-1

> <PUBCHEM_CONFORMER_ID>
0816E63500000001

> <PUBCHEM_MMFF94_ENERGY>
41.6748

> <PUBCHEM_FEATURE_SELFOVERLAP>
71.233

> <PUBCHEM_SHAPE_FINGERPRINT>
10608611 8 18337668719341395085
10922523 26 18333734640951331253
1100329 8 16679221090130160435
11471102 20 18271802415397780212
116883 192 18270117886390881404
11796584 16 17604429583819069114
12236239 1 16702018677526168884
12403259 415 18188207603374829021
12500047 106 18336540607547227711
12507560 40 18409453600388779073
12553582 1 18128550275415322966
13134695 92 17917705790615250176
13296908 3 18335706052409886938
13464514 151 17976537209591548069
13544592 145 18335139730949297510
13571099 22 18273210880881156293
13583140 156 17916579998124274505
13675066 3 18334299785601385889
14115302 16 18187377484363419318
14866123 147 17405156123234866826
15219456 202 18409730685581872016
15375358 24 18411411821744338260
15653759 3 18041283248435151473
16945 1 18271807981728195152
17349148 13 16128654158852000557
18186145 218 18114180791741333781
19049666 15 18335422335570842227
19784866 170 18340768260364486904
200 152 17489581234578538093
20279233 1 18409447015808307838
20645477 56 18334856156050213353
20645477 70 18201433645234002502
21065199 12 18337678614930110755
21065201 7 17748828505475345619
21521239 73 18199446832792883023
22943178 12 18335422387036713611
23175994 123 18269003006995190823
23557571 272 17894917364215341268
23559900 14 18410573955835844302
34934 24 18342729741620763996
495365 180 18059276713179054730
5104073 3 18410576179969469579
5161694 15 18335700507723042117
6049 1 18261683661469104665
77492 1 16773799203208072470
9709674 26 18411135865763751311

> <PUBCHEM_SHAPE_MULTIPOLES>
358.23
8.84
2.3
1.1
0.54
0.45
0.05
-0.75
-0.51
-0.88
0.03
1.12
0.03
2.14

> <PUBCHEM_SHAPE_SELFOVERLAP>
775.523

> <PUBCHEM_SHAPE_VOLUME>
194.2

> <PUBCHEM_COORDINATE_TYPE>
2
5
10

$$$$
