REMARK  Name = 135759443
REMARK  4 active torsions:
REMARK  status: ('A' for Active; 'I' for Inactive)
REMARK    1  A    between atoms: N_2  and  C_16
REMARK    2  A    between atoms: C_17  and  C_23
REMARK    3  A    between atoms: C_18  and  O_21
REMARK    4  A    between atoms: C_23  and  O_24
REMARK                            x       y       z     vdW  Elec       q    Type
REMARK                         _______ _______ _______ _____ _____    ______ ____
ROOT
ATOM      1  O   UNL     1      -4.655  -0.227  -0.157  0.00  0.00    -0.268 OA
ATOM      2  N   UNL     1      -0.305  -1.197   0.587  0.00  0.00    -0.235 N 
ATOM      3  N   UNL     1      -2.397  -1.986   0.636  0.00  0.00    -0.240 NA
ATOM      4  N   UNL     1      -0.702   1.063  -0.184  0.00  0.00    -0.357 NA
ATOM      5  N   UNL     1      -3.045   1.423  -0.532  0.00  0.00    -0.243 N 
ATOM      6  N   UNL     1      -1.491   3.145  -0.936  0.00  0.00    -0.321 N 
ATOM      7  C   UNL     1      -1.109  -0.174   0.176  0.00  0.00    +0.211 C 
ATOM      8  C   UNL     1      -1.126  -2.265   0.852  0.00  0.00    +0.224 C 
ATOM      9  C   UNL     1      -2.382  -0.689   0.217  0.00  0.00    +0.176 C 
ATOM     10  C   UNL     1      -3.488   0.145  -0.162  0.00  0.00    +0.273 C 
ATOM     11  C   UNL     1      -1.696   1.849  -0.537  0.00  0.00    +0.239 C 
ATOM     12  H   UNL     1      -3.727   2.076  -0.811  0.00  0.00    +0.159 HD
ATOM     13  H   UNL     1      -0.578   3.512  -0.964  0.00  0.00    +0.146 HD
ATOM     14  H   UNL     1      -2.256   3.707  -1.193  0.00  0.00    +0.146 HD
ENDROOT
BRANCH   2  16
ATOM     15  O   UNL     1       1.625   0.147   1.125  0.00  0.00    -0.331 OA
ATOM     16  C   UNL     1       1.198  -1.176   0.730  0.00  0.00    +0.218 C 
ATOM     17  C   UNL     1       2.838   0.433   0.410  0.00  0.00    +0.177 C 
ATOM     18  C   UNL     1       2.674  -0.237  -0.945  0.00  0.00    +0.162 C 
ATOM     19  C   UNL     1       1.943  -1.477  -0.541  0.00  0.00    +0.031 C 
ATOM     20  C   UNL     1       2.011  -2.675  -1.134  0.00  0.00    -0.003 C 
BRANCH  18  21
ATOM     21  O   UNL     1       3.922  -0.505  -1.551  0.00  0.00    -0.378 OA
ATOM     22  H   UNL     1       4.351   0.331  -1.792  0.00  0.00    +0.211 HD
ENDBRANCH  18  21
BRANCH  17  23
ATOM     23  C   UNL     1       3.025   1.938   0.318  0.00  0.00    +0.170 C 
BRANCH  23  24
ATOM     24  O   UNL     1       3.157   2.464   1.628  0.00  0.00    -0.379 OA
ATOM     25  H   UNL     1       3.277   3.425   1.580  0.00  0.00    +0.211 HD
ENDBRANCH  23  24
ENDBRANCH  17  23
ENDBRANCH   2  16
TORSDOF 4
