135764879
  -OEChem-03292013293D

 33 33  0     0  0  0  0  0  0999 V2000
   -3.4793   -1.7885   -0.2988 P   0  0  0  0  0  0  0  0  0  0  0  0
   -2.4482   -0.5491   -0.4147 O   0  0  0  0  0  0  0  0  0  0  0  0
    2.3544    1.8300   -0.6693 O   0  0  0  0  0  0  0  0  0  0  0  0
   -2.7079   -2.8018    0.6979 O   0  0  0  0  0  0  0  0  0  0  0  0
   -4.6789   -1.2076    0.6168 O   0  0  0  0  0  0  0  0  0  0  0  0
   -3.9034   -2.3876   -1.6078 O   0  0  0  0  0  0  0  0  0  0  0  0
    4.5384   -1.7306    0.4079 O   0  0  0  0  0  0  0  0  0  0  0  0
   -0.7139    3.5658    0.2661 N   0  0  0  0  0  0  0  0  0  0  0  0
    1.9971   -0.7180    0.0998 N   0  0  0  0  0  0  0  0  0  0  0  0
    2.2832   -2.0305   -0.0525 N   0  0  0  0  0  0  0  0  0  0  0  0
    3.7179   -3.8220   -0.0694 N   0  0  0  0  0  0  0  0  0  0  0  0
   -1.0649    1.1809    0.4514 C   0  0  0  0  0  0  0  0  0  0  0  0
    0.2422    0.9491    0.0376 C   0  0  0  0  0  0  0  0  0  0  0  0
   -2.0009    0.0708    0.7853 C   0  0  0  0  0  0  0  0  0  0  0  0
    1.0718    2.0239   -0.2620 C   0  0  0  0  0  0  0  0  0  0  0  0
    0.5504    3.3012   -0.1327 C   0  0  0  0  0  0  0  0  0  0  0  0
   -1.4907    2.4959    0.5486 C   0  0  0  0  0  0  0  0  0  0  0  0
    0.7447   -0.4150   -0.0829 C   0  0  0  0  0  0  0  0  0  0  0  0
    1.3989    4.4913   -0.4416 C   0  0  0  0  0  0  0  0  0  0  0  0
    3.5891   -2.4583    0.1202 C   0  0  0  0  0  0  0  0  0  0  0  0
   -1.5135   -0.6617    1.4382 H   0  0  0  0  0  0  0  0  0  0  0  0
   -2.8688    0.4543    1.3333 H   0  0  0  0  0  0  0  0  0  0  0  0
   -2.4995    2.7447    0.8635 H   0  0  0  0  0  0  0  0  0  0  0  0
    0.0149   -1.2102   -0.3144 H   0  0  0  0  0  0  0  0  0  0  0  0
    1.7237    4.4764   -1.4869 H   0  0  0  0  0  0  0  0  0  0  0  0
    0.8357    5.4185   -0.2879 H   0  0  0  0  0  0  0  0  0  0  0  0
    2.2725    4.5274    0.2172 H   0  0  0  0  0  0  0  0  0  0  0  0
    2.8029    2.6726   -0.8391 H   0  0  0  0  0  0  0  0  0  0  0  0
    1.5322   -2.6700   -0.2908 H   0  0  0  0  0  0  0  0  0  0  0  0
   -5.4673   -1.7685    0.7779 H   0  0  0  0  0  0  0  0  0  0  0  0
   -3.0909   -3.6898    0.8615 H   0  0  0  0  0  0  0  0  0  0  0  0
    2.9209   -4.4031   -0.3063 H   0  0  0  0  0  0  0  0  0  0  0  0
    4.6166   -4.2833    0.0233 H   0  0  0  0  0  0  0  0  0  0  0  0
  1  2  1  0  0  0  0
  1  4  1  0  0  0  0
  1  5  1  0  0  0  0
  1  6  2  0  0  0  0
  2 14  1  0  0  0  0
  3 15  1  0  0  0  0
  3 28  1  0  0  0  0
  4 31  1  0  0  0  0
  5 30  1  0  0  0  0
  7 20  2  0  0  0  0
  8 16  2  0  0  0  0
  8 17  1  0  0  0  0
  9 10  1  0  0  0  0
  9 18  2  0  0  0  0
 10 20  1  0  0  0  0
 10 29  1  0  0  0  0
 11 20  1  0  0  0  0
 11 32  1  0  0  0  0
 11 33  1  0  0  0  0
 12 13  1  0  0  0  0
 12 14  1  0  0  0  0
 12 17  2  0  0  0  0
 13 15  2  0  0  0  0
 13 18  1  0  0  0  0
 14 21  1  0  0  0  0
 14 22  1  0  0  0  0
 15 16  1  0  0  0  0
 16 19  1  0  0  0  0
 17 23  1  0  0  0  0
 18 24  1  0  0  0  0
 19 25  1  0  0  0  0
 19 26  1  0  0  0  0
 19 27  1  0  0  0  0
M  END
> <PUBCHEM_COMPOUND_CID>
135764879

> <PUBCHEM_CONFORMER_RMSD>
0.8

> <PUBCHEM_CONFORMER_DIVERSEORDER>
1
30
11
14
34
27
5
35
25
15
12
23
31
29
4
36
13
24
32
22
6
9
21
33
18
16
17
10
26
28
20
19
7
3
2
8

> <PUBCHEM_MMFF94_PARTIAL_CHARGES>
28
1 1.51
10 -0.37
11 -0.8
12 -0.14
13 0.09
14 0.42
15 0.08
16 0.17
17 0.16
18 0.3
19 0.14
2 -0.55
20 0.69
23 0.15
24 0.06
28 0.45
29 0.37
3 -0.53
30 0.5
31 0.5
32 0.37
33 0.37
4 -0.77
5 -0.77
6 -0.7
7 -0.57
8 -0.62
9 -0.51

> <PUBCHEM_EFFECTIVE_ROTOR_COUNT>
6

> <PUBCHEM_PHARMACOPHORE_FEATURES>
11
1 10 donor
1 11 donor
1 3 donor
1 4 acceptor
1 5 acceptor
1 6 acceptor
1 7 acceptor
1 8 acceptor
1 9 acceptor
4 1 4 5 6 anion
6 8 12 13 15 16 17 rings

> <PUBCHEM_HEAVY_ATOM_COUNT>
20

> <PUBCHEM_ATOM_DEF_STEREO_COUNT>
0

> <PUBCHEM_ATOM_UDEF_STEREO_COUNT>
0

> <PUBCHEM_BOND_DEF_STEREO_COUNT>
1

> <PUBCHEM_BOND_UDEF_STEREO_COUNT>
0

> <PUBCHEM_ISOTOPIC_ATOM_COUNT>
0

> <PUBCHEM_COMPONENT_COUNT>
1

> <PUBCHEM_CACTVS_TAUTO_COUNT>
-1

> <PUBCHEM_CONFORMER_ID>
08179B8F00000001

> <PUBCHEM_MMFF94_ENERGY>
15.4626

> <PUBCHEM_FEATURE_SELFOVERLAP>
55.916

> <PUBCHEM_SHAPE_FINGERPRINT>
10411042 1 18410015399043629923
1100329 8 18265619784321708417
11056379 131 18050859810478399430
11265709 11 18410857633508480563
12107183 9 18341347613235920675
12173636 292 17328301343022466308
12553582 1 18339098011364198439
12730499 353 17759802937908487219
13004483 165 18267289954957875147
13140716 1 18268436732605622976
138480 1 14518900510526323458
14508225 48 18339629036883224557
14844126 61 17975691697549588994
15042514 8 18049731711046621577
15927050 60 17402899316079956628
17539 30 18122893235985733807
20510252 161 17261028823604794704
20645477 70 17974557302508319739
21452121 199 18338501032379077346
23402539 116 17837199386268764493
23557571 272 17984706606766251110
23598288 3 17756456792462908905
23728640 28 17760652460157275706
257057 1 18411135814129301993
3060560 45 17689145034603822861
3091708 16 9067117677788760304
458136 41 17831592233512156569
59682541 52 17909797120474678887
81228 2 18196639710254807825

> <PUBCHEM_SHAPE_MULTIPOLES>
360.3
6.93
5.89
0.84
2.4
2.54
0.13
-9.85
0.31
-4.61
0.42
0.61
-0.16
-1.11

> <PUBCHEM_SHAPE_SELFOVERLAP>
731.116

> <PUBCHEM_SHAPE_VOLUME>
211.7

> <PUBCHEM_COORDINATE_TYPE>
2
5
10

$$$$
