REMARK  Name = 135783064
REMARK  7 active torsions:
REMARK  status: ('A' for Active; 'I' for Inactive)
REMARK    1  A    between atoms: N_2  and  C1*_14
REMARK    2  A    between atoms: C_8  and  C_25
REMARK    3  A    between atoms: C2*_13  and  O2*_17
REMARK    4  A    between atoms: C3*_15  and  O3*_19
REMARK    5  A    between atoms: C4*_16  and  C5*_21
REMARK    6  A    between atoms: C5*_21  and  O5*_22
REMARK    7  A    between atoms: C_25  and  N_26
REMARK                            x       y       z     vdW  Elec       q    Type
REMARK                         _______ _______ _______ _____ _____    ______ ____
ROOT
ATOM      1  O   UNL     1      -4.442  -0.065  -0.157  0.00  0.00    -0.274 OA
ATOM      2  N   UNL     1       0.075  -0.240   0.244  0.00  0.00    -0.170 N 
ATOM      3  N   UNL     1      -0.205   1.069   0.078  0.00  0.00    -0.177 NA
ATOM      4  N   UNL     1      -1.031  -2.380   0.383  0.00  0.00    -0.236 NA
ATOM      5  N   UNL     1      -3.409  -2.130   0.155  0.00  0.00    -0.283 N 
ATOM      6  C   UNL     1      -1.031  -1.034   0.236  0.00  0.00    +0.141 C 
ATOM      7  C   UNL     1      -2.100  -0.188   0.054  0.00  0.00    +0.175 C 
ATOM      8  C   UNL     1      -1.539   1.093  -0.037  0.00  0.00    +0.111 C 
ATOM      9  C   UNL     1      -3.431  -0.738   0.002  0.00  0.00    +0.236 C 
ATOM     10  C   UNL     1      -2.236  -2.869   0.334  0.00  0.00    +0.220 C 
ATOM     11  H   UNL     1      -4.266  -2.615   0.135  0.00  0.00    +0.151 HD
ENDROOT
BRANCH   2  14
ATOM     12  O4* UNL     1       2.296   0.333   1.079  0.00  0.00    -0.332 OA
ATOM     13  C2* UNL     1       2.214  -0.937  -0.916  0.00  0.00    +0.188 C 
ATOM     14  C1* UNL     1       1.511  -0.677   0.412  0.00  0.00    +0.243 C 
ATOM     15  C3* UNL     1       3.669  -0.721  -0.550  0.00  0.00    +0.171 C 
ATOM     16  C4* UNL     1       3.583   0.442   0.431  0.00  0.00    +0.176 C 
BRANCH  13  17
ATOM     17  O2* UNL     1       1.961  -2.229  -1.431  0.00  0.00    -0.378 OA
ATOM     18  H2* UNL     1       1.019  -2.312  -1.648  0.00  0.00    +0.211 HD
ENDBRANCH  13  17
BRANCH  15  19
ATOM     19  O3* UNL     1       4.179  -1.853   0.153  0.00  0.00    -0.379 OA
ATOM     20  H3* UNL     1       4.242  -2.608  -0.452  0.00  0.00    +0.211 HD
ENDBRANCH  15  19
BRANCH  16  21
ATOM     21  C5* UNL     1       3.661   1.803  -0.248  0.00  0.00    +0.169 C 
BRANCH  21  22
ATOM     22  O5* UNL     1       3.562   2.811   0.743  0.00  0.00    -0.379 OA
ATOM     23  H5* UNL     1       3.610   3.683   0.322  0.00  0.00    +0.211 HD
ENDBRANCH  21  22
ENDBRANCH  16  21
ENDBRANCH   2  14
BRANCH   8  25
ATOM     24  S   UNL     1      -1.563   3.710  -1.015  0.00  0.00    -0.034 S 
ATOM     25  C   UNL     1      -2.213   2.346  -0.229  0.00  0.00    +0.094 C 
BRANCH  25  26
ATOM     26  N   UNL     1      -3.510   2.451   0.281  0.00  0.00    -0.351 N 
ATOM     27  H   UNL     1      -4.014   3.291   0.175  0.00  0.00    +0.143 HD
ATOM     28  H   UNL     1      -3.920   1.687   0.746  0.00  0.00    +0.143 HD
ENDBRANCH  25  26
ENDBRANCH   8  25
TORSDOF 7
