135765031
  -OEChem-03292013293D

 28 29  0     1  0  0  0  0  0999 V2000
    3.1619    0.0718    1.8410 O   0  0  0  0  0  0  0  0  0  0  0  0
    3.1262    1.8215   -0.4152 O   0  0  0  0  0  0  0  0  0  0  0  0
   -3.1512   -2.1328   -0.3522 O   0  0  0  0  0  0  0  0  0  0  0  0
    0.6690    0.5370    0.3464 N   0  0  0  0  0  0  0  0  0  0  0  0
   -0.4546   -2.0129   -0.0212 N   0  0  0  0  0  0  0  0  0  0  0  0
   -3.3305    0.1706   -0.1627 N   0  0  0  0  0  0  0  0  0  0  0  0
   -1.4435    1.5391    0.1873 N   0  0  0  0  0  0  0  0  0  0  0  0
   -3.5815    2.4893    0.0203 N   0  0  0  0  0  0  0  0  0  0  0  0
    2.8892   -0.4293    0.5214 C   0  0  2  0  0  0  0  0  0  0  0  0
    3.6089    0.4827   -0.5057 C   0  0  1  0  0  0  0  0  0  0  0  0
    1.4200   -0.5850    0.3327 C   0  0  0  0  0  0  0  0  0  0  0  0
    3.4434    0.0122   -1.9440 C   0  0  0  0  0  0  0  0  0  0  0  0
   -0.6591    0.3751    0.1736 C   0  0  0  0  0  0  0  0  0  0  0  0
   -1.1938   -0.8869   -0.0057 C   0  0  0  0  0  0  0  0  0  0  0  0
    0.8688   -1.8356    0.1523 C   0  0  0  0  0  0  0  0  0  0  0  0
   -2.6411   -1.0313   -0.1909 C   0  0  0  0  0  0  0  0  0  0  0  0
   -2.7321    1.4146    0.0227 C   0  0  0  0  0  0  0  0  0  0  0  0
    3.3643   -1.4176    0.4736 H   0  0  0  0  0  0  0  0  0  0  0  0
    4.6756    0.5183   -0.2537 H   0  0  0  0  0  0  0  0  0  0  0  0
    2.4025    0.0899   -2.2755 H   0  0  0  0  0  0  0  0  0  0  0  0
    4.0295    0.6442   -2.6204 H   0  0  0  0  0  0  0  0  0  0  0  0
    3.7779   -1.0226   -2.0642 H   0  0  0  0  0  0  0  0  0  0  0  0
    1.4638   -2.7412    0.1395 H   0  0  0  0  0  0  0  0  0  0  0  0
    4.1279    0.0952    1.9510 H   0  0  0  0  0  0  0  0  0  0  0  0
    3.6345    2.3617   -1.0440 H   0  0  0  0  0  0  0  0  0  0  0  0
   -4.3384    0.1408   -0.2853 H   0  0  0  0  0  0  0  0  0  0  0  0
   -3.2342    3.4335    0.1482 H   0  0  0  0  0  0  0  0  0  0  0  0
   -4.5807    2.3736   -0.1091 H   0  0  0  0  0  0  0  0  0  0  0  0
  1  9  1  0  0  0  0
  1 24  1  0  0  0  0
  2 10  1  0  0  0  0
  2 25  1  0  0  0  0
  3 16  2  0  0  0  0
  4 11  1  0  0  0  0
  4 13  2  0  0  0  0
  5 14  2  0  0  0  0
  5 15  1  0  0  0  0
  6 16  1  0  0  0  0
  6 17  1  0  0  0  0
  6 26  1  0  0  0  0
  7 13  1  0  0  0  0
  7 17  2  0  0  0  0
  8 17  1  0  0  0  0
  8 27  1  0  0  0  0
  8 28  1  0  0  0  0
  9 10  1  0  0  0  0
  9 11  1  0  0  0  0
  9 18  1  0  0  0  0
 10 12  1  0  0  0  0
 10 19  1  0  0  0  0
 11 15  2  0  0  0  0
 12 20  1  0  0  0  0
 12 21  1  0  0  0  0
 12 22  1  0  0  0  0
 13 14  1  0  0  0  0
 14 16  1  0  0  0  0
 15 23  1  0  0  0  0
M  END
> <PUBCHEM_COMPOUND_CID>
135765031

> <PUBCHEM_CONFORMER_RMSD>
0.6

> <PUBCHEM_CONFORMER_DIVERSEORDER>
1
6
11
15
10
8
4
17
12
5
3
16
2
13
7
9
14

> <PUBCHEM_MMFF94_PARTIAL_CHARGES>
22
1 -0.68
10 0.28
11 0.17
13 0.49
14 0.4
15 0.16
16 0.54
17 0.56
2 -0.68
23 0.15
24 0.4
25 0.4
26 0.37
27 0.4
28 0.4
3 -0.57
4 -0.62
5 -0.62
6 -0.49
7 -0.63
8 -0.85
9 0.42

> <PUBCHEM_EFFECTIVE_ROTOR_COUNT>
2

> <PUBCHEM_PHARMACOPHORE_FEATURES>
11
1 1 acceptor
1 1 donor
1 2 acceptor
1 2 donor
1 3 acceptor
1 5 acceptor
1 6 donor
1 8 donor
3 4 7 13 cation
6 4 5 11 13 14 15 rings
6 6 7 13 14 16 17 rings

> <PUBCHEM_HEAVY_ATOM_COUNT>
17

> <PUBCHEM_ATOM_DEF_STEREO_COUNT>
2

> <PUBCHEM_ATOM_UDEF_STEREO_COUNT>
0

> <PUBCHEM_BOND_DEF_STEREO_COUNT>
0

> <PUBCHEM_BOND_UDEF_STEREO_COUNT>
0

> <PUBCHEM_ISOTOPIC_ATOM_COUNT>
0

> <PUBCHEM_COMPONENT_COUNT>
1

> <PUBCHEM_CACTVS_TAUTO_COUNT>
-1

> <PUBCHEM_CONFORMER_ID>
08179C2700000001

> <PUBCHEM_MMFF94_ENERGY>
41.6859

> <PUBCHEM_FEATURE_SELFOVERLAP>
55.918

> <PUBCHEM_SHAPE_FINGERPRINT>
10498660 4 18410293605418255677
10608611 8 18343576343672216288
11132069 177 18411410692062425097
11206711 2 18412821417294749887
12173636 292 18410853274185084861
12186901 62 18271259260579263887
12491281 212 18259992569240163000
13296908 3 17275102846885041778
13380535 21 18270125599972621515
13538477 17 18041834155522223754
13583140 156 16805882862797923505
14897335 6 18267294344730306617
15775835 57 18113907048170161572
16752209 62 18411415137406551143
16945 1 18339919419643537115
1741750 31 18200028431014371993
18186145 218 18060427893289742888
19422 9 18113613491181493450
20279233 1 16988836177268255654
20510252 161 18271529804927451249
20645476 183 18187374250358773926
20671657 1 18193842531077583114
21501502 16 18337103467322556411
22802520 49 17417822694844635784
23402539 116 18413668011695082348
23463225 33 18262228920283539362
23557571 272 17989200477669976578
23559900 14 18202004279564203150
23598291 2 17895187771367194146
2748010 2 17692522729897429907
474 4 17024316442850722124
4990 188 17703792466156970188
53812653 8 18336548321171588138
57096353 35 18262234533557960023
6049 1 17632297912335244712
7097593 13 17679563567951088226
7364860 26 17912075054178012778
7615 1 17967800652830743866
77492 1 17822006519147230842

> <PUBCHEM_SHAPE_MULTIPOLES>
307.34
6.85
2.15
1.06
0.82
0.1
-0.1
2.26
-1.07
-1.9
-0.1
1.44
0.02
-0.43

> <PUBCHEM_SHAPE_SELFOVERLAP>
657.476

> <PUBCHEM_SHAPE_VOLUME>
169.6

> <PUBCHEM_COORDINATE_TYPE>
2
5
10

$$$$
