135713853
  -OEChem-03292013293D

 32 32  0     0  0  0  0  0  0999 V2000
   -4.6693   -1.0528   -0.5849 S   0  0  0  0  0  0  0  0  0  0  0  0
    3.1620   -2.1942   -0.8125 O   0  0  0  0  0  0  0  0  0  0  0  0
    0.0600   -2.7982    0.6598 O   0  0  0  0  0  0  0  0  0  0  0  0
   -1.5152    1.1188    0.2450 N   0  0  0  0  0  0  0  0  0  0  0  0
    1.8012   -2.1306   -0.5067 N   0  0  0  0  0  0  0  0  0  0  0  0
   -0.6235   -1.5892    0.7989 N   0  0  0  0  0  0  0  0  0  0  0  0
   -2.3228    0.0625   -0.0113 N   0  0  0  0  0  0  0  0  0  0  0  0
   -4.1282    1.5272   -0.2492 N   0  0  0  0  0  0  0  0  0  0  0  0
    2.0812    1.5154   -0.0368 C   0  0  0  0  0  0  0  0  0  0  0  0
    0.7827    1.8040    0.7538 C   0  0  0  0  0  0  0  0  0  0  0  0
    2.5991    0.0847    0.2474 C   0  0  0  0  0  0  0  0  0  0  0  0
    3.1578    2.5214    0.4137 C   0  0  0  0  0  0  0  0  0  0  0  0
    1.8472    1.7095   -1.5481 C   0  0  0  0  0  0  0  0  0  0  0  0
   -0.2881    0.7888    0.4634 C   0  0  0  0  0  0  0  0  0  0  0  0
    1.5537   -0.9733    0.0063 C   0  0  0  0  0  0  0  0  0  0  0  0
    0.1619   -0.6349    0.4282 C   0  0  0  0  0  0  0  0  0  0  0  0
   -3.6597    0.2411   -0.2668 C   0  0  0  0  0  0  0  0  0  0  0  0
    0.4002    2.8052    0.5215 H   0  0  0  0  0  0  0  0  0  0  0  0
    0.9765    1.7703    1.8333 H   0  0  0  0  0  0  0  0  0  0  0  0
    2.8915   -0.0036    1.3021 H   0  0  0  0  0  0  0  0  0  0  0  0
    3.5045   -0.0754   -0.3456 H   0  0  0  0  0  0  0  0  0  0  0  0
    2.7724    1.5475   -2.1129 H   0  0  0  0  0  0  0  0  0  0  0  0
    1.5012    2.7267   -1.7642 H   0  0  0  0  0  0  0  0  0  0  0  0
    4.0998    2.3619   -0.1231 H   0  0  0  0  0  0  0  0  0  0  0  0
    3.3655    2.4267    1.4855 H   0  0  0  0  0  0  0  0  0  0  0  0
    2.8383    3.5530    0.2270 H   0  0  0  0  0  0  0  0  0  0  0  0
    1.0973    1.0161   -1.9427 H   0  0  0  0  0  0  0  0  0  0  0  0
   -1.9522   -0.8751   -0.0667 H   0  0  0  0  0  0  0  0  0  0  0  0
    3.2370   -3.0887   -1.1856 H   0  0  0  0  0  0  0  0  0  0  0  0
   -0.6095   -3.4368    0.9581 H   0  0  0  0  0  0  0  0  0  0  0  0
   -3.5142    2.3113   -0.0561 H   0  0  0  0  0  0  0  0  0  0  0  0
   -5.1043    1.7370   -0.4287 H   0  0  0  0  0  0  0  0  0  0  0  0
  1 17  2  0  0  0  0
  2  5  1  0  0  0  0
  2 29  1  0  0  0  0
  3  6  1  0  0  0  0
  3 30  1  0  0  0  0
  4  7  1  0  0  0  0
  4 14  2  0  0  0  0
  5 15  2  0  0  0  0
  6 16  2  0  0  0  0
  7 17  1  0  0  0  0
  7 28  1  0  0  0  0
  8 17  1  0  0  0  0
  8 31  1  0  0  0  0
  8 32  1  0  0  0  0
  9 10  1  0  0  0  0
  9 11  1  0  0  0  0
  9 12  1  0  0  0  0
  9 13  1  0  0  0  0
 10 14  1  0  0  0  0
 10 18  1  0  0  0  0
 10 19  1  0  0  0  0
 11 15  1  0  0  0  0
 11 20  1  0  0  0  0
 11 21  1  0  0  0  0
 12 24  1  0  0  0  0
 12 25  1  0  0  0  0
 12 26  1  0  0  0  0
 13 22  1  0  0  0  0
 13 23  1  0  0  0  0
 13 27  1  0  0  0  0
 14 16  1  0  0  0  0
 15 16  1  0  0  0  0
M  END
> <PUBCHEM_COMPOUND_CID>
135713853

> <PUBCHEM_CONFORMER_RMSD>
0.6

> <PUBCHEM_CONFORMER_DIVERSEORDER>
1
14
7
8
20
13
10
19
17
5
15
2
18
3
16
6
12
4
9
11

> <PUBCHEM_MMFF94_PARTIAL_CHARGES>
19
1 -0.38
10 0.06
11 0.06
14 0.39
15 0.39
16 0.45
17 0.5
2 -0.34
28 0.37
29 0.4
3 -0.34
30 0.4
31 0.37
32 0.37
4 -0.51
5 -0.51
6 -0.51
7 -0.37
8 -0.8

> <PUBCHEM_EFFECTIVE_ROTOR_COUNT>
2.6

> <PUBCHEM_PHARMACOPHORE_FEATURES>
10
1 1 acceptor
1 2 anion
1 3 anion
1 4 acceptor
1 5 acceptor
1 6 acceptor
1 7 donor
1 8 donor
3 9 12 13 hydrophobe
6 9 10 11 14 15 16 rings

> <PUBCHEM_HEAVY_ATOM_COUNT>
17

> <PUBCHEM_ATOM_DEF_STEREO_COUNT>
0

> <PUBCHEM_ATOM_UDEF_STEREO_COUNT>
0

> <PUBCHEM_BOND_DEF_STEREO_COUNT>
3

> <PUBCHEM_BOND_UDEF_STEREO_COUNT>
0

> <PUBCHEM_ISOTOPIC_ATOM_COUNT>
0

> <PUBCHEM_COMPONENT_COUNT>
1

> <PUBCHEM_CACTVS_TAUTO_COUNT>
-1

> <PUBCHEM_CONFORMER_ID>
0816D43D00000001

> <PUBCHEM_MMFF94_ENERGY>
62.8788

> <PUBCHEM_FEATURE_SELFOVERLAP>
50.794

> <PUBCHEM_SHAPE_FINGERPRINT>
11680986 33 18337117847147266218
11806522 49 18341611465128007910
13380535 76 18337950224456437752
14181834 199 18334858307781187044
14251717 144 18410285922132797335
15502722 9 18412545431201762901
15536298 74 18343017774722469741
15852999 172 18337949125034643312
16945 1 18339940276336938552
18186145 218 18113898226370398629
19422 9 18130788941297455919
20511035 2 18265051530162336482
20645477 70 18341885278347260575
20708731 107 18411139125548814508
21029758 11 18268998583653713850
21524375 3 18116705403656787025
21634736 98 18342455907127531791
221490 88 18411142437354072323
22182313 1 18122366802329793322
2255824 54 18334576802428611859
23402539 116 18123748656497023182
23402655 69 18342451573980147341
23526113 38 17630338655756079648
25 1 18411416258334947657
257057 1 17613988604223355858
2748010 2 18191043354798685970
2871803 45 18336253618565972567
3060560 45 18262794060564909991
3323516 105 18411703201216294479
543358 83 18194959652593622553
58051976 378 18263921214992242317
7364860 26 18343301453181005016
7832392 63 17908705033927426249
84936 182 18273212001804960737
9709674 26 18409731785510562531

> <PUBCHEM_SHAPE_MULTIPOLES>
317.06
6.82
2.83
0.95
8.75
1.25
-0.23
-1.53
-1.54
-1.98
-0.02
-0.36
-0.1
0.32

> <PUBCHEM_SHAPE_SELFOVERLAP>
638.613

> <PUBCHEM_SHAPE_VOLUME>
189.8

> <PUBCHEM_COORDINATE_TYPE>
2
5
10

$$$$
