REMARK  Name = 135703731
REMARK  4 active torsions:
REMARK  status: ('A' for Active; 'I' for Inactive)
REMARK    1  A    between atoms: N_2  and  C1*_16
REMARK    2  A    between atoms: C3*_18  and  O3*_20
REMARK    3  A    between atoms: C4*_19  and  C5*_22
REMARK    4  A    between atoms: C5*_22  and  O5*_23
REMARK                            x       y       z     vdW  Elec       q    Type
REMARK                         _______ _______ _______ _____ _____    ______ ____
ROOT
ATOM      1  O   UNL     1       1.238   2.288   0.443  0.00  0.00    -0.272 OA
ATOM      2  N   UNL     1      -0.004  -0.440   0.063  0.00  0.00    -0.273 N 
ATOM      3  N   UNL     1       3.468  -1.168  -0.195  0.00  0.00    -0.376 NA
ATOM      4  N   UNL     1       3.263   1.193   0.188  0.00  0.00    -0.246 N 
ATOM      5  N   UNL     1       5.368   0.195  -0.057  0.00  0.00    -0.321 N 
ATOM      6  C   UNL     1       1.307  -0.049   0.071  0.00  0.00    +0.205 C 
ATOM      7  C   UNL     1      -0.068  -1.798  -0.149  0.00  0.00    +0.066 C 
ATOM      8  C   UNL     1       2.069  -1.171  -0.138  0.00  0.00    +0.140 C 
ATOM      9  C   UNL     1       1.219  -2.282  -0.278  0.00  0.00    +0.046 C 
ATOM     10  C   UNL     1       1.870   1.254   0.254  0.00  0.00    +0.254 C 
ATOM     11  C   UNL     1       4.008   0.019  -0.029  0.00  0.00    +0.237 C 
ATOM     12  H   UNL     1       3.762   2.035   0.300  0.00  0.00    +0.159 HD
ATOM     13  H   UNL     1       5.961  -0.577  -0.203  0.00  0.00    +0.146 HD
ATOM     14  H   UNL     1       5.751   1.093   0.070  0.00  0.00    +0.146 HD
ENDROOT
BRANCH   2  16
ATOM     15  O4* UNL     1      -2.289  -0.234   0.907  0.00  0.00    -0.335 OA
ATOM     16  C1* UNL     1      -1.205   0.452   0.253  0.00  0.00    +0.195 C 
ATOM     17  C2* UNL     1      -1.765   0.989  -1.059  0.00  0.00    +0.083 C 
ATOM     18  C3* UNL     1      -3.206   1.263  -0.698  0.00  0.00    +0.144 C 
ATOM     19  C4* UNL     1      -3.533   0.141   0.280  0.00  0.00    +0.173 C 
BRANCH  18  20
ATOM     20  O3* UNL     1      -3.273   2.518  -0.026  0.00  0.00    -0.382 OA
ATOM     21  H3* UNL     1      -3.065   3.231  -0.651  0.00  0.00    +0.210 HD
ENDBRANCH  18  20
BRANCH  19  22
ATOM     22  C5* UNL     1      -4.103  -1.092  -0.407  0.00  0.00    +0.169 C 
BRANCH  22  23
ATOM     23  O5* UNL     1      -4.364  -2.079   0.576  0.00  0.00    -0.379 OA
ATOM     24  H5* UNL     1      -4.728  -2.870   0.150  0.00  0.00    +0.211 HD
ENDBRANCH  22  23
ENDBRANCH  19  22
ENDBRANCH   2  16
TORSDOF 4
