135718464
  -OEChem-03292013293D

 29 30  0     0  0  0  0  0  0999 V2000
    2.1527   -2.2791    0.1128 O   0  0  0  0  0  0  0  0  0  0  0  0
   -0.9730    2.2140   -0.1151 O   0  0  0  0  0  0  0  0  0  0  0  0
   -3.6060    1.2628   -1.1754 O   0  0  0  0  0  0  0  0  0  0  0  0
    4.0879    0.8957    0.9350 O   0  0  0  0  0  0  0  0  0  0  0  0
    1.6937    2.5544   -0.0713 N   0  0  0  0  0  0  0  0  0  0  0  0
    4.1357   -0.3377   -1.0164 N   0  0  0  0  0  0  0  0  0  0  0  0
   -0.8628   -0.1442   -0.0118 C   0  0  0  0  0  0  0  0  0  0  0  0
   -0.0069   -1.2506    0.0463 C   0  0  0  0  0  0  0  0  0  0  0  0
   -2.2560   -0.2939   -0.0273 C   0  0  0  0  0  0  0  0  0  0  0  0
    1.4656   -1.0808    0.0605 C   0  0  0  0  0  0  0  0  0  0  0  0
   -0.2872    1.2050   -0.0584 C   0  0  0  0  0  0  0  0  0  0  0  0
    2.0530    0.1336    0.0238 C   0  0  0  0  0  0  0  0  0  0  0  0
    1.2056    1.3572   -0.0365 C   0  0  0  0  0  0  0  0  0  0  0  0
   -0.5981   -2.5263    0.0893 C   0  0  0  0  0  0  0  0  0  0  0  0
   -2.8156   -1.5673    0.0155 C   0  0  0  0  0  0  0  0  0  0  0  0
   -1.9876   -2.6830    0.0740 C   0  0  0  0  0  0  0  0  0  0  0  0
   -3.2033    0.8142   -0.0865 C   0  0  0  0  0  0  0  0  0  0  0  0
    3.5215    0.2787    0.0430 C   0  0  0  0  0  0  0  0  0  0  0  0
   -3.7193    1.4475    1.1984 C   0  0  0  0  0  0  0  0  0  0  0  0
   -0.0058   -3.4355    0.1526 H   0  0  0  0  0  0  0  0  0  0  0  0
   -3.8937   -1.7066    0.0054 H   0  0  0  0  0  0  0  0  0  0  0  0
   -2.4202   -3.6787    0.1118 H   0  0  0  0  0  0  0  0  0  0  0  0
   -3.5208    2.5221    1.1776 H   0  0  0  0  0  0  0  0  0  0  0  0
   -3.2143    1.0161    2.0673 H   0  0  0  0  0  0  0  0  0  0  0  0
   -4.7928    1.2612    1.2838 H   0  0  0  0  0  0  0  0  0  0  0  0
    1.7929   -2.8667   -0.5730 H   0  0  0  0  0  0  0  0  0  0  0  0
    0.9422    3.2512   -0.1105 H   0  0  0  0  0  0  0  0  0  0  0  0
    3.6230   -0.8336   -1.7390 H   0  0  0  0  0  0  0  0  0  0  0  0
    5.1451   -0.3122   -1.1178 H   0  0  0  0  0  0  0  0  0  0  0  0
  1 10  1  0  0  0  0
  1 26  1  0  0  0  0
  2 11  2  0  0  0  0
  3 17  2  0  0  0  0
  4 18  2  0  0  0  0
  5 13  2  0  0  0  0
  5 27  1  0  0  0  0
  6 18  1  0  0  0  0
  6 28  1  0  0  0  0
  6 29  1  0  0  0  0
  7  8  2  0  0  0  0
  7  9  1  0  0  0  0
  7 11  1  0  0  0  0
  8 10  1  0  0  0  0
  8 14  1  0  0  0  0
  9 15  2  0  0  0  0
  9 17  1  0  0  0  0
 10 12  2  0  0  0  0
 11 13  1  0  0  0  0
 12 13  1  0  0  0  0
 12 18  1  0  0  0  0
 14 16  2  0  0  0  0
 14 20  1  0  0  0  0
 15 16  1  0  0  0  0
 15 21  1  0  0  0  0
 16 22  1  0  0  0  0
 17 19  1  0  0  0  0
 19 23  1  0  0  0  0
 19 24  1  0  0  0  0
 19 25  1  0  0  0  0
M  END
> <PUBCHEM_COMPOUND_CID>
135718464

> <PUBCHEM_CONFORMER_RMSD>
0.6

> <PUBCHEM_CONFORMER_DIVERSEORDER>
4
1
5
3
2
6

> <PUBCHEM_MMFF94_PARTIAL_CHARGES>
26
1 -0.53
10 0.05
11 0.48
12 0.03
13 0.44
14 -0.15
15 -0.15
16 -0.15
17 0.42
18 0.62
19 0.06
2 -0.57
20 0.15
21 0.15
22 0.15
26 0.45
27 0.4
28 0.37
29 0.37
3 -0.57
4 -0.57
5 -0.85
6 -0.8
7 0.09
8 0.03
9 0.09

> <PUBCHEM_EFFECTIVE_ROTOR_COUNT>
2

> <PUBCHEM_PHARMACOPHORE_FEATURES>
9
1 1 donor
1 2 acceptor
1 3 acceptor
1 4 acceptor
1 5 acceptor
1 5 donor
1 6 donor
6 7 8 10 11 12 13 rings
6 7 8 9 14 15 16 rings

> <PUBCHEM_HEAVY_ATOM_COUNT>
19

> <PUBCHEM_ATOM_DEF_STEREO_COUNT>
0

> <PUBCHEM_ATOM_UDEF_STEREO_COUNT>
0

> <PUBCHEM_BOND_DEF_STEREO_COUNT>
0

> <PUBCHEM_BOND_UDEF_STEREO_COUNT>
0

> <PUBCHEM_ISOTOPIC_ATOM_COUNT>
0

> <PUBCHEM_COMPONENT_COUNT>
1

> <PUBCHEM_CACTVS_TAUTO_COUNT>
-1

> <PUBCHEM_CONFORMER_ID>
0816E64000000004

> <PUBCHEM_MMFF94_ENERGY>
67.4308

> <PUBCHEM_FEATURE_SELFOVERLAP>
45.703

> <PUBCHEM_SHAPE_FINGERPRINT>
10062212 137 18334285505020093874
10411042 1 17545601614160542610
10493431 412 18341621378123705961
10608611 8 18339640173765103704
10967382 1 18338234851728146851
11132069 177 18409162216848871368
11543360 7 16056584482759942588
12382932 28 18411134744724409722
12403814 3 17385719197091443565
12730499 353 17899122825310985797
13140716 1 18337954622418923264
13221675 6 18409167701210690062
13380535 76 18411976949167161383
13544592 145 18129674002083966438
13583140 156 16732974323779403185
13897977 150 18411134727734320941
14178342 30 18339067285363069362
14790565 3 18123207713555359588
15196674 1 18410855490678281514
15309172 13 18337394846609577985
15442244 35 18337954618245028088
15536298 74 18271806787595372582
16945 1 18409446977206479604
18186145 218 18342179925213181725
18219364 16 18334297531276500233
193761 8 18121781891897201821
19591789 44 18050859809755316347
20510252 161 18126286578151285659
20739085 24 17904789694337568377
21267235 1 18337963401205618266
21501502 16 18192716871504338221
2334 1 18049441749082840372
23402539 116 18341040870486286310
23463225 33 18191583258131436168
23557571 272 18200326518708513662
23558518 356 17972318679168846171
23559900 14 18342462543711431500
238 59 17684325574638912941
25 1 18337671897838558439
2748010 2 18194399133005946468
335352 9 18410575042098515254
34934 24 18336537253214666858
350125 39 18337680835897551529
5104073 3 18410853283118002274
53812653 166 18413103961665556712
58807428 26 18408601431258495363
7364860 26 18197777700695503126
74978 22 18411138077682438621
7832392 63 18412546509096252770
81228 2 17902509621186177035
8809292 202 18335423512212702138
90316 7 17969478516355036408
9709674 26 18270401714777451406

> <PUBCHEM_SHAPE_MULTIPOLES>
357.57
6.5
2.82
0.81
2.46
0.76
-0.01
-1.67
-0.13
-1.02
-0.1
-0.18
-0.2
0.09

> <PUBCHEM_SHAPE_SELFOVERLAP>
786.031

> <PUBCHEM_SHAPE_VOLUME>
190.8

> <PUBCHEM_COORDINATE_TYPE>
2
5
10

$$$$
