REMARK  Name = 135754250
REMARK  6 active torsions:
REMARK  status: ('A' for Active; 'I' for Inactive)
REMARK    1  A    between atoms: C_3  and  C_7
REMARK    2  A    between atoms: C_3  and  C_14
REMARK    3  A    between atoms: C_4  and  O_12
REMARK    4  A    between atoms: C_5  and  C_16
REMARK    5  A    between atoms: C_8  and  C_10
REMARK    6  A    between atoms: C_16  and  C_19
REMARK                            x       y       z     vdW  Elec       q    Type
REMARK                         _______ _______ _______ _____ _____    ______ ____
ROOT
ATOM      1  S   UNL     1       0.334   1.535   0.955  0.00  0.00    -0.063 S 
ATOM      2  O   UNL     1      -1.997   2.560   0.280  0.00  0.00    -0.280 OA
ATOM      3  C   UNL     1       0.684  -0.173   0.367  0.00  0.00    +0.114 C 
ATOM      4  C   UNL     1      -0.550  -0.540  -0.416  0.00  0.00    +0.124 C 
ATOM      5  C   UNL     1      -1.553   0.344  -0.510  0.00  0.00    +0.062 C 
ATOM      6  C   UNL     1      -1.250   1.597   0.208  0.00  0.00    +0.221 C 
ENDROOT
BRANCH   3   7
ATOM      7  C   UNL     1       1.916  -0.122  -0.487  0.00  0.00    -0.014 C 
ATOM      8  C   UNL     1       3.182   0.170  -0.125  0.00  0.00    -0.025 C 
ATOM      9  C   UNL     1       3.601   0.504   1.283  0.00  0.00    +0.031 C 
BRANCH   8  10
ATOM     10  C   UNL     1       4.223   0.161  -1.153  0.00  0.00    -0.005 C 
ATOM     11  C   UNL     1       5.525   0.423  -0.983  0.00  0.00    -0.000 C 
ENDBRANCH   8  10
ENDBRANCH   3   7
BRANCH   4  12
ATOM     12  O   UNL     1      -0.609  -1.782  -1.010  0.00  0.00    -0.509 OA
ATOM     13  H   UNL     1       0.110  -2.377  -0.925  0.00  0.00    +0.292 HD
ENDBRANCH   4  12
BRANCH   3  14
ATOM     14  C   UNL     1       0.879  -1.077   1.587  0.00  0.00    +0.022 C 
ATOM     15  C   UNL     1       1.023  -2.529   1.177  0.00  0.00    +0.002 C 
ENDBRANCH   3  14
BRANCH   5  16
ATOM     16  C   UNL     1      -2.849   0.186  -1.223  0.00  0.00    +0.118 C 
BRANCH  16  19
ATOM     17  O   UNL     1      -4.103  -1.549  -0.107  0.00  0.00    -0.275 OA
ATOM     18  N   UNL     1      -4.564   0.640   0.421  0.00  0.00    -0.329 N 
ATOM     19  C   UNL     1      -3.891  -0.348  -0.262  0.00  0.00    +0.224 C 
ATOM     20  H   UNL     1      -5.264   0.399   1.071  0.00  0.00    +0.145 HD
ATOM     21  H   UNL     1      -4.347   1.586   0.259  0.00  0.00    +0.145 HD
ENDBRANCH  16  19
ENDBRANCH   5  16
TORSDOF 6
