REMARK  Name = 135742423
REMARK  11 active torsions:
REMARK  status: ('A' for Active; 'I' for Inactive)
REMARK    1  A    between atoms: N_1  and  C_2
REMARK    2  A    between atoms: N_1  and  N_15
REMARK    3  A    between atoms: C_2  and  C_3
REMARK    4  A    between atoms: C_4  and  O_9
REMARK    5  A    between atoms: C_5  and  O_11
REMARK    6  A    between atoms: C_6  and  O_13
REMARK    7  A    between atoms: N_15  and  C_16
REMARK    8  A    between atoms: C_16  and  C_17
REMARK    9  A    between atoms: C_18  and  O_23
REMARK   10  A    between atoms: C_19  and  O_25
REMARK   11  A    between atoms: C_20  and  O_27
REMARK                            x       y       z     vdW  Elec       q    Type
REMARK                         _______ _______ _______ _____ _____    ______ ____
ROOT
ATOM      1  N   UNL     1       0.207   0.024   0.688  0.00  0.00    -0.126 NA
ENDROOT
BRANCH   1   2
ATOM      2  C   UNL     1      -0.843   0.074   1.458  0.00  0.00    +0.136 C 
BRANCH   2   3
ATOM      3  C   UNL     1      -2.201   0.036   0.941  0.00  0.00    +0.003 C 
ATOM      4  C   UNL     1      -4.152  -1.226   0.278  0.00  0.00    +0.175 C 
ATOM      5  C   UNL     1      -4.160   1.184   0.115  0.00  0.00    +0.175 C 
ATOM      6  C   UNL     1      -4.808  -0.040  -0.052  0.00  0.00    +0.202 C 
ATOM      7  C   UNL     1      -2.849  -1.189   0.775  0.00  0.00    +0.037 C 
ATOM      8  C   UNL     1      -2.857   1.222   0.611  0.00  0.00    +0.037 C 
BRANCH   4   9
ATOM      9  O   UNL     1      -4.774  -2.429   0.122  0.00  0.00    -0.468 OA
ATOM     10  C   UNL     1      -4.618  -3.080  -1.137  0.00  0.00    +0.253 C 
ENDBRANCH   4   9
BRANCH   5  11
ATOM     11  O   UNL     1      -4.789   2.350  -0.203  0.00  0.00    -0.468 OA
ATOM     12  C   UNL     1      -4.056   3.557  -0.003  0.00  0.00    +0.253 C 
ENDBRANCH   5  11
BRANCH   6  13
ATOM     13  O   UNL     1      -6.080  -0.077  -0.539  0.00  0.00    -0.501 OA
ATOM     14  H   UNL     1      -6.516  -0.899  -0.651  0.00  0.00    +0.292 HD
ENDBRANCH   6  13
ENDBRANCH   2   3
ENDBRANCH   1   2
BRANCH   1  15
ATOM     15  N   UNL     1      -0.152  -0.068  -0.651  0.00  0.00    -0.126 NA
BRANCH  15  16
ATOM     16  C   UNL     1       0.899  -0.116  -1.403  0.00  0.00    +0.136 C 
BRANCH  16  17
ATOM     17  C   UNL     1       2.262  -0.075  -0.847  0.00  0.00    +0.003 C 
ATOM     18  C   UNL     1       4.200  -1.223   0.027  0.00  0.00    +0.175 C 
ATOM     19  C   UNL     1       4.196   1.188  -0.138  0.00  0.00    +0.175 C 
ATOM     20  C   UNL     1       4.843   0.002   0.208  0.00  0.00    +0.202 C 
ATOM     21  C   UNL     1       2.909  -1.261  -0.501  0.00  0.00    +0.037 C 
ATOM     22  C   UNL     1       2.905   1.149  -0.665  0.00  0.00    +0.037 C 
BRANCH  18  23
ATOM     23  O   UNL     1       4.822  -2.389   0.359  0.00  0.00    -0.468 OA
ATOM     24  C   UNL     1       4.094  -3.596   0.141  0.00  0.00    +0.253 C 
ENDBRANCH  18  23
BRANCH  19  25
ATOM     25  O   UNL     1       4.814   2.390   0.034  0.00  0.00    -0.468 OA
ATOM     26  C   UNL     1       4.082   3.554  -0.345  0.00  0.00    +0.253 C 
ENDBRANCH  19  25
BRANCH  20  27
ATOM     27  O   UNL     1       6.104   0.039   0.726  0.00  0.00    -0.501 OA
ATOM     28  H   UNL     1       6.540  -0.758   0.958  0.00  0.00    +0.292 HD
ENDBRANCH  20  27
ENDBRANCH  16  17
ENDBRANCH  15  16
ENDBRANCH   1  15
TORSDOF 11
