135783074
  -OEChem-03292013293D

 34 36  0     1  0  0  0  0  0999 V2000
    1.9288   -2.3234   -1.6288 F   0  0  0  0  0  0  0  0  0  0  0  0
    3.3537    0.3513   -1.9569 O   0  0  0  0  0  0  0  0  0  0  0  0
    3.4452    1.9587    2.1026 O   0  0  0  0  0  0  0  0  0  0  0  0
   -4.7139    0.0130    0.1881 O   0  0  0  0  0  0  0  0  0  0  0  0
   -0.3908   -1.2795    0.4224 N   0  0  0  0  0  0  0  0  0  0  0  0
   -2.5148   -1.9092    0.7295 N   0  0  0  0  0  0  0  0  0  0  0  0
   -0.7073    1.0009   -0.3247 N   0  0  0  0  0  0  0  0  0  0  0  0
   -3.0419    1.5348   -0.3965 N   0  0  0  0  0  0  0  0  0  0  0  0
   -1.4233    3.1332   -1.0038 N   0  0  0  0  0  0  0  0  0  0  0  0
    1.1195   -1.3722    0.3850 C   0  0  2  0  0  0  0  0  0  0  0  0
    2.6428    0.5478    0.3497 C   0  0  2  0  0  0  0  0  0  0  0  0
    1.8383   -0.3505    1.2939 C   0  0  0  0  0  0  0  0  0  0  0  0
    2.9868   -0.3873   -0.8056 C   0  0  1  0  0  0  0  0  0  0  0  0
    1.6798   -1.1332   -1.0254 C   0  0  1  0  0  0  0  0  0  0  0  0
    3.8680    1.1625    1.0088 C   0  0  0  0  0  0  0  0  0  0  0  0
   -1.1591   -0.2008    0.0971 C   0  0  0  0  0  0  0  0  0  0  0  0
   -1.2518   -2.2823    0.7966 C   0  0  0  0  0  0  0  0  0  0  0  0
   -2.4531   -0.6180    0.2954 C   0  0  0  0  0  0  0  0  0  0  0  0
   -3.5319    0.2958    0.0396 C   0  0  0  0  0  0  0  0  0  0  0  0
   -1.6750    1.8585   -0.5669 C   0  0  0  0  0  0  0  0  0  0  0  0
    1.3408   -2.3931    0.7206 H   0  0  0  0  0  0  0  0  0  0  0  0
    1.9985    1.3663    0.0019 H   0  0  0  0  0  0  0  0  0  0  0  0
    2.5122   -0.8949    1.9677 H   0  0  0  0  0  0  0  0  0  0  0  0
    1.1531    0.2295    1.9210 H   0  0  0  0  0  0  0  0  0  0  0  0
    3.8004   -1.0791   -0.5609 H   0  0  0  0  0  0  0  0  0  0  0  0
    1.0022   -0.5817   -1.6841 H   0  0  0  0  0  0  0  0  0  0  0  0
    4.4105    1.7984    0.3019 H   0  0  0  0  0  0  0  0  0  0  0  0
    4.5513    0.3919    1.3811 H   0  0  0  0  0  0  0  0  0  0  0  0
    2.6307    0.9651   -2.1708 H   0  0  0  0  0  0  0  0  0  0  0  0
   -0.9017   -3.2576    1.1063 H   0  0  0  0  0  0  0  0  0  0  0  0
    4.2440    2.3414    2.5037 H   0  0  0  0  0  0  0  0  0  0  0  0
   -3.7236    2.2581   -0.6069 H   0  0  0  0  0  0  0  0  0  0  0  0
   -0.4746    3.4582   -1.1553 H   0  0  0  0  0  0  0  0  0  0  0  0
   -2.1758    3.7876   -1.1879 H   0  0  0  0  0  0  0  0  0  0  0  0
  1 14  1  0  0  0  0
  2 13  1  0  0  0  0
  2 29  1  0  0  0  0
  3 15  1  0  0  0  0
  3 31  1  0  0  0  0
  4 19  2  0  0  0  0
  5 10  1  0  0  0  0
  5 16  1  0  0  0  0
  5 17  1  0  0  0  0
  6 17  2  0  0  0  0
  6 18  1  0  0  0  0
  7 16  1  0  0  0  0
  7 20  2  0  0  0  0
  8 19  1  0  0  0  0
  8 20  1  0  0  0  0
  8 32  1  0  0  0  0
  9 20  1  0  0  0  0
  9 33  1  0  0  0  0
  9 34  1  0  0  0  0
 10 12  1  0  0  0  0
 10 14  1  0  0  0  0
 10 21  1  0  0  0  0
 11 12  1  0  0  0  0
 11 13  1  0  0  0  0
 11 15  1  0  0  0  0
 11 22  1  0  0  0  0
 12 23  1  0  0  0  0
 12 24  1  0  0  0  0
 13 14  1  0  0  0  0
 13 25  1  0  0  0  0
 14 26  1  0  0  0  0
 15 27  1  0  0  0  0
 15 28  1  0  0  0  0
 16 18  2  0  0  0  0
 17 30  1  0  0  0  0
 18 19  1  0  0  0  0
M  END
> <PUBCHEM_COMPOUND_CID>
135783074

> <PUBCHEM_CONFORMER_RMSD>
0.6

> <PUBCHEM_CONFORMER_DIVERSEORDER>
1
9
20
5
21
19
25
11
24
10
16
6
13
4
2
14
8
3
23
17
15
7
22
18
26
12

> <PUBCHEM_MMFF94_PARTIAL_CHARGES>
24
1 -0.34
10 0.26
13 0.28
14 0.34
15 0.28
16 -0.03
17 0.04
18 0.14
19 0.72
2 -0.68
20 0.56
29 0.4
3 -0.68
30 0.15
31 0.4
32 0.37
33 0.4
34 0.4
4 -0.57
5 0.05
6 -0.57
7 -0.58
8 -0.49
9 -0.85

> <PUBCHEM_EFFECTIVE_ROTOR_COUNT>
3

> <PUBCHEM_PHARMACOPHORE_FEATURES>
11
1 2 acceptor
1 2 donor
1 3 acceptor
1 3 donor
1 4 acceptor
1 8 donor
1 9 donor
3 5 6 17 cation
5 10 11 12 13 14 rings
5 5 6 16 17 18 rings
6 7 8 16 18 19 20 rings

> <PUBCHEM_HEAVY_ATOM_COUNT>
20

> <PUBCHEM_ATOM_DEF_STEREO_COUNT>
3

> <PUBCHEM_ATOM_UDEF_STEREO_COUNT>
1

> <PUBCHEM_BOND_DEF_STEREO_COUNT>
0

> <PUBCHEM_BOND_UDEF_STEREO_COUNT>
0

> <PUBCHEM_ISOTOPIC_ATOM_COUNT>
0

> <PUBCHEM_COMPONENT_COUNT>
1

> <PUBCHEM_CACTVS_TAUTO_COUNT>
-1

> <PUBCHEM_CONFORMER_ID>
0817E2A200000001

> <PUBCHEM_MMFF94_ENERGY>
45.6699

> <PUBCHEM_FEATURE_SELFOVERLAP>
56

> <PUBCHEM_SHAPE_FINGERPRINT>
10498660 4 18260275148250250781
10608611 8 18412540981525973480
10871710 139 16179871957648642424
11132069 177 18410009983142130065
11640471 11 16516267226369703502
11715629 250 18342450426564314357
11759241 127 18058997510124083725
12173636 292 18334571296660177847
12236239 1 16805322214814707634
13140716 1 18117279374717940089
13538477 17 17530690921741961338
13764800 53 17968392177338859131
13965767 371 17100856436051324220
15219456 202 18272937145583420530
16945 1 18260550047463407835
18186145 218 18192716639960979381
19049666 15 18197782107035900108
19786989 88 17703500052035745338
20510252 161 18337953385821841201
20715895 44 16953071143198138765
21486144 27 17989210347441558291
21524375 3 18264208011085701787
22802520 49 18270411481411730518
23114952 82 18129674001836176510
23402539 116 18336815494007566359
23526113 38 17985844635276038110
23557571 272 18265904720588352946
23559900 14 18335991874046677206
2748010 2 18337122232261584379
350125 39 17900261905633312395
3524813 1 18343294894745170200
3797600 57 16012173009154020753
495365 180 17774994674529449178
5939293 188 18190182480170586860
7097593 13 17605252044122471034
7364860 26 18265046925704947850
77492 1 16805322240463426034
81228 2 18261968383393521073
90316 7 17895739798739013096
9925002 15 16689346003010510934
9981440 41 16524172874520433636

> <PUBCHEM_SHAPE_MULTIPOLES>
361.8
6.9
2.54
1.41
0.72
0.68
0.08
2.06
-0.77
0.81
0.21
-1.84
0.12
1.69

> <PUBCHEM_SHAPE_SELFOVERLAP>
785.353

> <PUBCHEM_SHAPE_VOLUME>
200.2

> <PUBCHEM_COORDINATE_TYPE>
2
5
10

$$$$
