REMARK  Name = 135718473
REMARK  3 active torsions:
REMARK  status: ('A' for Active; 'I' for Inactive)
REMARK    1  A    between atoms: C_7  and  C_19
REMARK    2  A    between atoms: C_19  and  C_20
REMARK    3  A    between atoms: C_20  and  O_22
REMARK                            x       y       z     vdW  Elec       q    Type
REMARK                         _______ _______ _______ _____ _____    ______ ____
ROOT
ATOM      1  O   UNL     1       1.711   2.600   0.580  0.00  0.00    -0.273 OA
ATOM      2  N   UNL     1      -0.355   0.767   0.927  0.00  0.00    -0.278 NA
ATOM      3  N   UNL     1       0.167  -1.846   0.374  0.00  0.00    -0.309 N 
ATOM      4  N   UNL     1       2.417  -1.296  -0.325  0.00  0.00    -0.361 NA
ATOM      5  N   UNL     1       3.121   0.941  -0.177  0.00  0.00    -0.246 N 
ATOM      6  N   UNL     1       4.589  -0.692  -0.962  0.00  0.00    -0.321 N 
ATOM      7  C   UNL     1      -1.500  -0.124   0.954  0.00  0.00    +0.135 C 
ATOM      8  C   UNL     1      -1.048  -1.578   1.131  0.00  0.00    +0.112 C 
ATOM      9  C   UNL     1       0.887   0.374   0.475  0.00  0.00    +0.199 C 
ATOM     10  C   UNL     1       1.183  -0.913   0.168  0.00  0.00    +0.183 C 
ATOM     11  C   UNL     1       1.924   1.423   0.308  0.00  0.00    +0.251 C 
ATOM     12  C   UNL     1       3.341  -0.391  -0.484  0.00  0.00    +0.239 C 
ATOM     13  H   UNL     1      -0.469   1.692   1.245  0.00  0.00    +0.124 HD
ATOM     14  H   UNL     1       0.278  -2.743  -0.017  0.00  0.00    +0.149 HD
ATOM     15  H   UNL     1       3.859   1.579  -0.313  0.00  0.00    +0.159 HD
ATOM     16  H   UNL     1       4.814  -1.621  -1.200  0.00  0.00    +0.146 HD
ATOM     17  H   UNL     1       5.260   0.020  -1.068  0.00  0.00    +0.146 HD
ENDROOT
BRANCH   7  19
ATOM     18  O   UNL     1      -1.719  -0.190  -1.411  0.00  0.00    -0.292 OA
ATOM     19  C   UNL     1      -2.251   0.058  -0.328  0.00  0.00    +0.193 C 
BRANCH  19  20
ATOM     20  C   UNL     1      -3.684   0.563  -0.228  0.00  0.00    +0.169 C 
ATOM     21  C   UNL     1      -4.566  -0.412   0.531  0.00  0.00    +0.040 C 
BRANCH  20  22
ATOM     22  O   UNL     1      -4.216   0.717  -1.534  0.00  0.00    -0.377 OA
ATOM     23  H   UNL     1      -3.665   1.338  -2.036  0.00  0.00    +0.211 HD
ENDBRANCH  20  22
ENDBRANCH  19  20
ENDBRANCH   7  19
TORSDOF 3
