REMARK  Name = 135718453
REMARK  5 active torsions:
REMARK  status: ('A' for Active; 'I' for Inactive)
REMARK    1  A    between atoms: N_2  and  C_18
REMARK    2  A    between atoms: C_16  and  N_20
REMARK    3  A    between atoms: C_17  and  O_24
REMARK    4  A    between atoms: C_19  and  C_26
REMARK    5  A    between atoms: C_26  and  O_27
REMARK                            x       y       z     vdW  Elec       q    Type
REMARK                         _______ _______ _______ _____ _____    ______ ____
ROOT
ATOM      1  O   UNL     1       4.235   1.955   0.731  0.00  0.00    -0.268 OA
ATOM      2  N   UNL     1       0.113   0.314  -0.122  0.00  0.00    -0.237 N 
ATOM      3  N   UNL     1       1.271   2.091   0.585  0.00  0.00    -0.240 NA
ATOM      4  N   UNL     1       1.913  -1.244  -0.558  0.00  0.00    -0.357 NA
ATOM      5  N   UNL     1       4.027  -0.232  -0.059  0.00  0.00    -0.243 N 
ATOM      6  N   UNL     1       3.910  -2.446  -0.853  0.00  0.00    -0.321 N 
ATOM      7  C   UNL     1       1.427  -0.046  -0.164  0.00  0.00    +0.211 C 
ATOM      8  C   UNL     1       0.070   1.609   0.335  0.00  0.00    +0.224 C 
ATOM      9  C   UNL     1       2.110   1.062   0.275  0.00  0.00    +0.176 C 
ATOM     10  C   UNL     1       3.544   1.018   0.353  0.00  0.00    +0.273 C 
ATOM     11  C   UNL     1       3.225  -1.314  -0.496  0.00  0.00    +0.239 C 
ATOM     12  H   UNL     1       5.001  -0.369  -0.044  0.00  0.00    +0.159 HD
ATOM     13  H   UNL     1       3.420  -3.240  -1.167  0.00  0.00    +0.146 HD
ATOM     14  H   UNL     1       4.893  -2.465  -0.795  0.00  0.00    +0.146 HD
ENDROOT
BRANCH   2  18
ATOM     15  O   UNL     1      -2.136   0.279  -1.061  0.00  0.00    -0.338 OA
ATOM     16  C   UNL     1      -2.899  -0.449   1.043  0.00  0.00    -0.004 C 
ATOM     17  C   UNL     1      -1.679  -1.288   0.692  0.00  0.00    +0.140 C 
ATOM     18  C   UNL     1      -1.081  -0.535  -0.502  0.00  0.00    +0.221 C 
ATOM     19  C   UNL     1      -3.351   0.036  -0.329  0.00  0.00    +0.129 C 
BRANCH  16  20
ATOM     20  N   UNL     1      -3.929  -1.161   1.779  0.00  0.00    +0.385 N 
ATOM     21  H   UNL     1      -3.559  -1.455   2.683  0.00  0.00    -0.089 HD
ATOM     22  H   UNL     1      -4.220  -1.982   1.247  0.00  0.00    -0.089 HD
ATOM     23  H   UNL     1      -4.730  -0.548   1.923  0.00  0.00    -0.089 HD
ENDBRANCH  16  20
BRANCH  17  24
ATOM     24  O   UNL     1      -2.042  -2.604   0.276  0.00  0.00    -0.382 OA
ATOM     25  H   UNL     1      -2.422  -3.088   1.026  0.00  0.00    +0.210 HD
ENDBRANCH  17  24
BRANCH  19  26
ATOM     26  C   UNL     1      -4.191   1.301  -0.297  0.00  0.00    +0.165 C 
BRANCH  26  27
ATOM     27  O   UNL     1      -4.538   1.655  -1.626  0.00  0.00    -0.380 OA
ATOM     28  H   UNL     1      -5.075   2.462  -1.616  0.00  0.00    +0.211 HD
ENDBRANCH  26  27
ENDBRANCH  19  26
ENDBRANCH   2  18
TORSDOF 5
