REMARK  Name = 135763231
REMARK  5 active torsions:
REMARK  status: ('A' for Active; 'I' for Inactive)
REMARK    1  A    between atoms: N_2  and  C1*_18
REMARK    2  A    between atoms: C2*_16  and  O2*_20
REMARK    3  A    between atoms: C3*_17  and  O3*_22
REMARK    4  A    between atoms: C4*_19  and  C5*_24
REMARK    5  A    between atoms: C5*_24  and  O5*_25
REMARK                            x       y       z     vdW  Elec       q    Type
REMARK                         _______ _______ _______ _____ _____    ______ ____
ROOT
ATOM      1  O   UNL     1      -4.196   1.998  -0.452  0.00  0.00    -0.268 OA
ATOM      2  N   UNL     1      -0.045   0.389   0.146  0.00  0.00    -0.147 N 
ATOM      3  N   UNL     1       0.029   1.708  -0.133  0.00  0.00    -0.040 NA
ATOM      4  N   UNL     1      -1.215   2.158  -0.305  0.00  0.00    -0.135 NA
ATOM      5  N   UNL     1      -1.784  -1.283   0.400  0.00  0.00    -0.355 NA
ATOM      6  N   UNL     1      -3.928  -0.269   0.050  0.00  0.00    -0.243 N 
ATOM      7  N   UNL     1      -3.750  -2.562   0.554  0.00  0.00    -0.321 N 
ATOM      8  C   UNL     1      -1.337  -0.033   0.159  0.00  0.00    +0.231 C 
ATOM      9  C   UNL     1      -2.050   1.102  -0.129  0.00  0.00    +0.201 C 
ATOM     10  C   UNL     1      -3.481   1.037  -0.202  0.00  0.00    +0.276 C 
ATOM     11  C   UNL     1      -3.095  -1.377   0.340  0.00  0.00    +0.239 C 
ATOM     12  H   UNL     1      -4.899  -0.427   0.024  0.00  0.00    +0.159 HD
ATOM     13  H   UNL     1      -3.237  -3.377   0.761  0.00  0.00    +0.146 HD
ATOM     14  H   UNL     1      -4.732  -2.599   0.502  0.00  0.00    +0.146 HD
ENDROOT
BRANCH   2  18
ATOM     15  O4* UNL     1       2.240   0.390   1.006  0.00  0.00    -0.332 OA
ATOM     16  C2* UNL     1       1.823  -0.973  -0.883  0.00  0.00    +0.188 C 
ATOM     17  C3* UNL     1       3.277  -1.140  -0.487  0.00  0.00    +0.171 C 
ATOM     18  C1* UNL     1       1.209  -0.415   0.396  0.00  0.00    +0.244 C 
ATOM     19  C4* UNL     1       3.511   0.080   0.394  0.00  0.00    +0.176 C 
BRANCH  16  20
ATOM     20  O2* UNL     1       1.222  -2.182  -1.303  0.00  0.00    -0.378 OA
ATOM     21  H2* UNL     1       1.650  -2.490  -2.117  0.00  0.00    +0.211 HD
ENDBRANCH  16  20
BRANCH  17  22
ATOM     22  O3* UNL     1       3.442  -2.305   0.320  0.00  0.00    -0.379 OA
ATOM     23  H3* UNL     1       3.296  -3.097  -0.222  0.00  0.00    +0.211 HD
ENDBRANCH  17  22
BRANCH  19  24
ATOM     24  C5* UNL     1       3.975   1.301  -0.387  0.00  0.00    +0.169 C 
BRANCH  24  25
ATOM     25  O5* UNL     1       4.153   2.377   0.517  0.00  0.00    -0.379 OA
ATOM     26  H5* UNL     1       4.448   3.163   0.030  0.00  0.00    +0.211 HD
ENDBRANCH  24  25
ENDBRANCH  19  24
ENDBRANCH   2  18
TORSDOF 5
