REMARK  Name = 135754259
REMARK  8 active torsions:
REMARK  status: ('A' for Active; 'I' for Inactive)
REMARK    1  A    between atoms: C_7  and  C_17
REMARK    2  A    between atoms: C_16  and  C_18
REMARK    3  A    between atoms: C_18  and  O_19
REMARK    4  A    between atoms: C_18  and  C_21
REMARK    5  A    between atoms: C_21  and  O_22
REMARK    6  A    between atoms: O_22  and  P_23
REMARK    7  A    between atoms: P_23  and  O_25
REMARK    8  A    between atoms: P_23  and  O_27
REMARK                            x       y       z     vdW  Elec       q    Type
REMARK                         _______ _______ _______ _____ _____    ______ ____
ROOT
ATOM      1  O   UNL     1      -2.252   1.384  -2.142  0.00  0.00    -0.266 OA
ATOM      2  N   UNL     1      -1.094  -0.353  -0.400  0.00  0.00    -0.389 NA
ATOM      3  N   UNL     1      -4.254   1.301  -0.978  0.00  0.00    -0.241 N 
ATOM      4  N   UNL     1      -2.695  -1.295   1.709  0.00  0.00    -0.200 NA
ATOM      5  N   UNL     1      -4.515  -0.027   0.952  0.00  0.00    -0.318 NA
ATOM      6  N   UNL     1      -6.303   1.262   0.151  0.00  0.00    -0.320 N 
ATOM      7  C   UNL     1      -0.625  -1.217   0.520  0.00  0.00    +0.135 C 
ATOM      8  C   UNL     1      -2.377   0.023  -0.236  0.00  0.00    +0.257 C 
ATOM      9  C   UNL     1      -3.179  -0.429   0.795  0.00  0.00    +0.121 C 
ATOM     10  C   UNL     1      -2.931   0.963  -1.215  0.00  0.00    +0.293 C 
ATOM     11  C   UNL     1      -1.410  -1.679   1.554  0.00  0.00    +0.196 C 
ATOM     12  C   UNL     1      -5.012   0.810   0.083  0.00  0.00    +0.248 C 
ATOM     13  H   UNL     1      -4.687   1.930  -1.600  0.00  0.00    +0.159 HD
ATOM     14  H   UNL     1      -6.640   1.893  -0.525  0.00  0.00    +0.146 HD
ATOM     15  H   UNL     1      -6.894   0.955   0.876  0.00  0.00    +0.146 HD
ENDROOT
BRANCH   7  17
ATOM     16  C   UNL     1       1.602  -1.273  -0.612  0.00  0.00    +0.007 C 
ATOM     17  C   UNL     1       0.754  -1.646   0.376  0.00  0.00    +0.028 C 
BRANCH  16  18
ATOM     18  C   UNL     1       3.022  -1.750  -0.723  0.00  0.00    +0.163 C 
BRANCH  18  19
ATOM     19  O   UNL     1       3.139  -2.490  -1.938  0.00  0.00    -0.377 OA
ATOM     20  H   UNL     1       4.049  -2.810  -2.035  0.00  0.00    +0.211 HD
ENDBRANCH  18  19
BRANCH  18  21
ATOM     21  C   UNL     1       3.996  -0.577  -0.756  0.00  0.00    +0.187 C 
BRANCH  21  22
ATOM     22  O   UNL     1       3.874   0.155   0.459  0.00  0.00    -0.270 OA
BRANCH  22  23
ATOM     23  P   UNL     1       4.809   1.456   0.667  0.00  0.00    +0.473 P 
ATOM     24  O   UNL     1       4.622   2.172   1.972  0.00  0.00    -0.227 OA
BRANCH  23  25
ATOM     25  O   UNL     1       4.534   2.344  -0.656  0.00  0.00    -0.303 OA
ATOM     26  H   UNL     1       4.679   1.801  -1.446  0.00  0.00    +0.222 HD
ENDBRANCH  23  25
BRANCH  23  27
ATOM     27  O   UNL     1       6.295   0.868   0.417  0.00  0.00    -0.303 OA
ATOM     28  H   UNL     1       6.326   0.423  -0.444  0.00  0.00    +0.222 HD
ENDBRANCH  23  27
ENDBRANCH  22  23
ENDBRANCH  21  22
ENDBRANCH  18  21
ENDBRANCH  16  18
ENDBRANCH   7  17
TORSDOF 8
