REMARK  Name = 135718454
REMARK  2 active torsions:
REMARK  status: ('A' for Active; 'I' for Inactive)
REMARK    1  A    between atoms: N_2  and  C_8
REMARK    2  A    between atoms: N_2  and  C_19
REMARK                            x       y       z     vdW  Elec       q    Type
REMARK                         _______ _______ _______ _____ _____    ______ ____
ROOT
ATOM      1  O   UNL     1       4.324   2.549  -0.549  0.00  0.00    -0.273 OA
ATOM      2  N   UNL     1       1.587   1.262  -0.468  0.00  0.00    -0.254 NA
ATOM      3  N   UNL     1       1.285  -0.874   0.096  0.00  0.00    -0.284 N 
ATOM      4  N   UNL     1       5.100   0.466   0.112  0.00  0.00    -0.246 N 
ATOM      5  N   UNL     1       3.668  -1.422   0.493  0.00  0.00    -0.361 NA
ATOM      6  N   UNL     1       5.985  -1.596   0.778  0.00  0.00    -0.321 N 
ATOM      7  C   UNL     1       0.692   0.242  -0.275  0.00  0.00    +0.210 C 
ATOM      8  C   UNL     1       2.827   0.759  -0.202  0.00  0.00    +0.202 C 
ATOM      9  C   UNL     1       2.617  -0.556   0.144  0.00  0.00    +0.185 C 
ATOM     10  C   UNL     1       4.111   1.381  -0.244  0.00  0.00    +0.252 C 
ATOM     11  C   UNL     1       4.862  -0.875   0.462  0.00  0.00    +0.239 C 
ATOM     12  H   UNL     1       1.376   2.183  -0.746  0.00  0.00    +0.127 HD
ATOM     13  H   UNL     1       0.865  -1.742   0.295  0.00  0.00    +0.152 HD
ATOM     14  H   UNL     1       6.033   0.781   0.120  0.00  0.00    +0.159 HD
ATOM     15  H   UNL     1       6.870  -1.167   0.749  0.00  0.00    +0.146 HD
ATOM     16  H   UNL     1       5.906  -2.544   1.034  0.00  0.00    +0.146 HD
ENDROOT
BRANCH   7  17
ATOM     17  N   UNL     1      -0.670   0.506  -0.486  0.00  0.00    -0.306 N 
ATOM     18  H   UNL     1      -0.857   1.432  -0.763  0.00  0.00    +0.150 HD
BRANCH  17  19
ATOM     19  C   UNL     1      -1.829  -0.302  -0.379  0.00  0.00    +0.047 C 
ATOM     20  C   UNL     1      -3.076   0.242  -0.033  0.00  0.00    +0.013 C 
ATOM     21  C   UNL     1      -4.202  -0.611   0.060  0.00  0.00    +0.001 C 
ATOM     22  C   UNL     1      -1.693  -1.668  -0.630  0.00  0.00    +0.014 C 
ATOM     23  C   UNL     1      -3.231   1.615   0.223  0.00  0.00    +0.001 C 
ATOM     24  C   UNL     1      -4.047  -1.983  -0.195  0.00  0.00    +0.000 C 
ATOM     25  C   UNL     1      -2.800  -2.507  -0.538  0.00  0.00    +0.001 C 
ATOM     26  C   UNL     1      -5.449  -0.066   0.407  0.00  0.00    +0.000 C 
ATOM     27  C   UNL     1      -4.478   2.138   0.565  0.00  0.00    +0.000 C 
ATOM     28  C   UNL     1      -5.585   1.300   0.657  0.00  0.00    +0.000 C 
ENDBRANCH  17  19
ENDBRANCH   7  17
TORSDOF 2
