REMARK  Name = 135783074
REMARK  4 active torsions:
REMARK  status: ('A' for Active; 'I' for Inactive)
REMARK    1  A    between atoms: N_2  and  C_16
REMARK    2  A    between atoms: C_17  and  C_23
REMARK    3  A    between atoms: C_19  and  O_21
REMARK    4  A    between atoms: C_23  and  O_24
REMARK                            x       y       z     vdW  Elec       q    Type
REMARK                         _______ _______ _______ _____ _____    ______ ____
ROOT
ATOM      1  O   UNL     1      -4.714   0.013   0.188  0.00  0.00    -0.268 OA
ATOM      2  N   UNL     1      -0.391  -1.280   0.422  0.00  0.00    -0.260 N 
ATOM      3  N   UNL     1      -2.515  -1.909   0.730  0.00  0.00    -0.240 NA
ATOM      4  N   UNL     1      -0.707   1.001  -0.325  0.00  0.00    -0.357 NA
ATOM      5  N   UNL     1      -3.042   1.535  -0.397  0.00  0.00    -0.243 N 
ATOM      6  N   UNL     1      -1.423   3.133  -1.004  0.00  0.00    -0.321 N 
ATOM      7  C   UNL     1      -1.159  -0.201   0.097  0.00  0.00    +0.210 C 
ATOM      8  C   UNL     1      -1.252  -2.282   0.797  0.00  0.00    +0.222 C 
ATOM      9  C   UNL     1      -2.453  -0.618   0.295  0.00  0.00    +0.176 C 
ATOM     10  C   UNL     1      -3.532   0.296   0.040  0.00  0.00    +0.273 C 
ATOM     11  C   UNL     1      -1.675   1.859  -0.567  0.00  0.00    +0.239 C 
ATOM     12  H   UNL     1      -3.702   2.236  -0.601  0.00  0.00    +0.159 HD
ATOM     13  H   UNL     1      -0.496   3.431  -1.145  0.00  0.00    +0.146 HD
ATOM     14  H   UNL     1      -2.170   3.751  -1.176  0.00  0.00    +0.146 HD
ENDROOT
BRANCH   2  16
ATOM     15  F   UNL     1       1.929  -2.323  -1.629  0.00  0.00    -0.233 F 
ATOM     16  C   UNL     1       1.119  -1.372   0.385  0.00  0.00    +0.112 C 
ATOM     17  C   UNL     1       2.643   0.548   0.350  0.00  0.00    +0.061 C 
ATOM     18  C   UNL     1       1.838  -0.350   1.294  0.00  0.00    +0.028 C 
ATOM     19  C   UNL     1       2.987  -0.387  -0.806  0.00  0.00    +0.147 C 
ATOM     20  C   UNL     1       1.680  -1.133  -1.025  0.00  0.00    +0.206 C 
BRANCH  19  21
ATOM     21  O   UNL     1       3.354   0.351  -1.957  0.00  0.00    -0.382 OA
ATOM     22  H   UNL     1       4.189   0.816  -1.790  0.00  0.00    +0.210 HD
ENDBRANCH  19  21
BRANCH  17  23
ATOM     23  C   UNL     1       3.868   1.163   1.009  0.00  0.00    +0.140 C 
BRANCH  23  24
ATOM     24  O   UNL     1       3.445   1.959   2.103  0.00  0.00    -0.382 OA
ATOM     25  H   UNL     1       4.219   2.356   2.531  0.00  0.00    +0.210 HD
ENDBRANCH  23  24
ENDBRANCH  17  23
ENDBRANCH   2  16
TORSDOF 4
