REMARK  Name = 135761164
REMARK  9 active torsions:
REMARK  status: ('A' for Active; 'I' for Inactive)
REMARK    1  A    between atoms: N_1  and  C_3
REMARK    2  A    between atoms: N_1  and  C_22
REMARK    3  A    between atoms: C_6  and  C_11
REMARK    4  A    between atoms: N_10  and  CA_13
REMARK    5  A    between atoms: CA_13  and  C_16
REMARK    6  A    between atoms: CA_13  and  CB_17
REMARK    7  A    between atoms: CB_17  and  CG_18
REMARK    8  A    between atoms: CG_18  and  CD_21
REMARK    9  A    between atoms: C_22  and  C_30
REMARK                            x       y       z     vdW  Elec       q    Type
REMARK                         _______ _______ _______ _____ _____    ______ ____
ROOT
ATOM      1  N   UNL     1       1.810   1.557  -0.610  0.00  0.00    -0.331 N 
ATOM      2  H   UNL     1       2.064   2.312  -0.031  0.00  0.00    +0.147 HD
ENDROOT
BRANCH   1   3
ATOM      3  C   UNL     1       0.469   1.196  -0.660  0.00  0.00    +0.045 C 
ATOM      4  C   UNL     1       0.062   0.133  -1.466  0.00  0.00    +0.014 C 
ATOM      5  C   UNL     1      -0.470   1.897   0.096  0.00  0.00    +0.014 C 
ATOM      6  C   UNL     1      -2.223   0.473  -0.760  0.00  0.00    +0.053 C 
ATOM      7  C   UNL     1      -1.284  -0.229  -1.516  0.00  0.00    +0.006 C 
ATOM      8  C   UNL     1      -1.816   1.536   0.045  0.00  0.00    +0.006 C 
BRANCH   6  11
ATOM      9  O   UNL     1      -4.090  -0.477  -1.815  0.00  0.00    -0.270 OA
ATOM     10  N   UNL     1      -4.404   0.383   0.315  0.00  0.00    -0.293 N 
ATOM     11  C   ACE A   0      -3.627   0.095  -0.812  0.00  0.00    +0.246 C 
ATOM     12  H   UNL     1      -3.973   0.838   1.074  0.00  0.00    +0.150 HD
BRANCH  10  13
ATOM     13  CA  UNL     1      -5.806   0.049   0.426  0.00  0.00    +0.177 C 
BRANCH  13  16
ATOM     14  O   UNL     1      -6.205   1.257   2.446  0.00  0.00    -0.244 OA
ATOM     15  OXT UNL     1      -7.401   1.785   0.575  0.00  0.00    -0.244 OA
ATOM     16  C   UNL     1      -6.541   1.133   1.236  0.00  0.00    +0.382 C 
ENDBRANCH  13  16
BRANCH  13  17
ATOM     17  CB  UNL     1      -5.994  -1.362   1.002  0.00  0.00    +0.043 C 
BRANCH  17  18
ATOM     18  CG  UNL     1      -7.446  -1.840   0.991  0.00  0.00    +0.116 C 
BRANCH  18  21
ATOM     19  OE1 UNL     1      -9.375  -1.568  -0.374  0.00  0.00    -0.246 OA
ATOM     20  OE2 UNL     1      -7.395  -2.172  -1.340  0.00  0.00    -0.246 OA
ATOM     21  CD  UNL     1      -8.146  -1.855  -0.373  0.00  0.00    +0.365 C 
ENDBRANCH  18  21
ENDBRANCH  17  18
ENDBRANCH  13  17
ENDBRANCH  10  13
ENDBRANCH   6  11
ENDBRANCH   1   3
BRANCH   1  22
ATOM     22  C   UNL     1       2.848   0.896  -1.351  0.00  0.00    +0.109 C 
BRANCH  22  30
ATOM     23  O   UNL     1       4.907  -0.467   2.712  0.00  0.00    -0.272 OA
ATOM     24  O   UNL     1       3.832   3.071   1.325  0.00  0.00    -0.265 OA
ATOM     25  N   UNL     1       4.695   1.149   0.283  0.00  0.00    -0.257 N 
ATOM     26  N   UNL     1       5.750  -0.059  -1.957  0.00  0.00    -0.308 N 
ATOM     27  N   UNL     1       6.586  -1.885  -0.672  0.00  0.00    -0.361 NA
ATOM     28  N   UNL     1       6.308  -1.913   1.648  0.00  0.00    -0.246 N 
ATOM     29  N   UNL     1       7.501  -3.620   0.607  0.00  0.00    -0.321 N 
ATOM     30  C   UNL     1       4.196   1.560  -1.050  0.00  0.00    +0.116 C 
ATOM     31  C   UNL     1       5.239   1.277  -2.131  0.00  0.00    +0.111 C 
ATOM     32  C   UNL     1       5.382  -0.075   0.381  0.00  0.00    +0.220 C 
ATOM     33  C   UNL     1       5.897  -0.685  -0.724  0.00  0.00    +0.187 C 
ATOM     34  C   UNL     1       5.511  -0.790   1.694  0.00  0.00    +0.255 C 
ATOM     35  C   UNL     1       4.435   2.002   1.356  0.00  0.00    +0.304 C 
ATOM     36  C   UNL     1       6.797  -2.453   0.477  0.00  0.00    +0.239 C 
ATOM     37  H   UNL     1       6.011  -0.560  -2.762  0.00  0.00    +0.149 HD
ATOM     38  H   UNL     1       6.541  -2.354   2.497  0.00  0.00    +0.159 HD
ATOM     39  H   UNL     1       7.878  -4.059  -0.190  0.00  0.00    +0.146 HD
ATOM     40  H   UNL     1       7.630  -4.021   1.496  0.00  0.00    +0.146 HD
ENDBRANCH  22  30
ENDBRANCH   1  22
TORSDOF 9
